# generated using pymatgen
data_KRb3(UI6)2
_symmetry_space_group_name_H-M   'P 1'
_cell_length_a   8.60208066
_cell_length_b   8.41070529
_cell_length_c   14.69980931
_cell_angle_alpha   54.94562588
_cell_angle_beta   90.06206437
_cell_angle_gamma   89.57887686
_symmetry_Int_Tables_number   1
_chemical_formula_structural   KRb3(UI6)2
_chemical_formula_sum   'K1 Rb3 U2 I12'
_cell_volume   870.56743037
_cell_formula_units_Z   1
loop_
 _symmetry_equiv_pos_site_id
 _symmetry_equiv_pos_as_xyz
  1  'x, y, z'
loop_
 _atom_site_type_symbol
 _atom_site_label
 _atom_site_symmetry_multiplicity
 _atom_site_fract_x
 _atom_site_fract_y
 _atom_site_fract_z
 _atom_site_occupancy
  K  K0  1  0.555145  0.263995  0.749635  1
  Rb  Rb1  1  0.449402  0.734673  0.250805  1
  Rb  Rb2  1  0.948550  0.266381  0.249015  1
  Rb  Rb3  1  0.050775  0.734177  0.750922  1
  U  U4  1  0.999353  0.001140  0.998718  1
  U  U5  1  0.500282  0.998934  0.501274  1
  I  I6  1  0.796935  0.323035  0.968771  1
  I  I7  1  0.501616  0.190483  0.253857  1
  I  I8  1  0.497925  0.815583  0.747616  1
  I  I9  1  0.290505  0.226081  0.970514  1
  I  I10  1  0.304597  0.669211  0.537604  1
  I  I11  1  0.209328  0.226148  0.474285  1
  I  I12  1  0.200855  0.677797  0.029729  1
  I  I13  1  0.790227  0.771379  0.526632  1
  I  I14  1  0.710224  0.776741  0.023485  1
  I  I15  1  0.004733  0.811567  0.245975  1
  I  I16  1  0.989183  0.191157  0.751751  1
  I  I17  1  0.700365  0.321518  0.469413  1
