# generated using pymatgen
data_Dy4Tm4Sc12Si15P
_symmetry_space_group_name_H-M   'P 1'
_cell_length_a   7.06101187
_cell_length_b   7.34783025
_cell_length_c   13.92925914
_cell_angle_alpha   90.00061116
_cell_angle_beta   90.01612762
_cell_angle_gamma   90.16502697
_symmetry_Int_Tables_number   1
_chemical_formula_structural   Dy4Tm4Sc12Si15P
_chemical_formula_sum   'Dy4 Tm4 Sc12 Si15 P1'
_cell_volume   722.69034928
_cell_formula_units_Z   1
loop_
 _symmetry_equiv_pos_site_id
 _symmetry_equiv_pos_as_xyz
  1  'x, y, z'
loop_
 _atom_site_type_symbol
 _atom_site_label
 _atom_site_symmetry_multiplicity
 _atom_site_fract_x
 _atom_site_fract_y
 _atom_site_fract_z
 _atom_site_occupancy
  Dy  Dy0  1  0.009947  0.175676  0.096402  1
  Dy  Dy1  1  0.991155  0.826520  0.900592  1
  Dy  Dy2  1  0.490150  0.675585  0.904620  1
  Dy  Dy3  1  0.991080  0.826264  0.598822  1
  Tm  Tm4  1  0.511155  0.323434  0.096471  1
  Tm  Tm5  1  0.010416  0.176384  0.403257  1
  Tm  Tm6  1  0.511145  0.323283  0.404103  1
  Tm  Tm7  1  0.489860  0.676315  0.595813  1
  Sc  Sc8  1  0.160250  0.502233  0.749803  1
  Sc  Sc9  1  0.838326  0.496767  0.250228  1
  Sc  Sc10  1  0.338542  0.003566  0.250249  1
  Sc  Sc11  1  0.662906  0.998724  0.749666  1
  Sc  Sc12  1  0.327889  0.173844  0.627043  1
  Sc  Sc13  1  0.667523  0.823252  0.375483  1
  Sc  Sc14  1  0.168405  0.676543  0.375212  1
  Sc  Sc15  1  0.667759  0.823235  0.125005  1
  Sc  Sc16  1  0.832709  0.323123  0.626238  1
  Sc  Sc17  1  0.328007  0.173538  0.872549  1
  Sc  Sc18  1  0.832364  0.323259  0.873349  1
  Sc  Sc19  1  0.168296  0.676471  0.125206  1
  Si  Si20  1  0.964852  0.885079  0.250415  1
  Si  Si21  1  0.466663  0.612591  0.250115  1
  Si  Si22  1  0.531357  0.384347  0.749561  1
  Si  Si23  1  0.296602  0.863194  0.749375  1
  Si  Si24  1  0.713878  0.127998  0.250657  1
  Si  Si25  1  0.215547  0.372128  0.250559  1
  Si  Si26  1  0.786049  0.628676  0.749444  1
  Si  Si27  1  0.159447  0.463152  0.539489  1
  Si  Si28  1  0.840794  0.534251  0.460965  1
  Si  Si29  1  0.339215  0.965990  0.460554  1
  Si  Si30  1  0.840662  0.535318  0.038818  1
  Si  Si31  1  0.659449  0.036722  0.539920  1
  Si  Si32  1  0.158120  0.463356  0.960323  1
  Si  Si33  1  0.659573  0.037780  0.960320  1
  Si  Si34  1  0.340664  0.966068  0.039512  1
  P  P35  1  0.029241  0.125333  0.749866  1
