# generated using pymatgen
data_YLu7In3Cu
_symmetry_space_group_name_H-M   'P 1'
_cell_length_a   10.32943400
_cell_length_b   10.32943565
_cell_length_c   6.79426400
_cell_angle_alpha   90.00000000
_cell_angle_beta   90.00000000
_cell_angle_gamma   120.00000753
_symmetry_Int_Tables_number   1
_chemical_formula_structural   YLu7In3Cu
_chemical_formula_sum   'Y2 Lu14 In6 Cu2'
_cell_volume   627.80697455
_cell_formula_units_Z   2
loop_
 _symmetry_equiv_pos_site_id
 _symmetry_equiv_pos_as_xyz
  1  'x, y, z'
loop_
 _atom_site_type_symbol
 _atom_site_label
 _atom_site_symmetry_multiplicity
 _atom_site_fract_x
 _atom_site_fract_y
 _atom_site_fract_z
 _atom_site_occupancy
  Y  Y0  1  0.000000  0.000000  0.498984  1
  Y  Y1  1  0.000000  0.000000  0.998984  1
  Lu  Lu2  1  0.473012  0.526988  0.477500  1
  Lu  Lu3  1  0.053977  0.526988  0.477500  1
  Lu  Lu4  1  0.473012  0.946023  0.477500  1
  Lu  Lu5  1  0.526988  0.473012  0.977500  1
  Lu  Lu6  1  0.946023  0.473012  0.977500  1
  Lu  Lu7  1  0.526988  0.053977  0.977500  1
  Lu  Lu8  1  0.822848  0.177152  0.269809  1
  Lu  Lu9  1  0.354304  0.177152  0.269809  1
  Lu  Lu10  1  0.822848  0.645696  0.269809  1
  Lu  Lu11  1  0.177152  0.822848  0.769809  1
  Lu  Lu12  1  0.645696  0.822848  0.769809  1
  Lu  Lu13  1  0.177152  0.354304  0.769809  1
  Lu  Lu14  1  0.333333  0.666667  0.103261  1
  Lu  Lu15  1  0.666667  0.333333  0.603261  1
  In  In16  1  0.164106  0.835894  0.240781  1
  In  In17  1  0.671787  0.835894  0.240781  1
  In  In18  1  0.164106  0.328213  0.240781  1
  In  In19  1  0.835894  0.164106  0.740781  1
  In  In20  1  0.328213  0.164106  0.740781  1
  In  In21  1  0.835894  0.671787  0.740781  1
  Cu  Cu22  1  0.333333  0.666667  0.705761  1
  Cu  Cu23  1  0.666667  0.333333  0.205761  1
