# generated using pymatgen
data_HfCo(BrO3)6
_symmetry_space_group_name_H-M   'P 1'
_cell_length_a   9.33270401
_cell_length_b   9.33270408
_cell_length_c   5.79398700
_cell_angle_alpha   90.00000000
_cell_angle_beta   90.00000000
_cell_angle_gamma   119.99999773
_symmetry_Int_Tables_number   1
_chemical_formula_structural   HfCo(BrO3)6
_chemical_formula_sum   'Hf1 Co1 Br6 O18'
_cell_volume   437.04197057
_cell_formula_units_Z   1
loop_
 _symmetry_equiv_pos_site_id
 _symmetry_equiv_pos_as_xyz
  1  'x, y, z'
loop_
 _atom_site_type_symbol
 _atom_site_label
 _atom_site_symmetry_multiplicity
 _atom_site_fract_x
 _atom_site_fract_y
 _atom_site_fract_z
 _atom_site_occupancy
  Hf  Hf0  1  0.333333  0.666667  0.633459  1
  Co  Co1  1  0.666667  0.333333  0.128237  1
  Br  Br2  1  0.347585  0.318283  0.457990  1
  Br  Br3  1  0.970698  0.652415  0.457990  1
  Br  Br4  1  0.012818  0.336407  0.959979  1
  Br  Br5  1  0.323589  0.987182  0.959979  1
  Br  Br6  1  0.663593  0.676411  0.959979  1
  Br  Br7  1  0.681717  0.029302  0.457990  1
  O  O8  1  0.814999  0.284198  0.901982  1
  O  O9  1  0.532331  0.817868  0.417817  1
  O  O10  1  0.285537  0.467669  0.417817  1
  O  O11  1  0.715802  0.530801  0.901982  1
  O  O12  1  0.469199  0.185001  0.901982  1
  O  O13  1  0.182132  0.714463  0.417817  1
  O  O14  1  0.415339  0.876807  0.837972  1
  O  O15  1  0.539631  0.418531  0.337232  1
  O  O16  1  0.830187  0.054257  0.283522  1
  O  O17  1  0.777994  0.830630  0.787602  1
  O  O18  1  0.052636  0.222006  0.787602  1
  O  O19  1  0.945743  0.775930  0.283522  1
  O  O20  1  0.224070  0.169813  0.283522  1
  O  O21  1  0.878900  0.460369  0.337232  1
  O  O22  1  0.581469  0.121100  0.337232  1
  O  O23  1  0.461468  0.584661  0.837972  1
  O  O24  1  0.123193  0.538532  0.837972  1
  O  O25  1  0.169370  0.947364  0.787602  1
