# generated using pymatgen
data_Nd4Y(IrO6)2
_symmetry_space_group_name_H-M   'P 1'
_cell_length_a   7.06099323
_cell_length_b   7.06099277
_cell_length_c   7.46668989
_cell_angle_alpha   74.49211801
_cell_angle_beta   74.49212041
_cell_angle_gamma   51.72150543
_symmetry_Int_Tables_number   1
_chemical_formula_structural   Nd4Y(IrO6)2
_chemical_formula_sum   'Nd4 Y1 Ir2 O12'
_cell_volume   279.03847575
_cell_formula_units_Z   1
loop_
 _symmetry_equiv_pos_site_id
 _symmetry_equiv_pos_as_xyz
  1  'x, y, z'
loop_
 _atom_site_type_symbol
 _atom_site_label
 _atom_site_symmetry_multiplicity
 _atom_site_fract_x
 _atom_site_fract_y
 _atom_site_fract_z
 _atom_site_occupancy
  Nd  Nd0  1  0.698097  0.698097  0.638238  1
  Nd  Nd1  1  0.695100  0.695100  0.165570  1
  Nd  Nd2  1  0.304934  0.304934  0.833345  1
  Nd  Nd3  1  0.001270  0.001270  0.498514  1
  Y  Y4  1  0.302545  0.302545  0.358446  1
  Ir  Ir5  1  0.751772  0.246740  0.002131  1
  Ir  Ir6  1  0.246740  0.751772  0.002131  1
  O  O7  1  0.100733  0.594655  0.567297  1
  O  O8  1  0.000150  0.000150  0.168991  1
  O  O9  1  0.397876  0.912028  0.423646  1
  O  O10  1  0.498478  0.498478  0.180588  1
  O  O11  1  0.105429  0.566306  0.088677  1
  O  O12  1  0.912028  0.397876  0.423646  1
  O  O13  1  0.998070  0.998070  0.832681  1
  O  O14  1  0.594655  0.100732  0.567297  1
  O  O15  1  0.498905  0.498905  0.825989  1
  O  O16  1  0.566306  0.105429  0.088677  1
  O  O17  1  0.429551  0.897360  0.917067  1
  O  O18  1  0.897360  0.429551  0.917067  1
