# generated using pymatgen
data_Rb6Na4TmTaP6
_symmetry_space_group_name_H-M   'P 1'
_cell_length_a   10.83694056
_cell_length_b   10.83694184
_cell_length_c   15.63674000
_cell_angle_alpha   90.00000000
_cell_angle_beta   90.00000000
_cell_angle_gamma   143.02489894
_symmetry_Int_Tables_number   1
_chemical_formula_structural   Rb6Na4TmTaP6
_chemical_formula_sum   'Rb12 Na8 Tm2 Ta2 P12'
_cell_volume   1104.51624112
_cell_formula_units_Z   2
loop_
 _symmetry_equiv_pos_site_id
 _symmetry_equiv_pos_as_xyz
  1  'x, y, z'
loop_
 _atom_site_type_symbol
 _atom_site_label
 _atom_site_symmetry_multiplicity
 _atom_site_fract_x
 _atom_site_fract_y
 _atom_site_fract_z
 _atom_site_occupancy
  Rb  Rb0  1  0.949635  0.609403  0.821592  1
  Rb  Rb1  1  0.550365  0.890597  0.321592  1
  Rb  Rb2  1  0.390597  0.050365  0.178408  1
  Rb  Rb3  1  0.052309  0.394950  0.175454  1
  Rb  Rb4  1  0.894950  0.552309  0.324546  1
  Rb  Rb5  1  0.447691  0.105050  0.675454  1
  Rb  Rb6  1  0.605050  0.947691  0.824546  1
  Rb  Rb7  1  0.280880  0.284539  0.316152  1
  Rb  Rb8  1  0.784539  0.780880  0.183848  1
  Rb  Rb9  1  0.219120  0.215461  0.816152  1
  Rb  Rb10  1  0.715461  0.719120  0.683848  1
  Rb  Rb11  1  0.109403  0.449635  0.678408  1
  Na  Na12  1  0.918925  0.081075  0.000000  1
  Na  Na13  1  0.581075  0.418925  0.500000  1
  Na  Na14  1  0.081064  0.918936  0.000000  1
  Na  Na15  1  0.418936  0.581064  0.500000  1
  Na  Na16  1  0.753897  0.246103  0.000000  1
  Na  Na17  1  0.746103  0.253897  0.500000  1
  Na  Na18  1  0.244836  0.755164  0.000000  1
  Na  Na19  1  0.255164  0.744836  0.500000  1
  Tm  Tm20  1  0.587001  0.412999  0.000000  1
  Tm  Tm21  1  0.912999  0.087001  0.500000  1
  Ta  Ta22  1  0.415461  0.584539  0.000000  1
  Ta  Ta23  1  0.084539  0.915461  0.500000  1
  P  P24  1  0.887418  0.567729  0.100287  1
  P  P25  1  0.432271  0.112582  0.899713  1
  P  P26  1  0.612582  0.932271  0.600287  1
  P  P27  1  0.948146  0.645057  0.590342  1
  P  P28  1  0.145057  0.448146  0.909658  1
  P  P29  1  0.551854  0.854943  0.090342  1
  P  P30  1  0.354943  0.051854  0.409658  1
  P  P31  1  0.206625  0.187515  0.586134  1
  P  P32  1  0.687515  0.706625  0.913866  1
  P  P33  1  0.293375  0.312485  0.086134  1
  P  P34  1  0.067729  0.387418  0.399713  1
  P  P35  1  0.812485  0.793375  0.413866  1
