# generated using pymatgen
data_Er4TaCrOs6
_symmetry_space_group_name_H-M   'P 1'
_cell_length_a   5.22014079
_cell_length_b   5.22014079
_cell_length_c   8.91116600
_cell_angle_alpha   90.00000000
_cell_angle_beta   90.00000000
_cell_angle_gamma   116.32640986
_symmetry_Int_Tables_number   1
_chemical_formula_structural   Er4TaCrOs6
_chemical_formula_sum   'Er4 Ta1 Cr1 Os6'
_cell_volume   217.64249315
_cell_formula_units_Z   1
loop_
 _symmetry_equiv_pos_site_id
 _symmetry_equiv_pos_as_xyz
  1  'x, y, z'
loop_
 _atom_site_type_symbol
 _atom_site_label
 _atom_site_symmetry_multiplicity
 _atom_site_fract_x
 _atom_site_fract_y
 _atom_site_fract_z
 _atom_site_occupancy
  Er  Er0  1  0.331572  0.668428  0.430933  1
  Er  Er1  1  0.670594  0.329406  0.560546  1
  Er  Er2  1  0.670594  0.329406  0.939454  1
  Er  Er3  1  0.331572  0.668428  0.069067  1
  Ta  Ta4  1  0.158814  0.841186  0.750000  1
  Cr  Cr5  1  0.840074  0.159926  0.250000  1
  Os  Os6  1  0.995808  0.004192  0.491554  1
  Os  Os7  1  0.995808  0.004192  0.008446  1
  Os  Os8  1  0.824943  0.644373  0.250000  1
  Os  Os9  1  0.355627  0.175057  0.250000  1
  Os  Os10  1  0.174788  0.350192  0.750000  1
  Os  Os11  1  0.649808  0.825212  0.750000  1
