# generated using pymatgen
data_YbSc5Al14(Si5Tc3)2
_symmetry_space_group_name_H-M   'P 1'
_cell_length_a   8.52629700
_cell_length_b   8.52629562
_cell_length_c   9.26359600
_cell_angle_alpha   90.00000000
_cell_angle_beta   90.00000000
_cell_angle_gamma   119.99979981
_symmetry_Int_Tables_number   1
_chemical_formula_structural   YbSc5Al14(Si5Tc3)2
_chemical_formula_sum   'Yb1 Sc5 Al14 Si10 Tc6'
_cell_volume   583.21939351
_cell_formula_units_Z   1
loop_
 _symmetry_equiv_pos_site_id
 _symmetry_equiv_pos_as_xyz
  1  'x, y, z'
loop_
 _atom_site_type_symbol
 _atom_site_label
 _atom_site_symmetry_multiplicity
 _atom_site_fract_x
 _atom_site_fract_y
 _atom_site_fract_z
 _atom_site_occupancy
  Yb  Yb0  1  0.196464  0.803536  0.250000  1
  Sc  Sc1  1  0.199730  0.400359  0.250000  1
  Sc  Sc2  1  0.599641  0.800270  0.250000  1
  Sc  Sc3  1  0.799459  0.200541  0.750000  1
  Sc  Sc4  1  0.799507  0.599303  0.750000  1
  Sc  Sc5  1  0.400697  0.200493  0.750000  1
  Al  Al6  1  0.163744  0.836256  0.915684  1
  Al  Al7  1  0.163744  0.326304  0.916741  1
  Al  Al8  1  0.673696  0.836256  0.916741  1
  Al  Al9  1  0.836781  0.163219  0.083282  1
  Al  Al10  1  0.834757  0.671815  0.081747  1
  Al  Al11  1  0.328185  0.165243  0.081747  1
  Al  Al12  1  0.836781  0.163219  0.416718  1
  Al  Al13  1  0.834757  0.671815  0.418253  1
  Al  Al14  1  0.328185  0.165243  0.418253  1
  Al  Al15  1  0.163744  0.836256  0.584316  1
  Al  Al16  1  0.163744  0.326304  0.583259  1
  Al  Al17  1  0.673696  0.836256  0.583259  1
  Al  Al18  1  0.996328  0.003672  0.250000  1
  Al  Al19  1  0.999970  0.000030  0.750000  1
  Si  Si20  1  0.563007  0.436993  0.250000  1
  Si  Si21  1  0.565757  0.128951  0.250000  1
  Si  Si22  1  0.871049  0.434243  0.250000  1
  Si  Si23  1  0.436342  0.563658  0.750000  1
  Si  Si24  1  0.436703  0.872776  0.750000  1
  Si  Si25  1  0.127224  0.563297  0.750000  1
  Si  Si26  1  0.334656  0.665344  0.453905  1
  Si  Si27  1  0.666735  0.333265  0.548550  1
  Si  Si28  1  0.666735  0.333265  0.951450  1
  Si  Si29  1  0.334656  0.665344  0.046095  1
  Tc  Tc30  1  0.500377  0.499623  0.501162  1
  Tc  Tc31  1  0.502335  0.000951  0.502397  1
  Tc  Tc32  1  0.999049  0.497665  0.502397  1
  Tc  Tc33  1  0.500377  0.499623  0.998838  1
  Tc  Tc34  1  0.502335  0.000951  0.997603  1
  Tc  Tc35  1  0.999049  0.497665  0.997603  1
