# generated using pymatgen
data_TiVGaRh5
_symmetry_space_group_name_H-M   'P 1'
_cell_length_a   3.96761000
_cell_length_b   5.38443100
_cell_length_c   10.64859100
_cell_angle_alpha   89.99883412
_cell_angle_beta   90.00000000
_cell_angle_gamma   90.00000000
_symmetry_Int_Tables_number   1
_chemical_formula_structural   TiVGaRh5
_chemical_formula_sum   'Ti2 V2 Ga2 Rh10'
_cell_volume   227.48928134
_cell_formula_units_Z   2
loop_
 _symmetry_equiv_pos_site_id
 _symmetry_equiv_pos_as_xyz
  1  'x, y, z'
loop_
 _atom_site_type_symbol
 _atom_site_label
 _atom_site_symmetry_multiplicity
 _atom_site_fract_x
 _atom_site_fract_y
 _atom_site_fract_z
 _atom_site_occupancy
  Ti  Ti0  1  0.500000  0.817471  0.361979  1
  Ti  Ti1  1  0.500000  0.182529  0.638021  1
  V  V2  1  0.500000  0.320875  0.141944  1
  V  V3  1  0.500000  0.679125  0.858056  1
  Ga  Ga4  1  0.000000  0.000000  0.000000  1
  Ga  Ga5  1  0.000000  0.500000  0.500000  1
  Rh  Rh6  1  0.000000  0.000000  0.500000  1
  Rh  Rh7  1  0.000000  0.500000  0.000000  1
  Rh  Rh8  1  0.000000  0.068754  0.242066  1
  Rh  Rh9  1  0.000000  0.931246  0.757934  1
  Rh  Rh10  1  0.000000  0.561768  0.250053  1
  Rh  Rh11  1  0.000000  0.438232  0.749947  1
  Rh  Rh12  1  0.500000  0.304159  0.383161  1
  Rh  Rh13  1  0.500000  0.695841  0.616839  1
  Rh  Rh14  1  0.500000  0.796249  0.109267  1
  Rh  Rh15  1  0.500000  0.203751  0.890733  1
