# generated using pymatgen
data_YbSc(Si7Ir3)2
_symmetry_space_group_name_H-M   'P 1'
_cell_length_a   7.99661316
_cell_length_b   7.99661356
_cell_length_c   7.99661323
_cell_angle_alpha   56.76908873
_cell_angle_beta   56.76908417
_cell_angle_gamma   56.76908788
_symmetry_Int_Tables_number   1
_chemical_formula_structural   YbSc(Si7Ir3)2
_chemical_formula_sum   'Yb1 Sc1 Si14 Ir6'
_cell_volume   334.61187762
_cell_formula_units_Z   1
loop_
 _symmetry_equiv_pos_site_id
 _symmetry_equiv_pos_as_xyz
  1  'x, y, z'
loop_
 _atom_site_type_symbol
 _atom_site_label
 _atom_site_symmetry_multiplicity
 _atom_site_fract_x
 _atom_site_fract_y
 _atom_site_fract_z
 _atom_site_occupancy
  Yb  Yb0  1  0.000000  0.000000  0.000000  1
  Sc  Sc1  1  0.500000  0.500000  0.500000  1
  Si  Si2  1  0.749981  0.749981  0.749981  1
  Si  Si3  1  0.250019  0.250019  0.250019  1
  Si  Si4  1  0.850789  0.065957  0.672592  1
  Si  Si5  1  0.672592  0.850789  0.065957  1
  Si  Si6  1  0.065957  0.672592  0.850789  1
  Si  Si7  1  0.649804  0.827221  0.434718  1
  Si  Si8  1  0.434718  0.649804  0.827221  1
  Si  Si9  1  0.827221  0.434718  0.649804  1
  Si  Si10  1  0.172779  0.565282  0.350196  1
  Si  Si11  1  0.565282  0.350196  0.172779  1
  Si  Si12  1  0.350196  0.172779  0.565282  1
  Si  Si13  1  0.934043  0.327408  0.149211  1
  Si  Si14  1  0.327408  0.149211  0.934043  1
  Si  Si15  1  0.149211  0.934043  0.327408  1
  Ir  Ir16  1  0.075353  0.430807  0.746447  1
  Ir  Ir17  1  0.253553  0.924647  0.569193  1
  Ir  Ir18  1  0.569193  0.253553  0.924647  1
  Ir  Ir19  1  0.924647  0.569193  0.253553  1
  Ir  Ir20  1  0.430807  0.746447  0.075353  1
  Ir  Ir21  1  0.746447  0.075353  0.430807  1
