# generated using pymatgen
data_NdDy15MgHg3Pt4
_symmetry_space_group_name_H-M   'P 1'
_cell_length_a   9.68986529
_cell_length_b   9.70247851
_cell_length_c   9.68146400
_cell_angle_alpha   60.07162127
_cell_angle_beta   60.02867661
_cell_angle_gamma   59.84930103
_symmetry_Int_Tables_number   1
_chemical_formula_structural   NdDy15MgHg3Pt4
_chemical_formula_sum   'Nd1 Dy15 Mg1 Hg3 Pt4'
_cell_volume   643.36482733
_cell_formula_units_Z   1
loop_
 _symmetry_equiv_pos_site_id
 _symmetry_equiv_pos_as_xyz
  1  'x, y, z'
loop_
 _atom_site_type_symbol
 _atom_site_label
 _atom_site_symmetry_multiplicity
 _atom_site_fract_x
 _atom_site_fract_y
 _atom_site_fract_z
 _atom_site_occupancy
  Nd  Nd0  1  0.936227  0.931960  0.565906  1
  Dy  Dy1  1  0.352408  0.351671  0.348635  1
  Dy  Dy2  1  0.352408  0.351671  0.947287  1
  Dy  Dy3  1  0.356442  0.941786  0.350887  1
  Dy  Dy4  1  0.933025  0.357205  0.354886  1
  Dy  Dy5  1  0.808403  0.192705  0.190529  1
  Dy  Dy6  1  0.188510  0.812295  0.811335  1
  Dy  Dy7  1  0.188510  0.812295  0.187860  1
  Dy  Dy8  1  0.808403  0.192705  0.808363  1
  Dy  Dy9  1  0.187406  0.191289  0.810653  1
  Dy  Dy10  1  0.808836  0.810370  0.190397  1
  Dy  Dy11  1  0.934298  0.561608  0.565125  1
  Dy  Dy12  1  0.559951  0.937676  0.937153  1
  Dy  Dy13  1  0.559951  0.937676  0.565219  1
  Dy  Dy14  1  0.934298  0.561608  0.938968  1
  Dy  Dy15  1  0.564201  0.565942  0.934928  1
  Mg  Mg16  1  0.285578  0.569095  0.572664  1
  Hg  Hg17  1  0.582914  0.587761  0.588388  1
  Hg  Hg18  1  0.582914  0.587761  0.240937  1
  Hg  Hg19  1  0.579757  0.241587  0.589328  1
  Pt  Pt20  1  0.142734  0.145248  0.144077  1
  Pt  Pt21  1  0.142734  0.145248  0.567941  1
  Pt  Pt22  1  0.139198  0.570439  0.145181  1
  Pt  Pt23  1  0.570895  0.142398  0.143353  1
