# generated using pymatgen
data_CrBi(BO3)2
_symmetry_space_group_name_H-M   'P 1'
_cell_length_a   6.02645607
_cell_length_b   6.02643446
_cell_length_c   6.02645035
_cell_angle_alpha   47.91183572
_cell_angle_beta   47.91094415
_cell_angle_gamma   47.91144423
_symmetry_Int_Tables_number   1
_chemical_formula_structural   CrBi(BO3)2
_chemical_formula_sum   'Cr1 Bi1 B2 O6'
_cell_volume   110.40543988
_cell_formula_units_Z   1
loop_
 _symmetry_equiv_pos_site_id
 _symmetry_equiv_pos_as_xyz
  1  'x, y, z'
loop_
 _atom_site_type_symbol
 _atom_site_label
 _atom_site_symmetry_multiplicity
 _atom_site_fract_x
 _atom_site_fract_y
 _atom_site_fract_z
 _atom_site_occupancy
  Cr  Cr0  1  0.500000  0.500000  0.500000  1
  Bi  Bi1  1  0.000000  0.000000  0.000000  1
  B  B2  1  0.238499  0.238509  0.238497  1
  B  B3  1  0.761501  0.761491  0.761503  1
  O  O4  1  0.717963  0.059790  0.497978  1
  O  O5  1  0.940199  0.502037  0.282041  1
  O  O6  1  0.502031  0.282052  0.940198  1
  O  O7  1  0.497969  0.717948  0.059802  1
  O  O8  1  0.059801  0.497963  0.717959  1
  O  O9  1  0.282037  0.940210  0.502022  1
