# generated using pymatgen
data_Ti6MnTc2Ir3
_symmetry_space_group_name_H-M   'P 1'
_cell_length_a   4.35906500
_cell_length_b   6.16931700
_cell_length_c   13.10030700
_cell_angle_alpha   90.00000000
_cell_angle_beta   89.99975485
_cell_angle_gamma   90.00000000
_symmetry_Int_Tables_number   1
_chemical_formula_structural   Ti6MnTc2Ir3
_chemical_formula_sum   'Ti12 Mn2 Tc4 Ir6'
_cell_volume   352.29940087
_cell_formula_units_Z   2
loop_
 _symmetry_equiv_pos_site_id
 _symmetry_equiv_pos_as_xyz
  1  'x, y, z'
loop_
 _atom_site_type_symbol
 _atom_site_label
 _atom_site_symmetry_multiplicity
 _atom_site_fract_x
 _atom_site_fract_y
 _atom_site_fract_z
 _atom_site_occupancy
  Ti  Ti0  1  0.499998  0.251884  0.997410  1
  Ti  Ti1  1  0.499998  0.748117  0.997410  1
  Ti  Ti2  1  0.000001  0.249689  0.166208  1
  Ti  Ti3  1  0.000001  0.750310  0.166208  1
  Ti  Ti4  1  0.500005  0.250320  0.333778  1
  Ti  Ti5  1  0.500005  0.749681  0.333778  1
  Ti  Ti6  1  0.999997  0.248109  0.502600  1
  Ti  Ti7  1  0.999997  0.751890  0.502600  1
  Ti  Ti8  1  0.499992  0.248243  0.668666  1
  Ti  Ti9  1  0.499992  0.751758  0.668666  1
  Ti  Ti10  1  0.999995  0.251711  0.831323  1
  Ti  Ti11  1  0.999995  0.748288  0.831323  1
  Mn  Mn12  1  0.000009  0.000000  0.667192  1
  Mn  Mn13  1  0.500009  0.500000  0.832854  1
  Tc  Tc14  1  0.999999  0.000000  0.998705  1
  Tc  Tc15  1  0.500004  0.500000  0.165927  1
  Tc  Tc16  1  0.000006  0.000000  0.334062  1
  Tc  Tc17  1  0.499999  0.500000  0.501295  1
  Ir  Ir18  1  0.999997  0.500000  0.997807  1
  Ir  Ir19  1  0.500004  0.000000  0.165989  1
  Ir  Ir20  1  0.000006  0.500000  0.334003  1
  Ir  Ir21  1  0.500001  0.000000  0.502194  1
  Ir  Ir22  1  0.999993  0.500000  0.668118  1
  Ir  Ir23  1  0.499997  0.000000  0.831883  1
