# generated using pymatgen
data_Y10Si5Te
_symmetry_space_group_name_H-M   'P 1'
_cell_length_a   8.50651000
_cell_length_b   8.56873045
_cell_length_c   6.34130800
_cell_angle_alpha   90.00000000
_cell_angle_beta   90.00000000
_cell_angle_gamma   119.76008618
_symmetry_Int_Tables_number   1
_chemical_formula_structural   Y10Si5Te
_chemical_formula_sum   'Y10 Si5 Te1'
_cell_volume   401.25663726
_cell_formula_units_Z   1
loop_
 _symmetry_equiv_pos_site_id
 _symmetry_equiv_pos_as_xyz
  1  'x, y, z'
loop_
 _atom_site_type_symbol
 _atom_site_label
 _atom_site_symmetry_multiplicity
 _atom_site_fract_x
 _atom_site_fract_y
 _atom_site_fract_z
 _atom_site_occupancy
  Y  Y0  1  0.986081  0.744442  0.750000  1
  Y  Y1  1  0.999377  0.245368  0.250000  1
  Y  Y2  1  0.754009  0.754632  0.250000  1
  Y  Y3  1  0.764782  0.000000  0.750000  1
  Y  Y4  1  0.241639  0.255558  0.750000  1
  Y  Y5  1  0.242378  0.000000  0.250000  1
  Y  Y6  1  0.331047  0.655586  0.496930  1
  Y  Y7  1  0.675462  0.344414  0.003070  1
  Y  Y8  1  0.675462  0.344414  0.496930  1
  Y  Y9  1  0.331047  0.655586  0.003070  1
  Si  Si10  1  0.392912  0.389649  0.250000  1
  Si  Si11  1  0.003263  0.610351  0.250000  1
  Si  Si12  1  0.999124  0.394368  0.750000  1
  Si  Si13  1  0.604756  0.605632  0.750000  1
  Si  Si14  1  0.607848  0.000000  0.250000  1
  Te  Te15  1  0.390812  0.000000  0.750000  1
