# generated using pymatgen
data_Er8MgInPt2
_symmetry_space_group_name_H-M   'P 1'
_cell_length_a   9.66791495
_cell_length_b   9.66222879
_cell_length_c   9.66788000
_cell_angle_alpha   59.91994686
_cell_angle_beta   59.95013802
_cell_angle_gamma   59.92040666
_symmetry_Int_Tables_number   1
_chemical_formula_structural   Er8MgInPt2
_chemical_formula_sum   'Er16 Mg2 In2 Pt4'
_cell_volume   637.58460286
_cell_formula_units_Z   2
loop_
 _symmetry_equiv_pos_site_id
 _symmetry_equiv_pos_as_xyz
  1  'x, y, z'
loop_
 _atom_site_type_symbol
 _atom_site_label
 _atom_site_symmetry_multiplicity
 _atom_site_fract_x
 _atom_site_fract_y
 _atom_site_fract_z
 _atom_site_occupancy
  Er  Er0  1  0.064537  0.062713  0.436420  1
  Er  Er1  1  0.648862  0.051586  0.648813  1
  Er  Er2  1  0.192168  0.805845  0.192190  1
  Er  Er3  1  0.433951  0.065783  0.433941  1
  Er  Er4  1  0.190514  0.190779  0.808672  1
  Er  Er5  1  0.652496  0.651627  0.652505  1
  Er  Er6  1  0.054457  0.648825  0.645987  1
  Er  Er7  1  0.436343  0.062702  0.064625  1
  Er  Er8  1  0.645968  0.648772  0.054496  1
  Er  Er9  1  0.191318  0.809445  0.809510  1
  Er  Er10  1  0.812261  0.187236  0.812196  1
  Er  Er11  1  0.808691  0.190796  0.190514  1
  Er  Er12  1  0.809529  0.809429  0.191346  1
  Er  Er13  1  0.065860  0.433662  0.434021  1
  Er  Er14  1  0.434048  0.433673  0.065820  1
  Er  Er15  1  0.063994  0.436093  0.064065  1
  Mg  Mg16  1  0.736240  0.422214  0.421042  1
  Mg  Mg17  1  0.421116  0.422169  0.736208  1
  In  In18  1  0.418181  0.748017  0.418184  1
  In  In19  1  0.417249  0.416023  0.417287  1
  Pt  Pt20  1  0.426268  0.858856  0.859913  1
  Pt  Pt21  1  0.859901  0.858876  0.426257  1
  Pt  Pt22  1  0.859074  0.427829  0.859048  1
  Pt  Pt23  1  0.856977  0.857055  0.856943  1
