# generated using pymatgen
data_Y4Ti3AlIr4
_symmetry_space_group_name_H-M   'P 1'
_cell_length_a   4.34332600
_cell_length_b   6.97759690
_cell_length_c   8.00677498
_cell_angle_alpha   92.55443153
_cell_angle_beta   90.00000000
_cell_angle_gamma   90.00000000
_symmetry_Int_Tables_number   1
_chemical_formula_structural   Y4Ti3AlIr4
_chemical_formula_sum   'Y4 Ti3 Al1 Ir4'
_cell_volume   242.41202968
_cell_formula_units_Z   1
loop_
 _symmetry_equiv_pos_site_id
 _symmetry_equiv_pos_as_xyz
  1  'x, y, z'
loop_
 _atom_site_type_symbol
 _atom_site_label
 _atom_site_symmetry_multiplicity
 _atom_site_fract_x
 _atom_site_fract_y
 _atom_site_fract_z
 _atom_site_occupancy
  Y  Y0  1  0.250000  0.980965  0.316242  1
  Y  Y1  1  0.250000  0.472241  0.174255  1
  Y  Y2  1  0.750000  0.025791  0.686226  1
  Y  Y3  1  0.750000  0.514259  0.823566  1
  Ti  Ti4  1  0.250000  0.365502  0.568682  1
  Ti  Ti5  1  0.250000  0.866009  0.939821  1
  Ti  Ti6  1  0.750000  0.634129  0.431521  1
  Al  Al7  1  0.750000  0.144522  0.068841  1
  Ir  Ir8  1  0.250000  0.220635  0.881070  1
  Ir  Ir9  1  0.250000  0.723074  0.599855  1
  Ir  Ir10  1  0.750000  0.774445  0.110061  1
  Ir  Ir11  1  0.750000  0.278427  0.399859  1
