# generated using pymatgen
data_Sc17Re2Si16W
_symmetry_space_group_name_H-M   'P 1'
_cell_length_a   6.75442800
_cell_length_b   7.08356342
_cell_length_c   13.38317100
_cell_angle_alpha   90.00000000
_cell_angle_beta   90.00000000
_cell_angle_gamma   89.78597638
_symmetry_Int_Tables_number   1
_chemical_formula_structural   Sc17Re2Si16W
_chemical_formula_sum   'Sc17 Re2 Si16 W1'
_cell_volume   640.31895808
_cell_formula_units_Z   1
loop_
 _symmetry_equiv_pos_site_id
 _symmetry_equiv_pos_as_xyz
  1  'x, y, z'
loop_
 _atom_site_type_symbol
 _atom_site_label
 _atom_site_symmetry_multiplicity
 _atom_site_fract_x
 _atom_site_fract_y
 _atom_site_fract_z
 _atom_site_occupancy
  Sc  Sc0  1  0.353353  0.493676  0.250000  1
  Sc  Sc1  1  0.989170  0.679310  0.595026  1
  Sc  Sc2  1  0.012866  0.316603  0.404973  1
  Sc  Sc3  1  0.515068  0.180444  0.408234  1
  Sc  Sc4  1  0.012866  0.316603  0.095027  1
  Sc  Sc5  1  0.485381  0.819573  0.598765  1
  Sc  Sc6  1  0.989170  0.679310  0.904974  1
  Sc  Sc7  1  0.485381  0.819573  0.901235  1
  Sc  Sc8  1  0.515068  0.180444  0.091766  1
  Sc  Sc9  1  0.322747  0.325832  0.628759  1
  Sc  Sc10  1  0.678576  0.672593  0.377392  1
  Sc  Sc11  1  0.179525  0.834878  0.373588  1
  Sc  Sc12  1  0.678576  0.672593  0.122608  1
  Sc  Sc13  1  0.818953  0.168559  0.625488  1
  Sc  Sc14  1  0.322747  0.325832  0.871241  1
  Sc  Sc15  1  0.818953  0.168559  0.874512  1
  Sc  Sc16  1  0.179525  0.834878  0.126412  1
  Re  Re17  1  0.858888  0.001997  0.250000  1
  Re  Re18  1  0.646674  0.502087  0.750000  1
  Si  Si19  1  0.010377  0.402035  0.750000  1
  Si  Si20  1  0.977205  0.612337  0.250000  1
  Si  Si21  1  0.494059  0.908384  0.250000  1
  Si  Si22  1  0.515162  0.091879  0.750000  1
  Si  Si23  1  0.281744  0.642254  0.750000  1
  Si  Si24  1  0.725399  0.347726  0.250000  1
  Si  Si25  1  0.214949  0.141941  0.250000  1
  Si  Si26  1  0.783472  0.849872  0.750000  1
  Si  Si27  1  0.158730  0.026616  0.547171  1
  Si  Si28  1  0.843095  0.972392  0.453482  1
  Si  Si29  1  0.335776  0.535925  0.464839  1
  Si  Si30  1  0.843095  0.972392  0.046518  1
  Si  Si31  1  0.655810  0.473948  0.550775  1
  Si  Si32  1  0.158730  0.026616  0.952829  1
  Si  Si33  1  0.655810  0.473948  0.949225  1
  Si  Si34  1  0.335776  0.535925  0.035161  1
  W  W35  1  0.147324  0.992462  0.750000  1
