# generated using pymatgen
data_LiHoEr7InRh2
_symmetry_space_group_name_H-M   'P 1'
_cell_length_a   9.58350239
_cell_length_b   9.55904819
_cell_length_c   9.55964697
_cell_angle_alpha   60.11242821
_cell_angle_beta   59.84496199
_cell_angle_gamma   59.86028268
_symmetry_Int_Tables_number   1
_chemical_formula_structural   LiHoEr7InRh2
_chemical_formula_sum   'Li2 Ho2 Er14 In2 Rh4'
_cell_volume   618.38749816
_cell_formula_units_Z   2
loop_
 _symmetry_equiv_pos_site_id
 _symmetry_equiv_pos_as_xyz
  1  'x, y, z'
loop_
 _atom_site_type_symbol
 _atom_site_label
 _atom_site_symmetry_multiplicity
 _atom_site_fract_x
 _atom_site_fract_y
 _atom_site_fract_z
 _atom_site_occupancy
  Li  Li0  1  0.427793  0.718248  0.426455  1
  Li  Li1  1  0.427843  0.426467  0.718238  1
  Ho  Ho2  1  0.187155  0.189195  0.811868  1
  Ho  Ho3  1  0.439223  0.060051  0.060249  1
  Er  Er4  1  0.434385  0.063489  0.435727  1
  Er  Er5  1  0.064454  0.436562  0.063397  1
  Er  Er6  1  0.651916  0.050926  0.645413  1
  Er  Er7  1  0.183684  0.816697  0.816811  1
  Er  Er8  1  0.064514  0.063375  0.436405  1
  Er  Er9  1  0.807741  0.191651  0.191835  1
  Er  Er10  1  0.812491  0.811328  0.189879  1
  Er  Er11  1  0.651703  0.645614  0.051020  1
  Er  Er12  1  0.654316  0.653430  0.653303  1
  Er  Er13  1  0.063699  0.435714  0.435522  1
  Er  Er14  1  0.040272  0.652276  0.652000  1
  Er  Er15  1  0.812343  0.189878  0.811329  1
  Er  Er16  1  0.434270  0.435853  0.063532  1
  Er  Er17  1  0.187055  0.811679  0.189358  1
  In  In18  1  0.745998  0.420439  0.420409  1
  In  In19  1  0.415162  0.419648  0.419599  1
  Rh  Rh20  1  0.856276  0.427275  0.859908  1
  Rh  Rh21  1  0.856657  0.859879  0.426989  1
  Rh  Rh22  1  0.427955  0.859904  0.860336  1
  Rh  Rh23  1  0.853096  0.860422  0.860418  1
