# generated using pymatgen
data_KV(NiSe2)2
_symmetry_space_group_name_H-M   'P 1'
_cell_length_a   9.69567101
_cell_length_b   9.69567122
_cell_length_c   7.43398800
_cell_angle_alpha   90.00000000
_cell_angle_beta   90.00000000
_cell_angle_gamma   146.73725052
_symmetry_Int_Tables_number   1
_chemical_formula_structural   KV(NiSe2)2
_chemical_formula_sum   'K2 V2 Ni4 Se8'
_cell_volume   383.29914786
_cell_formula_units_Z   2
loop_
 _symmetry_equiv_pos_site_id
 _symmetry_equiv_pos_as_xyz
  1  'x, y, z'
loop_
 _atom_site_type_symbol
 _atom_site_label
 _atom_site_symmetry_multiplicity
 _atom_site_fract_x
 _atom_site_fract_y
 _atom_site_fract_z
 _atom_site_occupancy
  K  K0  1  0.176357  0.805352  0.750000  1
  K  K1  1  0.805352  0.176357  0.250000  1
  V  V2  1  0.640381  0.859827  0.750000  1
  V  V3  1  0.859827  0.640381  0.250000  1
  Ni  Ni4  1  0.734893  0.734893  0.500000  1
  Ni  Ni5  1  0.734893  0.734893  0.000000  1
  Ni  Ni6  1  0.357141  0.140683  0.250000  1
  Ni  Ni7  1  0.140683  0.357141  0.750000  1
  Se  Se8  1  0.608675  0.397476  0.997735  1
  Se  Se9  1  0.397476  0.608676  0.497735  1
  Se  Se10  1  0.987059  0.999099  0.750000  1
  Se  Se11  1  0.397476  0.608676  0.002265  1
  Se  Se12  1  0.207637  0.787735  0.250000  1
  Se  Se13  1  0.787735  0.207637  0.750000  1
  Se  Se14  1  0.999099  0.987059  0.250000  1
  Se  Se15  1  0.608675  0.397476  0.502265  1
