# generated using pymatgen
data_Ho4LuPt15
_symmetry_space_group_name_H-M   'P 1'
_cell_length_a   4.11089100
_cell_length_b   4.11089100
_cell_length_c   20.47086300
_cell_angle_alpha   90.00000000
_cell_angle_beta   90.00000000
_cell_angle_gamma   90.00000000
_symmetry_Int_Tables_number   1
_chemical_formula_structural   Ho4LuPt15
_chemical_formula_sum   'Ho4 Lu1 Pt15'
_cell_volume   345.94581014
_cell_formula_units_Z   1
loop_
 _symmetry_equiv_pos_site_id
 _symmetry_equiv_pos_as_xyz
  1  'x, y, z'
loop_
 _atom_site_type_symbol
 _atom_site_label
 _atom_site_symmetry_multiplicity
 _atom_site_fract_x
 _atom_site_fract_y
 _atom_site_fract_z
 _atom_site_occupancy
  Ho  Ho0  1  0.000000  0.000000  0.198196  1
  Ho  Ho1  1  0.000000  0.000000  0.399190  1
  Ho  Ho2  1  0.000000  0.000000  0.600810  1
  Ho  Ho3  1  0.000000  0.000000  0.801804  1
  Lu  Lu4  1  0.000000  0.000000  0.000000  1
  Pt  Pt5  1  0.500000  0.500000  0.000000  1
  Pt  Pt6  1  0.500000  0.500000  0.197683  1
  Pt  Pt7  1  0.500000  0.500000  0.399127  1
  Pt  Pt8  1  0.500000  0.500000  0.600873  1
  Pt  Pt9  1  0.500000  0.500000  0.802317  1
  Pt  Pt10  1  0.500000  0.000000  0.097665  1
  Pt  Pt11  1  0.500000  0.000000  0.298371  1
  Pt  Pt12  1  0.500000  0.000000  0.500000  1
  Pt  Pt13  1  0.500000  0.000000  0.701629  1
  Pt  Pt14  1  0.500000  0.000000  0.902335  1
  Pt  Pt15  1  0.000000  0.500000  0.097665  1
  Pt  Pt16  1  0.000000  0.500000  0.298371  1
  Pt  Pt17  1  0.000000  0.500000  0.500000  1
  Pt  Pt18  1  0.000000  0.500000  0.701629  1
  Pt  Pt19  1  0.000000  0.500000  0.902335  1
