# generated using pymatgen
data_Na2MnGeO4
_symmetry_space_group_name_H-M   'P 1'
_cell_length_a   5.83426700
_cell_length_b   5.50801556
_cell_length_c   9.07115013
_cell_angle_alpha   52.76236149
_cell_angle_beta   90.00000000
_cell_angle_gamma   90.00000000
_symmetry_Int_Tables_number   1
_chemical_formula_structural   Na2MnGeO4
_chemical_formula_sum   'Na4 Mn2 Ge2 O8'
_cell_volume   232.07545348
_cell_formula_units_Z   2
loop_
 _symmetry_equiv_pos_site_id
 _symmetry_equiv_pos_as_xyz
  1  'x, y, z'
loop_
 _atom_site_type_symbol
 _atom_site_label
 _atom_site_symmetry_multiplicity
 _atom_site_fract_x
 _atom_site_fract_y
 _atom_site_fract_z
 _atom_site_occupancy
  Na  Na0  1  0.667435  0.736655  0.252945  1
  Na  Na1  1  0.820693  0.484265  0.008323  1
  Na  Na2  1  0.332565  0.736655  0.752945  1
  Na  Na3  1  0.179307  0.484265  0.508323  1
  Mn  Mn4  1  0.816689  0.997458  0.501326  1
  Mn  Mn5  1  0.183311  0.997458  0.001326  1
  Ge  Ge6  1  0.683911  0.248321  0.755006  1
  Ge  Ge7  1  0.316089  0.248321  0.255006  1
  O  O8  1  0.198712  0.321847  0.049838  1
  O  O9  1  0.801288  0.321847  0.549838  1
  O  O10  1  0.160840  0.955981  0.457480  1
  O  O11  1  0.839160  0.955981  0.957480  1
  O  O12  1  0.298153  0.589991  0.235519  1
  O  O13  1  0.389320  0.141381  0.775065  1
  O  O14  1  0.610680  0.141381  0.275065  1
  O  O15  1  0.701847  0.589991  0.735519  1
