# generated using pymatgen
data_CeYHo6AlPd24
_symmetry_space_group_name_H-M   'P 1'
_cell_length_a   8.34796312
_cell_length_b   8.34796368
_cell_length_c   8.34796356
_cell_angle_alpha   89.98183039
_cell_angle_beta   90.01817135
_cell_angle_gamma   90.01816536
_symmetry_Int_Tables_number   1
_chemical_formula_structural   CeYHo6AlPd24
_chemical_formula_sum   'Ce1 Y1 Ho6 Al1 Pd24'
_cell_volume   581.75691136
_cell_formula_units_Z   1
loop_
 _symmetry_equiv_pos_site_id
 _symmetry_equiv_pos_as_xyz
  1  'x, y, z'
loop_
 _atom_site_type_symbol
 _atom_site_label
 _atom_site_symmetry_multiplicity
 _atom_site_fract_x
 _atom_site_fract_y
 _atom_site_fract_z
 _atom_site_occupancy
  Ce  Ce0  1  0.746103  0.253897  0.253897  1
  Y  Y1  1  0.252069  0.747931  0.747931  1
  Ho  Ho2  1  0.251190  0.252018  0.252018  1
  Ho  Ho3  1  0.747968  0.747802  0.747802  1
  Ho  Ho4  1  0.747982  0.748810  0.252018  1
  Ho  Ho5  1  0.747982  0.252018  0.748810  1
  Ho  Ho6  1  0.252198  0.252032  0.747802  1
  Ho  Ho7  1  0.252198  0.747802  0.252032  1
  Al  Al8  1  0.000990  0.999010  0.999010  1
  Pd  Pd9  1  0.259471  0.499177  0.000647  1
  Pd  Pd10  1  0.740607  0.499249  0.001466  1
  Pd  Pd11  1  0.998534  0.259393  0.499249  1
  Pd  Pd12  1  0.500751  0.259393  0.001466  1
  Pd  Pd13  1  0.999353  0.740529  0.499177  1
  Pd  Pd14  1  0.500823  0.740529  0.000647  1
  Pd  Pd15  1  0.500751  0.001466  0.259393  1
  Pd  Pd16  1  0.259471  0.000647  0.499177  1
  Pd  Pd17  1  0.500823  0.000647  0.740529  1
  Pd  Pd18  1  0.740607  0.001466  0.499249  1
  Pd  Pd19  1  0.998534  0.499249  0.259393  1
  Pd  Pd20  1  0.999353  0.499177  0.740529  1
  Pd  Pd21  1  0.252569  0.499160  0.499160  1
  Pd  Pd22  1  0.746921  0.499491  0.499491  1
  Pd  Pd23  1  0.500509  0.253079  0.499491  1
  Pd  Pd24  1  0.500840  0.747431  0.499160  1
  Pd  Pd25  1  0.500509  0.499491  0.253079  1
  Pd  Pd26  1  0.500840  0.499160  0.747431  1
  Pd  Pd27  1  0.289025  0.000615  0.000615  1
  Pd  Pd28  1  0.712026  0.999882  0.999882  1
  Pd  Pd29  1  0.000118  0.287974  0.999882  1
  Pd  Pd30  1  0.999385  0.710975  0.000615  1
  Pd  Pd31  1  0.000118  0.999882  0.287974  1
  Pd  Pd32  1  0.999385  0.000615  0.710975  1
