# generated using pymatgen
data_Dy8ZnSiI12
_symmetry_space_group_name_H-M   'P 1'
_cell_length_a   4.18761400
_cell_length_b   14.07181725
_cell_length_c   14.83339237
_cell_angle_alpha   89.93521104
_cell_angle_beta   90.00000000
_cell_angle_gamma   90.00000000
_symmetry_Int_Tables_number   1
_chemical_formula_structural   Dy8ZnSiI12
_chemical_formula_sum   'Dy8 Zn1 Si1 I12'
_cell_volume   874.09178071
_cell_formula_units_Z   1
loop_
 _symmetry_equiv_pos_site_id
 _symmetry_equiv_pos_as_xyz
  1  'x, y, z'
loop_
 _atom_site_type_symbol
 _atom_site_label
 _atom_site_symmetry_multiplicity
 _atom_site_fract_x
 _atom_site_fract_y
 _atom_site_fract_z
 _atom_site_occupancy
  Dy  Dy0  1  0.500000  0.114767  0.346761  1
  Dy  Dy1  1  0.500000  0.885233  0.653239  1
  Dy  Dy2  1  0.500000  0.613281  0.151827  1
  Dy  Dy3  1  0.500000  0.386719  0.848173  1
  Dy  Dy4  1  0.000000  0.114134  0.577041  1
  Dy  Dy5  1  0.000000  0.885866  0.422959  1
  Dy  Dy6  1  0.000000  0.610797  0.925400  1
  Dy  Dy7  1  0.000000  0.389203  0.074600  1
  Zn  Zn8  1  0.500000  0.000000  0.500000  1
  Si  Si9  1  0.500000  0.500000  0.000000  1
  I  I10  1  0.500000  0.247495  0.162948  1
  I  I11  1  0.500000  0.752505  0.837052  1
  I  I12  1  0.500000  0.745595  0.334716  1
  I  I13  1  0.500000  0.254405  0.665284  1
  I  I14  1  0.000000  0.261032  0.414483  1
  I  I15  1  0.000000  0.738968  0.585517  1
  I  I16  1  0.000000  0.757319  0.084640  1
  I  I17  1  0.000000  0.242681  0.915360  1
  I  I18  1  0.000000  0.999105  0.237502  1
  I  I19  1  0.000000  0.000895  0.762498  1
  I  I20  1  0.000000  0.498830  0.258666  1
  I  I21  1  0.000000  0.501170  0.741334  1
