# generated using pymatgen
data_YbPa(CoGe)2
_symmetry_space_group_name_H-M   'P 1'
_cell_length_a   4.33687500
_cell_length_b   7.23393268
_cell_length_c   6.94511383
_cell_angle_alpha   93.48205203
_cell_angle_beta   90.00000000
_cell_angle_gamma   90.00000000
_symmetry_Int_Tables_number   1
_chemical_formula_structural   YbPa(CoGe)2
_chemical_formula_sum   'Yb2 Pa2 Co4 Ge4'
_cell_volume   217.48446082
_cell_formula_units_Z   2
loop_
 _symmetry_equiv_pos_site_id
 _symmetry_equiv_pos_as_xyz
  1  'x, y, z'
loop_
 _atom_site_type_symbol
 _atom_site_label
 _atom_site_symmetry_multiplicity
 _atom_site_fract_x
 _atom_site_fract_y
 _atom_site_fract_z
 _atom_site_occupancy
  Yb  Yb0  1  0.250000  0.979692  0.776713  1
  Yb  Yb1  1  0.750000  0.020308  0.223287  1
  Pa  Pa2  1  0.250000  0.484205  0.698297  1
  Pa  Pa3  1  0.750000  0.515795  0.301703  1
  Co  Co4  1  0.750000  0.372593  0.958478  1
  Co  Co5  1  0.250000  0.257837  0.448072  1
  Co  Co6  1  0.750000  0.742163  0.551928  1
  Co  Co7  1  0.250000  0.627407  0.041522  1
  Ge  Ge8  1  0.250000  0.799487  0.391171  1
  Ge  Ge9  1  0.750000  0.710051  0.902703  1
  Ge  Ge10  1  0.250000  0.289949  0.097297  1
  Ge  Ge11  1  0.750000  0.200513  0.608829  1
