# generated using pymatgen
data_Ce6Cd23Ge
_symmetry_space_group_name_H-M   'P 1'
_cell_length_a   10.28104289
_cell_length_b   10.28104303
_cell_length_c   10.28104200
_cell_angle_alpha   59.99999687
_cell_angle_beta   59.99999643
_cell_angle_gamma   59.99999435
_symmetry_Int_Tables_number   1
_chemical_formula_structural   Ce6Cd23Ge
_chemical_formula_sum   'Ce6 Cd23 Ge1'
_cell_volume   768.41607697
_cell_formula_units_Z   1
loop_
 _symmetry_equiv_pos_site_id
 _symmetry_equiv_pos_as_xyz
  1  'x, y, z'
loop_
 _atom_site_type_symbol
 _atom_site_label
 _atom_site_symmetry_multiplicity
 _atom_site_fract_x
 _atom_site_fract_y
 _atom_site_fract_z
 _atom_site_occupancy
  Ce  Ce0  1  0.791551  0.791551  0.208449  1
  Ce  Ce1  1  0.208449  0.791551  0.208449  1
  Ce  Ce2  1  0.791551  0.208449  0.208449  1
  Ce  Ce3  1  0.208449  0.208449  0.791551  1
  Ce  Ce4  1  0.791551  0.208449  0.791551  1
  Ce  Ce5  1  0.208449  0.791551  0.791551  1
  Cd  Cd6  1  0.500000  0.500000  0.500000  1
  Cd  Cd7  1  0.838225  0.838225  0.485323  1
  Cd  Cd8  1  0.838225  0.485323  0.838225  1
  Cd  Cd9  1  0.485323  0.838225  0.838225  1
  Cd  Cd10  1  0.838225  0.838225  0.838225  1
  Cd  Cd11  1  0.161775  0.161775  0.514677  1
  Cd  Cd12  1  0.161775  0.514677  0.161775  1
  Cd  Cd13  1  0.514677  0.161775  0.161775  1
  Cd  Cd14  1  0.161775  0.161775  0.161775  1
  Cd  Cd15  1  0.622293  0.622293  0.133120  1
  Cd  Cd16  1  0.622293  0.133120  0.622293  1
  Cd  Cd17  1  0.133120  0.622293  0.622293  1
  Cd  Cd18  1  0.622293  0.622293  0.622293  1
  Cd  Cd19  1  0.377707  0.377707  0.866880  1
  Cd  Cd20  1  0.377707  0.866880  0.377707  1
  Cd  Cd21  1  0.866880  0.377707  0.377707  1
  Cd  Cd22  1  0.377707  0.377707  0.377707  1
  Cd  Cd23  1  0.000000  0.000000  0.500000  1
  Cd  Cd24  1  0.500000  0.000000  0.500000  1
  Cd  Cd25  1  0.000000  0.500000  0.500000  1
  Cd  Cd26  1  0.500000  0.500000  0.000000  1
  Cd  Cd27  1  0.000000  0.500000  0.000000  1
  Cd  Cd28  1  0.500000  0.000000  0.000000  1
  Ge  Ge29  1  0.000000  0.000000  0.000000  1
