# generated using pymatgen
data_Nd2Ga2(GePd)3
_symmetry_space_group_name_H-M   'P 1'
_cell_length_a   8.59675796
_cell_length_b   8.59675788
_cell_length_c   8.59675823
_cell_angle_alpha   138.66751820
_cell_angle_beta   105.46545167
_cell_angle_gamma   88.99457319
_symmetry_Int_Tables_number   1
_chemical_formula_structural   Nd2Ga2(GePd)3
_chemical_formula_sum   'Nd4 Ga4 Ge6 Pd6'
_cell_volume   387.38747503
_cell_formula_units_Z   2
loop_
 _symmetry_equiv_pos_site_id
 _symmetry_equiv_pos_as_xyz
  1  'x, y, z'
loop_
 _atom_site_type_symbol
 _atom_site_label
 _atom_site_symmetry_multiplicity
 _atom_site_fract_x
 _atom_site_fract_y
 _atom_site_fract_z
 _atom_site_occupancy
  Nd  Nd0  1  0.637064  0.870945  0.766120  1
  Nd  Nd1  1  0.362936  0.129055  0.233880  1
  Nd  Nd2  1  0.104826  0.370945  0.733880  1
  Nd  Nd3  1  0.895174  0.629055  0.266120  1
  Ga  Ga4  1  0.273033  0.023033  0.750000  1
  Ga  Ga5  1  0.726967  0.976967  0.250000  1
  Ga  Ga6  1  0.726967  0.476967  0.750000  1
  Ga  Ga7  1  0.273033  0.523033  0.250000  1
  Ge  Ge8  1  0.455967  0.609670  0.846297  1
  Ge  Ge9  1  0.544033  0.390330  0.153703  1
  Ge  Ge10  1  0.763373  0.109670  0.653703  1
  Ge  Ge11  1  0.236627  0.890330  0.346297  1
  Ge  Ge12  1  0.000000  0.750000  0.750000  1
  Ge  Ge13  1  0.000000  0.250000  0.250000  1
  Pd  Pd14  1  0.247205  0.635827  0.611380  1
  Pd  Pd15  1  0.752795  0.364173  0.388620  1
  Pd  Pd16  1  0.024446  0.135827  0.888620  1
  Pd  Pd17  1  0.975554  0.864173  0.111380  1
  Pd  Pd18  1  0.500000  0.750000  0.250000  1
  Pd  Pd19  1  0.500000  0.250000  0.750000  1
