# generated using pymatgen
data_La2Co9Si8Ni9
_symmetry_space_group_name_H-M   'P 1'
_cell_length_a   7.77199993
_cell_length_b   7.77273877
_cell_length_c   7.95263469
_cell_angle_alpha   119.12958100
_cell_angle_beta   119.13049776
_cell_angle_gamma   90.22026164
_symmetry_Int_Tables_number   1
_chemical_formula_structural   La2Co9Si8Ni9
_chemical_formula_sum   'La2 Co9 Si8 Ni9'
_cell_volume   347.83865193
_cell_formula_units_Z   1
loop_
 _symmetry_equiv_pos_site_id
 _symmetry_equiv_pos_as_xyz
  1  'x, y, z'
loop_
 _atom_site_type_symbol
 _atom_site_label
 _atom_site_symmetry_multiplicity
 _atom_site_fract_x
 _atom_site_fract_y
 _atom_site_fract_z
 _atom_site_occupancy
  La  La0  1  0.250001  0.249996  0.499910  1
  La  La1  1  0.750003  0.750020  0.500137  1
  Co  Co2  1  0.000011  0.500046  0.000012  1
  Co  Co3  1  0.552994  0.053025  0.365219  1
  Co  Co4  1  0.812222  0.312250  0.365267  1
  Co  Co5  1  0.311321  0.550971  0.362310  1
  Co  Co6  1  0.050937  0.811280  0.362195  1
  Co  Co7  1  0.949094  0.188745  0.637857  1
  Co  Co8  1  0.688710  0.449076  0.637768  1
  Co  Co9  1  0.187762  0.687750  0.634729  1
  Co  Co10  1  0.447014  0.946968  0.634733  1
  Si  Si11  1  0.453160  0.289288  0.242495  1
  Si  Si12  1  0.952370  0.452316  0.241478  1
  Si  Si13  1  0.289116  0.789165  0.241439  1
  Si  Si14  1  0.789323  0.953159  0.242459  1
  Si  Si15  1  0.210693  0.046827  0.757569  1
  Si  Si16  1  0.710871  0.210839  0.758572  1
  Si  Si17  1  0.047702  0.547783  0.758600  1
  Si  Si18  1  0.546840  0.710644  0.757456  1
  Ni  Ni19  1  0.499982  0.999901  0.999897  1
  Ni  Ni20  1  0.797184  0.072317  0.000115  1
  Ni  Ni21  1  0.073042  0.203858  0.000160  1
  Ni  Ni22  1  0.572184  0.296979  0.999893  1
  Ni  Ni23  1  0.296216  0.427056  0.000158  1
  Ni  Ni24  1  0.703781  0.572903  0.999887  1
  Ni  Ni25  1  0.427728  0.702935  0.999966  1
  Ni  Ni26  1  0.926885  0.796202  0.999866  1
  Ni  Ni27  1  0.202852  0.927702  0.999850  1
