# generated using pymatgen
data_Ho3ThAl3(Ga5Ir2)3
_symmetry_space_group_name_H-M   'P 1'
_cell_length_a   7.59718921
_cell_length_b   7.61375762
_cell_length_c   9.48606010
_cell_angle_alpha   89.99416542
_cell_angle_beta   89.98958647
_cell_angle_gamma   119.61990333
_symmetry_Int_Tables_number   1
_chemical_formula_structural   Ho3ThAl3(Ga5Ir2)3
_chemical_formula_sum   'Ho3 Th1 Al3 Ga15 Ir6'
_cell_volume   477.00085785
_cell_formula_units_Z   1
loop_
 _symmetry_equiv_pos_site_id
 _symmetry_equiv_pos_as_xyz
  1  'x, y, z'
loop_
 _atom_site_type_symbol
 _atom_site_label
 _atom_site_symmetry_multiplicity
 _atom_site_fract_x
 _atom_site_fract_y
 _atom_site_fract_z
 _atom_site_occupancy
  Ho  Ho0  1  0.998090  0.329946  0.749329  1
  Ho  Ho1  1  0.673964  0.999480  0.249988  1
  Ho  Ho2  1  0.328922  0.999018  0.749226  1
  Th  Th3  1  0.998812  0.671204  0.250368  1
  Al  Al4  1  0.659720  0.663263  0.454385  1
  Al  Al5  1  0.664267  0.667851  0.046271  1
  Al  Al6  1  0.329874  0.329933  0.942880  1
  Ga  Ga7  1  0.131130  0.133177  0.249170  1
  Ga  Ga8  1  0.873821  0.877479  0.749032  1
  Ga  Ga9  1  0.000512  0.330648  0.077028  1
  Ga  Ga10  1  0.000394  0.664476  0.913632  1
  Ga  Ga11  1  0.999886  0.664411  0.586248  1
  Ga  Ga12  1  0.342919  0.006903  0.421154  1
  Ga  Ga13  1  0.002368  0.330841  0.421388  1
  Ga  Ga14  1  0.664648  0.001512  0.580156  1
  Ga  Ga15  1  0.664343  0.001938  0.919357  1
  Ga  Ga16  1  0.342382  0.004969  0.077283  1
  Ga  Ga17  1  0.325326  0.325486  0.570548  1
  Ga  Ga18  1  0.354286  0.553450  0.249914  1
  Ga  Ga19  1  0.653057  0.448248  0.750000  1
  Ga  Ga20  1  0.546160  0.344792  0.249854  1
  Ga  Ga21  1  0.449024  0.656881  0.750080  1
  Ir  Ir22  1  0.671009  0.332867  0.999480  1
  Ir  Ir23  1  0.327969  0.667835  0.999777  1
  Ir  Ir24  1  0.327962  0.671155  0.498675  1
  Ir  Ir25  1  0.673898  0.332571  0.498767  1
  Ir  Ir26  1  0.999916  0.997146  0.999823  1
  Ir  Ir27  1  0.995339  0.992519  0.496188  1
