# generated using pymatgen
data_Ho8Cd2OsPt
_symmetry_space_group_name_H-M   'P 1'
_cell_length_a   9.61924750
_cell_length_b   9.61924805
_cell_length_c   9.68164300
_cell_angle_alpha   59.78519980
_cell_angle_beta   59.78519792
_cell_angle_gamma   59.59781699
_symmetry_Int_Tables_number   1
_chemical_formula_structural   Ho8Cd2OsPt
_chemical_formula_sum   'Ho16 Cd4 Os2 Pt2'
_cell_volume   629.46231216
_cell_formula_units_Z   2
loop_
 _symmetry_equiv_pos_site_id
 _symmetry_equiv_pos_as_xyz
  1  'x, y, z'
loop_
 _atom_site_type_symbol
 _atom_site_label
 _atom_site_symmetry_multiplicity
 _atom_site_fract_x
 _atom_site_fract_y
 _atom_site_fract_z
 _atom_site_occupancy
  Ho  Ho0  1  0.599965  0.599965  0.601295  1
  Ho  Ho1  1  0.599965  0.599965  0.198775  1
  Ho  Ho2  1  0.597137  0.203330  0.599767  1
  Ho  Ho3  1  0.203330  0.597137  0.599767  1
  Ho  Ho4  1  0.064200  0.438012  0.440847  1
  Ho  Ho5  1  0.438012  0.064200  0.056940  1
  Ho  Ho6  1  0.438012  0.064200  0.440847  1
  Ho  Ho7  1  0.064200  0.438012  0.056940  1
  Ho  Ho8  1  0.438360  0.438360  0.061640  1
  Ho  Ho9  1  0.058220  0.058220  0.441780  1
  Ho  Ho10  1  0.188622  0.806594  0.816565  1
  Ho  Ho11  1  0.806594  0.188622  0.188219  1
  Ho  Ho12  1  0.806594  0.188622  0.816565  1
  Ho  Ho13  1  0.188622  0.806594  0.188219  1
  Ho  Ho14  1  0.814259  0.814259  0.185741  1
  Ho  Ho15  1  0.190629  0.190629  0.809371  1
  Cd  Cd16  1  0.830115  0.830115  0.831985  1
  Cd  Cd17  1  0.830115  0.830115  0.507784  1
  Cd  Cd18  1  0.830995  0.504649  0.832178  1
  Cd  Cd19  1  0.504649  0.830995  0.832178  1
  Os  Os20  1  0.394322  0.394322  0.387279  1
  Os  Os21  1  0.394322  0.394322  0.824077  1
  Pt  Pt22  1  0.394272  0.824485  0.390621  1
  Pt  Pt23  1  0.824485  0.394272  0.390621  1
