# generated using pymatgen
data_CaDyGa9Ru5
_symmetry_space_group_name_H-M   'P 1'
_cell_length_a   8.03723102
_cell_length_b   8.03723010
_cell_length_c   8.03723078
_cell_angle_alpha   134.79854216
_cell_angle_beta   134.45318221
_cell_angle_gamma   66.11248800
_symmetry_Int_Tables_number   1
_chemical_formula_structural   CaDyGa9Ru5
_chemical_formula_sum   'Ca1 Dy1 Ga9 Ru5'
_cell_volume   258.92934998
_cell_formula_units_Z   1
loop_
 _symmetry_equiv_pos_site_id
 _symmetry_equiv_pos_as_xyz
  1  'x, y, z'
loop_
 _atom_site_type_symbol
 _atom_site_label
 _atom_site_symmetry_multiplicity
 _atom_site_fract_x
 _atom_site_fract_y
 _atom_site_fract_z
 _atom_site_occupancy
  Ca  Ca0  1  0.500000  0.000000  0.500000  1
  Dy  Dy1  1  0.000000  0.500000  0.500000  1
  Ga  Ga2  1  0.438183  0.859701  0.002100  1
  Ga  Ga3  1  0.142399  0.140299  0.578482  1
  Ga  Ga4  1  0.857601  0.436083  0.997900  1
  Ga  Ga5  1  0.857601  0.859701  0.421518  1
  Ga  Ga6  1  0.561817  0.140299  0.997900  1
  Ga  Ga7  1  0.142399  0.563917  0.002100  1
  Ga  Ga8  1  0.561817  0.563917  0.421518  1
  Ga  Ga9  1  0.000000  0.000000  0.000000  1
  Ga  Ga10  1  0.438183  0.436083  0.578482  1
  Ru  Ru11  1  0.182226  0.182226  0.000000  1
  Ru  Ru12  1  0.817774  0.817774  0.000000  1
  Ru  Ru13  1  0.249289  0.749289  0.500000  1
  Ru  Ru14  1  0.750711  0.250711  0.500000  1
  Ru  Ru15  1  0.500000  0.500000  0.000000  1
