# generated using pymatgen
data_Ta2Mn3Os
_symmetry_space_group_name_H-M   'P 1'
_cell_length_a   4.84828300
_cell_length_b   4.84828304
_cell_length_c   8.16421600
_cell_angle_alpha   90.00000000
_cell_angle_beta   90.00000000
_cell_angle_gamma   120.00000655
_symmetry_Int_Tables_number   1
_chemical_formula_structural   Ta2Mn3Os
_chemical_formula_sum   'Ta4 Mn6 Os2'
_cell_volume   166.19617230
_cell_formula_units_Z   2
loop_
 _symmetry_equiv_pos_site_id
 _symmetry_equiv_pos_as_xyz
  1  'x, y, z'
loop_
 _atom_site_type_symbol
 _atom_site_label
 _atom_site_symmetry_multiplicity
 _atom_site_fract_x
 _atom_site_fract_y
 _atom_site_fract_z
 _atom_site_occupancy
  Ta  Ta0  1  0.333333  0.666667  0.066868  1
  Ta  Ta1  1  0.666667  0.333333  0.566868  1
  Ta  Ta2  1  0.666667  0.333333  0.933132  1
  Ta  Ta3  1  0.333333  0.666667  0.433132  1
  Mn  Mn4  1  0.821452  0.642904  0.250000  1
  Mn  Mn5  1  0.178548  0.821452  0.750000  1
  Mn  Mn6  1  0.642904  0.821452  0.750000  1
  Mn  Mn7  1  0.357096  0.178548  0.250000  1
  Mn  Mn8  1  0.821452  0.178548  0.250000  1
  Mn  Mn9  1  0.178548  0.357096  0.750000  1
  Os  Os10  1  0.000000  0.000000  0.000000  1
  Os  Os11  1  0.000000  0.000000  0.500000  1
