# generated using pymatgen
data_Ba4Ir5OsO19
_symmetry_space_group_name_H-M   'P 1'
_cell_length_a   8.29576961
_cell_length_b   8.27413117
_cell_length_c   8.29576966
_cell_angle_alpha   109.61672726
_cell_angle_beta   109.43813478
_cell_angle_gamma   109.46490647
_symmetry_Int_Tables_number   1
_chemical_formula_structural   Ba4Ir5OsO19
_chemical_formula_sum   'Ba4 Ir5 Os1 O19'
_cell_volume   437.76692317
_cell_formula_units_Z   1
loop_
 _symmetry_equiv_pos_site_id
 _symmetry_equiv_pos_as_xyz
  1  'x, y, z'
loop_
 _atom_site_type_symbol
 _atom_site_label
 _atom_site_symmetry_multiplicity
 _atom_site_fract_x
 _atom_site_fract_y
 _atom_site_fract_z
 _atom_site_occupancy
  Ba  Ba0  1  0.998929  0.308420  0.000203  1
  Ba  Ba1  1  0.997497  0.994570  0.303863  1
  Ba  Ba2  1  0.691783  0.691580  0.690509  1
  Ba  Ba3  1  0.309293  0.005430  0.002927  1
  Ir  Ir4  1  0.503050  0.339980  0.843863  1
  Ir  Ir5  1  0.503883  0.660020  0.163070  1
  Ir  Ir6  1  0.339227  0.840139  0.497608  1
  Ir  Ir7  1  0.657469  0.159861  0.499088  1
  Ir  Ir8  1  0.840674  0.500000  0.340674  1
  Os  Os9  1  0.162262  0.500000  0.662262  1
  O  O10  1  0.998632  0.000000  0.998632  1
  O  O11  1  0.696795  0.336039  0.052173  1
  O  O12  1  0.659605  0.356978  0.711535  1
  O  O13  1  0.289830  0.641025  0.942903  1
  O  O14  1  0.636382  0.304694  0.353010  1
  O  O15  1  0.348151  0.704105  0.654517  1
  O  O16  1  0.950412  0.295895  0.644046  1
  O  O17  1  0.048316  0.695306  0.331688  1
  O  O18  1  0.004820  0.635296  0.637839  1
  O  O19  1  0.640177  0.637552  0.002932  1
  O  O20  1  0.716135  0.663961  0.360756  1
  O  O21  1  0.338916  0.049692  0.695226  1
  O  O22  1  0.635496  0.000000  0.635496  1
  O  O23  1  0.002543  0.364704  0.369524  1
  O  O24  1  0.645535  0.950308  0.289224  1
  O  O25  1  0.354557  0.643022  0.302627  1
  O  O26  1  0.301879  0.358975  0.648805  1
  O  O27  1  0.362373  0.000000  0.362373  1
  O  O28  1  0.365380  0.362448  0.002625  1
