# generated using pymatgen
data_Er2Fe3P7(Ir2Ru)3
_symmetry_space_group_name_H-M   'P 1'
_cell_length_a   9.35929100
_cell_length_b   9.35929009
_cell_length_c   3.85593300
_cell_angle_alpha   90.00000000
_cell_angle_beta   90.00000000
_cell_angle_gamma   119.99999970
_symmetry_Int_Tables_number   1
_chemical_formula_structural   Er2Fe3P7(Ir2Ru)3
_chemical_formula_sum   'Er2 Fe3 P7 Ir6 Ru3'
_cell_volume   292.51353810
_cell_formula_units_Z   1
loop_
 _symmetry_equiv_pos_site_id
 _symmetry_equiv_pos_as_xyz
  1  'x, y, z'
loop_
 _atom_site_type_symbol
 _atom_site_label
 _atom_site_symmetry_multiplicity
 _atom_site_fract_x
 _atom_site_fract_y
 _atom_site_fract_z
 _atom_site_occupancy
  Er  Er0  1  0.000000  0.000000  0.000000  1
  Er  Er1  1  0.333333  0.666667  0.500000  1
  Fe  Fe2  1  0.824609  0.220205  0.000000  1
  Fe  Fe3  1  0.779795  0.604404  0.000000  1
  Fe  Fe4  1  0.395596  0.175391  0.000000  1
  P  P5  1  0.070466  0.443049  0.000000  1
  P  P6  1  0.556951  0.627417  0.000000  1
  P  P7  1  0.372583  0.929534  0.000000  1
  P  P8  1  0.786696  0.056055  0.500000  1
  P  P9  1  0.943945  0.730640  0.500000  1
  P  P10  1  0.269360  0.213304  0.500000  1
  P  P11  1  0.666667  0.333333  0.000000  1
  Ir  Ir12  1  0.100820  0.700757  0.000000  1
  Ir  Ir13  1  0.299243  0.400063  0.000000  1
  Ir  Ir14  1  0.599937  0.899180  0.000000  1
  Ir  Ir15  1  0.053365  0.274930  0.500000  1
  Ir  Ir16  1  0.725070  0.778436  0.500000  1
  Ir  Ir17  1  0.221564  0.946635  0.500000  1
  Ru  Ru18  1  0.891499  0.464007  0.500000  1
  Ru  Ru19  1  0.535993  0.427492  0.500000  1
  Ru  Ru20  1  0.572508  0.108501  0.500000  1
