# generated using pymatgen
data_NdY3Co17(P4Ru)3
_symmetry_space_group_name_H-M   'P 1'
_cell_length_a   3.69360200
_cell_length_b   10.39226323
_cell_length_c   11.79333282
_cell_angle_alpha   89.88383523
_cell_angle_beta   90.00000000
_cell_angle_gamma   90.00000000
_symmetry_Int_Tables_number   1
_chemical_formula_structural   NdY3Co17(P4Ru)3
_chemical_formula_sum   'Nd1 Y3 Co17 P12 Ru3'
_cell_volume   452.68478473
_cell_formula_units_Z   1
loop_
 _symmetry_equiv_pos_site_id
 _symmetry_equiv_pos_as_xyz
  1  'x, y, z'
loop_
 _atom_site_type_symbol
 _atom_site_label
 _atom_site_symmetry_multiplicity
 _atom_site_fract_x
 _atom_site_fract_y
 _atom_site_fract_z
 _atom_site_occupancy
  Nd  Nd0  1  0.750000  0.083175  0.797662  1
  Y  Y1  1  0.250000  0.913039  0.204175  1
  Y  Y2  1  0.750000  0.414634  0.296183  1
  Y  Y3  1  0.250000  0.585754  0.703617  1
  Co  Co4  1  0.250000  0.715965  0.993294  1
  Co  Co5  1  0.250000  0.090842  0.993652  1
  Co  Co6  1  0.750000  0.904891  0.012654  1
  Co  Co7  1  0.750000  0.591723  0.510785  1
  Co  Co8  1  0.250000  0.408922  0.488830  1
  Co  Co9  1  0.250000  0.281369  0.676119  1
  Co  Co10  1  0.750000  0.719942  0.322994  1
  Co  Co11  1  0.750000  0.777361  0.824054  1
  Co  Co12  1  0.250000  0.222765  0.177158  1
  Co  Co13  1  0.250000  0.615818  0.199376  1
  Co  Co14  1  0.750000  0.388606  0.798922  1
  Co  Co15  1  0.750000  0.113360  0.296985  1
  Co  Co16  1  0.250000  0.883510  0.700925  1
  Co  Co17  1  0.250000  0.034744  0.428907  1
  Co  Co18  1  0.750000  0.964034  0.566738  1
  Co  Co19  1  0.750000  0.535581  0.068440  1
  Co  Co20  1  0.250000  0.469376  0.932154  1
  P  P21  1  0.250000  0.079849  0.609156  1
  P  P22  1  0.750000  0.919131  0.386796  1
  P  P23  1  0.750000  0.582367  0.888887  1
  P  P24  1  0.250000  0.421302  0.112541  1
  P  P25  1  0.250000  0.228825  0.366730  1
  P  P26  1  0.750000  0.771688  0.633558  1
  P  P27  1  0.750000  0.728937  0.130597  1
  P  P28  1  0.250000  0.276104  0.868234  1
  P  P29  1  0.250000  0.894552  0.894109  1
  P  P30  1  0.750000  0.095213  0.109267  1
  P  P31  1  0.750000  0.404023  0.609892  1
  P  P32  1  0.250000  0.596778  0.388817  1
  Ru  Ru33  1  0.250000  0.783735  0.490510  1
  Ru  Ru34  1  0.750000  0.216406  0.507989  1
  Ru  Ru35  1  0.750000  0.285687  0.009296  1
