# generated using pymatgen
data_Hf5GaSb2
_symmetry_space_group_name_H-M   'P 1'
_cell_length_a   5.51434499
_cell_length_b   8.25183459
_cell_length_c   8.25183463
_cell_angle_alpha   83.59003103
_cell_angle_beta   70.48044708
_cell_angle_gamma   70.48044298
_symmetry_Int_Tables_number   1
_chemical_formula_structural   Hf5GaSb2
_chemical_formula_sum   'Hf10 Ga2 Sb4'
_cell_volume   333.56696355
_cell_formula_units_Z   2
loop_
 _symmetry_equiv_pos_site_id
 _symmetry_equiv_pos_as_xyz
  1  'x, y, z'
loop_
 _atom_site_type_symbol
 _atom_site_label
 _atom_site_symmetry_multiplicity
 _atom_site_fract_x
 _atom_site_fract_y
 _atom_site_fract_z
 _atom_site_occupancy
  Hf  Hf0  1  0.075329  0.138275  0.711068  1
  Hf  Hf1  1  0.924671  0.861725  0.288932  1
  Hf  Hf2  1  0.786397  0.288932  0.138275  1
  Hf  Hf3  1  0.424671  0.288932  0.861725  1
  Hf  Hf4  1  0.213603  0.711068  0.861725  1
  Hf  Hf5  1  0.575329  0.711068  0.138275  1
  Hf  Hf6  1  0.713603  0.861725  0.711068  1
  Hf  Hf7  1  0.286397  0.138275  0.288932  1
  Hf  Hf8  1  0.250000  0.500000  0.500000  1
  Hf  Hf9  1  0.750000  0.500000  0.500000  1
  Ga  Ga10  1  0.250000  0.000000  0.000000  1
  Ga  Ga11  1  0.750000  0.000000  0.000000  1
  Sb  Sb12  1  0.164165  0.500000  0.171669  1
  Sb  Sb13  1  0.835835  0.500000  0.828331  1
  Sb  Sb14  1  0.335835  0.828331  0.500000  1
  Sb  Sb15  1  0.664165  0.171669  0.500000  1
