# generated using pymatgen
data_TbEr7(Si3Rh)4
_symmetry_space_group_name_H-M   'P 1'
_cell_length_a   8.15315800
_cell_length_b   8.15315804
_cell_length_c   7.85753900
_cell_angle_alpha   90.00000000
_cell_angle_beta   90.00000000
_cell_angle_gamma   119.99999982
_symmetry_Int_Tables_number   1
_chemical_formula_structural   TbEr7(Si3Rh)4
_chemical_formula_sum   'Tb1 Er7 Si12 Rh4'
_cell_volume   452.34406581
_cell_formula_units_Z   1
loop_
 _symmetry_equiv_pos_site_id
 _symmetry_equiv_pos_as_xyz
  1  'x, y, z'
loop_
 _atom_site_type_symbol
 _atom_site_label
 _atom_site_symmetry_multiplicity
 _atom_site_fract_x
 _atom_site_fract_y
 _atom_site_fract_z
 _atom_site_occupancy
  Tb  Tb0  1  0.000000  0.000000  0.250000  1
  Er  Er1  1  0.000000  0.000000  0.750000  1
  Er  Er2  1  0.491948  0.508052  0.250000  1
  Er  Er3  1  0.491948  0.983898  0.250000  1
  Er  Er4  1  0.016102  0.508052  0.250000  1
  Er  Er5  1  0.508810  0.491190  0.750000  1
  Er  Er6  1  0.982380  0.491190  0.750000  1
  Er  Er7  1  0.508810  0.017620  0.750000  1
  Si  Si8  1  0.833096  0.166904  0.502150  1
  Si  Si9  1  0.833096  0.666193  0.502150  1
  Si  Si10  1  0.333807  0.166904  0.502150  1
  Si  Si11  1  0.833096  0.166904  0.997850  1
  Si  Si12  1  0.833096  0.666193  0.997850  1
  Si  Si13  1  0.333807  0.166904  0.997850  1
  Si  Si14  1  0.167449  0.832551  0.000233  1
  Si  Si15  1  0.665103  0.832551  0.000233  1
  Si  Si16  1  0.167449  0.334897  0.000233  1
  Si  Si17  1  0.167449  0.832551  0.499767  1
  Si  Si18  1  0.665103  0.832551  0.499767  1
  Si  Si19  1  0.167449  0.334897  0.499767  1
  Rh  Rh20  1  0.666667  0.333333  0.469312  1
  Rh  Rh21  1  0.666667  0.333333  0.030688  1
  Rh  Rh22  1  0.333333  0.666667  0.962395  1
  Rh  Rh23  1  0.333333  0.666667  0.537605  1
