# generated using pymatgen
data_CeY3Sb10
_symmetry_space_group_name_H-M   'P 1'
_cell_length_a   4.22558700
_cell_length_b   13.25767097
_cell_length_c   14.82687350
_cell_angle_alpha   77.87715667
_cell_angle_beta   90.00000000
_cell_angle_gamma   90.00000000
_symmetry_Int_Tables_number   1
_chemical_formula_structural   CeY3Sb10
_chemical_formula_sum   'Ce2 Y6 Sb20'
_cell_volume   812.09960221
_cell_formula_units_Z   2
loop_
 _symmetry_equiv_pos_site_id
 _symmetry_equiv_pos_as_xyz
  1  'x, y, z'
loop_
 _atom_site_type_symbol
 _atom_site_label
 _atom_site_symmetry_multiplicity
 _atom_site_fract_x
 _atom_site_fract_y
 _atom_site_fract_z
 _atom_site_occupancy
  Ce  Ce0  1  0.250000  0.391961  0.770895  1
  Ce  Ce1  1  0.750000  0.608039  0.229105  1
  Y  Y2  1  0.250000  0.664967  0.856118  1
  Y  Y3  1  0.750000  0.335033  0.143882  1
  Y  Y4  1  0.250000  0.671057  0.574692  1
  Y  Y5  1  0.750000  0.328943  0.425308  1
  Y  Y6  1  0.250000  0.953285  0.361604  1
  Y  Y7  1  0.750000  0.046715  0.638396  1
  Sb  Sb8  1  0.250000  0.139936  0.776927  1
  Sb  Sb9  1  0.750000  0.860064  0.223073  1
  Sb  Sb10  1  0.250000  0.142513  0.481881  1
  Sb  Sb11  1  0.750000  0.857487  0.518119  1
  Sb  Sb12  1  0.250000  0.149174  0.172336  1
  Sb  Sb13  1  0.750000  0.850826  0.827664  1
  Sb  Sb14  1  0.250000  0.419752  0.977843  1
  Sb  Sb15  1  0.750000  0.580248  0.022157  1
  Sb  Sb16  1  0.750000  0.030162  0.910562  1
  Sb  Sb17  1  0.250000  0.969838  0.089438  1
  Sb  Sb18  1  0.750000  0.139216  0.321591  1
  Sb  Sb19  1  0.250000  0.860784  0.678409  1
  Sb  Sb20  1  0.750000  0.276890  0.938638  1
  Sb  Sb21  1  0.250000  0.723110  0.061362  1
  Sb  Sb22  1  0.750000  0.283507  0.655457  1
  Sb  Sb23  1  0.250000  0.716493  0.344543  1
  Sb  Sb24  1  0.750000  0.575934  0.734572  1
  Sb  Sb25  1  0.250000  0.424066  0.265428  1
  Sb  Sb26  1  0.750000  0.573969  0.448979  1
  Sb  Sb27  1  0.250000  0.426031  0.551021  1
