# generated using pymatgen
data_BaNaNd(CoH6)2
_symmetry_space_group_name_H-M   'P 1'
_cell_length_a   4.97980900
_cell_length_b   4.97981090
_cell_length_c   8.22351100
_cell_angle_alpha   90.00000000
_cell_angle_beta   90.00000000
_cell_angle_gamma   119.99999405
_symmetry_Int_Tables_number   1
_chemical_formula_structural   BaNaNd(CoH6)2
_chemical_formula_sum   'Ba1 Na1 Nd1 Co2 H12'
_cell_volume   176.60926058
_cell_formula_units_Z   1
loop_
 _symmetry_equiv_pos_site_id
 _symmetry_equiv_pos_as_xyz
  1  'x, y, z'
loop_
 _atom_site_type_symbol
 _atom_site_label
 _atom_site_symmetry_multiplicity
 _atom_site_fract_x
 _atom_site_fract_y
 _atom_site_fract_z
 _atom_site_occupancy
  Ba  Ba0  1  0.000000  0.000000  0.034878  1
  Na  Na1  1  0.666667  0.333333  0.354098  1
  Nd  Nd2  1  0.333333  0.666667  0.617282  1
  Co  Co3  1  0.666667  0.333333  0.734994  1
  Co  Co4  1  0.333333  0.666667  0.265080  1
  H  H5  1  0.182135  0.817865  0.367376  1
  H  H6  1  0.635729  0.817865  0.367376  1
  H  H7  1  0.182135  0.364271  0.367376  1
  H  H8  1  0.817072  0.182928  0.630873  1
  H  H9  1  0.365856  0.182928  0.630873  1
  H  H10  1  0.817072  0.634144  0.630873  1
  H  H11  1  0.523447  0.046895  0.847149  1
  H  H12  1  0.523447  0.476553  0.847149  1
  H  H13  1  0.953105  0.476553  0.847149  1
  H  H14  1  0.475357  0.950714  0.152491  1
  H  H15  1  0.475357  0.524643  0.152491  1
  H  H16  1  0.049286  0.524643  0.152491  1
