# generated using pymatgen
data_Y3Pd2RhPb3
_symmetry_space_group_name_H-M   'P 1'
_cell_length_a   7.85831200
_cell_length_b   7.85831215
_cell_length_c   3.84617200
_cell_angle_alpha   90.00000000
_cell_angle_beta   90.00000000
_cell_angle_gamma   119.99999935
_symmetry_Int_Tables_number   1
_chemical_formula_structural   Y3Pd2RhPb3
_chemical_formula_sum   'Y3 Pd2 Rh1 Pb3'
_cell_volume   205.69222701
_cell_formula_units_Z   1
loop_
 _symmetry_equiv_pos_site_id
 _symmetry_equiv_pos_as_xyz
  1  'x, y, z'
loop_
 _atom_site_type_symbol
 _atom_site_label
 _atom_site_symmetry_multiplicity
 _atom_site_fract_x
 _atom_site_fract_y
 _atom_site_fract_z
 _atom_site_occupancy
  Y  Y0  1  0.397268  0.000000  0.500000  1
  Y  Y1  1  0.000000  0.397268  0.500000  1
  Y  Y2  1  0.602732  0.602732  0.500000  1
  Pd  Pd3  1  0.333333  0.666667  0.000000  1
  Pd  Pd4  1  0.666667  0.333333  0.000000  1
  Rh  Rh5  1  0.000000  0.000000  0.500000  1
  Pb  Pb6  1  0.734911  0.000000  0.000000  1
  Pb  Pb7  1  0.000000  0.734911  0.000000  1
  Pb  Pb8  1  0.265089  0.265089  0.000000  1
