# generated using pymatgen
data_AcSm(Ni2B)12
_symmetry_space_group_name_H-M   'P 1'
_cell_length_a   6.06741829
_cell_length_b   6.06741885
_cell_length_c   11.05930300
_cell_angle_alpha   89.99888597
_cell_angle_beta   89.99889081
_cell_angle_gamma   104.66872055
_symmetry_Int_Tables_number   1
_chemical_formula_structural   AcSm(Ni2B)12
_chemical_formula_sum   'Ac1 Sm1 Ni24 B12'
_cell_volume   393.86238845
_cell_formula_units_Z   1
loop_
 _symmetry_equiv_pos_site_id
 _symmetry_equiv_pos_as_xyz
  1  'x, y, z'
loop_
 _atom_site_type_symbol
 _atom_site_label
 _atom_site_symmetry_multiplicity
 _atom_site_fract_x
 _atom_site_fract_y
 _atom_site_fract_z
 _atom_site_occupancy
  Ac  Ac0  1  0.832403  0.832403  0.501316  1
  Sm  Sm1  1  0.166570  0.166570  0.997636  1
  Ni  Ni2  1  0.566664  0.566664  0.917782  1
  Ni  Ni3  1  0.426895  0.426895  0.414227  1
  Ni  Ni4  1  0.779816  0.779816  0.098360  1
  Ni  Ni5  1  0.225926  0.225926  0.600695  1
  Ni  Ni6  1  0.539284  0.805624  0.737140  1
  Ni  Ni7  1  0.805624  0.539284  0.737140  1
  Ni  Ni8  1  0.458797  0.195095  0.232627  1
  Ni  Ni9  1  0.195095  0.458797  0.232627  1
  Ni  Ni10  1  0.146790  0.881516  0.758138  1
  Ni  Ni11  1  0.881516  0.146790  0.758138  1
  Ni  Ni12  1  0.853921  0.121716  0.253958  1
  Ni  Ni13  1  0.121716  0.853921  0.253958  1
  Ni  Ni14  1  0.654860  0.275733  0.567585  1
  Ni  Ni15  1  0.275733  0.654860  0.567585  1
  Ni  Ni16  1  0.341760  0.727628  0.066459  1
  Ni  Ni17  1  0.727628  0.341760  0.066459  1
  Ni  Ni18  1  0.630116  0.994987  0.937734  1
  Ni  Ni19  1  0.994987  0.630116  0.937734  1
  Ni  Ni20  1  0.371118  0.006006  0.436686  1
  Ni  Ni21  1  0.006006  0.371118  0.436686  1
  Ni  Ni22  1  0.474415  0.209206  0.776839  1
  Ni  Ni23  1  0.209206  0.474415  0.776839  1
  Ni  Ni24  1  0.524064  0.788515  0.272025  1
  Ni  Ni25  1  0.788515  0.524064  0.272025  1
  B  B26  1  0.835896  0.835896  0.836147  1
  B  B27  1  0.165229  0.165229  0.329633  1
  B  B28  1  0.485103  0.485103  0.666370  1
  B  B29  1  0.512807  0.512807  0.155313  1
  B  B30  1  0.324436  0.754609  0.886721  1
  B  B31  1  0.754609  0.324436  0.886721  1
  B  B32  1  0.676005  0.252089  0.384340  1
  B  B33  1  0.252089  0.676005  0.384340  1
  B  B34  1  0.395838  0.985762  0.622777  1
  B  B35  1  0.985762  0.395838  0.622777  1
  B  B36  1  0.600235  0.012565  0.121233  1
  B  B37  1  0.012565  0.600235  0.121233  1
