# generated using pymatgen
data_Ta3Mn5CrSi2Mo
_symmetry_space_group_name_H-M   'P 1'
_cell_length_a   4.83393135
_cell_length_b   4.88414556
_cell_length_c   7.88662547
_cell_angle_alpha   90.00000097
_cell_angle_beta   90.07776039
_cell_angle_gamma   120.34423934
_symmetry_Int_Tables_number   1
_chemical_formula_structural   Ta3Mn5CrSi2Mo
_chemical_formula_sum   'Ta3 Mn5 Cr1 Si2 Mo1'
_cell_volume   160.69169757
_cell_formula_units_Z   1
loop_
 _symmetry_equiv_pos_site_id
 _symmetry_equiv_pos_as_xyz
  1  'x, y, z'
loop_
 _atom_site_type_symbol
 _atom_site_label
 _atom_site_symmetry_multiplicity
 _atom_site_fract_x
 _atom_site_fract_y
 _atom_site_fract_z
 _atom_site_occupancy
  Ta  Ta0  1  0.670419  0.335209  0.558242  1
  Ta  Ta1  1  0.665941  0.332970  0.935961  1
  Ta  Ta2  1  0.334394  0.667198  0.069464  1
  Mn  Mn3  1  0.828469  0.171101  0.250491  1
  Mn  Mn4  1  0.828469  0.657369  0.250491  1
  Mn  Mn5  1  0.341323  0.170662  0.249949  1
  Mn  Mn6  1  0.167608  0.828597  0.749728  1
  Mn  Mn7  1  0.167608  0.339009  0.749728  1
  Cr  Cr8  1  0.649171  0.824585  0.747845  1
  Si  Si9  1  0.005641  0.002820  0.496828  1
  Si  Si10  1  0.001530  0.000765  0.003097  1
  Mo  Mo11  1  0.339427  0.669714  0.438176  1
