# generated using pymatgen
data_Tc5WS8
_symmetry_space_group_name_H-M   'P 1'
_cell_length_a   6.47334977
_cell_length_b   6.45399223
_cell_length_c   6.48839611
_cell_angle_alpha   92.88128905
_cell_angle_beta   92.84067386
_cell_angle_gamma   93.51301957
_symmetry_Int_Tables_number   1
_chemical_formula_structural   Tc5WS8
_chemical_formula_sum   'Tc5 W1 S8'
_cell_volume   269.84993552
_cell_formula_units_Z   1
loop_
 _symmetry_equiv_pos_site_id
 _symmetry_equiv_pos_as_xyz
  1  'x, y, z'
loop_
 _atom_site_type_symbol
 _atom_site_label
 _atom_site_symmetry_multiplicity
 _atom_site_fract_x
 _atom_site_fract_y
 _atom_site_fract_z
 _atom_site_occupancy
  Tc  Tc0  1  0.449542  0.590270  0.772645  1
  Tc  Tc1  1  0.772672  0.449784  0.589019  1
  Tc  Tc2  1  0.590268  0.770836  0.449387  1
  Tc  Tc3  1  0.550855  0.412191  0.228920  1
  Tc  Tc4  1  0.227798  0.551448  0.410492  1
  W  W5  1  0.409429  0.227307  0.550806  1
  S  S6  1  0.778291  0.776796  0.776190  1
  S  S7  1  0.220509  0.221953  0.220363  1
  S  S8  1  0.275218  0.868703  0.623462  1
  S  S9  1  0.622399  0.275989  0.872473  1
  S  S10  1  0.870519  0.623513  0.273571  1
  S  S11  1  0.727708  0.129868  0.375207  1
  S  S12  1  0.377382  0.724627  0.129957  1
  S  S13  1  0.127409  0.376715  0.727509  1
