# generated using pymatgen
data_Ta11Ti(ReTc)6
_symmetry_space_group_name_H-M   'P 1'
_cell_length_a   4.50092400
_cell_length_b   6.37980400
_cell_length_c   13.57116100
_cell_angle_alpha   90.00078780
_cell_angle_beta   90.00048681
_cell_angle_gamma   89.99696740
_symmetry_Int_Tables_number   1
_chemical_formula_structural   Ta11Ti(ReTc)6
_chemical_formula_sum   'Ta11 Ti1 Re6 Tc6'
_cell_volume   389.69606341
_cell_formula_units_Z   1
loop_
 _symmetry_equiv_pos_site_id
 _symmetry_equiv_pos_as_xyz
  1  'x, y, z'
loop_
 _atom_site_type_symbol
 _atom_site_label
 _atom_site_symmetry_multiplicity
 _atom_site_fract_x
 _atom_site_fract_y
 _atom_site_fract_z
 _atom_site_occupancy
  Ta  Ta0  1  0.500009  0.750115  0.999998  1
  Ta  Ta1  1  0.000014  0.250025  0.164870  1
  Ta  Ta2  1  0.999997  0.749934  0.165564  1
  Ta  Ta3  1  0.499992  0.249992  0.332768  1
  Ta  Ta4  1  0.499989  0.750065  0.332585  1
  Ta  Ta5  1  0.000007  0.250025  0.500005  1
  Ta  Ta6  1  0.999986  0.749904  0.500001  1
  Ta  Ta7  1  0.500005  0.249998  0.667237  1
  Ta  Ta8  1  0.500012  0.750080  0.667414  1
  Ta  Ta9  1  0.999990  0.250010  0.835123  1
  Ta  Ta10  1  0.999998  0.749942  0.834425  1
  Ti  Ti11  1  0.499992  0.249891  0.000004  1
  Re  Re12  1  0.999992  0.000898  0.000001  1
  Re  Re13  1  0.500004  0.499517  0.166386  1
  Re  Re14  1  0.999980  0.999990  0.333453  1
  Re  Re15  1  0.500006  0.500018  0.500000  1
  Re  Re16  1  0.000006  0.999953  0.666548  1
  Re  Re17  1  0.499988  0.499502  0.833612  1
  Tc  Tc18  1  0.000017  0.498172  0.000008  1
  Tc  Tc19  1  0.499996  0.000996  0.166363  1
  Tc  Tc20  1  0.000009  0.499987  0.333509  1
  Tc  Tc21  1  0.499999  0.000007  0.500006  1
  Tc  Tc22  1  0.000004  0.499983  0.666487  1
  Tc  Tc23  1  0.500014  0.000999  0.833634  1
