# generated using pymatgen
data_Ho8Lu2Tl7InPt4
_symmetry_space_group_name_H-M   'P 1'
_cell_length_a   3.60677200
_cell_length_b   8.22239738
_cell_length_c   18.31169943
_cell_angle_alpha   89.79851697
_cell_angle_beta   90.00000000
_cell_angle_gamma   90.00000000
_symmetry_Int_Tables_number   1
_chemical_formula_structural   Ho8Lu2Tl7InPt4
_chemical_formula_sum   'Ho8 Lu2 Tl7 In1 Pt4'
_cell_volume   543.05412561
_cell_formula_units_Z   1
loop_
 _symmetry_equiv_pos_site_id
 _symmetry_equiv_pos_as_xyz
  1  'x, y, z'
loop_
 _atom_site_type_symbol
 _atom_site_label
 _atom_site_symmetry_multiplicity
 _atom_site_fract_x
 _atom_site_fract_y
 _atom_site_fract_z
 _atom_site_occupancy
  Ho  Ho0  1  0.000000  0.385745  0.912079  1
  Ho  Ho1  1  0.000000  0.614212  0.087933  1
  Ho  Ho2  1  0.000000  0.244136  0.221681  1
  Ho  Ho3  1  0.000000  0.755512  0.779007  1
  Ho  Ho4  1  0.000000  0.255725  0.717848  1
  Ho  Ho5  1  0.000000  0.742306  0.282130  1
  Ho  Ho6  1  0.000000  0.000195  0.000158  1
  Ho  Ho7  1  0.000000  0.503403  0.499589  1
  Lu  Lu8  1  0.000000  0.113755  0.412754  1
  Lu  Lu9  1  0.000000  0.886754  0.586595  1
  Tl  Tl10  1  0.500000  0.420568  0.355092  1
  Tl  Tl11  1  0.500000  0.582290  0.645350  1
  Tl  Tl12  1  0.500000  0.078773  0.852062  1
  Tl  Tl13  1  0.500000  0.921376  0.148261  1
  Tl  Tl14  1  0.500000  0.292460  0.064832  1
  Tl  Tl15  1  0.500000  0.707491  0.935463  1
  Tl  Tl16  1  0.500000  0.204100  0.561502  1
  In  In17  1  0.500000  0.798439  0.436606  1
  Pt  Pt18  1  0.500000  0.023277  0.306223  1
  Pt  Pt19  1  0.500000  0.971722  0.695087  1
  Pt  Pt20  1  0.500000  0.471307  0.801260  1
  Pt  Pt21  1  0.500000  0.526456  0.198488  1
