# generated using pymatgen
data_NdThSi5Rh3
_symmetry_space_group_name_H-M   'P 1'
_cell_length_a   8.27752537
_cell_length_b   8.27569163
_cell_length_c   8.27569130
_cell_angle_alpha   138.30915068
_cell_angle_beta   105.67933174
_cell_angle_gamma   89.02285485
_symmetry_Int_Tables_number   1
_chemical_formula_structural   NdThSi5Rh3
_chemical_formula_sum   'Nd2 Th2 Si10 Rh6'
_cell_volume   347.58549141
_cell_formula_units_Z   2
loop_
 _symmetry_equiv_pos_site_id
 _symmetry_equiv_pos_as_xyz
  1  'x, y, z'
loop_
 _atom_site_type_symbol
 _atom_site_label
 _atom_site_symmetry_multiplicity
 _atom_site_fract_x
 _atom_site_fract_y
 _atom_site_fract_z
 _atom_site_occupancy
  Nd  Nd0  1  0.102473  0.369572  0.732901  1
  Nd  Nd1  1  0.897527  0.630428  0.267099  1
  Th  Th2  1  0.636034  0.869703  0.766331  1
  Th  Th3  1  0.363966  0.130297  0.233669  1
  Si  Si4  1  0.274825  0.027590  0.750682  1
  Si  Si5  1  0.725175  0.972410  0.249318  1
  Si  Si6  1  0.725175  0.475857  0.752765  1
  Si  Si7  1  0.274825  0.524143  0.247235  1
  Si  Si8  1  0.454037  0.605938  0.848098  1
  Si  Si9  1  0.545963  0.394062  0.151902  1
  Si  Si10  1  0.762724  0.108400  0.654325  1
  Si  Si11  1  0.237276  0.891600  0.345675  1
  Si  Si12  1  0.000000  0.746415  0.746415  1
  Si  Si13  1  0.000000  0.253585  0.253585  1
  Rh  Rh14  1  0.250528  0.639791  0.610737  1
  Rh  Rh15  1  0.749472  0.360209  0.389263  1
  Rh  Rh16  1  0.029549  0.137141  0.892408  1
  Rh  Rh17  1  0.970451  0.862859  0.107592  1
  Rh  Rh18  1  0.500000  0.753016  0.253016  1
  Rh  Rh19  1  0.500000  0.246984  0.746984  1
