# generated using pymatgen
data_YbZr3(Si3Ni5)4
_symmetry_space_group_name_H-M   'P 1'
_cell_length_a   3.72558900
_cell_length_b   6.61170656
_cell_length_c   18.42692113
_cell_angle_alpha   90.31422955
_cell_angle_beta   90.00000000
_cell_angle_gamma   90.00000000
_symmetry_Int_Tables_number   1
_chemical_formula_structural   YbZr3(Si3Ni5)4
_chemical_formula_sum   'Yb1 Zr3 Si12 Ni20'
_cell_volume   453.89433122
_cell_formula_units_Z   1
loop_
 _symmetry_equiv_pos_site_id
 _symmetry_equiv_pos_as_xyz
  1  'x, y, z'
loop_
 _atom_site_type_symbol
 _atom_site_label
 _atom_site_symmetry_multiplicity
 _atom_site_fract_x
 _atom_site_fract_y
 _atom_site_fract_z
 _atom_site_occupancy
  Yb  Yb0  1  0.250000  0.879224  0.142781  1
  Zr  Zr1  1  0.250000  0.622683  0.643010  1
  Zr  Zr2  1  0.750000  0.377240  0.358016  1
  Zr  Zr3  1  0.750000  0.121591  0.855905  1
  Si  Si4  1  0.250000  0.852904  0.923118  1
  Si  Si5  1  0.750000  0.158575  0.074988  1
  Si  Si6  1  0.750000  0.351316  0.577381  1
  Si  Si7  1  0.250000  0.646049  0.424364  1
  Si  Si8  1  0.750000  0.622403  0.759851  1
  Si  Si9  1  0.250000  0.375722  0.240962  1
  Si  Si10  1  0.250000  0.408231  0.911374  1
  Si  Si11  1  0.750000  0.584858  0.084543  1
  Si  Si12  1  0.750000  0.906928  0.586141  1
  Si  Si13  1  0.250000  0.092698  0.415251  1
  Si  Si14  1  0.250000  0.120732  0.738772  1
  Si  Si15  1  0.750000  0.876183  0.262981  1
  Ni  Ni16  1  0.250000  0.135362  0.993899  1
  Ni  Ni17  1  0.750000  0.382871  0.982741  1
  Ni  Ni18  1  0.750000  0.120075  0.487270  1
  Ni  Ni19  1  0.250000  0.618458  0.012283  1
  Ni  Ni20  1  0.250000  0.360534  0.116554  1
  Ni  Ni21  1  0.750000  0.644763  0.883631  1
  Ni  Ni22  1  0.750000  0.854660  0.386989  1
  Ni  Ni23  1  0.250000  0.142555  0.614835  1
  Ni  Ni24  1  0.250000  0.068816  0.294948  1
  Ni  Ni25  1  0.750000  0.928565  0.706744  1
  Ni  Ni26  1  0.750000  0.566891  0.206788  1
  Ni  Ni27  1  0.250000  0.429955  0.791215  1
  Ni  Ni28  1  0.750000  0.629127  0.506405  1
  Ni  Ni29  1  0.250000  0.369758  0.496055  1
  Ni  Ni30  1  0.250000  0.818055  0.798991  1
  Ni  Ni31  1  0.750000  0.183357  0.201922  1
  Ni  Ni32  1  0.750000  0.317254  0.700223  1
  Ni  Ni33  1  0.250000  0.681231  0.301344  1
  Ni  Ni34  1  0.250000  0.879754  0.513749  1
  Ni  Ni35  1  0.750000  0.870623  0.003969  1
