# generated using pymatgen
data_Gd3DyEr4(B6Os)4
_symmetry_space_group_name_H-M   'P 1'
_cell_length_a   3.65098700
_cell_length_b   9.14341704
_cell_length_c   11.53600200
_cell_angle_alpha   89.99486443
_cell_angle_beta   90.00000000
_cell_angle_gamma   90.00000000
_symmetry_Int_Tables_number   1
_chemical_formula_structural   Gd3DyEr4(B6Os)4
_chemical_formula_sum   'Gd3 Dy1 Er4 B24 Os4'
_cell_volume   385.10054755
_cell_formula_units_Z   1
loop_
 _symmetry_equiv_pos_site_id
 _symmetry_equiv_pos_as_xyz
  1  'x, y, z'
loop_
 _atom_site_type_symbol
 _atom_site_label
 _atom_site_symmetry_multiplicity
 _atom_site_fract_x
 _atom_site_fract_y
 _atom_site_fract_z
 _atom_site_occupancy
  Gd  Gd0  1  0.000000  0.322081  0.413929  1
  Gd  Gd1  1  0.000000  0.678018  0.585841  1
  Gd  Gd2  1  0.000000  0.822189  0.085867  1
  Dy  Dy3  1  0.000000  0.178018  0.914273  1
  Er  Er4  1  0.000000  0.944077  0.372677  1
  Er  Er5  1  0.000000  0.056013  0.627301  1
  Er  Er6  1  0.000000  0.443876  0.126955  1
  Er  Er7  1  0.000000  0.555910  0.872940  1
  B  B8  1  0.500000  0.554321  0.432191  1
  B  B9  1  0.500000  0.445504  0.567867  1
  B  B10  1  0.500000  0.054380  0.067305  1
  B  B11  1  0.500000  0.946089  0.932538  1
  B  B12  1  0.500000  0.748637  0.418935  1
  B  B13  1  0.500000  0.251288  0.581077  1
  B  B14  1  0.500000  0.248527  0.080452  1
  B  B15  1  0.500000  0.751560  0.919254  1
  B  B16  1  0.500000  0.790995  0.266359  1
  B  B17  1  0.500000  0.208731  0.733929  1
  B  B18  1  0.500000  0.290884  0.233156  1
  B  B19  1  0.500000  0.709243  0.766772  1
  B  B20  1  0.500000  0.631134  0.185079  1
  B  B21  1  0.500000  0.368454  0.815179  1
  B  B22  1  0.500000  0.131100  0.314607  1
  B  B23  1  0.500000  0.869071  0.685417  1
  B  B24  1  0.500000  0.983454  0.213225  1
  B  B25  1  0.500000  0.017088  0.786856  1
  B  B26  1  0.500000  0.483393  0.286421  1
  B  B27  1  0.500000  0.516401  0.713670  1
  B  B28  1  0.500000  0.605647  0.029162  1
  B  B29  1  0.500000  0.393550  0.970676  1
  B  B30  1  0.500000  0.105285  0.470913  1
  B  B31  1  0.500000  0.894799  0.529061  1
  Os  Os32  1  0.000000  0.637994  0.320389  1
  Os  Os33  1  0.000000  0.361741  0.679823  1
  Os  Os34  1  0.000000  0.137847  0.178956  1
  Os  Os35  1  0.000000  0.862706  0.820945  1
