# generated using pymatgen
data_Dy7Sn23(IrOs)3
_symmetry_space_group_name_H-M   'P 1'
_cell_length_a   9.86674579
_cell_length_b   9.86979367
_cell_length_c   10.13363715
_cell_angle_alpha   89.90483535
_cell_angle_beta   90.10387080
_cell_angle_gamma   120.04633764
_symmetry_Int_Tables_number   1
_chemical_formula_structural   Dy7Sn23(IrOs)3
_chemical_formula_sum   'Dy7 Sn23 Ir3 Os3'
_cell_volume   854.22866699
_cell_formula_units_Z   1
loop_
 _symmetry_equiv_pos_site_id
 _symmetry_equiv_pos_as_xyz
  1  'x, y, z'
loop_
 _atom_site_type_symbol
 _atom_site_label
 _atom_site_symmetry_multiplicity
 _atom_site_fract_x
 _atom_site_fract_y
 _atom_site_fract_z
 _atom_site_occupancy
  Dy  Dy0  1  0.000534  0.001514  0.999400  1
  Dy  Dy1  1  0.480357  0.516926  0.305507  1
  Dy  Dy2  1  0.517787  0.482538  0.694547  1
  Dy  Dy3  1  0.480699  0.964277  0.305625  1
  Dy  Dy4  1  0.519352  0.036193  0.694133  1
  Dy  Dy5  1  0.037134  0.518717  0.305990  1
  Dy  Dy6  1  0.964487  0.481277  0.693975  1
  Sn  Sn7  1  0.352633  0.002536  0.000142  1
  Sn  Sn8  1  0.647568  0.997707  0.999633  1
  Sn  Sn9  1  0.001943  0.351916  0.999604  1
  Sn  Sn10  1  0.999710  0.646731  0.999752  1
  Sn  Sn11  1  0.646959  0.649139  0.999573  1
  Sn  Sn12  1  0.350053  0.349521  0.999715  1
  Sn  Sn13  1  0.334643  0.666014  0.820921  1
  Sn  Sn14  1  0.664582  0.332645  0.178204  1
  Sn  Sn15  1  0.000281  0.000079  0.499226  1
  Sn  Sn16  1  0.779691  0.220983  0.457902  1
  Sn  Sn17  1  0.221069  0.778595  0.542283  1
  Sn  Sn18  1  0.779277  0.557906  0.457249  1
  Sn  Sn19  1  0.219731  0.440370  0.542351  1
  Sn  Sn20  1  0.440397  0.219897  0.457909  1
  Sn  Sn21  1  0.558405  0.779379  0.542587  1
  Sn  Sn22  1  0.333955  0.667230  0.123598  1
  Sn  Sn23  1  0.667129  0.334099  0.876515  1
  Sn  Sn24  1  0.117810  0.882144  0.279570  1
  Sn  Sn25  1  0.883334  0.118192  0.722834  1
  Sn  Sn26  1  0.117969  0.236301  0.279211  1
  Sn  Sn27  1  0.882517  0.764785  0.720806  1
  Sn  Sn28  1  0.764558  0.882580  0.282384  1
  Sn  Sn29  1  0.234843  0.118098  0.720770  1
  Ir  Ir30  1  0.830238  0.169867  0.198446  1
  Ir  Ir31  1  0.170016  0.831100  0.801145  1
  Ir  Ir32  1  0.830389  0.661360  0.198266  1
  Os  Os33  1  0.169365  0.338516  0.800708  1
  Os  Os34  1  0.337762  0.169163  0.199949  1
  Os  Os35  1  0.662821  0.831703  0.799570  1
