# generated using pymatgen
data_Dy2Lu(ThNi6)3
_symmetry_space_group_name_H-M   'P 1'
_cell_length_a   4.96627121
_cell_length_b   4.96627133
_cell_length_c   16.69596204
_cell_angle_alpha   98.55315468
_cell_angle_beta   98.55315465
_cell_angle_gamma   60.00000954
_symmetry_Int_Tables_number   1
_chemical_formula_structural   Dy2Lu(ThNi6)3
_chemical_formula_sum   'Dy2 Lu1 Th3 Ni18'
_cell_volume   351.31957896
_cell_formula_units_Z   1
loop_
 _symmetry_equiv_pos_site_id
 _symmetry_equiv_pos_as_xyz
  1  'x, y, z'
loop_
 _atom_site_type_symbol
 _atom_site_label
 _atom_site_symmetry_multiplicity
 _atom_site_fract_x
 _atom_site_fract_y
 _atom_site_fract_z
 _atom_site_occupancy
  Dy  Dy0  1  0.931455  0.931455  0.794367  1
  Dy  Dy1  1  0.070624  0.070624  0.211873  1
  Lu  Lu2  1  0.429371  0.429371  0.288112  1
  Th  Th3  1  0.569166  0.569166  0.707498  1
  Th  Th4  1  0.000881  0.000881  0.002641  1
  Th  Th5  1  0.498088  0.498088  0.494264  1
  Ni  Ni6  1  0.456597  0.958419  0.373437  1
  Ni  Ni7  1  0.957843  0.459581  0.877005  1
  Ni  Ni8  1  0.958419  0.958419  0.373437  1
  Ni  Ni9  1  0.459581  0.459581  0.877005  1
  Ni  Ni10  1  0.958419  0.456597  0.373437  1
  Ni  Ni11  1  0.459581  0.957843  0.877005  1
  Ni  Ni12  1  0.044423  0.540803  0.126028  1
  Ni  Ni13  1  0.543326  0.040048  0.623423  1
  Ni  Ni14  1  0.540803  0.540803  0.126028  1
  Ni  Ni15  1  0.040048  0.040048  0.623423  1
  Ni  Ni16  1  0.540803  0.044423  0.126028  1
  Ni  Ni17  1  0.040048  0.543326  0.623423  1
  Ni  Ni18  1  0.333751  0.333751  0.001254  1
  Ni  Ni19  1  0.832853  0.832853  0.498559  1
  Ni  Ni20  1  0.166254  0.166254  0.498761  1
  Ni  Ni21  1  0.667134  0.667134  0.001402  1
  Ni  Ni22  1  0.750012  0.750012  0.250035  1
  Ni  Ni23  1  0.250518  0.250518  0.751552  1
