# generated using pymatgen
data_TaRe24MoW3
_symmetry_space_group_name_H-M   'P 1'
_cell_length_a   8.36821163
_cell_length_b   8.36821130
_cell_length_c   8.36821100
_cell_angle_alpha   109.46086213
_cell_angle_beta   109.46086372
_cell_angle_gamma   109.46086395
_symmetry_Int_Tables_number   1
_chemical_formula_structural   TaRe24MoW3
_chemical_formula_sum   'Ta1 Re24 Mo1 W3'
_cell_volume   451.27622308
_cell_formula_units_Z   1
loop_
 _symmetry_equiv_pos_site_id
 _symmetry_equiv_pos_as_xyz
  1  'x, y, z'
loop_
 _atom_site_type_symbol
 _atom_site_label
 _atom_site_symmetry_multiplicity
 _atom_site_fract_x
 _atom_site_fract_y
 _atom_site_fract_z
 _atom_site_occupancy
  Ta  Ta0  1  0.001769  0.001769  0.001769  1
  Re  Re1  1  0.314995  0.314995  0.716098  1
  Re  Re2  1  0.401963  0.684867  0.999809  1
  Re  Re3  1  0.684867  0.401963  0.999809  1
  Re  Re4  1  0.597570  0.283000  0.597570  1
  Re  Re5  1  0.401963  0.999809  0.684867  1
  Re  Re6  1  0.999809  0.401963  0.684867  1
  Re  Re7  1  0.283000  0.597570  0.597570  1
  Re  Re8  1  0.716098  0.314995  0.314995  1
  Re  Re9  1  0.314995  0.716098  0.314995  1
  Re  Re10  1  0.684867  0.999809  0.401963  1
  Re  Re11  1  0.999809  0.684867  0.401963  1
  Re  Re12  1  0.597570  0.597570  0.283000  1
  Re  Re13  1  0.805998  0.805998  0.182642  1
  Re  Re14  1  0.375917  0.193711  0.999664  1
  Re  Re15  1  0.193711  0.375917  0.999664  1
  Re  Re16  1  0.624418  0.818260  0.624418  1
  Re  Re17  1  0.375917  0.999664  0.193711  1
  Re  Re18  1  0.999664  0.375917  0.193711  1
  Re  Re19  1  0.818260  0.624418  0.624418  1
  Re  Re20  1  0.182642  0.805998  0.805998  1
  Re  Re21  1  0.805998  0.182642  0.805998  1
  Re  Re22  1  0.193711  0.999664  0.375917  1
  Re  Re23  1  0.999664  0.193711  0.375917  1
  Re  Re24  1  0.624418  0.624418  0.818260  1
  Mo  Mo25  1  0.362564  0.362564  0.362564  1
  W  W26  1  0.000105  0.000105  0.637637  1
  W  W27  1  0.637637  0.000105  0.000105  1
  W  W28  1  0.000105  0.637637  0.000105  1
