# generated using pymatgen
data_Tb2Nd2Ho2CoBr10
_symmetry_space_group_name_H-M   'P 1'
_cell_length_a   7.41911036
_cell_length_b   9.26006919
_cell_length_c   9.28261091
_cell_angle_alpha   107.25284918
_cell_angle_beta   96.30453459
_cell_angle_gamma   105.78852076
_symmetry_Int_Tables_number   1
_chemical_formula_structural   Tb2Nd2Ho2CoBr10
_chemical_formula_sum   'Tb2 Nd2 Ho2 Co1 Br10'
_cell_volume   573.32553599
_cell_formula_units_Z   1
loop_
 _symmetry_equiv_pos_site_id
 _symmetry_equiv_pos_as_xyz
  1  'x, y, z'
loop_
 _atom_site_type_symbol
 _atom_site_label
 _atom_site_symmetry_multiplicity
 _atom_site_fract_x
 _atom_site_fract_y
 _atom_site_fract_z
 _atom_site_occupancy
  Tb  Tb0  1  0.354650  0.132147  0.675581  1
  Tb  Tb1  1  0.645350  0.867853  0.324419  1
  Nd  Nd2  1  0.875605  0.951056  0.737028  1
  Nd  Nd3  1  0.124395  0.048944  0.262972  1
  Ho  Ho4  1  0.030111  0.707114  0.408573  1
  Ho  Ho5  1  0.969889  0.292886  0.591427  1
  Co  Co6  1  0.000000  0.000000  0.500000  1
  Br  Br7  1  0.447745  0.820857  0.581454  1
  Br  Br8  1  0.552255  0.179143  0.418546  1
  Br  Br9  1  0.917235  0.621953  0.667424  1
  Br  Br10  1  0.082765  0.378047  0.332576  1
  Br  Br11  1  0.257302  0.085634  0.954358  1
  Br  Br12  1  0.742698  0.914366  0.045642  1
  Br  Br13  1  0.343614  0.448357  0.769065  1
  Br  Br14  1  0.656386  0.551643  0.230935  1
  Br  Br15  1  0.782334  0.259856  0.841176  1
  Br  Br16  1  0.217666  0.740144  0.158824  1
