# generated using pymatgen
data_Tb4PrNd7In20
_symmetry_space_group_name_H-M   'P 1'
_cell_length_a   6.67217156
_cell_length_b   10.55421648
_cell_length_c   12.44630400
_cell_angle_alpha   90.00602587
_cell_angle_beta   89.97661685
_cell_angle_gamma   89.98372176
_symmetry_Int_Tables_number   1
_chemical_formula_structural   Tb4PrNd7In20
_chemical_formula_sum   'Tb4 Pr1 Nd7 In20'
_cell_volume   876.46292674
_cell_formula_units_Z   1
loop_
 _symmetry_equiv_pos_site_id
 _symmetry_equiv_pos_as_xyz
  1  'x, y, z'
loop_
 _atom_site_type_symbol
 _atom_site_label
 _atom_site_symmetry_multiplicity
 _atom_site_fract_x
 _atom_site_fract_y
 _atom_site_fract_z
 _atom_site_occupancy
  Tb  Tb0  1  0.349536  0.750039  0.059517  1
  Tb  Tb1  1  0.150229  0.749964  0.559426  1
  Tb  Tb2  1  0.650381  0.250028  0.940577  1
  Tb  Tb3  1  0.849574  0.249800  0.440385  1
  Pr  Pr4  1  0.611369  0.489863  0.643804  1
  Nd  Nd5  1  0.888781  0.489862  0.143883  1
  Nd  Nd6  1  0.611333  0.010101  0.643842  1
  Nd  Nd7  1  0.111285  0.989832  0.856209  1
  Nd  Nd8  1  0.388650  0.510197  0.355980  1
  Nd  Nd9  1  0.111348  0.510157  0.856232  1
  Nd  Nd10  1  0.388562  0.989840  0.356119  1
  Nd  Nd11  1  0.888727  0.010134  0.143890  1
  In  In12  1  0.617187  0.750554  0.503078  1
  In  In13  1  0.882898  0.750040  0.003665  1
  In  In14  1  0.382470  0.249824  0.496223  1
  In  In15  1  0.117123  0.249997  0.996360  1
  In  In16  1  0.654705  0.750033  0.243845  1
  In  In17  1  0.845622  0.750435  0.744217  1
  In  In18  1  0.345090  0.249613  0.756252  1
  In  In19  1  0.154700  0.249977  0.255938  1
  In  In20  1  0.110820  0.750050  0.284234  1
  In  In21  1  0.388969  0.750173  0.784508  1
  In  In22  1  0.889781  0.249337  0.715970  1
  In  In23  1  0.610951  0.249969  0.215679  1
  In  In24  1  0.874299  0.545392  0.403803  1
  In  In25  1  0.625944  0.954762  0.904082  1
  In  In26  1  0.125959  0.045178  0.595909  1
  In  In27  1  0.374069  0.454732  0.096014  1
  In  In28  1  0.125308  0.454515  0.595773  1
  In  In29  1  0.374096  0.045303  0.095900  1
  In  In30  1  0.874158  0.954775  0.403972  1
  In  In31  1  0.626075  0.545526  0.904714  1
