# generated using pymatgen
data_Pr10Ga4Ru5Rh
_symmetry_space_group_name_H-M   'P 1'
_cell_length_a   8.59260920
_cell_length_b   8.60238279
_cell_length_c   8.60238321
_cell_angle_alpha   109.46264099
_cell_angle_beta   109.52003928
_cell_angle_gamma   109.47708330
_symmetry_Int_Tables_number   1
_chemical_formula_structural   Pr10Ga4Ru5Rh
_chemical_formula_sum   'Pr10 Ga4 Ru5 Rh1'
_cell_volume   489.20770585
_cell_formula_units_Z   1
loop_
 _symmetry_equiv_pos_site_id
 _symmetry_equiv_pos_as_xyz
  1  'x, y, z'
loop_
 _atom_site_type_symbol
 _atom_site_label
 _atom_site_symmetry_multiplicity
 _atom_site_fract_x
 _atom_site_fract_y
 _atom_site_fract_z
 _atom_site_occupancy
  Pr  Pr0  1  0.250000  0.686762  0.436762  1
  Pr  Pr1  1  0.750000  0.811775  0.061775  1
  Pr  Pr2  1  0.439531  0.251219  0.685817  1
  Pr  Pr3  1  0.688635  0.437851  0.251390  1
  Pr  Pr4  1  0.060469  0.746286  0.811688  1
  Pr  Pr5  1  0.811365  0.062755  0.749216  1
  Pr  Pr6  1  0.217318  0.219713  0.221018  1
  Pr  Pr7  1  0.500643  0.000973  0.282619  1
  Pr  Pr8  1  0.282682  0.503700  0.002394  1
  Pr  Pr9  1  0.999357  0.281977  0.500330  1
  Ga  Ga10  1  0.589875  0.589694  0.589447  1
  Ga  Ga11  1  0.501561  0.998135  0.909260  1
  Ga  Ga12  1  0.910125  0.499572  0.999819  1
  Ga  Ga13  1  0.998439  0.907698  0.496573  1
  Ru  Ru14  1  0.750000  0.379431  0.629431  1
  Ru  Ru15  1  0.870594  0.249901  0.121050  1
  Ru  Ru16  1  0.122238  0.873211  0.250068  1
  Ru  Ru17  1  0.629405  0.750455  0.379306  1
  Ru  Ru18  1  0.377762  0.627831  0.750975  1
  Rh  Rh19  1  0.250000  0.121064  0.871064  1
