# generated using pymatgen
data_Sr20Tl2CdAu9
_symmetry_space_group_name_H-M   'P 1'
_cell_length_a   8.51856300
_cell_length_b   8.51856300
_cell_length_c   15.60467200
_cell_angle_alpha   90.00000000
_cell_angle_beta   90.00000000
_cell_angle_gamma   90.00000000
_symmetry_Int_Tables_number   1
_chemical_formula_structural   Sr20Tl2CdAu9
_chemical_formula_sum   'Sr20 Tl2 Cd1 Au9'
_cell_volume   1132.36731108
_cell_formula_units_Z   1
loop_
 _symmetry_equiv_pos_site_id
 _symmetry_equiv_pos_as_xyz
  1  'x, y, z'
loop_
 _atom_site_type_symbol
 _atom_site_label
 _atom_site_symmetry_multiplicity
 _atom_site_fract_x
 _atom_site_fract_y
 _atom_site_fract_z
 _atom_site_occupancy
  Sr  Sr0  1  0.000000  0.000000  0.754612  1
  Sr  Sr1  1  0.500000  0.500000  0.251932  1
  Sr  Sr2  1  0.000000  0.000000  0.245388  1
  Sr  Sr3  1  0.500000  0.500000  0.748068  1
  Sr  Sr4  1  0.173555  0.657670  0.107498  1
  Sr  Sr5  1  0.666271  0.167760  0.611009  1
  Sr  Sr6  1  0.826445  0.342330  0.107498  1
  Sr  Sr7  1  0.333729  0.832240  0.611009  1
  Sr  Sr8  1  0.342330  0.173555  0.107498  1
  Sr  Sr9  1  0.832240  0.666271  0.611009  1
  Sr  Sr10  1  0.657670  0.826445  0.107498  1
  Sr  Sr11  1  0.167760  0.333729  0.611009  1
  Sr  Sr12  1  0.342330  0.826445  0.892502  1
  Sr  Sr13  1  0.832240  0.333729  0.388991  1
  Sr  Sr14  1  0.657670  0.173555  0.892502  1
  Sr  Sr15  1  0.167760  0.666271  0.388991  1
  Sr  Sr16  1  0.173555  0.342330  0.892502  1
  Sr  Sr17  1  0.666271  0.832240  0.388991  1
  Sr  Sr18  1  0.826445  0.657670  0.892502  1
  Sr  Sr19  1  0.333729  0.167760  0.388991  1
  Tl  Tl20  1  0.000000  0.000000  0.500000  1
  Tl  Tl21  1  0.500000  0.500000  0.500000  1
  Cd  Cd22  1  0.000000  0.000000  0.000000  1
  Au  Au23  1  0.628162  0.128786  0.247959  1
  Au  Au24  1  0.128786  0.628162  0.752041  1
  Au  Au25  1  0.871214  0.371838  0.752041  1
  Au  Au26  1  0.371838  0.871214  0.247959  1
  Au  Au27  1  0.371838  0.128786  0.752041  1
  Au  Au28  1  0.871214  0.628162  0.247959  1
  Au  Au29  1  0.128786  0.371838  0.247959  1
  Au  Au30  1  0.628162  0.871214  0.752041  1
  Au  Au31  1  0.500000  0.500000  0.000000  1
