# generated using pymatgen
data_Tb2SmTm(Mo2O7)2
_symmetry_space_group_name_H-M   'P 1'
_cell_length_a   7.37308474
_cell_length_b   7.37308604
_cell_length_c   7.37778149
_cell_angle_alpha   60.42722014
_cell_angle_beta   60.42721644
_cell_angle_gamma   59.82981640
_symmetry_Int_Tables_number   1
_chemical_formula_structural   Tb2SmTm(Mo2O7)2
_chemical_formula_sum   'Tb2 Sm1 Tm1 Mo4 O14'
_cell_volume   285.04603241
_cell_formula_units_Z   1
loop_
 _symmetry_equiv_pos_site_id
 _symmetry_equiv_pos_as_xyz
  1  'x, y, z'
loop_
 _atom_site_type_symbol
 _atom_site_label
 _atom_site_symmetry_multiplicity
 _atom_site_fract_x
 _atom_site_fract_y
 _atom_site_fract_z
 _atom_site_occupancy
  Tb  Tb0  1  0.625000  0.125000  0.125000  1
  Tb  Tb1  1  0.125000  0.625000  0.125000  1
  Sm  Sm2  1  0.125000  0.125000  0.625000  1
  Tm  Tm3  1  0.125000  0.125000  0.125000  1
  Mo  Mo4  1  0.625000  0.625000  0.625000  1
  Mo  Mo5  1  0.125000  0.625000  0.625000  1
  Mo  Mo6  1  0.625000  0.625000  0.125000  1
  Mo  Mo7  1  0.625000  0.125000  0.625000  1
  O  O8  1  0.000827  0.000827  0.005705  1
  O  O9  1  0.249173  0.249173  0.244295  1
  O  O10  1  0.281377  0.281377  0.728343  1
  O  O11  1  0.530198  0.530198  0.968260  1
  O  O12  1  0.708999  0.288438  0.713133  1
  O  O13  1  0.712474  0.289326  0.288293  1
  O  O14  1  0.288438  0.708999  0.713133  1
  O  O15  1  0.289326  0.712474  0.288293  1
  O  O16  1  0.719802  0.719802  0.281740  1
  O  O17  1  0.961562  0.541001  0.536867  1
  O  O18  1  0.537526  0.960674  0.961707  1
  O  O19  1  0.968623  0.968623  0.521657  1
  O  O20  1  0.960674  0.537526  0.961707  1
  O  O21  1  0.541001  0.961562  0.536867  1
