# generated using pymatgen
data_CsTaS6
_symmetry_space_group_name_H-M   'P 1'
_cell_length_a   8.74443517
_cell_length_b   8.74443367
_cell_length_c   7.28808057
_cell_angle_alpha   88.96098915
_cell_angle_beta   88.96099054
_cell_angle_gamma   120.48716344
_symmetry_Int_Tables_number   1
_chemical_formula_structural   CsTaS6
_chemical_formula_sum   'Cs2 Ta2 S12'
_cell_volume   479.91491751
_cell_formula_units_Z   2
loop_
 _symmetry_equiv_pos_site_id
 _symmetry_equiv_pos_as_xyz
  1  'x, y, z'
loop_
 _atom_site_type_symbol
 _atom_site_label
 _atom_site_symmetry_multiplicity
 _atom_site_fract_x
 _atom_site_fract_y
 _atom_site_fract_z
 _atom_site_occupancy
  Cs  Cs0  1  0.677828  0.338178  0.014251  1
  Cs  Cs1  1  0.338178  0.677828  0.514251  1
  Ta  Ta2  1  0.988304  0.016586  0.739001  1
  Ta  Ta3  1  0.016586  0.988304  0.239001  1
  S  S4  1  0.979526  0.204006  0.475590  1
  S  S5  1  0.204006  0.979526  0.975590  1
  S  S6  1  0.252237  0.307949  0.824560  1
  S  S7  1  0.307949  0.252237  0.324560  1
  S  S8  1  0.035420  0.222728  0.003849  1
  S  S9  1  0.222728  0.035420  0.503849  1
  S  S10  1  0.754301  0.089583  0.649178  1
  S  S11  1  0.089583  0.754301  0.149178  1
  S  S12  1  0.945440  0.714928  0.693871  1
  S  S13  1  0.714928  0.945440  0.193871  1
  S  S14  1  0.805378  0.765090  0.497082  1
  S  S15  1  0.765090  0.805378  0.997082  1
