# generated using pymatgen
data_Tb11Y9(SiBi2)4
_symmetry_space_group_name_H-M   'P 1'
_cell_length_a   12.12249902
_cell_length_b   9.19990009
_cell_length_c   8.09815607
_cell_angle_alpha   90.01465836
_cell_angle_beta   89.99913868
_cell_angle_gamma   89.99430390
_symmetry_Int_Tables_number   1
_chemical_formula_structural   Tb11Y9(SiBi2)4
_chemical_formula_sum   'Tb11 Y9 Si4 Bi8'
_cell_volume   903.15313566
_cell_formula_units_Z   1
loop_
 _symmetry_equiv_pos_site_id
 _symmetry_equiv_pos_as_xyz
  1  'x, y, z'
loop_
 _atom_site_type_symbol
 _atom_site_label
 _atom_site_symmetry_multiplicity
 _atom_site_fract_x
 _atom_site_fract_y
 _atom_site_fract_z
 _atom_site_occupancy
  Tb  Tb0  1  0.436573  0.051847  0.319838  1
  Tb  Tb1  1  0.063463  0.948080  0.819798  1
  Tb  Tb2  1  0.563467  0.551897  0.680176  1
  Tb  Tb3  1  0.211446  0.749978  0.164825  1
  Tb  Tb4  1  0.711448  0.750010  0.335130  1
  Tb  Tb5  1  0.788556  0.249973  0.835220  1
  Tb  Tb6  1  0.288543  0.250034  0.664875  1
  Tb  Tb7  1  0.295398  0.750070  0.635655  1
  Tb  Tb8  1  0.795428  0.749984  0.864358  1
  Tb  Tb9  1  0.704613  0.249959  0.364346  1
  Tb  Tb10  1  0.204547  0.249975  0.135727  1
  Y  Y11  1  0.063486  0.551628  0.820012  1
  Y  Y12  1  0.563424  0.948381  0.679745  1
  Y  Y13  1  0.936581  0.051660  0.179796  1
  Y  Y14  1  0.436585  0.448379  0.320258  1
  Y  Y15  1  0.936523  0.448343  0.180103  1
  Y  Y16  1  0.000930  0.750140  0.459590  1
  Y  Y17  1  0.500951  0.749907  0.040405  1
  Y  Y18  1  0.999056  0.249964  0.540495  1
  Y  Y19  1  0.499067  0.249896  0.959559  1
  Si  Si20  1  0.479865  0.749854  0.413964  1
  Si  Si21  1  0.979781  0.749831  0.086054  1
  Si  Si22  1  0.520124  0.249826  0.586049  1
  Si  Si23  1  0.020114  0.250366  0.913978  1
  Bi  Bi24  1  0.326076  0.510864  0.931951  1
  Bi  Bi25  1  0.826093  0.989172  0.568076  1
  Bi  Bi26  1  0.673898  0.010883  0.068073  1
  Bi  Bi27  1  0.173881  0.489098  0.431990  1
  Bi  Bi28  1  0.673942  0.489137  0.068032  1
  Bi  Bi29  1  0.173902  0.010898  0.431983  1
  Bi  Bi30  1  0.326088  0.989144  0.931986  1
  Bi  Bi31  1  0.826151  0.510822  0.567952  1
