# generated using pymatgen
data_Sm2Th(AlNi)3
_symmetry_space_group_name_H-M   'P 1'
_cell_length_a   7.12241600
_cell_length_b   7.02260789
_cell_length_c   4.00810600
_cell_angle_alpha   90.00000000
_cell_angle_beta   90.00000000
_cell_angle_gamma   120.47125723
_symmetry_Int_Tables_number   1
_chemical_formula_structural   Sm2Th(AlNi)3
_chemical_formula_sum   'Sm2 Th1 Al3 Ni3'
_cell_volume   172.78800984
_cell_formula_units_Z   1
loop_
 _symmetry_equiv_pos_site_id
 _symmetry_equiv_pos_as_xyz
  1  'x, y, z'
loop_
 _atom_site_type_symbol
 _atom_site_label
 _atom_site_symmetry_multiplicity
 _atom_site_fract_x
 _atom_site_fract_y
 _atom_site_fract_z
 _atom_site_occupancy
  Sm  Sm0  1  0.999506  0.418137  0.500000  1
  Sm  Sm1  1  0.581369  0.581863  0.500000  1
  Th  Th2  1  0.420541  0.000000  0.500000  1
  Al  Al3  1  0.994895  0.764587  0.000000  1
  Al  Al4  1  0.230308  0.235413  0.000000  1
  Al  Al5  1  0.776278  0.000000  0.000000  1
  Ni  Ni6  1  0.335789  0.682912  0.000000  1
  Ni  Ni7  1  0.652877  0.317088  0.000000  1
  Ni  Ni8  1  0.008437  0.000000  0.500000  1
