# generated using pymatgen
data_Er2Lu10Tc3Pt
_symmetry_space_group_name_H-M   'P 1'
_cell_length_a   6.17293107
_cell_length_b   7.32862145
_cell_length_c   8.93870500
_cell_angle_alpha   90.00000000
_cell_angle_beta   90.00000000
_cell_angle_gamma   89.98910145
_symmetry_Int_Tables_number   1
_chemical_formula_structural   Er2Lu10Tc3Pt
_chemical_formula_sum   'Er2 Lu10 Tc3 Pt1'
_cell_volume   404.37873872
_cell_formula_units_Z   1
loop_
 _symmetry_equiv_pos_site_id
 _symmetry_equiv_pos_as_xyz
  1  'x, y, z'
loop_
 _atom_site_type_symbol
 _atom_site_label
 _atom_site_symmetry_multiplicity
 _atom_site_fract_x
 _atom_site_fract_y
 _atom_site_fract_z
 _atom_site_occupancy
  Er  Er0  1  0.876108  0.540808  0.250000  1
  Er  Er1  1  0.620335  0.037443  0.250000  1
  Lu  Lu2  1  0.331863  0.676915  0.065220  1
  Lu  Lu3  1  0.162297  0.177126  0.438233  1
  Lu  Lu4  1  0.664187  0.318130  0.559110  1
  Lu  Lu5  1  0.839447  0.827764  0.940560  1
  Lu  Lu6  1  0.664187  0.318130  0.940890  1
  Lu  Lu7  1  0.839447  0.827764  0.559440  1
  Lu  Lu8  1  0.331863  0.676915  0.434780  1
  Lu  Lu9  1  0.162297  0.177126  0.061767  1
  Lu  Lu10  1  0.128373  0.455995  0.750000  1
  Lu  Lu11  1  0.372903  0.964341  0.750000  1
  Tc  Tc12  1  0.039958  0.885482  0.250000  1
  Tc  Tc13  1  0.461993  0.386657  0.250000  1
  Tc  Tc14  1  0.960289  0.115320  0.750000  1
  Pt  Pt15  1  0.544452  0.614084  0.750000  1
