# generated using pymatgen
data_Dy17Y3(Ag3Ru)2
_symmetry_space_group_name_H-M   'P 1'
_cell_length_a   9.50626900
_cell_length_b   9.50626973
_cell_length_c   9.65800000
_cell_angle_alpha   90.00000000
_cell_angle_beta   90.00000000
_cell_angle_gamma   120.00000095
_symmetry_Int_Tables_number   1
_chemical_formula_structural   Dy17Y3(Ag3Ru)2
_chemical_formula_sum   'Dy17 Y3 Ag6 Ru2'
_cell_volume   755.85425224
_cell_formula_units_Z   1
loop_
 _symmetry_equiv_pos_site_id
 _symmetry_equiv_pos_as_xyz
  1  'x, y, z'
loop_
 _atom_site_type_symbol
 _atom_site_label
 _atom_site_symmetry_multiplicity
 _atom_site_fract_x
 _atom_site_fract_y
 _atom_site_fract_z
 _atom_site_occupancy
  Dy  Dy0  1  0.000000  0.000000  0.499958  1
  Dy  Dy1  1  0.000000  0.000000  0.000042  1
  Dy  Dy2  1  0.208824  0.791176  0.440695  1
  Dy  Dy3  1  0.208824  0.417648  0.440695  1
  Dy  Dy4  1  0.582352  0.791176  0.440695  1
  Dy  Dy5  1  0.791207  0.208793  0.559027  1
  Dy  Dy6  1  0.791207  0.582414  0.559027  1
  Dy  Dy7  1  0.417586  0.208793  0.559027  1
  Dy  Dy8  1  0.791207  0.208793  0.940973  1
  Dy  Dy9  1  0.791207  0.582414  0.940973  1
  Dy  Dy10  1  0.417586  0.208793  0.940973  1
  Dy  Dy11  1  0.208824  0.791176  0.059305  1
  Dy  Dy12  1  0.208824  0.417648  0.059305  1
  Dy  Dy13  1  0.582352  0.791176  0.059305  1
  Dy  Dy14  1  0.541151  0.458849  0.250000  1
  Dy  Dy15  1  0.541151  0.082301  0.250000  1
  Dy  Dy16  1  0.917699  0.458849  0.250000  1
  Y  Y17  1  0.458934  0.541066  0.750000  1
  Y  Y18  1  0.458934  0.917869  0.750000  1
  Y  Y19  1  0.082131  0.541066  0.750000  1
  Ag  Ag20  1  0.883877  0.116123  0.250000  1
  Ag  Ag21  1  0.883877  0.767756  0.250000  1
  Ag  Ag22  1  0.232244  0.116123  0.250000  1
  Ag  Ag23  1  0.115973  0.884027  0.750000  1
  Ag  Ag24  1  0.115973  0.231945  0.750000  1
  Ag  Ag25  1  0.768055  0.884027  0.750000  1
  Ru  Ru26  1  0.333333  0.666667  0.250000  1
  Ru  Ru27  1  0.666667  0.333333  0.750000  1
