# generated using pymatgen
data_Sr4TbYb(IrO6)2
_symmetry_space_group_name_H-M   'P 1'
_cell_length_a   5.81505257
_cell_length_b   5.88186667
_cell_length_c   8.25353997
_cell_angle_alpha   89.84095789
_cell_angle_beta   90.41617089
_cell_angle_gamma   90.01062164
_symmetry_Int_Tables_number   1
_chemical_formula_structural   Sr4TbYb(IrO6)2
_chemical_formula_sum   'Sr4 Tb1 Yb1 Ir2 O12'
_cell_volume   282.29029282
_cell_formula_units_Z   1
loop_
 _symmetry_equiv_pos_site_id
 _symmetry_equiv_pos_as_xyz
  1  'x, y, z'
loop_
 _atom_site_type_symbol
 _atom_site_label
 _atom_site_symmetry_multiplicity
 _atom_site_fract_x
 _atom_site_fract_y
 _atom_site_fract_z
 _atom_site_occupancy
  Sr  Sr0  1  0.008753  0.536744  0.242429  1
  Sr  Sr1  1  0.490762  0.041348  0.244029  1
  Sr  Sr2  1  0.509238  0.958651  0.755969  1
  Sr  Sr3  1  0.991248  0.463256  0.757573  1
  Tb  Tb4  1  0.000001  0.999999  0.500001  1
  Yb  Yb5  1  0.500000  0.500000  0.999999  1
  Ir  Ir6  1  0.999999  0.000001  0.999998  1
  Ir  Ir7  1  0.499994  0.500003  0.500013  1
  O  O8  1  0.268131  0.803390  0.038112  1
  O  O9  1  0.193077  0.269286  0.040221  1
  O  O10  1  0.924133  0.980888  0.233912  1
  O  O11  1  0.574833  0.481074  0.269595  1
  O  O12  1  0.305421  0.772423  0.457816  1
  O  O13  1  0.229222  0.301602  0.459986  1
  O  O14  1  0.770779  0.698396  0.540013  1
  O  O15  1  0.694580  0.227575  0.542183  1
  O  O16  1  0.425170  0.518924  0.730396  1
  O  O17  1  0.075868  0.019112  0.766089  1
  O  O18  1  0.806924  0.730714  0.959780  1
  O  O19  1  0.731869  0.196608  0.961889  1
