# generated using pymatgen
data_Ba2NaIrO6
_symmetry_space_group_name_H-M   'P 1'
_cell_length_a   5.96756651
_cell_length_b   5.93461906
_cell_length_c   8.42693118
_cell_angle_alpha   90.00139370
_cell_angle_beta   90.08485722
_cell_angle_gamma   89.98304426
_symmetry_Int_Tables_number   1
_chemical_formula_structural   Ba2NaIrO6
_chemical_formula_sum   'Ba4 Na2 Ir2 O12'
_cell_volume   298.44139918
_cell_formula_units_Z   2
loop_
 _symmetry_equiv_pos_site_id
 _symmetry_equiv_pos_as_xyz
  1  'x, y, z'
loop_
 _atom_site_type_symbol
 _atom_site_label
 _atom_site_symmetry_multiplicity
 _atom_site_fract_x
 _atom_site_fract_y
 _atom_site_fract_z
 _atom_site_occupancy
  Ba  Ba0  1  0.500538  0.507416  0.250106  1
  Ba  Ba1  1  0.999287  0.007279  0.249877  1
  Ba  Ba2  1  0.000827  0.992692  0.750181  1
  Ba  Ba3  1  0.499413  0.492693  0.749994  1
  Na  Na4  1  0.000066  0.500076  0.000013  1
  Na  Na5  1  0.499903  0.000023  0.499956  1
  Ir  Ir6  1  0.500002  0.000026  0.999992  1
  Ir  Ir7  1  0.000004  0.499948  0.500004  1
  O  O8  1  0.739955  0.784732  0.016080  1
  O  O9  1  0.713708  0.241829  0.015297  1
  O  O10  1  0.469324  0.998937  0.227552  1
  O  O11  1  0.030606  0.498751  0.272466  1
  O  O12  1  0.786415  0.741718  0.484747  1
  O  O13  1  0.760076  0.284732  0.483867  1
  O  O14  1  0.239945  0.715183  0.516046  1
  O  O15  1  0.213599  0.258196  0.515303  1
  O  O16  1  0.969466  0.501187  0.727550  1
  O  O17  1  0.530524  0.001177  0.772397  1
  O  O18  1  0.286338  0.758149  0.984667  1
  O  O19  1  0.260005  0.215256  0.983901  1
