# generated using pymatgen
data_Dy3Y(AlRu)4
_symmetry_space_group_name_H-M   'P 1'
_cell_length_a   7.07220284
_cell_length_b   4.02573700
_cell_length_c   8.11085074
_cell_angle_alpha   90.00000000
_cell_angle_beta   90.14745973
_cell_angle_gamma   90.00000000
_symmetry_Int_Tables_number   1
_chemical_formula_structural   Dy3Y(AlRu)4
_chemical_formula_sum   'Dy3 Y1 Al4 Ru4'
_cell_volume   230.92187661
_cell_formula_units_Z   1
loop_
 _symmetry_equiv_pos_site_id
 _symmetry_equiv_pos_as_xyz
  1  'x, y, z'
loop_
 _atom_site_type_symbol
 _atom_site_label
 _atom_site_symmetry_multiplicity
 _atom_site_fract_x
 _atom_site_fract_y
 _atom_site_fract_z
 _atom_site_occupancy
  Dy  Dy0  1  0.967875  0.749999  0.178745  1
  Dy  Dy1  1  0.468765  0.749999  0.320793  1
  Dy  Dy2  1  0.531606  0.250000  0.678560  1
  Y  Y3  1  0.031742  0.250000  0.821361  1
  Al  Al4  1  0.637713  0.250000  0.058167  1
  Al  Al5  1  0.137769  0.250000  0.441865  1
  Al  Al6  1  0.862776  0.749999  0.558478  1
  Al  Al7  1  0.361528  0.749999  0.942035  1
  Ru  Ru8  1  0.271005  0.250000  0.127830  1
  Ru  Ru9  1  0.771134  0.250000  0.373579  1
  Ru  Ru10  1  0.230875  0.749999  0.625420  1
  Ru  Ru11  1  0.727215  0.749999  0.873164  1
