# generated using pymatgen
data_Mn3CoSi3NiMo4
_symmetry_space_group_name_H-M   'P 1'
_cell_length_a   4.75459288
_cell_length_b   4.76074069
_cell_length_c   7.71094900
_cell_angle_alpha   90.00000000
_cell_angle_beta   90.00000000
_cell_angle_gamma   120.21585379
_symmetry_Int_Tables_number   1
_chemical_formula_structural   Mn3CoSi3NiMo4
_chemical_formula_sum   'Mn3 Co1 Si3 Ni1 Mo4'
_cell_volume   150.82647542
_cell_formula_units_Z   1
loop_
 _symmetry_equiv_pos_site_id
 _symmetry_equiv_pos_as_xyz
  1  'x, y, z'
loop_
 _atom_site_type_symbol
 _atom_site_label
 _atom_site_symmetry_multiplicity
 _atom_site_fract_x
 _atom_site_fract_y
 _atom_site_fract_z
 _atom_site_occupancy
  Mn  Mn0  1  0.833649  0.172820  0.000000  1
  Mn  Mn1  1  0.835197  0.663192  0.000000  1
  Mn  Mn2  1  0.351618  0.176900  0.000000  1
  Co  Co3  1  0.146824  0.322697  0.500000  1
  Si  Si4  1  0.625886  0.810896  0.500000  1
  Si  Si5  1  0.020578  0.012789  0.251040  1
  Si  Si6  1  0.020578  0.012789  0.748960  1
  Ni  Ni7  1  0.150382  0.822353  0.500000  1
  Mo  Mo8  1  0.668904  0.332884  0.688110  1
  Mo  Mo9  1  0.338667  0.669971  0.816605  1
  Mo  Mo10  1  0.338667  0.669971  0.183395  1
  Mo  Mo11  1  0.668904  0.332884  0.311890  1
