# generated using pymatgen
data_PrTh3(Zn5Sn)2
_symmetry_space_group_name_H-M   'P 1'
_cell_length_a   8.58429126
_cell_length_b   8.58429220
_cell_length_c   9.06296888
_cell_angle_alpha   89.82108060
_cell_angle_beta   90.17891967
_cell_angle_gamma   149.58322377
_symmetry_Int_Tables_number   1
_chemical_formula_structural   PrTh3(Zn5Sn)2
_chemical_formula_sum   'Pr1 Th3 Zn10 Sn2'
_cell_volume   338.12191172
_cell_formula_units_Z   1
loop_
 _symmetry_equiv_pos_site_id
 _symmetry_equiv_pos_as_xyz
  1  'x, y, z'
loop_
 _atom_site_type_symbol
 _atom_site_label
 _atom_site_symmetry_multiplicity
 _atom_site_fract_x
 _atom_site_fract_y
 _atom_site_fract_z
 _atom_site_occupancy
  Pr  Pr0  1  0.000000  0.000000  0.000000  1
  Th  Th1  1  0.204861  0.795139  0.250434  1
  Th  Th2  1  0.795139  0.204861  0.749566  1
  Th  Th3  1  0.000000  0.000000  0.500000  1
  Zn  Zn4  1  0.815201  0.184799  0.393323  1
  Zn  Zn5  1  0.184799  0.815201  0.606677  1
  Zn  Zn6  1  0.814760  0.185240  0.107362  1
  Zn  Zn7  1  0.185240  0.814760  0.892638  1
  Zn  Zn8  1  0.656840  0.343160  0.483240  1
  Zn  Zn9  1  0.343160  0.656840  0.516760  1
  Zn  Zn10  1  0.657514  0.342486  0.017060  1
  Zn  Zn11  1  0.342486  0.657514  0.982940  1
  Zn  Zn12  1  0.394993  0.605007  0.251377  1
  Zn  Zn13  1  0.605007  0.394993  0.748623  1
  Sn  Sn14  1  0.555152  0.444848  0.250277  1
  Sn  Sn15  1  0.444848  0.555152  0.749723  1
