# generated using pymatgen
data_Rb2Pb(SeO4)2
_symmetry_space_group_name_H-M   'P 1'
_cell_length_a   8.23232814
_cell_length_b   8.23232866
_cell_length_c   8.23232939
_cell_angle_alpha   42.17030121
_cell_angle_beta   42.17029689
_cell_angle_gamma   42.17030062
_symmetry_Int_Tables_number   1
_chemical_formula_structural   Rb2Pb(SeO4)2
_chemical_formula_sum   'Rb2 Pb1 Se2 O8'
_cell_volume   227.53036448
_cell_formula_units_Z   1
loop_
 _symmetry_equiv_pos_site_id
 _symmetry_equiv_pos_as_xyz
  1  'x, y, z'
loop_
 _atom_site_type_symbol
 _atom_site_label
 _atom_site_symmetry_multiplicity
 _atom_site_fract_x
 _atom_site_fract_y
 _atom_site_fract_z
 _atom_site_occupancy
  Rb  Rb0  1  0.200220  0.200220  0.200220  1
  Rb  Rb1  1  0.799780  0.799780  0.799780  1
  Pb  Pb2  1  0.000000  0.000000  0.000000  1
  Se  Se3  1  0.395773  0.395773  0.395773  1
  Se  Se4  1  0.604227  0.604227  0.604227  1
  O  O5  1  0.266432  0.730911  0.266433  1
  O  O6  1  0.730911  0.266432  0.266433  1
  O  O7  1  0.733568  0.733568  0.269089  1
  O  O8  1  0.321975  0.321975  0.321975  1
  O  O9  1  0.678025  0.678025  0.678025  1
  O  O10  1  0.266433  0.266433  0.730911  1
  O  O11  1  0.733568  0.269089  0.733568  1
  O  O12  1  0.269089  0.733568  0.733568  1
