# generated using pymatgen
data_LaY3Np2O12
_symmetry_space_group_name_H-M   'P 1'
_cell_length_a   5.63433000
_cell_length_b   7.96071500
_cell_length_c   11.96603119
_cell_angle_alpha   74.00773629
_cell_angle_beta   90.00000000
_cell_angle_gamma   90.00000000
_symmetry_Int_Tables_number   1
_chemical_formula_structural   LaY3Np2O12
_chemical_formula_sum   'La2 Y6 Np4 O24'
_cell_volume   515.94443693
_cell_formula_units_Z   2
loop_
 _symmetry_equiv_pos_site_id
 _symmetry_equiv_pos_as_xyz
  1  'x, y, z'
loop_
 _atom_site_type_symbol
 _atom_site_label
 _atom_site_symmetry_multiplicity
 _atom_site_fract_x
 _atom_site_fract_y
 _atom_site_fract_z
 _atom_site_occupancy
  La  La0  1  0.305948  0.500000  0.750000  1
  La  La1  1  0.694052  0.500000  0.250000  1
  Y  Y2  1  0.186507  0.795218  0.077828  1
  Y  Y3  1  0.253731  0.000000  0.750000  1
  Y  Y4  1  0.746269  0.000000  0.250000  1
  Y  Y5  1  0.186507  0.204782  0.422172  1
  Y  Y6  1  0.813493  0.204782  0.922172  1
  Y  Y7  1  0.813493  0.795218  0.577828  1
  Np  Np8  1  0.746321  0.729775  0.883907  1
  Np  Np9  1  0.253679  0.729775  0.383907  1
  Np  Np10  1  0.746321  0.270225  0.616093  1
  Np  Np11  1  0.253679  0.270225  0.116093  1
  O  O12  1  0.875034  0.363346  0.451266  1
  O  O13  1  0.445424  0.845933  0.931518  1
  O  O14  1  0.875034  0.636654  0.048734  1
  O  O15  1  0.031085  0.276951  0.733155  1
  O  O16  1  0.968915  0.276951  0.233155  1
  O  O17  1  0.124966  0.363346  0.951266  1
  O  O18  1  0.631431  0.487932  0.884130  1
  O  O19  1  0.554576  0.154067  0.068482  1
  O  O20  1  0.124966  0.636654  0.548734  1
  O  O21  1  0.031085  0.723049  0.766845  1
  O  O22  1  0.446741  0.194704  0.274698  1
  O  O23  1  0.043517  0.948450  0.396075  1
  O  O24  1  0.445424  0.154067  0.568482  1
  O  O25  1  0.968915  0.723049  0.266845  1
  O  O26  1  0.956483  0.051550  0.603925  1
  O  O27  1  0.553259  0.194704  0.774698  1
  O  O28  1  0.553259  0.805296  0.725302  1
  O  O29  1  0.043517  0.051550  0.103925  1
  O  O30  1  0.631431  0.512068  0.615870  1
  O  O31  1  0.368569  0.512068  0.115870  1
  O  O32  1  0.446741  0.805296  0.225302  1
  O  O33  1  0.368569  0.487932  0.384130  1
  O  O34  1  0.554576  0.845933  0.431518  1
  O  O35  1  0.956483  0.948450  0.896075  1
