# generated using pymatgen
data_Pr2IrRhF14
_symmetry_space_group_name_H-M   'P 1'
_cell_length_a   5.68442300
_cell_length_b   9.22919009
_cell_length_c   12.35707300
_cell_angle_alpha   62.23330969
_cell_angle_beta   90.00000000
_cell_angle_gamma   90.00000000
_symmetry_Int_Tables_number   1
_chemical_formula_structural   Pr2IrRhF14
_chemical_formula_sum   'Pr4 Ir2 Rh2 F28'
_cell_volume   573.63575297
_cell_formula_units_Z   2
loop_
 _symmetry_equiv_pos_site_id
 _symmetry_equiv_pos_as_xyz
  1  'x, y, z'
loop_
 _atom_site_type_symbol
 _atom_site_label
 _atom_site_symmetry_multiplicity
 _atom_site_fract_x
 _atom_site_fract_y
 _atom_site_fract_z
 _atom_site_occupancy
  Pr  Pr0  1  0.757602  0.815246  0.766859  1
  Pr  Pr1  1  0.257602  0.184754  0.733141  1
  Pr  Pr2  1  0.237799  0.194873  0.236443  1
  Pr  Pr3  1  0.737799  0.805127  0.263557  1
  Ir  Ir4  1  0.754601  0.276420  0.954579  1
  Ir  Ir5  1  0.254601  0.723580  0.545421  1
  Rh  Rh6  1  0.243071  0.728655  0.040031  1
  Rh  Rh7  1  0.743071  0.271345  0.459969  1
  F  F8  1  0.435825  0.710429  0.914661  1
  F  F9  1  0.935825  0.289571  0.585339  1
  F  F10  1  0.562202  0.294742  0.078106  1
  F  F11  1  0.062202  0.705258  0.421894  1
  F  F12  1  0.453219  0.283018  0.542912  1
  F  F13  1  0.953219  0.716982  0.957088  1
  F  F14  1  0.542873  0.715311  0.460992  1
  F  F15  1  0.042873  0.284689  0.039008  1
  F  F16  1  0.763753  0.512492  0.860048  1
  F  F17  1  0.263753  0.487508  0.639952  1
  F  F18  1  0.236457  0.489490  0.135627  1
  F  F19  1  0.736457  0.510510  0.364373  1
  F  F20  1  0.755056  0.040526  0.044679  1
  F  F21  1  0.255056  0.959474  0.455321  1
  F  F22  1  0.236094  0.967641  0.945849  1
  F  F23  1  0.736094  0.032359  0.554151  1
  F  F24  1  0.970286  0.726271  0.633672  1
  F  F25  1  0.470286  0.273729  0.866328  1
  F  F26  1  0.027961  0.263917  0.372728  1
  F  F27  1  0.527961  0.736083  0.127272  1
  F  F28  1  0.055475  0.747792  0.166906  1
  F  F29  1  0.555475  0.252208  0.333094  1
  F  F30  1  0.946067  0.262213  0.828628  1
  F  F31  1  0.446067  0.737787  0.671372  1
  F  F32  1  0.416961  0.973151  0.233451  1
  F  F33  1  0.916961  0.026849  0.266549  1
  F  F34  1  0.604696  0.038916  0.773432  1
  F  F35  1  0.104696  0.961084  0.726568  1
