# generated using pymatgen
data_CaTlFeP2O9
_symmetry_space_group_name_H-M   'P 1'
_cell_length_a   6.69040700
_cell_length_b   7.51030400
_cell_length_c   15.01440800
_cell_angle_alpha   90.00000000
_cell_angle_beta   90.00000000
_cell_angle_gamma   90.00000000
_symmetry_Int_Tables_number   1
_chemical_formula_structural   CaTlFeP2O9
_chemical_formula_sum   'Ca4 Tl4 Fe4 P8 O36'
_cell_volume   754.42881544
_cell_formula_units_Z   4
loop_
 _symmetry_equiv_pos_site_id
 _symmetry_equiv_pos_as_xyz
  1  'x, y, z'
loop_
 _atom_site_type_symbol
 _atom_site_label
 _atom_site_symmetry_multiplicity
 _atom_site_fract_x
 _atom_site_fract_y
 _atom_site_fract_z
 _atom_site_occupancy
  Ca  Ca0  1  0.250000  0.099831  0.726241  1
  Ca  Ca1  1  0.250000  0.400169  0.226241  1
  Ca  Ca2  1  0.750000  0.900169  0.273759  1
  Ca  Ca3  1  0.750000  0.599831  0.773759  1
  Tl  Tl4  1  0.000000  0.000000  0.500000  1
  Tl  Tl5  1  0.000000  0.500000  0.000000  1
  Tl  Tl6  1  0.500000  0.500000  0.000000  1
  Tl  Tl7  1  0.500000  0.000000  0.500000  1
  Fe  Fe8  1  0.250000  0.637815  0.616342  1
  Fe  Fe9  1  0.750000  0.362185  0.383658  1
  Fe  Fe10  1  0.750000  0.137815  0.883658  1
  Fe  Fe11  1  0.250000  0.862185  0.116342  1
  P  P12  1  0.750000  0.615507  0.565482  1
  P  P13  1  0.250000  0.384493  0.434518  1
  P  P14  1  0.250000  0.115507  0.934518  1
  P  P15  1  0.750000  0.884493  0.065482  1
  P  P16  1  0.250000  0.601137  0.794342  1
  P  P17  1  0.750000  0.398863  0.205658  1
  P  P18  1  0.750000  0.101137  0.705658  1
  P  P19  1  0.250000  0.898863  0.294342  1
  O  O20  1  0.558111  0.407287  0.148657  1
  O  O21  1  0.058111  0.592713  0.851343  1
  O  O22  1  0.441889  0.907287  0.351343  1
  O  O23  1  0.941889  0.092713  0.648657  1
  O  O24  1  0.441889  0.592713  0.851343  1
  O  O25  1  0.941889  0.407287  0.148657  1
  O  O26  1  0.558111  0.092713  0.648657  1
  O  O27  1  0.058111  0.907287  0.351343  1
  O  O28  1  0.750000  0.716015  0.003623  1
  O  O29  1  0.250000  0.283985  0.996377  1
  O  O30  1  0.250000  0.216015  0.496377  1
  O  O31  1  0.750000  0.783985  0.503623  1
  O  O32  1  0.250000  0.883272  0.567301  1
  O  O33  1  0.750000  0.116728  0.432699  1
  O  O34  1  0.750000  0.383272  0.932699  1
  O  O35  1  0.250000  0.616728  0.067301  1
  O  O36  1  0.250000  0.775592  0.737238  1
  O  O37  1  0.750000  0.224408  0.262762  1
  O  O38  1  0.750000  0.275592  0.762762  1
  O  O39  1  0.250000  0.724408  0.237238  1
  O  O40  1  0.934585  0.878775  0.128501  1
  O  O41  1  0.434585  0.121225  0.871499  1
  O  O42  1  0.065415  0.378775  0.371499  1
  O  O43  1  0.565415  0.621225  0.628501  1
  O  O44  1  0.065415  0.121225  0.871499  1
  O  O45  1  0.565415  0.878775  0.128501  1
  O  O46  1  0.934585  0.621225  0.628501  1
  O  O47  1  0.434585  0.378775  0.371499  1
  O  O48  1  0.250000  0.048686  0.220903  1
  O  O49  1  0.750000  0.951314  0.779097  1
  O  O50  1  0.750000  0.548686  0.279097  1
  O  O51  1  0.250000  0.451314  0.720903  1
  O  O52  1  0.250000  0.951482  0.995063  1
  O  O53  1  0.750000  0.048518  0.004937  1
  O  O54  1  0.750000  0.451482  0.504937  1
  O  O55  1  0.250000  0.548518  0.495063  1
