# generated using pymatgen
data_Dy4Ga4PdRh3
_symmetry_space_group_name_H-M   'P 1'
_cell_length_a   4.32991000
_cell_length_b   6.89229511
_cell_length_c   7.77603541
_cell_angle_alpha   90.28240567
_cell_angle_beta   90.00000000
_cell_angle_gamma   90.00000000
_symmetry_Int_Tables_number   1
_chemical_formula_structural   Dy4Ga4PdRh3
_chemical_formula_sum   'Dy4 Ga4 Pd1 Rh3'
_cell_volume   232.05754219
_cell_formula_units_Z   1
loop_
 _symmetry_equiv_pos_site_id
 _symmetry_equiv_pos_as_xyz
  1  'x, y, z'
loop_
 _atom_site_type_symbol
 _atom_site_label
 _atom_site_symmetry_multiplicity
 _atom_site_fract_x
 _atom_site_fract_y
 _atom_site_fract_z
 _atom_site_occupancy
  Dy  Dy0  1  0.750000  0.024522  0.692841  1
  Dy  Dy1  1  0.750000  0.526292  0.810735  1
  Dy  Dy2  1  0.250000  0.966952  0.312100  1
  Dy  Dy3  1  0.250000  0.473397  0.184005  1
  Ga  Ga4  1  0.250000  0.847012  0.930381  1
  Ga  Ga5  1  0.250000  0.349194  0.571608  1
  Ga  Ga6  1  0.750000  0.148964  0.068975  1
  Ga  Ga7  1  0.750000  0.658917  0.429373  1
  Pd  Pd8  1  0.750000  0.272620  0.392008  1
  Rh  Rh9  1  0.750000  0.765048  0.109091  1
  Rh  Rh10  1  0.250000  0.734440  0.607940  1
  Rh  Rh11  1  0.250000  0.232645  0.890944  1
