# generated using pymatgen
data_Nd3TlIn3AgRh
_symmetry_space_group_name_H-M   'P 1'
_cell_length_a   7.99782400
_cell_length_b   7.99782471
_cell_length_c   4.13964800
_cell_angle_alpha   90.00000000
_cell_angle_beta   90.00000000
_cell_angle_gamma   120.00000534
_symmetry_Int_Tables_number   1
_chemical_formula_structural   Nd3TlIn3AgRh
_chemical_formula_sum   'Nd3 Tl1 In3 Ag1 Rh1'
_cell_volume   229.31778936
_cell_formula_units_Z   1
loop_
 _symmetry_equiv_pos_site_id
 _symmetry_equiv_pos_as_xyz
  1  'x, y, z'
loop_
 _atom_site_type_symbol
 _atom_site_label
 _atom_site_symmetry_multiplicity
 _atom_site_fract_x
 _atom_site_fract_y
 _atom_site_fract_z
 _atom_site_occupancy
  Nd  Nd0  1  0.602542  0.029616  0.500000  1
  Nd  Nd1  1  0.427075  0.397458  0.500000  1
  Nd  Nd2  1  0.970384  0.572925  0.500000  1
  Tl  Tl3  1  0.333333  0.666667  0.000000  1
  In  In4  1  0.259892  0.012236  0.000000  1
  In  In5  1  0.752345  0.740108  0.000000  1
  In  In6  1  0.987764  0.247655  0.000000  1
  Ag  Ag7  1  0.000000  0.000000  0.500000  1
  Rh  Rh8  1  0.666667  0.333333  0.000000  1
