# generated using pymatgen
data_AsH8
_symmetry_space_group_name_H-M   'P 1'
_cell_length_a   2.85398231
_cell_length_b   5.55294937
_cell_length_c   9.56700891
_cell_angle_alpha   85.08766836
_cell_angle_beta   101.36323714
_cell_angle_gamma   118.17986992
_symmetry_Int_Tables_number   1
_chemical_formula_structural   AsH8
_chemical_formula_sum   'As1 H8'
_cell_volume   131.02216331
_cell_formula_units_Z   1
loop_
 _symmetry_equiv_pos_site_id
 _symmetry_equiv_pos_as_xyz
  1  'x, y, z'
loop_
 _atom_site_type_symbol
 _atom_site_label
 _atom_site_symmetry_multiplicity
 _atom_site_fract_x
 _atom_site_fract_y
 _atom_site_fract_z
 _atom_site_occupancy
  As  As0  1  0.920910  0.148659  0.517117  1
  H  H1  1  0.737592  0.628859  0.252208  1
  H  H2  1  0.680107  0.079119  0.957834  1
  H  H3  1  0.970694  0.183241  0.977895  1
  H  H4  1  0.677924  0.721806  0.198383  1
  H  H5  1  0.632791  0.833996  0.514828  1
  H  H6  1  0.211933  0.688424  0.760227  1
  H  H7  1  0.029554  0.149705  0.680986  1
  H  H8  1  0.987880  0.599295  0.799978  1
