# generated using pymatgen
data_Tb11Dy5In3HgRh4
_symmetry_space_group_name_H-M   'P 1'
_cell_length_a   9.67781916
_cell_length_b   9.68435902
_cell_length_c   9.66781764
_cell_angle_alpha   60.00337476
_cell_angle_beta   59.99968407
_cell_angle_gamma   60.05998611
_symmetry_Int_Tables_number   1
_chemical_formula_structural   Tb11Dy5In3HgRh4
_chemical_formula_sum   'Tb11 Dy5 In3 Hg1 Rh4'
_cell_volume   641.01527966
_cell_formula_units_Z   1
loop_
 _symmetry_equiv_pos_site_id
 _symmetry_equiv_pos_as_xyz
  1  'x, y, z'
loop_
 _atom_site_type_symbol
 _atom_site_label
 _atom_site_symmetry_multiplicity
 _atom_site_fract_x
 _atom_site_fract_y
 _atom_site_fract_z
 _atom_site_occupancy
  Tb  Tb0  1  0.688937  0.311930  0.310112  1
  Tb  Tb1  1  0.689037  0.689318  0.311666  1
  Tb  Tb2  1  0.309975  0.689349  0.311624  1
  Tb  Tb3  1  0.937248  0.937074  0.559842  1
  Tb  Tb4  1  0.150394  0.148088  0.550538  1
  Tb  Tb5  1  0.565439  0.937488  0.559043  1
  Tb  Tb6  1  0.153209  0.150811  0.149678  1
  Tb  Tb7  1  0.308653  0.311661  0.690019  1
  Tb  Tb8  1  0.938958  0.562944  0.558830  1
  Tb  Tb9  1  0.563841  0.562999  0.935405  1
  Tb  Tb10  1  0.565294  0.936202  0.933601  1
  Dy  Dy11  1  0.937788  0.563160  0.935695  1
  Dy  Dy12  1  0.150963  0.550164  0.147773  1
  Dy  Dy13  1  0.309377  0.690581  0.690599  1
  Dy  Dy14  1  0.689784  0.311475  0.690235  1
  Dy  Dy15  1  0.546804  0.150781  0.149159  1
  In  In16  1  0.246345  0.917308  0.919318  1
  In  In17  1  0.916904  0.246416  0.919615  1
  In  In18  1  0.916898  0.917242  0.919317  1
  Hg  Hg19  1  0.913682  0.914699  0.257580  1
  Rh  Rh20  1  0.356692  0.357226  0.357791  1
  Rh  Rh21  1  0.927577  0.357686  0.358349  1
  Rh  Rh22  1  0.358373  0.359687  0.924687  1
  Rh  Rh23  1  0.357832  0.925713  0.359522  1
