# generated using pymatgen
data_Al2Tc2B2Ru
_symmetry_space_group_name_H-M   'P 1'
_cell_length_a   8.85397566
_cell_length_b   8.85397563
_cell_length_c   3.05286600
_cell_angle_alpha   90.00000000
_cell_angle_beta   90.00000000
_cell_angle_gamma   160.38050368
_symmetry_Int_Tables_number   1
_chemical_formula_structural   Al2Tc2B2Ru
_chemical_formula_sum   'Al2 Tc2 B2 Ru1'
_cell_volume   80.35797913
_cell_formula_units_Z   1
loop_
 _symmetry_equiv_pos_site_id
 _symmetry_equiv_pos_as_xyz
  1  'x, y, z'
loop_
 _atom_site_type_symbol
 _atom_site_label
 _atom_site_symmetry_multiplicity
 _atom_site_fract_x
 _atom_site_fract_y
 _atom_site_fract_z
 _atom_site_occupancy
  Al  Al0  1  0.419667  0.580333  0.500000  1
  Al  Al1  1  0.580333  0.419667  0.500000  1
  Tc  Tc2  1  0.178632  0.821368  0.000000  1
  Tc  Tc3  1  0.821368  0.178632  0.000000  1
  B  B4  1  0.279021  0.720979  0.500000  1
  B  B5  1  0.720979  0.279021  0.500000  1
  Ru  Ru6  1  0.000000  0.000000  0.000000  1
