# generated using pymatgen
data_Ho3Er(ZrPt)4
_symmetry_space_group_name_H-M   'P 1'
_cell_length_a   4.68741300
_cell_length_b   7.11147184
_cell_length_c   8.24257318
_cell_angle_alpha   90.02306944
_cell_angle_beta   90.00000000
_cell_angle_gamma   90.00000000
_symmetry_Int_Tables_number   1
_chemical_formula_structural   Ho3Er(ZrPt)4
_chemical_formula_sum   'Ho3 Er1 Zr4 Pt4'
_cell_volume   274.76125513
_cell_formula_units_Z   1
loop_
 _symmetry_equiv_pos_site_id
 _symmetry_equiv_pos_as_xyz
  1  'x, y, z'
loop_
 _atom_site_type_symbol
 _atom_site_label
 _atom_site_symmetry_multiplicity
 _atom_site_fract_x
 _atom_site_fract_y
 _atom_site_fract_z
 _atom_site_occupancy
  Ho  Ho0  1  0.250000  0.016127  0.322032  1
  Ho  Ho1  1  0.250000  0.516109  0.177873  1
  Ho  Ho2  1  0.750000  0.983797  0.678331  1
  Er  Er3  1  0.750000  0.483416  0.821949  1
  Zr  Zr4  1  0.250000  0.648547  0.580265  1
  Zr  Zr5  1  0.250000  0.148683  0.919982  1
  Zr  Zr6  1  0.750000  0.351506  0.420194  1
  Zr  Zr7  1  0.750000  0.851301  0.079748  1
  Pt  Pt8  1  0.250000  0.271088  0.594615  1
  Pt  Pt9  1  0.250000  0.770298  0.905814  1
  Pt  Pt10  1  0.750000  0.729376  0.405852  1
  Pt  Pt11  1  0.750000  0.229753  0.093347  1
