# generated using pymatgen
data_TbNd(CuSn)2
_symmetry_space_group_name_H-M   'P 1'
_cell_length_a   4.59058700
_cell_length_b   4.59058642
_cell_length_c   7.48008200
_cell_angle_alpha   90.00000000
_cell_angle_beta   90.00000000
_cell_angle_gamma   120.00001140
_symmetry_Int_Tables_number   1
_chemical_formula_structural   TbNd(CuSn)2
_chemical_formula_sum   'Tb1 Nd1 Cu2 Sn2'
_cell_volume   136.51278619
_cell_formula_units_Z   1
loop_
 _symmetry_equiv_pos_site_id
 _symmetry_equiv_pos_as_xyz
  1  'x, y, z'
loop_
 _atom_site_type_symbol
 _atom_site_label
 _atom_site_symmetry_multiplicity
 _atom_site_fract_x
 _atom_site_fract_y
 _atom_site_fract_z
 _atom_site_occupancy
  Tb  Tb0  1  0.000000  0.000000  0.533813  1
  Nd  Nd1  1  0.000000  0.000000  0.033286  1
  Cu  Cu2  1  0.666667  0.333333  0.707874  1
  Cu  Cu3  1  0.333333  0.666667  0.232921  1
  Sn  Sn4  1  0.666667  0.333333  0.308796  1
  Sn  Sn5  1  0.333333  0.666667  0.793310  1
