# generated using pymatgen
data_HfSc(Mn2P)4
_symmetry_space_group_name_H-M   'P 1'
_cell_length_a   6.83772756
_cell_length_b   6.83772746
_cell_length_c   3.66489500
_cell_angle_alpha   90.00000000
_cell_angle_beta   90.00000000
_cell_angle_gamma   89.95431569
_symmetry_Int_Tables_number   1
_chemical_formula_structural   HfSc(Mn2P)4
_chemical_formula_sum   'Hf1 Sc1 Mn8 P4'
_cell_volume   171.35034299
_cell_formula_units_Z   1
loop_
 _symmetry_equiv_pos_site_id
 _symmetry_equiv_pos_as_xyz
  1  'x, y, z'
loop_
 _atom_site_type_symbol
 _atom_site_label
 _atom_site_symmetry_multiplicity
 _atom_site_fract_x
 _atom_site_fract_y
 _atom_site_fract_z
 _atom_site_occupancy
  Hf  Hf0  1  0.000000  0.000000  0.500000  1
  Sc  Sc1  1  0.500000  0.500000  0.000000  1
  Mn  Mn2  1  0.586730  0.154187  0.500000  1
  Mn  Mn3  1  0.413270  0.845813  0.500000  1
  Mn  Mn4  1  0.084731  0.343354  0.000000  1
  Mn  Mn5  1  0.915269  0.656646  0.000000  1
  Mn  Mn6  1  0.154187  0.586730  0.500000  1
  Mn  Mn7  1  0.845813  0.413270  0.500000  1
  Mn  Mn8  1  0.343354  0.084731  0.000000  1
  Mn  Mn9  1  0.656646  0.915269  0.000000  1
  P  P10  1  0.713072  0.713072  0.500000  1
  P  P11  1  0.286928  0.286928  0.500000  1
  P  P12  1  0.215175  0.784825  0.000000  1
  P  P13  1  0.784825  0.215175  0.000000  1
