# generated using pymatgen
data_TbY3Ga12Co
_symmetry_space_group_name_H-M   'P 1'
_cell_length_a   7.44728389
_cell_length_b   7.44728413
_cell_length_c   7.44568400
_cell_angle_alpha   109.46687096
_cell_angle_beta   109.46687159
_cell_angle_gamma   109.47557254
_symmetry_Int_Tables_number   1
_chemical_formula_structural   TbY3Ga12Co
_chemical_formula_sum   'Tb1 Y3 Ga12 Co1'
_cell_volume   317.90827753
_cell_formula_units_Z   1
loop_
 _symmetry_equiv_pos_site_id
 _symmetry_equiv_pos_as_xyz
  1  'x, y, z'
loop_
 _atom_site_type_symbol
 _atom_site_label
 _atom_site_symmetry_multiplicity
 _atom_site_fract_x
 _atom_site_fract_y
 _atom_site_fract_z
 _atom_site_occupancy
  Tb  Tb0  1  0.000000  0.000000  0.499999  1
  Y  Y1  1  0.499999  0.000000  0.000000  1
  Y  Y2  1  0.000000  0.499999  0.000000  1
  Y  Y3  1  0.499999  0.499999  0.499999  1
  Ga  Ga4  1  0.282809  0.282809  0.999988  1
  Ga  Ga5  1  0.717191  0.717191  0.000012  1
  Ga  Ga6  1  0.750005  0.500009  0.250005  1
  Ga  Ga7  1  0.500009  0.750005  0.250005  1
  Ga  Ga8  1  0.282809  0.000000  0.282822  1
  Ga  Ga9  1  0.000000  0.282809  0.282822  1
  Ga  Ga10  1  0.750005  0.249995  0.500000  1
  Ga  Ga11  1  0.249995  0.750005  0.500000  1
  Ga  Ga12  1  0.717191  0.000000  0.717178  1
  Ga  Ga13  1  0.000000  0.717191  0.717178  1
  Ga  Ga14  1  0.499991  0.249995  0.749995  1
  Ga  Ga15  1  0.249995  0.499991  0.749995  1
  Co  Co16  1  0.000000  0.000000  0.000000  1
