# generated using pymatgen
data_Sm2Y6CdNi2Ag
_symmetry_space_group_name_H-M   'P 1'
_cell_length_a   9.58044737
_cell_length_b   9.58044651
_cell_length_c   9.57605300
_cell_angle_alpha   60.01517237
_cell_angle_beta   60.01517534
_cell_angle_gamma   60.01789869
_symmetry_Int_Tables_number   1
_chemical_formula_structural   Sm2Y6CdNi2Ag
_chemical_formula_sum   'Sm4 Y12 Cd2 Ni4 Ag2'
_cell_volume   621.72938029
_cell_formula_units_Z   2
loop_
 _symmetry_equiv_pos_site_id
 _symmetry_equiv_pos_as_xyz
  1  'x, y, z'
loop_
 _atom_site_type_symbol
 _atom_site_label
 _atom_site_symmetry_multiplicity
 _atom_site_fract_x
 _atom_site_fract_y
 _atom_site_fract_z
 _atom_site_occupancy
  Sm  Sm0  1  0.599887  0.599887  0.598911  1
  Sm  Sm1  1  0.599887  0.599887  0.201314  1
  Sm  Sm2  1  0.601684  0.197351  0.600483  1
  Sm  Sm3  1  0.197351  0.601684  0.600483  1
  Y  Y4  1  0.062018  0.438293  0.439041  1
  Y  Y5  1  0.438293  0.062018  0.060649  1
  Y  Y6  1  0.438293  0.062018  0.439041  1
  Y  Y7  1  0.062018  0.438293  0.060649  1
  Y  Y8  1  0.439096  0.439096  0.060904  1
  Y  Y9  1  0.061722  0.061722  0.438278  1
  Y  Y10  1  0.183129  0.814096  0.815002  1
  Y  Y11  1  0.814096  0.183129  0.187773  1
  Y  Y12  1  0.814096  0.183129  0.815002  1
  Y  Y13  1  0.183129  0.814096  0.187773  1
  Y  Y14  1  0.813728  0.813728  0.186272  1
  Y  Y15  1  0.185443  0.185443  0.814557  1
  Cd  Cd16  1  0.831552  0.508231  0.830108  1
  Cd  Cd17  1  0.508231  0.831552  0.830108  1
  Ni  Ni18  1  0.392484  0.392484  0.393061  1
  Ni  Ni19  1  0.392484  0.392484  0.821973  1
  Ni  Ni20  1  0.391422  0.823252  0.392663  1
  Ni  Ni21  1  0.823252  0.391422  0.392663  1
  Ag  Ag22  1  0.833352  0.833352  0.832084  1
  Ag  Ag23  1  0.833352  0.833352  0.501212  1
