# generated using pymatgen
data_Li8Zr(MnBr8)3
_symmetry_space_group_name_H-M   'P 1'
_cell_length_a   6.60222900
_cell_length_b   6.60222922
_cell_length_c   26.80673500
_cell_angle_alpha   90.00000000
_cell_angle_beta   90.00000000
_cell_angle_gamma   120.00000391
_symmetry_Int_Tables_number   1
_chemical_formula_structural   Li8Zr(MnBr8)3
_chemical_formula_sum   'Li8 Zr1 Mn3 Br24'
_cell_volume   1011.94222474
_cell_formula_units_Z   1
loop_
 _symmetry_equiv_pos_site_id
 _symmetry_equiv_pos_as_xyz
  1  'x, y, z'
loop_
 _atom_site_type_symbol
 _atom_site_label
 _atom_site_symmetry_multiplicity
 _atom_site_fract_x
 _atom_site_fract_y
 _atom_site_fract_z
 _atom_site_occupancy
  Li  Li0  1  0.000000  0.000000  0.250000  1
  Li  Li1  1  0.000000  0.000000  0.750000  1
  Li  Li2  1  0.333333  0.666667  0.999903  1
  Li  Li3  1  0.333333  0.666667  0.500097  1
  Li  Li4  1  0.333333  0.666667  0.250000  1
  Li  Li5  1  0.666667  0.333333  0.750000  1
  Li  Li6  1  0.666667  0.333333  0.000062  1
  Li  Li7  1  0.666667  0.333333  0.499938  1
  Zr  Zr8  1  0.666667  0.333333  0.250000  1
  Mn  Mn9  1  0.000000  0.000000  0.000165  1
  Mn  Mn10  1  0.000000  0.000000  0.499835  1
  Mn  Mn11  1  0.333333  0.666667  0.750000  1
  Br  Br12  1  0.341105  0.007368  0.307672  1
  Br  Br13  1  0.333539  0.970696  0.803660  1
  Br  Br14  1  0.000513  0.304153  0.053559  1
  Br  Br15  1  0.999465  0.303464  0.553630  1
  Br  Br16  1  0.992632  0.333737  0.307672  1
  Br  Br17  1  0.029304  0.362844  0.803660  1
  Br  Br18  1  0.341105  0.333737  0.192328  1
  Br  Br19  1  0.333539  0.362844  0.696340  1
  Br  Br20  1  0.303639  0.304153  0.446441  1
  Br  Br21  1  0.303999  0.303464  0.946370  1
  Br  Br22  1  0.695847  0.999487  0.446441  1
  Br  Br23  1  0.303639  0.999487  0.053559  1
  Br  Br24  1  0.303999  0.000535  0.553630  1
  Br  Br25  1  0.695847  0.696361  0.053559  1
  Br  Br26  1  0.696536  0.696001  0.553630  1
  Br  Br27  1  0.666263  0.658895  0.307672  1
  Br  Br28  1  0.637156  0.666461  0.803660  1
  Br  Br29  1  0.992632  0.658895  0.192328  1
  Br  Br30  1  0.029304  0.666461  0.696340  1
  Br  Br31  1  0.000513  0.696361  0.446441  1
  Br  Br32  1  0.999465  0.696001  0.946370  1
  Br  Br33  1  0.696536  0.000535  0.946370  1
  Br  Br34  1  0.666263  0.007368  0.192328  1
  Br  Br35  1  0.637156  0.970696  0.696340  1
