# generated using pymatgen
data_Ho4ScGa2Bi
_symmetry_space_group_name_H-M   'P 1'
_cell_length_a   8.68197263
_cell_length_b   8.68187815
_cell_length_c   8.68188384
_cell_angle_alpha   126.23454466
_cell_angle_beta   126.23664107
_cell_angle_gamma   79.49856160
_symmetry_Int_Tables_number   1
_chemical_formula_structural   Ho4ScGa2Bi
_chemical_formula_sum   'Ho8 Sc2 Ga4 Bi2'
_cell_volume   411.45982808
_cell_formula_units_Z   2
loop_
 _symmetry_equiv_pos_site_id
 _symmetry_equiv_pos_as_xyz
  1  'x, y, z'
loop_
 _atom_site_type_symbol
 _atom_site_label
 _atom_site_symmetry_multiplicity
 _atom_site_fract_x
 _atom_site_fract_y
 _atom_site_fract_z
 _atom_site_occupancy
  Ho  Ho0  1  0.013827  0.513814  0.810101  1
  Ho  Ho1  1  0.703720  0.203732  0.189912  1
  Ho  Ho2  1  0.513818  0.703725  0.499984  1
  Ho  Ho3  1  0.203741  0.013835  0.500020  1
  Ho  Ho4  1  0.986173  0.486186  0.189899  1
  Ho  Ho5  1  0.296280  0.796268  0.810088  1
  Ho  Ho6  1  0.486182  0.296275  0.500016  1
  Ho  Ho7  1  0.796259  0.986165  0.499980  1
  Sc  Sc8  1  0.000000  0.000000  0.000000  1
  Sc  Sc9  1  0.500000  0.500000  0.000000  1
  Ga  Ga10  1  0.646138  0.146234  0.792373  1
  Ga  Ga11  1  0.353862  0.853766  0.207627  1
  Ga  Ga12  1  0.146218  0.353880  0.500098  1
  Ga  Ga13  1  0.853782  0.646120  0.499902  1
  Bi  Bi14  1  0.749975  0.749979  0.000002  1
  Bi  Bi15  1  0.250025  0.250021  0.999998  1
