# generated using pymatgen
data_Tb4Sm4Re(B8Os)3
_symmetry_space_group_name_H-M   'P 1'
_cell_length_a   3.71336300
_cell_length_b   9.25538542
_cell_length_c   11.66203905
_cell_angle_alpha   90.08865676
_cell_angle_beta   90.00000000
_cell_angle_gamma   90.00000000
_symmetry_Int_Tables_number   1
_chemical_formula_structural   Tb4Sm4Re(B8Os)3
_chemical_formula_sum   'Tb4 Sm4 Re1 B24 Os3'
_cell_volume   400.80754257
_cell_formula_units_Z   1
loop_
 _symmetry_equiv_pos_site_id
 _symmetry_equiv_pos_as_xyz
  1  'x, y, z'
loop_
 _atom_site_type_symbol
 _atom_site_label
 _atom_site_symmetry_multiplicity
 _atom_site_fract_x
 _atom_site_fract_y
 _atom_site_fract_z
 _atom_site_occupancy
  Tb  Tb0  1  0.000000  0.943469  0.371716  1
  Tb  Tb1  1  0.000000  0.055747  0.627702  1
  Tb  Tb2  1  0.000000  0.443095  0.127970  1
  Tb  Tb3  1  0.000000  0.556372  0.872731  1
  Sm  Sm4  1  0.000000  0.323342  0.414513  1
  Sm  Sm5  1  0.000000  0.678979  0.588062  1
  Sm  Sm6  1  0.000000  0.823246  0.084254  1
  Sm  Sm7  1  0.000000  0.176022  0.912949  1
  Re  Re8  1  0.000000  0.861919  0.820975  1
  B  B9  1  0.500000  0.554601  0.431972  1
  B  B10  1  0.500000  0.445534  0.568421  1
  B  B11  1  0.500000  0.054396  0.068502  1
  B  B12  1  0.500000  0.946318  0.931840  1
  B  B13  1  0.500000  0.747906  0.418458  1
  B  B14  1  0.500000  0.252213  0.581348  1
  B  B15  1  0.500000  0.247712  0.081734  1
  B  B16  1  0.500000  0.752094  0.918293  1
  B  B17  1  0.500000  0.789523  0.267195  1
  B  B18  1  0.500000  0.209908  0.732093  1
  B  B19  1  0.500000  0.290078  0.232866  1
  B  B20  1  0.500000  0.709263  0.767166  1
  B  B21  1  0.500000  0.631113  0.186320  1
  B  B22  1  0.500000  0.368341  0.813309  1
  B  B23  1  0.500000  0.131782  0.313921  1
  B  B24  1  0.500000  0.868525  0.686406  1
  B  B25  1  0.500000  0.985256  0.213157  1
  B  B26  1  0.500000  0.015835  0.786685  1
  B  B27  1  0.500000  0.484895  0.287335  1
  B  B28  1  0.500000  0.515194  0.713325  1
  B  B29  1  0.500000  0.605956  0.030191  1
  B  B30  1  0.500000  0.392489  0.970571  1
  B  B31  1  0.500000  0.107462  0.469748  1
  B  B32  1  0.500000  0.893082  0.529113  1
  Os  Os33  1  0.000000  0.637928  0.321128  1
  Os  Os34  1  0.000000  0.362059  0.678522  1
  Os  Os35  1  0.000000  0.138343  0.179505  1
