# generated using pymatgen
data_Dy3SiPd5
_symmetry_space_group_name_H-M   'P 1'
_cell_length_a   8.22830890
_cell_length_b   8.22830974
_cell_length_c   8.22830966
_cell_angle_alpha   127.44184881
_cell_angle_beta   125.58368202
_cell_angle_gamma   79.05612994
_symmetry_Int_Tables_number   1
_chemical_formula_structural   Dy3SiPd5
_chemical_formula_sum   'Dy6 Si2 Pd10'
_cell_volume   347.94008517
_cell_formula_units_Z   2
loop_
 _symmetry_equiv_pos_site_id
 _symmetry_equiv_pos_as_xyz
  1  'x, y, z'
loop_
 _atom_site_type_symbol
 _atom_site_label
 _atom_site_symmetry_multiplicity
 _atom_site_fract_x
 _atom_site_fract_y
 _atom_site_fract_z
 _atom_site_occupancy
  Dy  Dy0  1  0.225263  0.449795  0.775468  1
  Dy  Dy1  1  0.774737  0.550205  0.224532  1
  Dy  Dy2  1  0.825672  0.050205  0.775468  1
  Dy  Dy3  1  0.174328  0.949795  0.224532  1
  Dy  Dy4  1  0.389639  0.250000  0.139639  1
  Dy  Dy5  1  0.610361  0.750000  0.860361  1
  Si  Si6  1  0.780843  0.250000  0.530843  1
  Si  Si7  1  0.219157  0.750000  0.469157  1
  Pd  Pd8  1  0.167493  0.399266  0.354933  1
  Pd  Pd9  1  0.832507  0.187440  0.231773  1
  Pd  Pd10  1  0.455667  0.100734  0.768227  1
  Pd  Pd11  1  0.544333  0.312560  0.645067  1
  Pd  Pd12  1  0.000000  0.500000  0.000000  1
  Pd  Pd13  1  0.000000  0.000000  0.500000  1
  Pd  Pd14  1  0.455667  0.687440  0.354933  1
  Pd  Pd15  1  0.544333  0.899266  0.231773  1
  Pd  Pd16  1  0.167493  0.812560  0.768227  1
  Pd  Pd17  1  0.832507  0.600734  0.645067  1
