# generated using pymatgen
data_Dy2Y3Lu7Ru4
_symmetry_space_group_name_H-M   'P 1'
_cell_length_a   6.23793335
_cell_length_b   7.30818067
_cell_length_c   8.97047954
_cell_angle_alpha   89.97948031
_cell_angle_beta   90.22542773
_cell_angle_gamma   89.94743362
_symmetry_Int_Tables_number   1
_chemical_formula_structural   Dy2Y3Lu7Ru4
_chemical_formula_sum   'Dy2 Y3 Lu7 Ru4'
_cell_volume   408.94235422
_cell_formula_units_Z   1
loop_
 _symmetry_equiv_pos_site_id
 _symmetry_equiv_pos_as_xyz
  1  'x, y, z'
loop_
 _atom_site_type_symbol
 _atom_site_label
 _atom_site_symmetry_multiplicity
 _atom_site_fract_x
 _atom_site_fract_y
 _atom_site_fract_z
 _atom_site_occupancy
  Dy  Dy0  1  0.333992  0.676579  0.063526  1
  Dy  Dy1  1  0.369918  0.959311  0.749154  1
  Y  Y2  1  0.870485  0.538977  0.250949  1
  Y  Y3  1  0.630208  0.040695  0.250558  1
  Y  Y4  1  0.128466  0.460307  0.749110  1
  Lu  Lu5  1  0.165943  0.175196  0.436163  1
  Lu  Lu6  1  0.665856  0.323780  0.564501  1
  Lu  Lu7  1  0.834209  0.825477  0.935167  1
  Lu  Lu8  1  0.666373  0.323025  0.934686  1
  Lu  Lu9  1  0.834213  0.825082  0.564135  1
  Lu  Lu10  1  0.334004  0.675539  0.437179  1
  Lu  Lu11  1  0.165260  0.174740  0.064198  1
  Ru  Ru12  1  0.043770  0.885935  0.251036  1
  Ru  Ru13  1  0.454934  0.384233  0.250939  1
  Ru  Ru14  1  0.957890  0.114902  0.750277  1
  Ru  Ru15  1  0.544482  0.616223  0.748422  1
