# generated using pymatgen
data_TbPrDyRuO7
_symmetry_space_group_name_H-M   'P 1'
_cell_length_a   6.47586783
_cell_length_b   6.47223958
_cell_length_c   7.52971400
_cell_angle_alpha   90.00000000
_cell_angle_beta   90.00000000
_cell_angle_gamma   110.19319393
_symmetry_Int_Tables_number   1
_chemical_formula_structural   TbPrDyRuO7
_chemical_formula_sum   'Tb2 Pr2 Dy2 Ru2 O14'
_cell_volume   296.19728162
_cell_formula_units_Z   2
loop_
 _symmetry_equiv_pos_site_id
 _symmetry_equiv_pos_as_xyz
  1  'x, y, z'
loop_
 _atom_site_type_symbol
 _atom_site_label
 _atom_site_symmetry_multiplicity
 _atom_site_fract_x
 _atom_site_fract_y
 _atom_site_fract_z
 _atom_site_occupancy
  Tb  Tb0  1  0.480769  0.927858  0.750000  1
  Tb  Tb1  1  0.519231  0.072142  0.250000  1
  Pr  Pr2  1  0.000000  0.000000  0.500000  1
  Pr  Pr3  1  0.000000  0.000000  0.000000  1
  Dy  Dy4  1  0.928809  0.481253  0.750000  1
  Dy  Dy5  1  0.071191  0.518747  0.250000  1
  Ru  Ru6  1  0.500000  0.500000  0.500000  1
  Ru  Ru7  1  0.500000  0.500000  0.000000  1
  O  O8  1  0.589144  0.588570  0.750000  1
  O  O9  1  0.410856  0.411430  0.250000  1
  O  O10  1  0.837561  0.117935  0.750000  1
  O  O11  1  0.162439  0.882065  0.250000  1
  O  O12  1  0.115888  0.836232  0.750000  1
  O  O13  1  0.884112  0.163768  0.250000  1
  O  O14  1  0.440662  0.182973  0.962775  1
  O  O15  1  0.559338  0.817027  0.462775  1
  O  O16  1  0.182788  0.441213  0.963020  1
  O  O17  1  0.817212  0.558787  0.463020  1
  O  O18  1  0.440662  0.182973  0.537225  1
  O  O19  1  0.559338  0.817027  0.037225  1
  O  O20  1  0.817212  0.558787  0.036980  1
  O  O21  1  0.182788  0.441213  0.536980  1
