# generated using pymatgen
data_Mn2Cd2P6N13
_symmetry_space_group_name_H-M   'P 1'
_cell_length_a   7.09973863
_cell_length_b   7.21084881
_cell_length_c   7.09973956
_cell_angle_alpha   109.88674460
_cell_angle_beta   108.00072225
_cell_angle_gamma   109.88675292
_symmetry_Int_Tables_number   1
_chemical_formula_structural   Mn2Cd2P6N13
_chemical_formula_sum   'Mn2 Cd2 P6 N13'
_cell_volume   281.91127253
_cell_formula_units_Z   1
loop_
 _symmetry_equiv_pos_site_id
 _symmetry_equiv_pos_as_xyz
  1  'x, y, z'
loop_
 _atom_site_type_symbol
 _atom_site_label
 _atom_site_symmetry_multiplicity
 _atom_site_fract_x
 _atom_site_fract_y
 _atom_site_fract_z
 _atom_site_occupancy
  Mn  Mn0  1  0.690242  0.000000  0.985917  1
  Mn  Mn1  1  0.985917  0.000000  0.690242  1
  Cd  Cd2  1  0.997861  0.721435  0.997861  1
  Cd  Cd3  1  0.276426  0.278565  0.276426  1
  P  P4  1  0.253137  0.750190  0.506094  1
  P  P5  1  0.755905  0.249810  0.502948  1
  P  P6  1  0.755098  0.500000  0.255098  1
  P  P7  1  0.255098  0.500000  0.755098  1
  P  P8  1  0.506094  0.750190  0.253137  1
  P  P9  1  0.502948  0.249810  0.755905  1
  N  N10  1  0.961962  0.000000  0.961962  1
  N  N11  1  0.727409  0.270268  0.272436  1
  N  N12  1  0.278621  0.723099  0.278621  1
  N  N13  1  0.289735  0.559043  0.561642  1
  N  N14  1  0.561642  0.559043  0.289735  1
  N  N15  1  0.457142  0.729732  0.002168  1
  N  N16  1  0.002168  0.729732  0.457142  1
  N  N17  1  0.555522  0.276901  0.555522  1
  N  N18  1  0.735366  0.000000  0.445980  1
  N  N19  1  0.445980  0.000000  0.735366  1
  N  N20  1  0.730692  0.440957  0.002599  1
  N  N21  1  0.272436  0.270268  0.727409  1
  N  N22  1  0.002599  0.440957  0.730692  1
