# generated using pymatgen
data_YbHo2Sc(Pt2O7)2
_symmetry_space_group_name_H-M   'P 1'
_cell_length_a   7.17199922
_cell_length_b   7.20434771
_cell_length_c   7.17199957
_cell_angle_alpha   60.34723183
_cell_angle_beta   60.37742673
_cell_angle_gamma   60.34723402
_symmetry_Int_Tables_number   1
_chemical_formula_structural   YbHo2Sc(Pt2O7)2
_chemical_formula_sum   'Yb1 Ho2 Sc1 Pt4 O14'
_cell_volume   264.15333557
_cell_formula_units_Z   1
loop_
 _symmetry_equiv_pos_site_id
 _symmetry_equiv_pos_as_xyz
  1  'x, y, z'
loop_
 _atom_site_type_symbol
 _atom_site_label
 _atom_site_symmetry_multiplicity
 _atom_site_fract_x
 _atom_site_fract_y
 _atom_site_fract_z
 _atom_site_occupancy
  Yb  Yb0  1  0.625000  0.125000  0.625000  1
  Ho  Ho1  1  0.625000  0.625000  0.125000  1
  Ho  Ho2  1  0.125000  0.625000  0.625000  1
  Sc  Sc3  1  0.625000  0.625000  0.625000  1
  Pt  Pt4  1  0.625000  0.125000  0.125000  1
  Pt  Pt5  1  0.125000  0.125000  0.125000  1
  Pt  Pt6  1  0.125000  0.625000  0.125000  1
  Pt  Pt7  1  0.125000  0.125000  0.625000  1
  O  O8  1  0.028388  0.466467  0.466340  1
  O  O9  1  0.783660  0.783533  0.221612  1
  O  O10  1  0.785459  0.220500  0.208267  1
  O  O11  1  0.033074  0.466852  0.033074  1
  O  O12  1  0.463251  0.023983  0.463251  1
  O  O13  1  0.746001  0.737722  0.746001  1
  O  O14  1  0.041733  0.029500  0.464541  1
  O  O15  1  0.786749  0.226017  0.786749  1
  O  O16  1  0.503999  0.512278  0.503999  1
  O  O17  1  0.208267  0.220500  0.785459  1
  O  O18  1  0.216926  0.783148  0.216926  1
  O  O19  1  0.464541  0.029500  0.041733  1
  O  O20  1  0.466340  0.466467  0.028388  1
  O  O21  1  0.221612  0.783533  0.783660  1
