# generated using pymatgen
data_Lu16In4RuPt3
_symmetry_space_group_name_H-M   'P 1'
_cell_length_a   9.50431829
_cell_length_b   9.50431855
_cell_length_c   9.50431995
_cell_angle_alpha   59.92409810
_cell_angle_beta   59.92409872
_cell_angle_gamma   59.92409480
_symmetry_Int_Tables_number   1
_chemical_formula_structural   Lu16In4RuPt3
_chemical_formula_sum   'Lu16 In4 Ru1 Pt3'
_cell_volume   606.03767772
_cell_formula_units_Z   1
loop_
 _symmetry_equiv_pos_site_id
 _symmetry_equiv_pos_as_xyz
  1  'x, y, z'
loop_
 _atom_site_type_symbol
 _atom_site_label
 _atom_site_symmetry_multiplicity
 _atom_site_fract_x
 _atom_site_fract_y
 _atom_site_fract_z
 _atom_site_occupancy
  Lu  Lu0  1  0.601402  0.601402  0.601402  1
  Lu  Lu1  1  0.598026  0.598026  0.201252  1
  Lu  Lu2  1  0.598026  0.201252  0.598026  1
  Lu  Lu3  1  0.201252  0.598026  0.598026  1
  Lu  Lu4  1  0.063129  0.439903  0.439903  1
  Lu  Lu5  1  0.441081  0.058638  0.058638  1
  Lu  Lu6  1  0.439903  0.063129  0.439903  1
  Lu  Lu7  1  0.058638  0.441081  0.058638  1
  Lu  Lu8  1  0.439903  0.439903  0.063129  1
  Lu  Lu9  1  0.058638  0.058638  0.441081  1
  Lu  Lu10  1  0.186623  0.812379  0.812379  1
  Lu  Lu11  1  0.808281  0.189295  0.189295  1
  Lu  Lu12  1  0.812379  0.186623  0.812379  1
  Lu  Lu13  1  0.189295  0.808281  0.189295  1
  Lu  Lu14  1  0.812379  0.812379  0.186623  1
  Lu  Lu15  1  0.189295  0.189295  0.808281  1
  In  In16  1  0.834481  0.834481  0.834481  1
  In  In17  1  0.833731  0.833731  0.498876  1
  In  In18  1  0.833731  0.498876  0.833731  1
  In  In19  1  0.498876  0.833731  0.833731  1
  Ru  Ru20  1  0.391405  0.391405  0.391405  1
  Pt  Pt21  1  0.392923  0.392923  0.823676  1
  Pt  Pt22  1  0.392923  0.823676  0.392923  1
  Pt  Pt23  1  0.823676  0.392923  0.392923  1
