# generated using pymatgen
data_Tb4Tm3Au10
_symmetry_space_group_name_H-M   'P 1'
_cell_length_a   8.70763369
_cell_length_b   8.70763420
_cell_length_c   10.36510400
_cell_angle_alpha   90.00000000
_cell_angle_beta   90.00000000
_cell_angle_gamma   106.81105216
_symmetry_Int_Tables_number   1
_chemical_formula_structural   Tb4Tm3Au10
_chemical_formula_sum   'Tb8 Tm6 Au20'
_cell_volume   752.32517321
_cell_formula_units_Z   2
loop_
 _symmetry_equiv_pos_site_id
 _symmetry_equiv_pos_as_xyz
  1  'x, y, z'
loop_
 _atom_site_type_symbol
 _atom_site_label
 _atom_site_symmetry_multiplicity
 _atom_site_fract_x
 _atom_site_fract_y
 _atom_site_fract_z
 _atom_site_occupancy
  Tb  Tb0  1  0.696987  0.303013  0.000000  1
  Tb  Tb1  1  0.196987  0.803013  0.500000  1
  Tb  Tb2  1  0.809611  0.809611  0.306394  1
  Tb  Tb3  1  0.309611  0.309611  0.193606  1
  Tb  Tb4  1  0.803013  0.196987  0.500000  1
  Tb  Tb5  1  0.303013  0.696987  0.000000  1
  Tb  Tb6  1  0.690389  0.690389  0.806394  1
  Tb  Tb7  1  0.190389  0.190389  0.693606  1
  Tm  Tm8  1  0.504236  0.004236  0.250000  1
  Tm  Tm9  1  0.995764  0.495764  0.750000  1
  Tm  Tm10  1  0.000000  0.000000  0.000000  1
  Tm  Tm11  1  0.004236  0.504236  0.250000  1
  Tm  Tm12  1  0.495764  0.995764  0.750000  1
  Tm  Tm13  1  0.500000  0.500000  0.500000  1
  Au  Au14  1  0.145298  0.435188  0.496454  1
  Au  Au15  1  0.896754  0.896754  0.601426  1
  Au  Au16  1  0.564812  0.854702  0.503546  1
  Au  Au17  1  0.864055  0.152570  0.209239  1
  Au  Au18  1  0.364055  0.652570  0.290761  1
  Au  Au19  1  0.652570  0.364055  0.290761  1
  Au  Au20  1  0.396754  0.396754  0.898574  1
  Au  Au21  1  0.935188  0.645298  0.003546  1
  Au  Au22  1  0.347430  0.635945  0.709239  1
  Au  Au23  1  0.354702  0.064812  0.996454  1
  Au  Au24  1  0.603246  0.603246  0.101426  1
  Au  Au25  1  0.645298  0.935188  0.003546  1
  Au  Au26  1  0.103246  0.103246  0.398574  1
  Au  Au27  1  0.635945  0.347430  0.709239  1
  Au  Au28  1  0.135945  0.847430  0.790761  1
  Au  Au29  1  0.064812  0.354702  0.996454  1
  Au  Au30  1  0.854702  0.564812  0.503546  1
  Au  Au31  1  0.152570  0.864055  0.209239  1
  Au  Au32  1  0.435188  0.145298  0.496454  1
  Au  Au33  1  0.847430  0.135945  0.790761  1
