# generated using pymatgen
data_TiNb11Al2Zn6(PtC)4
_symmetry_space_group_name_H-M   'P 1'
_cell_length_a   8.37644339
_cell_length_b   8.37644404
_cell_length_c   8.35983900
_cell_angle_alpha   60.06555790
_cell_angle_beta   60.06555534
_cell_angle_gamma   60.01608296
_symmetry_Int_Tables_number   1
_chemical_formula_structural   TiNb11Al2Zn6(PtC)4
_chemical_formula_sum   'Ti1 Nb11 Al2 Zn6 Pt4 C4'
_cell_volume   415.22620657
_cell_formula_units_Z   1
loop_
 _symmetry_equiv_pos_site_id
 _symmetry_equiv_pos_as_xyz
  1  'x, y, z'
loop_
 _atom_site_type_symbol
 _atom_site_label
 _atom_site_symmetry_multiplicity
 _atom_site_fract_x
 _atom_site_fract_y
 _atom_site_fract_z
 _atom_site_occupancy
  Ti  Ti0  1  0.563413  0.564527  0.936110  1
  Nb  Nb1  1  0.932530  0.932820  0.567024  1
  Nb  Nb2  1  0.683912  0.316549  0.314064  1
  Nb  Nb3  1  0.316324  0.684500  0.685915  1
  Nb  Nb4  1  0.681498  0.682267  0.318131  1
  Nb  Nb5  1  0.685627  0.315269  0.686470  1
  Nb  Nb6  1  0.318118  0.682634  0.315256  1
  Nb  Nb7  1  0.569075  0.932412  0.564219  1
  Nb  Nb8  1  0.567228  0.933916  0.935749  1
  Nb  Nb9  1  0.933916  0.567163  0.562621  1
  Nb  Nb10  1  0.934931  0.566307  0.937214  1
  Nb  Nb11  1  0.313642  0.313624  0.685980  1
  Al  Al12  1  0.918347  0.918951  0.244860  1
  Al  Al13  1  0.332726  0.002597  0.332012  1
  Zn  Zn14  1  0.912477  0.259390  0.912915  1
  Zn  Zn15  1  0.334344  0.336505  0.994733  1
  Zn  Zn16  1  0.992599  0.338354  0.333799  1
  Zn  Zn17  1  0.335157  0.337491  0.333569  1
  Zn  Zn18  1  0.260525  0.913178  0.911932  1
  Zn  Zn19  1  0.915366  0.917014  0.912290  1
  Pt  Pt20  1  0.121819  0.629757  0.127312  1
  Pt  Pt21  1  0.128972  0.122360  0.620237  1
  Pt  Pt22  1  0.624727  0.119176  0.131100  1
  Pt  Pt23  1  0.124969  0.118693  0.130870  1
  C  C24  1  0.623529  0.126499  0.625996  1
  C  C25  1  0.624958  0.622970  0.120203  1
  C  C26  1  0.125270  0.622860  0.626859  1
  C  C27  1  0.623999  0.622215  0.632564  1
