# generated using pymatgen
data_Lu6Al24Os7Ru
_symmetry_space_group_name_H-M   'P 1'
_cell_length_a   8.75756300
_cell_length_b   8.75756136
_cell_length_c   9.54254800
_cell_angle_alpha   90.00000000
_cell_angle_beta   90.00000000
_cell_angle_gamma   119.99999488
_symmetry_Int_Tables_number   1
_chemical_formula_structural   Lu6Al24Os7Ru
_chemical_formula_sum   'Lu6 Al24 Os7 Ru1'
_cell_volume   633.81347209
_cell_formula_units_Z   1
loop_
 _symmetry_equiv_pos_site_id
 _symmetry_equiv_pos_as_xyz
  1  'x, y, z'
loop_
 _atom_site_type_symbol
 _atom_site_label
 _atom_site_symmetry_multiplicity
 _atom_site_fract_x
 _atom_site_fract_y
 _atom_site_fract_z
 _atom_site_occupancy
  Lu  Lu0  1  0.195384  0.390768  0.250225  1
  Lu  Lu1  1  0.804616  0.609232  0.749775  1
  Lu  Lu2  1  0.609232  0.804616  0.250225  1
  Lu  Lu3  1  0.390768  0.195384  0.749775  1
  Lu  Lu4  1  0.195384  0.804616  0.250225  1
  Lu  Lu5  1  0.804616  0.195384  0.749775  1
  Al  Al6  1  0.333333  0.666667  0.021118  1
  Al  Al7  1  0.666667  0.333333  0.978882  1
  Al  Al8  1  0.666667  0.333333  0.520533  1
  Al  Al9  1  0.333333  0.666667  0.479467  1
  Al  Al10  1  0.162988  0.325974  0.577642  1
  Al  Al11  1  0.837012  0.674026  0.422358  1
  Al  Al12  1  0.674026  0.837012  0.577642  1
  Al  Al13  1  0.836833  0.673666  0.077373  1
  Al  Al14  1  0.325974  0.162988  0.422358  1
  Al  Al15  1  0.163167  0.326334  0.922627  1
  Al  Al16  1  0.162988  0.837012  0.577642  1
  Al  Al17  1  0.326334  0.163167  0.077373  1
  Al  Al18  1  0.837012  0.162988  0.422358  1
  Al  Al19  1  0.673666  0.836833  0.922627  1
  Al  Al20  1  0.836833  0.163167  0.077373  1
  Al  Al21  1  0.163167  0.836833  0.922627  1
  Al  Al22  1  0.561406  0.122812  0.250024  1
  Al  Al23  1  0.438594  0.877188  0.749976  1
  Al  Al24  1  0.877188  0.438594  0.250024  1
  Al  Al25  1  0.122812  0.561406  0.749976  1
  Al  Al26  1  0.561406  0.438594  0.250024  1
  Al  Al27  1  0.438594  0.561406  0.749976  1
  Al  Al28  1  0.000000  0.000000  0.251749  1
  Al  Al29  1  0.000000  0.000000  0.748251  1
  Os  Os30  1  0.500000  0.000000  0.000000  1
  Os  Os31  1  0.000000  0.500000  0.000000  1
  Os  Os32  1  0.500000  0.000000  0.500000  1
  Os  Os33  1  0.500000  0.500000  0.000000  1
  Os  Os34  1  0.000000  0.500000  0.500000  1
  Os  Os35  1  0.500000  0.500000  0.500000  1
  Os  Os36  1  0.000000  0.000000  0.000000  1
  Ru  Ru37  1  0.000000  0.000000  0.500000  1
