# generated using pymatgen
data_Dy5Er3Tc3B24Rh
_symmetry_space_group_name_H-M   'P 1'
_cell_length_a   3.67203100
_cell_length_b   9.13826904
_cell_length_c   11.52293800
_cell_angle_alpha   90.12136352
_cell_angle_beta   90.00000000
_cell_angle_gamma   90.00000000
_symmetry_Int_Tables_number   1
_chemical_formula_structural   Dy5Er3Tc3B24Rh
_chemical_formula_sum   'Dy5 Er3 Tc3 B24 Rh1'
_cell_volume   386.66292307
_cell_formula_units_Z   1
loop_
 _symmetry_equiv_pos_site_id
 _symmetry_equiv_pos_as_xyz
  1  'x, y, z'
loop_
 _atom_site_type_symbol
 _atom_site_label
 _atom_site_symmetry_multiplicity
 _atom_site_fract_x
 _atom_site_fract_y
 _atom_site_fract_z
 _atom_site_occupancy
  Dy  Dy0  1  0.500000  0.318464  0.416168  1
  Dy  Dy1  1  0.500000  0.678207  0.590843  1
  Dy  Dy2  1  0.500000  0.177069  0.912723  1
  Dy  Dy3  1  0.500000  0.827133  0.081138  1
  Dy  Dy4  1  0.500000  0.440542  0.129119  1
  Er  Er5  1  0.500000  0.557366  0.870597  1
  Er  Er6  1  0.500000  0.056428  0.629697  1
  Er  Er7  1  0.500000  0.943656  0.369788  1
  Tc  Tc8  1  0.500000  0.137752  0.180596  1
  Tc  Tc9  1  0.500000  0.861573  0.820272  1
  Tc  Tc10  1  0.500000  0.362415  0.678025  1
  B  B11  1  0.000000  0.100556  0.471694  1
  B  B12  1  0.000000  0.896471  0.527947  1
  B  B13  1  0.000000  0.397623  0.971493  1
  B  B14  1  0.000000  0.604067  0.028624  1
  B  B15  1  0.000000  0.129988  0.315401  1
  B  B16  1  0.000000  0.869091  0.685143  1
  B  B17  1  0.000000  0.369795  0.814249  1
  B  B18  1  0.000000  0.631850  0.184155  1
  B  B19  1  0.000000  0.053297  0.066761  1
  B  B20  1  0.000000  0.947051  0.932223  1
  B  B21  1  0.000000  0.446330  0.566832  1
  B  B22  1  0.000000  0.554237  0.433822  1
  B  B23  1  0.000000  0.483259  0.288270  1
  B  B24  1  0.000000  0.518201  0.712401  1
  B  B25  1  0.000000  0.017709  0.786874  1
  B  B26  1  0.000000  0.982482  0.212178  1
  B  B27  1  0.000000  0.248469  0.081542  1
  B  B28  1  0.000000  0.751653  0.918399  1
  B  B29  1  0.000000  0.250161  0.581261  1
  B  B30  1  0.000000  0.749650  0.420115  1
  B  B31  1  0.000000  0.290808  0.235692  1
  B  B32  1  0.000000  0.708448  0.765496  1
  B  B33  1  0.000000  0.208623  0.734271  1
  B  B34  1  0.000000  0.791326  0.265057  1
  Rh  Rh35  1  0.500000  0.638254  0.321137  1
