# generated using pymatgen
data_K2(B2Pt3)3
_symmetry_space_group_name_H-M   'P 1'
_cell_length_a   8.15281655
_cell_length_b   8.15281744
_cell_length_c   8.15281819
_cell_angle_alpha   81.92289524
_cell_angle_beta   81.92289224
_cell_angle_gamma   81.92289746
_symmetry_Int_Tables_number   1
_chemical_formula_structural   K2(B2Pt3)3
_chemical_formula_sum   'K4 B12 Pt18'
_cell_volume   527.16025288
_cell_formula_units_Z   2
loop_
 _symmetry_equiv_pos_site_id
 _symmetry_equiv_pos_as_xyz
  1  'x, y, z'
loop_
 _atom_site_type_symbol
 _atom_site_label
 _atom_site_symmetry_multiplicity
 _atom_site_fract_x
 _atom_site_fract_y
 _atom_site_fract_z
 _atom_site_occupancy
  K  K0  1  0.630429  0.630429  0.630429  1
  K  K1  1  0.869571  0.869571  0.869571  1
  K  K2  1  0.369571  0.369571  0.369571  1
  K  K3  1  0.130429  0.130429  0.130429  1
  B  B4  1  0.547074  0.186613  0.835589  1
  B  B5  1  0.835589  0.547074  0.186613  1
  B  B6  1  0.186613  0.835589  0.547074  1
  B  B7  1  0.952926  0.664411  0.313387  1
  B  B8  1  0.452926  0.813387  0.164411  1
  B  B9  1  0.164411  0.452926  0.813387  1
  B  B10  1  0.813387  0.164411  0.452926  1
  B  B11  1  0.047074  0.335589  0.686613  1
  B  B12  1  0.686613  0.047074  0.335589  1
  B  B13  1  0.335589  0.686613  0.047074  1
  B  B14  1  0.313387  0.952926  0.664411  1
  B  B15  1  0.664411  0.313387  0.952926  1
  Pt  Pt16  1  0.409829  0.936074  0.402723  1
  Pt  Pt17  1  0.090171  0.097277  0.563926  1
  Pt  Pt18  1  0.936074  0.402723  0.409829  1
  Pt  Pt19  1  0.563926  0.090171  0.097277  1
  Pt  Pt20  1  0.597277  0.590171  0.063926  1
  Pt  Pt21  1  0.590171  0.063926  0.597277  1
  Pt  Pt22  1  0.063926  0.597277  0.590171  1
  Pt  Pt23  1  0.909829  0.902723  0.436074  1
  Pt  Pt24  1  0.902723  0.436074  0.909829  1
  Pt  Pt25  1  0.436074  0.909829  0.902723  1
  Pt  Pt26  1  0.750000  0.288740  0.211260  1
  Pt  Pt27  1  0.211260  0.750000  0.288740  1
  Pt  Pt28  1  0.288740  0.211260  0.750000  1
  Pt  Pt29  1  0.250000  0.711260  0.788740  1
  Pt  Pt30  1  0.788740  0.250000  0.711260  1
  Pt  Pt31  1  0.711260  0.788740  0.250000  1
  Pt  Pt32  1  0.097277  0.563926  0.090171  1
  Pt  Pt33  1  0.402723  0.409829  0.936074  1
