# generated using pymatgen
data_LiPrTmAs2
_symmetry_space_group_name_H-M   'P 1'
_cell_length_a   4.22941600
_cell_length_b   4.22941453
_cell_length_c   14.44847700
_cell_angle_alpha   90.00000000
_cell_angle_beta   90.00000000
_cell_angle_gamma   120.00001151
_symmetry_Int_Tables_number   1
_chemical_formula_structural   LiPrTmAs2
_chemical_formula_sum   'Li2 Pr2 Tm2 As4'
_cell_volume   223.82743043
_cell_formula_units_Z   2
loop_
 _symmetry_equiv_pos_site_id
 _symmetry_equiv_pos_as_xyz
  1  'x, y, z'
loop_
 _atom_site_type_symbol
 _atom_site_label
 _atom_site_symmetry_multiplicity
 _atom_site_fract_x
 _atom_site_fract_y
 _atom_site_fract_z
 _atom_site_occupancy
  Li  Li0  1  0.000000  0.000000  0.739503  1
  Li  Li1  1  0.000000  0.000000  0.239503  1
  Pr  Pr2  1  0.333333  0.666667  0.886666  1
  Pr  Pr3  1  0.666667  0.333333  0.386666  1
  Tm  Tm4  1  0.666667  0.333333  0.108543  1
  Tm  Tm5  1  0.333333  0.666667  0.608543  1
  As  As6  1  0.000000  0.000000  0.507610  1
  As  As7  1  0.000000  0.000000  0.007610  1
  As  As8  1  0.666667  0.333333  0.741348  1
  As  As9  1  0.333333  0.666667  0.241348  1
