# generated using pymatgen
data_TbSc6Sn23Ir6
_symmetry_space_group_name_H-M   'P 1'
_cell_length_a   9.74806900
_cell_length_b   9.74806891
_cell_length_c   9.97389700
_cell_angle_alpha   90.00000000
_cell_angle_beta   90.00000000
_cell_angle_gamma   120.00000370
_symmetry_Int_Tables_number   1
_chemical_formula_structural   TbSc6Sn23Ir6
_chemical_formula_sum   'Tb1 Sc6 Sn23 Ir6'
_cell_volume   820.79117759
_cell_formula_units_Z   1
loop_
 _symmetry_equiv_pos_site_id
 _symmetry_equiv_pos_as_xyz
  1  'x, y, z'
loop_
 _atom_site_type_symbol
 _atom_site_label
 _atom_site_symmetry_multiplicity
 _atom_site_fract_x
 _atom_site_fract_y
 _atom_site_fract_z
 _atom_site_occupancy
  Tb  Tb0  1  0.000000  0.000000  0.000000  1
  Sc  Sc1  1  0.483453  0.516547  0.308976  1
  Sc  Sc2  1  0.516547  0.483453  0.691024  1
  Sc  Sc3  1  0.483453  0.966905  0.308976  1
  Sc  Sc4  1  0.516547  0.033095  0.691024  1
  Sc  Sc5  1  0.033095  0.516547  0.308976  1
  Sc  Sc6  1  0.966905  0.483453  0.691024  1
  Sn  Sn7  1  0.353613  0.000000  0.000000  1
  Sn  Sn8  1  0.646387  0.000000  0.000000  1
  Sn  Sn9  1  0.000000  0.353613  0.000000  1
  Sn  Sn10  1  0.000000  0.646387  0.000000  1
  Sn  Sn11  1  0.646387  0.646387  0.000000  1
  Sn  Sn12  1  0.353613  0.353613  0.000000  1
  Sn  Sn13  1  0.333333  0.666667  0.829952  1
  Sn  Sn14  1  0.666667  0.333333  0.170048  1
  Sn  Sn15  1  0.000000  0.000000  0.500000  1
  Sn  Sn16  1  0.775640  0.224360  0.458804  1
  Sn  Sn17  1  0.224360  0.775640  0.541196  1
  Sn  Sn18  1  0.775640  0.551281  0.458804  1
  Sn  Sn19  1  0.224360  0.448719  0.541196  1
  Sn  Sn20  1  0.448719  0.224360  0.458804  1
  Sn  Sn21  1  0.551281  0.775640  0.541196  1
  Sn  Sn22  1  0.333333  0.666667  0.138064  1
  Sn  Sn23  1  0.666667  0.333333  0.861936  1
  Sn  Sn24  1  0.122846  0.877154  0.285469  1
  Sn  Sn25  1  0.877154  0.122846  0.714531  1
  Sn  Sn26  1  0.122846  0.245695  0.285469  1
  Sn  Sn27  1  0.877154  0.754305  0.714531  1
  Sn  Sn28  1  0.754305  0.877154  0.285469  1
  Sn  Sn29  1  0.245695  0.122846  0.714531  1
  Ir  Ir30  1  0.830053  0.169947  0.200530  1
  Ir  Ir31  1  0.169947  0.830053  0.799470  1
  Ir  Ir32  1  0.830053  0.660104  0.200530  1
  Ir  Ir33  1  0.169947  0.339896  0.799470  1
  Ir  Ir34  1  0.339896  0.169947  0.200530  1
  Ir  Ir35  1  0.660104  0.830053  0.799470  1
