# generated using pymatgen
data_La4NdCoBi2
_symmetry_space_group_name_H-M   'P 1'
_cell_length_a   8.52097500
_cell_length_b   9.22560300
_cell_length_c   12.89048300
_cell_angle_alpha   90.00000000
_cell_angle_beta   90.00000000
_cell_angle_gamma   90.00000000
_symmetry_Int_Tables_number   1
_chemical_formula_structural   La4NdCoBi2
_chemical_formula_sum   'La16 Nd4 Co4 Bi8'
_cell_volume   1013.33546740
_cell_formula_units_Z   4
loop_
 _symmetry_equiv_pos_site_id
 _symmetry_equiv_pos_as_xyz
  1  'x, y, z'
loop_
 _atom_site_type_symbol
 _atom_site_label
 _atom_site_symmetry_multiplicity
 _atom_site_fract_x
 _atom_site_fract_y
 _atom_site_fract_z
 _atom_site_occupancy
  La  La0  1  0.852427  0.750000  0.802421  1
  La  La1  1  0.147573  0.250000  0.197579  1
  La  La2  1  0.352427  0.250000  0.697579  1
  La  La3  1  0.647573  0.750000  0.302421  1
  La  La4  1  0.379964  0.750000  0.689964  1
  La  La5  1  0.620036  0.250000  0.310036  1
  La  La6  1  0.879964  0.250000  0.810036  1
  La  La7  1  0.120036  0.750000  0.189964  1
  La  La8  1  0.680446  0.033682  0.563043  1
  La  La9  1  0.319554  0.966318  0.436957  1
  La  La10  1  0.180446  0.966318  0.936957  1
  La  La11  1  0.319554  0.533682  0.436957  1
  La  La12  1  0.819554  0.033682  0.063043  1
  La  La13  1  0.680446  0.466318  0.563043  1
  La  La14  1  0.819554  0.466318  0.063043  1
  La  La15  1  0.180446  0.533682  0.936957  1
  Nd  Nd16  1  0.952598  0.750000  0.504042  1
  Nd  Nd17  1  0.047402  0.250000  0.495958  1
  Nd  Nd18  1  0.452598  0.250000  0.995958  1
  Nd  Nd19  1  0.547402  0.750000  0.004042  1
  Co  Co20  1  0.573935  0.750000  0.507937  1
  Co  Co21  1  0.426065  0.250000  0.492063  1
  Co  Co22  1  0.073935  0.250000  0.992063  1
  Co  Co23  1  0.926065  0.750000  0.007937  1
  Bi  Bi24  1  0.573654  0.494668  0.827565  1
  Bi  Bi25  1  0.426346  0.505332  0.172435  1
  Bi  Bi26  1  0.073654  0.505332  0.672435  1
  Bi  Bi27  1  0.426346  0.994668  0.172435  1
  Bi  Bi28  1  0.926346  0.494668  0.327565  1
  Bi  Bi29  1  0.573654  0.005332  0.827565  1
  Bi  Bi30  1  0.926346  0.005332  0.327565  1
  Bi  Bi31  1  0.073654  0.994668  0.672435  1
