# generated using pymatgen
data_Tm9Lu3Co4TcSn
_symmetry_space_group_name_H-M   'P 1'
_cell_length_a   8.16203726
_cell_length_b   8.16178478
_cell_length_c   8.16203801
_cell_angle_alpha   111.61238645
_cell_angle_beta   110.71231606
_cell_angle_gamma   106.14198398
_symmetry_Int_Tables_number   1
_chemical_formula_structural   Tm9Lu3Co4TcSn
_chemical_formula_sum   'Tm9 Lu3 Co4 Tc1 Sn1'
_cell_volume   417.47661580
_cell_formula_units_Z   1
loop_
 _symmetry_equiv_pos_site_id
 _symmetry_equiv_pos_as_xyz
  1  'x, y, z'
loop_
 _atom_site_type_symbol
 _atom_site_label
 _atom_site_symmetry_multiplicity
 _atom_site_fract_x
 _atom_site_fract_y
 _atom_site_fract_z
 _atom_site_occupancy
  Tm  Tm0  1  0.421241  0.224220  0.196640  1
  Tm  Tm1  1  0.579008  0.775648  0.803765  1
  Tm  Tm2  1  0.027580  0.224220  0.802980  1
  Tm  Tm3  1  0.971883  0.775648  0.196639  1
  Tm  Tm4  1  0.182536  0.277026  0.460111  1
  Tm  Tm5  1  0.817702  0.722761  0.540171  1
  Tm  Tm6  1  0.182589  0.722761  0.905060  1
  Tm  Tm7  1  0.816916  0.277026  0.094489  1
  Tm  Tm8  1  0.313404  0.619205  0.305801  1
  Lu  Lu9  1  0.686460  0.379976  0.693516  1
  Lu  Lu10  1  0.313580  0.007382  0.693803  1
  Lu  Lu11  1  0.686667  0.993157  0.306489  1
  Co  Co12  1  0.375319  0.000576  0.375260  1
  Co  Co13  1  0.625316  0.000576  0.625257  1
  Co  Co14  1  0.112114  0.612328  0.500214  1
  Co  Co15  1  0.887533  0.387512  0.499979  1
  Tc  Tc16  1  0.000012  0.000061  0.000049  1
  Sn  Sn17  1  0.500139  0.499918  0.999779  1
