# generated using pymatgen
data_Li5Zr6AlRh12
_symmetry_space_group_name_H-M   'P 1'
_cell_length_a   4.47966900
_cell_length_b   6.24310800
_cell_length_c   13.41850100
_cell_angle_alpha   90.00000000
_cell_angle_beta   89.99816112
_cell_angle_gamma   90.00000000
_symmetry_Int_Tables_number   1
_chemical_formula_structural   Li5Zr6AlRh12
_chemical_formula_sum   'Li5 Zr6 Al1 Rh12'
_cell_volume   375.27598721
_cell_formula_units_Z   1
loop_
 _symmetry_equiv_pos_site_id
 _symmetry_equiv_pos_as_xyz
  1  'x, y, z'
loop_
 _atom_site_type_symbol
 _atom_site_label
 _atom_site_symmetry_multiplicity
 _atom_site_fract_x
 _atom_site_fract_y
 _atom_site_fract_z
 _atom_site_occupancy
  Li  Li0  1  0.499917  0.500000  0.166970  1
  Li  Li1  1  0.999928  0.000000  0.333558  1
  Li  Li2  1  0.500001  0.500000  0.500000  1
  Li  Li3  1  0.000072  0.000000  0.666442  1
  Li  Li4  1  0.500082  0.500000  0.833030  1
  Zr  Zr5  1  0.000000  0.500000  0.000000  1
  Zr  Zr6  1  0.499848  0.000000  0.169198  1
  Zr  Zr7  1  0.999822  0.500000  0.334774  1
  Zr  Zr8  1  0.500001  0.000000  0.500000  1
  Zr  Zr9  1  0.000180  0.500000  0.665226  1
  Zr  Zr10  1  0.500152  0.000000  0.830802  1
  Al  Al11  1  0.000000  0.000000  0.000000  1
  Rh  Rh12  1  0.499999  0.245496  0.000000  1
  Rh  Rh13  1  0.499999  0.754505  0.000000  1
  Rh  Rh14  1  0.999837  0.247848  0.165199  1
  Rh  Rh15  1  0.999837  0.752151  0.165199  1
  Rh  Rh16  1  0.499823  0.251427  0.333437  1
  Rh  Rh17  1  0.499823  0.748573  0.333437  1
  Rh  Rh18  1  0.000000  0.249467  0.500000  1
  Rh  Rh19  1  0.000000  0.750534  0.500000  1
  Rh  Rh20  1  0.500177  0.251427  0.666562  1
  Rh  Rh21  1  0.500177  0.748573  0.666562  1
  Rh  Rh22  1  0.000163  0.247848  0.834801  1
  Rh  Rh23  1  0.000163  0.752151  0.834801  1
