# generated using pymatgen
data_U4Si3P5Ru8
_symmetry_space_group_name_H-M   'P 1'
_cell_length_a   4.10613900
_cell_length_b   7.46655119
_cell_length_c   10.34698733
_cell_angle_alpha   89.75279236
_cell_angle_beta   90.00000000
_cell_angle_gamma   90.00000000
_symmetry_Int_Tables_number   1
_chemical_formula_structural   U4Si3P5Ru8
_chemical_formula_sum   'U4 Si3 P5 Ru8'
_cell_volume   317.22219724
_cell_formula_units_Z   1
loop_
 _symmetry_equiv_pos_site_id
 _symmetry_equiv_pos_as_xyz
  1  'x, y, z'
loop_
 _atom_site_type_symbol
 _atom_site_label
 _atom_site_symmetry_multiplicity
 _atom_site_fract_x
 _atom_site_fract_y
 _atom_site_fract_z
 _atom_site_occupancy
  U  U0  1  0.250000  0.266048  0.672913  1
  U  U1  1  0.750000  0.728986  0.327123  1
  U  U2  1  0.250000  0.762497  0.825847  1
  U  U3  1  0.750000  0.234262  0.173096  1
  Si  Si4  1  0.250000  0.088256  0.975187  1
  Si  Si5  1  0.750000  0.909842  0.023836  1
  Si  Si6  1  0.250000  0.592323  0.525373  1
  P  P7  1  0.750000  0.413386  0.473676  1
  P  P8  1  0.250000  0.525338  0.162073  1
  P  P9  1  0.750000  0.472645  0.838276  1
  P  P10  1  0.250000  0.023241  0.337825  1
  P  P11  1  0.750000  0.973439  0.662330  1
  Ru  Ru12  1  0.750000  0.112135  0.448848  1
  Ru  Ru13  1  0.250000  0.898210  0.552957  1
  Ru  Ru14  1  0.750000  0.603467  0.052986  1
  Ru  Ru15  1  0.250000  0.395459  0.946313  1
  Ru  Ru16  1  0.250000  0.857715  0.141838  1
  Ru  Ru17  1  0.750000  0.141904  0.857143  1
  Ru  Ru18  1  0.250000  0.360281  0.361370  1
  Ru  Ru19  1  0.750000  0.640566  0.640990  1
