# generated using pymatgen
data_HoLuZn2IrRh
_symmetry_space_group_name_H-M   'P 1'
_cell_length_a   4.00951200
_cell_length_b   6.93711778
_cell_length_c   8.06456207
_cell_angle_alpha   90.43758655
_cell_angle_beta   90.00000000
_cell_angle_gamma   90.00000000
_symmetry_Int_Tables_number   1
_chemical_formula_structural   HoLuZn2IrRh
_chemical_formula_sum   'Ho2 Lu2 Zn4 Ir2 Rh2'
_cell_volume   224.30487283
_cell_formula_units_Z   2
loop_
 _symmetry_equiv_pos_site_id
 _symmetry_equiv_pos_as_xyz
  1  'x, y, z'
loop_
 _atom_site_type_symbol
 _atom_site_label
 _atom_site_symmetry_multiplicity
 _atom_site_fract_x
 _atom_site_fract_y
 _atom_site_fract_z
 _atom_site_occupancy
  Ho  Ho0  1  0.250000  0.037099  0.317368  1
  Ho  Ho1  1  0.750000  0.962901  0.682632  1
  Lu  Lu2  1  0.250000  0.540449  0.182293  1
  Lu  Lu3  1  0.750000  0.459551  0.817707  1
  Zn  Zn4  1  0.250000  0.136100  0.935952  1
  Zn  Zn5  1  0.750000  0.863900  0.064048  1
  Zn  Zn6  1  0.250000  0.635576  0.565022  1
  Zn  Zn7  1  0.750000  0.364424  0.434978  1
  Ir  Ir8  1  0.750000  0.741553  0.373361  1
  Ir  Ir9  1  0.250000  0.258447  0.626639  1
  Rh  Rh10  1  0.750000  0.248858  0.121294  1
  Rh  Rh11  1  0.250000  0.751142  0.878706  1
