# generated using pymatgen
data_Sc4AgPd
_symmetry_space_group_name_H-M   'P 1'
_cell_length_a   8.95648636
_cell_length_b   8.95400330
_cell_length_c   8.95275603
_cell_angle_alpha   60.00016064
_cell_angle_beta   60.00521897
_cell_angle_gamma   60.01576469
_symmetry_Int_Tables_number   1
_chemical_formula_structural   Sc4AgPd
_chemical_formula_sum   'Sc16 Ag4 Pd4'
_cell_volume   507.76883846
_cell_formula_units_Z   4
loop_
 _symmetry_equiv_pos_site_id
 _symmetry_equiv_pos_as_xyz
  1  'x, y, z'
loop_
 _atom_site_type_symbol
 _atom_site_label
 _atom_site_symmetry_multiplicity
 _atom_site_fract_x
 _atom_site_fract_y
 _atom_site_fract_z
 _atom_site_occupancy
  Sc  Sc0  1  0.096436  0.634514  0.634546  1
  Sc  Sc1  1  0.634495  0.096416  0.634566  1
  Sc  Sc2  1  0.634509  0.634547  0.096405  1
  Sc  Sc3  1  0.634490  0.634525  0.634563  1
  Sc  Sc4  1  0.816131  0.816138  0.183849  1
  Sc  Sc5  1  0.183882  0.183860  0.816137  1
  Sc  Sc6  1  0.816121  0.183867  0.816137  1
  Sc  Sc7  1  0.183892  0.816133  0.183846  1
  Sc  Sc8  1  0.183882  0.816121  0.816132  1
  Sc  Sc9  1  0.816134  0.183877  0.183851  1
  Sc  Sc10  1  0.434533  0.434545  0.065447  1
  Sc  Sc11  1  0.065476  0.065441  0.434548  1
  Sc  Sc12  1  0.434525  0.065460  0.434552  1
  Sc  Sc13  1  0.065491  0.434539  0.065430  1
  Sc  Sc14  1  0.065479  0.434532  0.434548  1
  Sc  Sc15  1  0.434534  0.065472  0.065442  1
  Ag  Ag16  1  0.756190  0.414587  0.414620  1
  Ag  Ag17  1  0.414579  0.756170  0.414648  1
  Ag  Ag18  1  0.414615  0.414642  0.756086  1
  Ag  Ag19  1  0.414580  0.414605  0.414660  1
  Pd  Pd20  1  0.457756  0.847418  0.847415  1
  Pd  Pd21  1  0.847422  0.457770  0.847401  1
  Pd  Pd22  1  0.847423  0.847407  0.457767  1
  Pd  Pd23  1  0.847425  0.847415  0.847406  1
