# generated using pymatgen
data_Hf5(ReTc)12
_symmetry_space_group_name_H-M   'P 1'
_cell_length_a   8.45951245
_cell_length_b   8.45951257
_cell_length_c   8.45951300
_cell_angle_alpha   109.47121687
_cell_angle_beta   109.47121715
_cell_angle_gamma   109.47122722
_symmetry_Int_Tables_number   1
_chemical_formula_structural   Hf5(ReTc)12
_chemical_formula_sum   'Hf5 Re12 Tc12'
_cell_volume   466.03029467
_cell_formula_units_Z   1
loop_
 _symmetry_equiv_pos_site_id
 _symmetry_equiv_pos_as_xyz
  1  'x, y, z'
loop_
 _atom_site_type_symbol
 _atom_site_label
 _atom_site_symmetry_multiplicity
 _atom_site_fract_x
 _atom_site_fract_y
 _atom_site_fract_z
 _atom_site_occupancy
  Hf  Hf0  1  0.000000  0.000000  0.000000  1
  Hf  Hf1  1  0.627272  0.000000  0.000000  1
  Hf  Hf2  1  0.000000  0.627272  0.000000  1
  Hf  Hf3  1  0.000000  0.000000  0.627272  1
  Hf  Hf4  1  0.372728  0.372728  0.372728  1
  Re  Re5  1  0.375859  0.194397  0.000000  1
  Re  Re6  1  0.181463  0.805603  0.805603  1
  Re  Re7  1  0.375859  0.000000  0.194397  1
  Re  Re8  1  0.194397  0.375859  0.000000  1
  Re  Re9  1  0.000000  0.375859  0.194397  1
  Re  Re10  1  0.805603  0.181463  0.805603  1
  Re  Re11  1  0.805603  0.805603  0.181463  1
  Re  Re12  1  0.000000  0.194397  0.375859  1
  Re  Re13  1  0.194397  0.000000  0.375859  1
  Re  Re14  1  0.624141  0.624141  0.818537  1
  Re  Re15  1  0.818537  0.624141  0.624141  1
  Re  Re16  1  0.624141  0.818537  0.624141  1
  Tc  Tc17  1  0.396153  0.676799  0.000000  1
  Tc  Tc18  1  0.719355  0.323201  0.323201  1
  Tc  Tc19  1  0.396153  0.000000  0.676799  1
  Tc  Tc20  1  0.676799  0.396153  0.000000  1
  Tc  Tc21  1  0.000000  0.396153  0.676799  1
  Tc  Tc22  1  0.323201  0.719355  0.323201  1
  Tc  Tc23  1  0.323201  0.323201  0.719355  1
  Tc  Tc24  1  0.000000  0.676799  0.396153  1
  Tc  Tc25  1  0.676799  0.000000  0.396153  1
  Tc  Tc26  1  0.603847  0.603847  0.280645  1
  Tc  Tc27  1  0.280645  0.603847  0.603847  1
  Tc  Tc28  1  0.603847  0.280645  0.603847  1
