# generated using pymatgen
data_Ho3ErRu4F28
_symmetry_space_group_name_H-M   'P 1'
_cell_length_a   5.53778828
_cell_length_b   8.87217704
_cell_length_c   11.92518311
_cell_angle_alpha   63.44244555
_cell_angle_beta   89.98792952
_cell_angle_gamma   90.02563871
_symmetry_Int_Tables_number   1
_chemical_formula_structural   Ho3ErRu4F28
_chemical_formula_sum   'Ho3 Er1 Ru4 F28'
_cell_volume   524.08884482
_cell_formula_units_Z   1
loop_
 _symmetry_equiv_pos_site_id
 _symmetry_equiv_pos_as_xyz
  1  'x, y, z'
loop_
 _atom_site_type_symbol
 _atom_site_label
 _atom_site_symmetry_multiplicity
 _atom_site_fract_x
 _atom_site_fract_y
 _atom_site_fract_z
 _atom_site_occupancy
  Ho  Ho0  1  0.758426  0.810891  0.769343  1
  Ho  Ho1  1  0.258464  0.189169  0.730654  1
  Ho  Ho2  1  0.241574  0.189033  0.230665  1
  Er  Er3  1  0.741575  0.810945  0.269366  1
  Ru  Ru4  1  0.755519  0.272388  0.955119  1
  Ru  Ru5  1  0.255489  0.727525  0.544814  1
  Ru  Ru6  1  0.244533  0.727575  0.045063  1
  Ru  Ru7  1  0.744507  0.272601  0.455038  1
  F  F8  1  0.448996  0.704637  0.918693  1
  F  F9  1  0.949060  0.295307  0.581357  1
  F  F10  1  0.550895  0.295319  0.081389  1
  F  F11  1  0.050651  0.704728  0.418550  1
  F  F12  1  0.449699  0.280519  0.546364  1
  F  F13  1  0.949863  0.719467  0.953657  1
  F  F14  1  0.550457  0.719702  0.453266  1
  F  F15  1  0.050372  0.280518  0.046406  1
  F  F16  1  0.769123  0.512753  0.859526  1
  F  F17  1  0.269048  0.487236  0.640423  1
  F  F18  1  0.230869  0.487221  0.140465  1
  F  F19  1  0.730884  0.513074  0.359422  1
  F  F20  1  0.753973  0.033566  0.048059  1
  F  F21  1  0.254035  0.966364  0.452076  1
  F  F22  1  0.246005  0.966349  0.952056  1
  F  F23  1  0.746019  0.033629  0.547978  1
  F  F24  1  0.968958  0.730258  0.641737  1
  F  F25  1  0.468776  0.269655  0.858263  1
  F  F26  1  0.031187  0.269659  0.358285  1
  F  F27  1  0.531342  0.730442  0.141899  1
  F  F28  1  0.042819  0.750389  0.173661  1
  F  F29  1  0.543355  0.249789  0.326480  1
  F  F30  1  0.956641  0.249772  0.826459  1
  F  F31  1  0.456576  0.750323  0.673451  1
  F  F32  1  0.425807  0.973203  0.233459  1
  F  F33  1  0.924632  0.025960  0.266592  1
  F  F34  1  0.574934  0.026494  0.766592  1
  F  F35  1  0.074938  0.973539  0.733372  1
