# generated using pymatgen
data_Ca2Sm3Y(Si3Ru)8
_symmetry_space_group_name_H-M   'P 1'
_cell_length_a   10.18497681
_cell_length_b   10.18497675
_cell_length_c   8.20076801
_cell_angle_alpha   90.00430378
_cell_angle_beta   90.00430396
_cell_angle_gamma   132.53917874
_symmetry_Int_Tables_number   1
_chemical_formula_structural   Ca2Sm3Y(Si3Ru)8
_chemical_formula_sum   'Ca2 Sm3 Y1 Si24 Ru8'
_cell_volume   626.80605130
_cell_formula_units_Z   1
loop_
 _symmetry_equiv_pos_site_id
 _symmetry_equiv_pos_as_xyz
  1  'x, y, z'
loop_
 _atom_site_type_symbol
 _atom_site_label
 _atom_site_symmetry_multiplicity
 _atom_site_fract_x
 _atom_site_fract_y
 _atom_site_fract_z
 _atom_site_occupancy
  Ca  Ca0  1  0.998771  0.498777  0.749991  1
  Ca  Ca1  1  0.501223  0.001229  0.250009  1
  Sm  Sm2  1  0.000055  0.999945  0.000000  1
  Sm  Sm3  1  0.002764  0.502777  0.249981  1
  Sm  Sm4  1  0.497223  0.997236  0.750019  1
  Y  Y5  1  0.499940  0.500060  0.500000  1
  Si  Si6  1  0.293991  0.706009  0.000000  1
  Si  Si7  1  0.794219  0.205781  0.500000  1
  Si  Si8  1  0.705620  0.294380  0.000000  1
  Si  Si9  1  0.206157  0.793843  0.500000  1
  Si  Si10  1  0.835182  0.829763  0.334033  1
  Si  Si11  1  0.170237  0.164818  0.665967  1
  Si  Si12  1  0.663428  0.668910  0.832663  1
  Si  Si13  1  0.331090  0.336572  0.167337  1
  Si  Si14  1  0.622331  0.389361  0.227490  1
  Si  Si15  1  0.610639  0.377669  0.772510  1
  Si  Si16  1  0.112156  0.877715  0.726661  1
  Si  Si17  1  0.122285  0.887844  0.273339  1
  Si  Si18  1  0.377881  0.611288  0.772374  1
  Si  Si19  1  0.388712  0.622119  0.227626  1
  Si  Si20  1  0.888377  0.122454  0.273542  1
  Si  Si21  1  0.877546  0.111623  0.726458  1
  Si  Si22  1  0.843091  0.609756  0.004108  1
  Si  Si23  1  0.390244  0.156909  0.995892  1
  Si  Si24  1  0.888856  0.655927  0.503677  1
  Si  Si25  1  0.344073  0.111144  0.496323  1
  Si  Si26  1  0.156508  0.390395  0.996579  1
  Si  Si27  1  0.609605  0.843492  0.003421  1
  Si  Si28  1  0.111359  0.343647  0.495568  1
  Si  Si29  1  0.656353  0.888641  0.504432  1
  Ru  Ru30  1  0.168566  0.831434  0.000000  1
  Ru  Ru31  1  0.668806  0.331194  0.500000  1
  Ru  Ru32  1  0.830646  0.169354  0.000000  1
  Ru  Ru33  1  0.331972  0.668028  0.500000  1
  Ru  Ru34  1  0.625986  0.624992  0.126248  1
  Ru  Ru35  1  0.375008  0.374014  0.873752  1
  Ru  Ru36  1  0.873651  0.874552  0.625819  1
  Ru  Ru37  1  0.125448  0.126349  0.374181  1
