# generated using pymatgen
data_Tb3Pr17Sn16
_symmetry_space_group_name_H-M   'P 1'
_cell_length_a   8.31776948
_cell_length_b   8.49378848
_cell_length_c   16.07184400
_cell_angle_alpha   90.00000000
_cell_angle_beta   90.00000000
_cell_angle_gamma   89.96131008
_symmetry_Int_Tables_number   1
_chemical_formula_structural   Tb3Pr17Sn16
_chemical_formula_sum   'Tb3 Pr17 Sn16'
_cell_volume   1135.46546795
_cell_formula_units_Z   1
loop_
 _symmetry_equiv_pos_site_id
 _symmetry_equiv_pos_as_xyz
  1  'x, y, z'
loop_
 _atom_site_type_symbol
 _atom_site_label
 _atom_site_symmetry_multiplicity
 _atom_site_fract_x
 _atom_site_fract_y
 _atom_site_fract_z
 _atom_site_occupancy
  Tb  Tb0  1  0.698998  0.998733  0.750000  1
  Tb  Tb1  1  0.800701  0.498809  0.250000  1
  Tb  Tb2  1  0.300515  0.000925  0.250000  1
  Pr  Pr3  1  0.368381  0.836916  0.879785  1
  Pr  Pr4  1  0.867174  0.663888  0.620458  1
  Pr  Pr5  1  0.632324  0.163063  0.379432  1
  Pr  Pr6  1  0.132393  0.336862  0.121356  1
  Pr  Pr7  1  0.632324  0.163063  0.120568  1
  Pr  Pr8  1  0.132393  0.336862  0.378644  1
  Pr  Pr9  1  0.368381  0.836916  0.620215  1
  Pr  Pr10  1  0.867174  0.663888  0.879542  1
  Pr  Pr11  1  0.519673  0.318546  0.901318  1
  Pr  Pr12  1  0.018711  0.180247  0.598803  1
  Pr  Pr13  1  0.480869  0.680955  0.400682  1
  Pr  Pr14  1  0.981088  0.819003  0.099016  1
  Pr  Pr15  1  0.480869  0.680955  0.099318  1
  Pr  Pr16  1  0.981088  0.819003  0.400984  1
  Pr  Pr17  1  0.519673  0.318546  0.598682  1
  Pr  Pr18  1  0.018711  0.180247  0.901197  1
  Pr  Pr19  1  0.197392  0.501466  0.750000  1
  Sn  Sn20  1  0.292344  0.033959  0.044123  1
  Sn  Sn21  1  0.792425  0.466295  0.455941  1
  Sn  Sn22  1  0.707632  0.966197  0.543922  1
  Sn  Sn23  1  0.207662  0.534969  0.958014  1
  Sn  Sn24  1  0.707632  0.966197  0.956078  1
  Sn  Sn25  1  0.207662  0.534969  0.541986  1
  Sn  Sn26  1  0.292344  0.033959  0.455877  1
  Sn  Sn27  1  0.792425  0.466295  0.044059  1
  Sn  Sn28  1  0.569009  0.617117  0.750000  1
  Sn  Sn29  1  0.064182  0.886176  0.750000  1
  Sn  Sn30  1  0.434891  0.383864  0.250000  1
  Sn  Sn31  1  0.934570  0.116057  0.250000  1
  Sn  Sn32  1  0.326103  0.141569  0.750000  1
  Sn  Sn33  1  0.822226  0.352788  0.750000  1
  Sn  Sn34  1  0.675352  0.854437  0.250000  1
  Sn  Sn35  1  0.174712  0.646257  0.250000  1
