# generated using pymatgen
data_Th2ZrCdPd12
_symmetry_space_group_name_H-M   'P 1'
_cell_length_a   5.84657000
_cell_length_b   5.84656987
_cell_length_c   9.57472500
_cell_angle_alpha   90.00000000
_cell_angle_beta   90.00000000
_cell_angle_gamma   120.00000071
_symmetry_Int_Tables_number   1
_chemical_formula_structural   Th2ZrCdPd12
_chemical_formula_sum   'Th2 Zr1 Cd1 Pd12'
_cell_volume   283.43875786
_cell_formula_units_Z   1
loop_
 _symmetry_equiv_pos_site_id
 _symmetry_equiv_pos_as_xyz
  1  'x, y, z'
loop_
 _atom_site_type_symbol
 _atom_site_label
 _atom_site_symmetry_multiplicity
 _atom_site_fract_x
 _atom_site_fract_y
 _atom_site_fract_z
 _atom_site_occupancy
  Th  Th0  1  0.000000  0.000000  0.496495  1
  Th  Th1  1  0.000000  0.000000  0.003505  1
  Zr  Zr2  1  0.666667  0.333333  0.750000  1
  Cd  Cd3  1  0.333333  0.666667  0.250000  1
  Pd  Pd4  1  0.501791  0.498209  0.503709  1
  Pd  Pd5  1  0.501791  0.003581  0.503709  1
  Pd  Pd6  1  0.996419  0.498209  0.503709  1
  Pd  Pd7  1  0.501791  0.498209  0.996291  1
  Pd  Pd8  1  0.501791  0.003581  0.996291  1
  Pd  Pd9  1  0.996419  0.498209  0.996291  1
  Pd  Pd10  1  0.825893  0.651786  0.250000  1
  Pd  Pd11  1  0.348214  0.174107  0.250000  1
  Pd  Pd12  1  0.825893  0.174107  0.250000  1
  Pd  Pd13  1  0.172933  0.345866  0.750000  1
  Pd  Pd14  1  0.654134  0.827067  0.750000  1
  Pd  Pd15  1  0.172933  0.827067  0.750000  1
