# generated using pymatgen
data_Tb4Y12Cd3AgIr4
_symmetry_space_group_name_H-M   'P 1'
_cell_length_a   9.66823968
_cell_length_b   9.66823953
_cell_length_c   9.66823978
_cell_angle_alpha   59.93045706
_cell_angle_beta   59.93045464
_cell_angle_gamma   59.93046509
_symmetry_Int_Tables_number   1
_chemical_formula_structural   Tb4Y12Cd3AgIr4
_chemical_formula_sum   'Tb4 Y12 Cd3 Ag1 Ir4'
_cell_volume   638.03080214
_cell_formula_units_Z   1
loop_
 _symmetry_equiv_pos_site_id
 _symmetry_equiv_pos_as_xyz
  1  'x, y, z'
loop_
 _atom_site_type_symbol
 _atom_site_label
 _atom_site_symmetry_multiplicity
 _atom_site_fract_x
 _atom_site_fract_y
 _atom_site_fract_z
 _atom_site_occupancy
  Tb  Tb0  1  0.349272  0.349272  0.349272  1
  Tb  Tb1  1  0.349816  0.349816  0.952727  1
  Tb  Tb2  1  0.349816  0.952727  0.349816  1
  Tb  Tb3  1  0.952727  0.349816  0.349816  1
  Y  Y4  1  0.809828  0.189421  0.189421  1
  Y  Y5  1  0.187571  0.809779  0.809779  1
  Y  Y6  1  0.189421  0.809828  0.189421  1
  Y  Y7  1  0.809779  0.187571  0.809779  1
  Y  Y8  1  0.189421  0.189421  0.809828  1
  Y  Y9  1  0.809779  0.809779  0.187571  1
  Y  Y10  1  0.936677  0.561392  0.561392  1
  Y  Y11  1  0.561856  0.936573  0.936573  1
  Y  Y12  1  0.561392  0.936677  0.561392  1
  Y  Y13  1  0.936573  0.561856  0.936573  1
  Y  Y14  1  0.561392  0.561392  0.936677  1
  Y  Y15  1  0.936573  0.936573  0.561856  1
  Cd  Cd16  1  0.581292  0.581292  0.258811  1
  Cd  Cd17  1  0.581292  0.258811  0.581292  1
  Cd  Cd18  1  0.258811  0.581292  0.581292  1
  Ag  Ag19  1  0.582857  0.582857  0.582857  1
  Ir  Ir20  1  0.141893  0.141893  0.141893  1
  Ir  Ir21  1  0.143425  0.143425  0.575112  1
  Ir  Ir22  1  0.143425  0.575112  0.143425  1
  Ir  Ir23  1  0.575112  0.143425  0.143425  1
