# generated using pymatgen
data_CeY3Mg2Rh3
_symmetry_space_group_name_H-M   'P 1'
_cell_length_a   7.64647618
_cell_length_b   7.57229561
_cell_length_c   3.97774800
_cell_angle_alpha   90.00000000
_cell_angle_beta   90.00000000
_cell_angle_gamma   119.67961066
_symmetry_Int_Tables_number   1
_chemical_formula_structural   CeY3Mg2Rh3
_chemical_formula_sum   'Ce1 Y3 Mg2 Rh3'
_cell_volume   200.10127885
_cell_formula_units_Z   1
loop_
 _symmetry_equiv_pos_site_id
 _symmetry_equiv_pos_as_xyz
  1  'x, y, z'
loop_
 _atom_site_type_symbol
 _atom_site_label
 _atom_site_symmetry_multiplicity
 _atom_site_fract_x
 _atom_site_fract_y
 _atom_site_fract_z
 _atom_site_occupancy
  Ce  Ce0  1  0.000000  0.258210  0.000000  1
  Y  Y1  1  0.000000  0.621110  0.500000  1
  Y  Y2  1  0.445114  0.411598  0.500000  1
  Y  Y3  1  0.554886  0.966483  0.500000  1
  Mg  Mg4  1  0.252570  0.005972  0.000000  1
  Mg  Mg5  1  0.747430  0.753402  0.000000  1
  Rh  Rh6  1  0.315126  0.643503  0.000000  1
  Rh  Rh7  1  0.000000  0.011343  0.500000  1
  Rh  Rh8  1  0.684874  0.328375  0.000000  1
