# generated using pymatgen
data_Nd8Sc12Si15Ni
_symmetry_space_group_name_H-M   'P 1'
_cell_length_a   7.20953718
_cell_length_b   7.56990932
_cell_length_c   14.16168100
_cell_angle_alpha   90.00000000
_cell_angle_beta   90.00000000
_cell_angle_gamma   89.97056364
_symmetry_Int_Tables_number   1
_chemical_formula_structural   Nd8Sc12Si15Ni
_chemical_formula_sum   'Nd8 Sc12 Si15 Ni1'
_cell_volume   772.88132396
_cell_formula_units_Z   1
loop_
 _symmetry_equiv_pos_site_id
 _symmetry_equiv_pos_as_xyz
  1  'x, y, z'
loop_
 _atom_site_type_symbol
 _atom_site_label
 _atom_site_symmetry_multiplicity
 _atom_site_fract_x
 _atom_site_fract_y
 _atom_site_fract_z
 _atom_site_occupancy
  Nd  Nd0  1  0.011503  0.175951  0.096822  1
  Nd  Nd1  1  0.989992  0.826265  0.903166  1
  Nd  Nd2  1  0.488349  0.675068  0.902852  1
  Nd  Nd3  1  0.989992  0.826265  0.596834  1
  Nd  Nd4  1  0.511309  0.325383  0.096312  1
  Nd  Nd5  1  0.011503  0.175951  0.403178  1
  Nd  Nd6  1  0.511309  0.325383  0.403688  1
  Nd  Nd7  1  0.488349  0.675068  0.597148  1
  Sc  Sc8  1  0.160659  0.499916  0.750000  1
  Sc  Sc9  1  0.839384  0.500775  0.250000  1
  Sc  Sc10  1  0.339112  0.000936  0.250000  1
  Sc  Sc11  1  0.669377  0.003194  0.750000  1
  Sc  Sc12  1  0.318384  0.172582  0.627566  1
  Sc  Sc13  1  0.671249  0.826346  0.374389  1
  Sc  Sc14  1  0.170786  0.676302  0.374299  1
  Sc  Sc15  1  0.671249  0.826346  0.125611  1
  Sc  Sc16  1  0.834741  0.319572  0.628218  1
  Sc  Sc17  1  0.318384  0.172582  0.872434  1
  Sc  Sc18  1  0.834741  0.319572  0.871782  1
  Sc  Sc19  1  0.170786  0.676302  0.125701  1
  Si  Si20  1  0.967687  0.876919  0.250000  1
  Si  Si21  1  0.467883  0.622014  0.250000  1
  Si  Si22  1  0.532972  0.378939  0.750000  1
  Si  Si23  1  0.284760  0.882371  0.750000  1
  Si  Si24  1  0.710707  0.121203  0.250000  1
  Si  Si25  1  0.211210  0.379946  0.250000  1
  Si  Si26  1  0.784904  0.617988  0.750000  1
  Si  Si27  1  0.153541  0.464890  0.539097  1
  Si  Si28  1  0.847439  0.537183  0.461993  1
  Si  Si29  1  0.348557  0.963440  0.460903  1
  Si  Si30  1  0.847439  0.537183  0.038007  1
  Si  Si31  1  0.652825  0.036469  0.540285  1
  Si  Si32  1  0.153541  0.464890  0.960903  1
  Si  Si33  1  0.652825  0.036469  0.959715  1
  Si  Si34  1  0.348557  0.963440  0.039097  1
  Ni  Ni35  1  0.033995  0.116896  0.750000  1
