# generated using pymatgen
data_ScIn6IrBr12
_symmetry_space_group_name_H-M   'P 1'
_cell_length_a   9.15739330
_cell_length_b   9.15739304
_cell_length_c   9.15739226
_cell_angle_alpha   105.21205352
_cell_angle_beta   105.21205474
_cell_angle_gamma   105.21206701
_symmetry_Int_Tables_number   1
_chemical_formula_structural   ScIn6IrBr12
_chemical_formula_sum   'Sc1 In6 Ir1 Br12'
_cell_volume   668.27489620
_cell_formula_units_Z   1
loop_
 _symmetry_equiv_pos_site_id
 _symmetry_equiv_pos_as_xyz
  1  'x, y, z'
loop_
 _atom_site_type_symbol
 _atom_site_label
 _atom_site_symmetry_multiplicity
 _atom_site_fract_x
 _atom_site_fract_y
 _atom_site_fract_z
 _atom_site_occupancy
  Sc  Sc0  1  0.500000  0.500000  0.500000  1
  In  In1  1  0.048327  0.065595  0.311687  1
  In  In2  1  0.311687  0.048327  0.065595  1
  In  In3  1  0.065595  0.311687  0.048327  1
  In  In4  1  0.951673  0.934405  0.688313  1
  In  In5  1  0.688313  0.951673  0.934405  1
  In  In6  1  0.934405  0.688313  0.951673  1
  Ir  Ir7  1  0.000000  0.000000  0.000000  1
  Br  Br8  1  0.982128  0.560539  0.195503  1
  Br  Br9  1  0.195503  0.982128  0.560539  1
  Br  Br10  1  0.560539  0.195503  0.982128  1
  Br  Br11  1  0.017872  0.439461  0.804497  1
  Br  Br12  1  0.804497  0.017872  0.439461  1
  Br  Br13  1  0.439461  0.804497  0.017872  1
  Br  Br14  1  0.495356  0.198079  0.394127  1
  Br  Br15  1  0.394127  0.495356  0.198079  1
  Br  Br16  1  0.198079  0.394127  0.495356  1
  Br  Br17  1  0.504644  0.801921  0.605873  1
  Br  Br18  1  0.605873  0.504644  0.801921  1
  Br  Br19  1  0.801921  0.605873  0.504644  1
