# generated using pymatgen
data_Sc8Cd3PbAu8
_symmetry_space_group_name_H-M   'P 1'
_cell_length_a   7.77520000
_cell_length_b   7.77520000
_cell_length_c   6.89928800
_cell_angle_alpha   90.00000000
_cell_angle_beta   90.00000000
_cell_angle_gamma   90.00000000
_symmetry_Int_Tables_number   1
_chemical_formula_structural   Sc8Cd3PbAu8
_chemical_formula_sum   'Sc8 Cd3 Pb1 Au8'
_cell_volume   417.08772872
_cell_formula_units_Z   1
loop_
 _symmetry_equiv_pos_site_id
 _symmetry_equiv_pos_as_xyz
  1  'x, y, z'
loop_
 _atom_site_type_symbol
 _atom_site_label
 _atom_site_symmetry_multiplicity
 _atom_site_fract_x
 _atom_site_fract_y
 _atom_site_fract_z
 _atom_site_occupancy
  Sc  Sc0  1  0.153432  0.155146  0.997852  1
  Sc  Sc1  1  0.846568  0.844854  0.997852  1
  Sc  Sc2  1  0.655146  0.346568  0.502148  1
  Sc  Sc3  1  0.344854  0.653432  0.502148  1
  Sc  Sc4  1  0.681006  0.320819  0.998146  1
  Sc  Sc5  1  0.318994  0.679181  0.998146  1
  Sc  Sc6  1  0.820819  0.818994  0.501854  1
  Sc  Sc7  1  0.179181  0.181006  0.501854  1
  Cd  Cd8  1  0.500000  0.000000  0.750000  1
  Cd  Cd9  1  0.000000  0.500000  0.250000  1
  Cd  Cd10  1  0.000000  0.500000  0.750000  1
  Pb  Pb11  1  0.500000  0.000000  0.250000  1
  Au  Au12  1  0.364919  0.374696  0.224621  1
  Au  Au13  1  0.631200  0.631702  0.774557  1
  Au  Au14  1  0.635081  0.625304  0.224621  1
  Au  Au15  1  0.868298  0.131200  0.725443  1
  Au  Au16  1  0.874696  0.135081  0.275379  1
  Au  Au17  1  0.368800  0.368298  0.774557  1
  Au  Au18  1  0.125304  0.864919  0.275379  1
  Au  Au19  1  0.131702  0.868800  0.725443  1
