# generated using pymatgen
data_YHoNi10
_symmetry_space_group_name_H-M   'P 1'
_cell_length_a   3.94240400
_cell_length_b   4.85673600
_cell_length_c   8.42641300
_cell_angle_alpha   89.99998820
_cell_angle_beta   90.00000000
_cell_angle_gamma   90.00000000
_symmetry_Int_Tables_number   1
_chemical_formula_structural   YHoNi10
_chemical_formula_sum   'Y1 Ho1 Ni10'
_cell_volume   161.34234504
_cell_formula_units_Z   1
loop_
 _symmetry_equiv_pos_site_id
 _symmetry_equiv_pos_as_xyz
  1  'x, y, z'
loop_
 _atom_site_type_symbol
 _atom_site_label
 _atom_site_symmetry_multiplicity
 _atom_site_fract_x
 _atom_site_fract_y
 _atom_site_fract_z
 _atom_site_occupancy
  Y  Y0  1  0.000000  0.499975  0.500000  1
  Ho  Ho1  1  0.000000  0.999987  0.000000  1
  Ni  Ni2  1  0.000000  0.999948  0.331955  1
  Ni  Ni3  1  0.000000  0.500021  0.834677  1
  Ni  Ni4  1  0.000000  0.500021  0.165323  1
  Ni  Ni5  1  0.000000  0.999948  0.668045  1
  Ni  Ni6  1  0.500000  0.999937  0.500000  1
  Ni  Ni7  1  0.500000  0.500050  0.000000  1
  Ni  Ni8  1  0.500000  0.249321  0.248894  1
  Ni  Ni9  1  0.500000  0.750634  0.751093  1
  Ni  Ni10  1  0.500000  0.750634  0.248907  1
  Ni  Ni11  1  0.500000  0.249321  0.751106  1
