# generated using pymatgen
data_ZnHg4(PI2)2
_symmetry_space_group_name_H-M   'P 1'
_cell_length_a   13.08667100
_cell_length_b   7.94315485
_cell_length_c   8.03440434
_cell_angle_alpha   62.07666835
_cell_angle_beta   90.00000000
_cell_angle_gamma   90.00000000
_symmetry_Int_Tables_number   1
_chemical_formula_structural   ZnHg4(PI2)2
_chemical_formula_sum   'Zn2 Hg8 P4 I8'
_cell_volume   737.93705967
_cell_formula_units_Z   2
loop_
 _symmetry_equiv_pos_site_id
 _symmetry_equiv_pos_as_xyz
  1  'x, y, z'
loop_
 _atom_site_type_symbol
 _atom_site_label
 _atom_site_symmetry_multiplicity
 _atom_site_fract_x
 _atom_site_fract_y
 _atom_site_fract_z
 _atom_site_occupancy
  Zn  Zn0  1  0.840424  0.994822  0.003655  1
  Zn  Zn1  1  0.340424  0.005178  0.996345  1
  Hg  Hg2  1  0.791396  0.673133  0.666905  1
  Hg  Hg3  1  0.548010  0.024984  0.557978  1
  Hg  Hg4  1  0.048010  0.975016  0.442022  1
  Hg  Hg5  1  0.550011  0.517675  0.044465  1
  Hg  Hg6  1  0.291396  0.326867  0.333095  1
  Hg  Hg7  1  0.026600  0.475958  0.455335  1
  Hg  Hg8  1  0.526600  0.524042  0.544665  1
  Hg  Hg9  1  0.050011  0.482325  0.955535  1
  P  P10  1  0.478886  0.350352  0.368028  1
  P  P11  1  0.604039  0.688485  0.709602  1
  P  P12  1  0.978886  0.649648  0.631972  1
  P  P13  1  0.104039  0.311515  0.290398  1
  I  I14  1  0.245561  0.319640  0.761273  1
  I  I15  1  0.311448  0.734711  0.902400  1
  I  I16  1  0.035870  0.897115  0.050861  1
  I  I17  1  0.745561  0.680360  0.238727  1
  I  I18  1  0.535870  0.102885  0.949139  1
  I  I19  1  0.811448  0.265289  0.097600  1
  I  I20  1  0.806485  0.118578  0.644255  1
  I  I21  1  0.306485  0.881422  0.355745  1
