# generated using pymatgen
data_TbYbEr2(Al8Pt3)3
_symmetry_space_group_name_H-M   'P 1'
_cell_length_a   7.52017709
_cell_length_b   7.52139272
_cell_length_c   13.17734630
_cell_angle_alpha   84.57377022
_cell_angle_beta   100.90827913
_cell_angle_gamma   119.81451629
_symmetry_Int_Tables_number   1
_chemical_formula_structural   TbYbEr2(Al8Pt3)3
_chemical_formula_sum   'Tb1 Yb1 Er2 Al24 Pt9'
_cell_volume   635.00140364
_cell_formula_units_Z   1
loop_
 _symmetry_equiv_pos_site_id
 _symmetry_equiv_pos_as_xyz
  1  'x, y, z'
loop_
 _atom_site_type_symbol
 _atom_site_label
 _atom_site_symmetry_multiplicity
 _atom_site_fract_x
 _atom_site_fract_y
 _atom_site_fract_z
 _atom_site_occupancy
  Tb  Tb0  1  0.268181  0.001369  0.807984  1
  Yb  Yb1  1  0.732831  0.998561  0.192246  1
  Er  Er2  1  0.062452  0.668639  0.192395  1
  Er  Er3  1  0.936792  0.330655  0.807675  1
  Al  Al4  1  0.807512  0.869419  0.815368  1
  Al  Al5  1  0.194201  0.129900  0.184102  1
  Al  Al6  1  0.981855  0.665960  0.943566  1
  Al  Al7  1  0.017725  0.333954  0.055251  1
  Al  Al8  1  0.397577  0.664172  0.816424  1
  Al  Al9  1  0.603581  0.339064  0.183110  1
  Al  Al10  1  0.882338  0.665080  0.671355  1
  Al  Al11  1  0.116759  0.333993  0.329189  1
  Al  Al12  1  0.603226  0.458451  0.816090  1
  Al  Al13  1  0.394049  0.540579  0.183480  1
  Al  Al14  1  0.229992  0.339821  0.669670  1
  Al  Al15  1  0.770023  0.661031  0.330805  1
  Al  Al16  1  0.853435  0.333340  0.559329  1
  Al  Al17  1  0.185783  0.999389  0.559283  1
  Al  Al18  1  0.814112  0.000469  0.441080  1
  Al  Al19  1  0.352294  0.999132  0.055389  1
  Al  Al20  1  0.647817  0.000706  0.944565  1
  Al  Al21  1  0.556677  0.993464  0.671582  1
  Al  Al22  1  0.444672  0.006739  0.329129  1
  Al  Al23  1  0.521260  0.668007  0.561914  1
  Al  Al24  1  0.479211  0.332283  0.439025  1
  Al  Al25  1  0.683632  0.667896  0.046090  1
  Al  Al26  1  0.315737  0.331947  0.952669  1
  Al  Al27  1  0.146908  0.666293  0.441690  1
  Pt  Pt28  1  0.328064  0.670982  0.999240  1
  Pt  Pt29  1  0.546281  0.324902  0.637667  1
  Pt  Pt30  1  0.453347  0.674353  0.362970  1
  Pt  Pt31  1  0.888035  0.008389  0.638714  1
  Pt  Pt32  1  0.113266  0.992055  0.361828  1
  Pt  Pt33  1  0.670969  0.328590  0.999129  1
  Pt  Pt34  1  0.203795  0.666540  0.639024  1
  Pt  Pt35  1  0.795595  0.333639  0.361872  1
  Pt  Pt36  1  0.000018  0.000243  0.999100  1
