# generated using pymatgen
data_Y4Co3Ni(SnH)4
_symmetry_space_group_name_H-M   'P 1'
_cell_length_a   4.28181400
_cell_length_b   7.11647946
_cell_length_c   8.18818528
_cell_angle_alpha   90.35578354
_cell_angle_beta   90.00000000
_cell_angle_gamma   90.00000000
_symmetry_Int_Tables_number   1
_chemical_formula_structural   Y4Co3Ni(SnH)4
_chemical_formula_sum   'Y4 Co3 Ni1 Sn4 H4'
_cell_volume   249.50099754
_cell_formula_units_Z   1
loop_
 _symmetry_equiv_pos_site_id
 _symmetry_equiv_pos_as_xyz
  1  'x, y, z'
loop_
 _atom_site_type_symbol
 _atom_site_label
 _atom_site_symmetry_multiplicity
 _atom_site_fract_x
 _atom_site_fract_y
 _atom_site_fract_z
 _atom_site_occupancy
  Y  Y0  1  0.750000  0.013474  0.687032  1
  Y  Y1  1  0.250000  0.988643  0.314040  1
  Y  Y2  1  0.250000  0.484921  0.187987  1
  Y  Y3  1  0.750000  0.510275  0.811233  1
  Co  Co4  1  0.250000  0.224024  0.898652  1
  Co  Co5  1  0.250000  0.724493  0.602690  1
  Co  Co6  1  0.750000  0.274902  0.395504  1
  Ni  Ni7  1  0.750000  0.777424  0.103251  1
  Sn  Sn8  1  0.750000  0.656114  0.428191  1
  Sn  Sn9  1  0.250000  0.342711  0.574073  1
  Sn  Sn10  1  0.250000  0.844107  0.924878  1
  Sn  Sn11  1  0.750000  0.159440  0.073140  1
  H  H12  1  0.250000  0.444379  0.919622  1
  H  H13  1  0.750000  0.555326  0.079525  1
  H  H14  1  0.750000  0.054889  0.419577  1
  H  H15  1  0.250000  0.944878  0.580605  1
