# generated using pymatgen
data_Li3Pr3MgSn4
_symmetry_space_group_name_H-M   'P 1'
_cell_length_a   9.00111718
_cell_length_b   8.89061470
_cell_length_c   8.89061276
_cell_angle_alpha   149.03593978
_cell_angle_beta   131.18642285
_cell_angle_gamma   58.81849261
_symmetry_Int_Tables_number   1
_chemical_formula_structural   Li3Pr3MgSn4
_chemical_formula_sum   'Li3 Pr3 Mg1 Sn4'
_cell_volume   273.45211221
_cell_formula_units_Z   1
loop_
 _symmetry_equiv_pos_site_id
 _symmetry_equiv_pos_as_xyz
  1  'x, y, z'
loop_
 _atom_site_type_symbol
 _atom_site_label
 _atom_site_symmetry_multiplicity
 _atom_site_fract_x
 _atom_site_fract_y
 _atom_site_fract_z
 _atom_site_occupancy
  Li  Li0  1  0.484055  0.672602  0.811454  1
  Li  Li1  1  0.857587  0.672016  0.185570  1
  Li  Li2  1  0.132193  0.327708  0.804484  1
  Pr  Pr3  1  0.499195  0.999442  0.499752  1
  Pr  Pr4  1  0.884498  0.872623  0.011875  1
  Pr  Pr5  1  0.125388  0.125975  0.999414  1
  Mg  Mg6  1  0.519298  0.328211  0.191087  1
  Sn  Sn7  1  0.269392  0.783560  0.485832  1
  Sn  Sn8  1  0.719162  0.213456  0.505706  1
  Sn  Sn9  1  0.810083  0.503687  0.306396  1
  Sn  Sn10  1  0.199149  0.500719  0.698430  1
