# generated using pymatgen
data_Ho3HfAl17GaIr6
_symmetry_space_group_name_H-M   'P 1'
_cell_length_a   7.52092309
_cell_length_b   7.51516304
_cell_length_c   9.41274200
_cell_angle_alpha   90.00000000
_cell_angle_beta   90.00000000
_cell_angle_gamma   119.48700509
_symmetry_Int_Tables_number   1
_chemical_formula_structural   Ho3HfAl17GaIr6
_chemical_formula_sum   'Ho3 Hf1 Al17 Ga1 Ir6'
_cell_volume   463.10364460
_cell_formula_units_Z   1
loop_
 _symmetry_equiv_pos_site_id
 _symmetry_equiv_pos_as_xyz
  1  'x, y, z'
loop_
 _atom_site_type_symbol
 _atom_site_label
 _atom_site_symmetry_multiplicity
 _atom_site_fract_x
 _atom_site_fract_y
 _atom_site_fract_z
 _atom_site_occupancy
  Ho  Ho0  1  0.005974  0.324626  0.750000  1
  Ho  Ho1  1  0.671689  0.995997  0.250000  1
  Ho  Ho2  1  0.326436  0.006985  0.750000  1
  Hf  Hf3  1  0.997724  0.673265  0.250000  1
  Al  Al4  1  0.127398  0.124981  0.250000  1
  Al  Al5  1  0.000494  0.338357  0.079022  1
  Al  Al6  1  0.999133  0.664647  0.929478  1
  Al  Al7  1  0.999133  0.664647  0.570522  1
  Al  Al8  1  0.333193  0.998596  0.420898  1
  Al  Al9  1  0.000494  0.338357  0.420978  1
  Al  Al10  1  0.664083  0.998088  0.574224  1
  Al  Al11  1  0.664083  0.998088  0.925776  1
  Al  Al12  1  0.333193  0.998596  0.079102  1
  Al  Al13  1  0.334287  0.334532  0.550371  1
  Al  Al14  1  0.669064  0.666947  0.440579  1
  Al  Al15  1  0.669064  0.666947  0.059421  1
  Al  Al16  1  0.334287  0.334532  0.949629  1
  Al  Al17  1  0.335913  0.549540  0.250000  1
  Al  Al18  1  0.661583  0.451020  0.750000  1
  Al  Al19  1  0.555272  0.344013  0.250000  1
  Al  Al20  1  0.449365  0.660204  0.750000  1
  Ga  Ga21  1  0.866180  0.864785  0.750000  1
  Ir  Ir22  1  0.672950  0.328981  0.000956  1
  Ir  Ir23  1  0.328114  0.672690  0.001646  1
  Ir  Ir24  1  0.328114  0.672690  0.498354  1
  Ir  Ir25  1  0.672950  0.328981  0.499044  1
  Ir  Ir26  1  0.999915  0.999455  0.003571  1
  Ir  Ir27  1  0.999915  0.999455  0.496429  1
