# generated using pymatgen
data_Tb4Y2Al15Si9Os8
_symmetry_space_group_name_H-M   'P 1'
_cell_length_a   8.71282704
_cell_length_b   8.70604538
_cell_length_c   9.38123800
_cell_angle_alpha   90.00000000
_cell_angle_beta   90.00000000
_cell_angle_gamma   120.08314911
_symmetry_Int_Tables_number   1
_chemical_formula_structural   Tb4Y2Al15Si9Os8
_chemical_formula_sum   'Tb4 Y2 Al15 Si9 Os8'
_cell_volume   615.75268568
_cell_formula_units_Z   1
loop_
 _symmetry_equiv_pos_site_id
 _symmetry_equiv_pos_as_xyz
  1  'x, y, z'
loop_
 _atom_site_type_symbol
 _atom_site_label
 _atom_site_symmetry_multiplicity
 _atom_site_fract_x
 _atom_site_fract_y
 _atom_site_fract_z
 _atom_site_occupancy
  Tb  Tb0  1  0.612781  0.807200  0.250000  1
  Tb  Tb1  1  0.385973  0.191412  0.750000  1
  Tb  Tb2  1  0.194018  0.805852  0.250000  1
  Tb  Tb3  1  0.806567  0.193558  0.750000  1
  Y  Y4  1  0.192294  0.386574  0.250000  1
  Y  Y5  1  0.808827  0.614770  0.750000  1
  Al  Al6  1  0.165784  0.329215  0.577681  1
  Al  Al7  1  0.835987  0.671163  0.420649  1
  Al  Al8  1  0.670957  0.834475  0.577526  1
  Al  Al9  1  0.835987  0.671163  0.079351  1
  Al  Al10  1  0.328750  0.163892  0.420697  1
  Al  Al11  1  0.165784  0.329215  0.922319  1
  Al  Al12  1  0.164390  0.835786  0.577984  1
  Al  Al13  1  0.328750  0.163892  0.079303  1
  Al  Al14  1  0.835151  0.164621  0.421530  1
  Al  Al15  1  0.670957  0.834475  0.922474  1
  Al  Al16  1  0.835151  0.164621  0.078470  1
  Al  Al17  1  0.164390  0.835786  0.922016  1
  Al  Al18  1  0.435830  0.564806  0.750000  1
  Al  Al19  1  0.999702  0.998344  0.250000  1
  Al  Al20  1  0.000688  0.001406  0.750000  1
  Si  Si21  1  0.334160  0.665135  0.039545  1
  Si  Si22  1  0.666239  0.334460  0.959328  1
  Si  Si23  1  0.666239  0.334460  0.540672  1
  Si  Si24  1  0.334160  0.665135  0.460455  1
  Si  Si25  1  0.561970  0.125221  0.250000  1
  Si  Si26  1  0.435551  0.874656  0.750000  1
  Si  Si27  1  0.874901  0.437806  0.250000  1
  Si  Si28  1  0.125031  0.564552  0.750000  1
  Si  Si29  1  0.562746  0.436695  0.250000  1
  Os  Os30  1  0.500131  0.000813  0.000591  1
  Os  Os31  1  0.999170  0.499872  0.000578  1
  Os  Os32  1  0.500131  0.000813  0.499409  1
  Os  Os33  1  0.500997  0.498951  0.006747  1
  Os  Os34  1  0.999170  0.499872  0.499422  1
  Os  Os35  1  0.500997  0.498951  0.493253  1
  Os  Os36  1  0.999847  0.000191  0.999936  1
  Os  Os37  1  0.999847  0.000191  0.500064  1
