# generated using pymatgen
data_Zr10AlCoSnBi5
_symmetry_space_group_name_H-M   'P 1'
_cell_length_a   8.79862784
_cell_length_b   8.83113155
_cell_length_c   5.95618858
_cell_angle_alpha   89.97493694
_cell_angle_beta   90.05031781
_cell_angle_gamma   119.87832553
_symmetry_Int_Tables_number   1
_chemical_formula_structural   Zr10AlCoSnBi5
_chemical_formula_sum   'Zr10 Al1 Co1 Sn1 Bi5'
_cell_volume   401.29280996
_cell_formula_units_Z   1
loop_
 _symmetry_equiv_pos_site_id
 _symmetry_equiv_pos_as_xyz
  1  'x, y, z'
loop_
 _atom_site_type_symbol
 _atom_site_label
 _atom_site_symmetry_multiplicity
 _atom_site_fract_x
 _atom_site_fract_y
 _atom_site_fract_z
 _atom_site_occupancy
  Zr  Zr0  1  0.333487  0.668733  0.998427  1
  Zr  Zr1  1  0.663780  0.329994  0.501922  1
  Zr  Zr2  1  0.664756  0.331267  0.998427  1
  Zr  Zr3  1  0.333785  0.670006  0.501922  1
  Zr  Zr4  1  0.254032  0.000000  0.231576  1
  Zr  Zr5  1  0.260166  0.255073  0.766146  1
  Zr  Zr6  1  0.005093  0.744927  0.766146  1
  Zr  Zr7  1  0.999356  0.253541  0.232672  1
  Zr  Zr8  1  0.745815  0.746459  0.232672  1
  Zr  Zr9  1  0.740101  0.000000  0.765858  1
  Al  Al10  1  0.000102  0.000000  0.505654  1
  Co  Co11  1  0.000482  0.000000  0.996022  1
  Sn  Sn12  1  0.389965  0.000000  0.746633  1
  Bi  Bi13  1  0.606783  0.000000  0.255025  1
  Bi  Bi14  1  0.612488  0.612055  0.745698  1
  Bi  Bi15  1  0.000433  0.387945  0.745698  1
  Bi  Bi16  1  0.999064  0.608749  0.254751  1
  Bi  Bi17  1  0.390315  0.391251  0.254751  1
