# generated using pymatgen
data_Tb2Mn2CoNi9P7
_symmetry_space_group_name_H-M   'P 1'
_cell_length_a   9.07214732
_cell_length_b   9.10165625
_cell_length_c   3.68446300
_cell_angle_alpha   90.00000000
_cell_angle_beta   90.00000000
_cell_angle_gamma   119.89347984
_symmetry_Int_Tables_number   1
_chemical_formula_structural   Tb2Mn2CoNi9P7
_chemical_formula_sum   'Tb2 Mn2 Co1 Ni9 P7'
_cell_volume   263.75488521
_cell_formula_units_Z   1
loop_
 _symmetry_equiv_pos_site_id
 _symmetry_equiv_pos_as_xyz
  1  'x, y, z'
loop_
 _atom_site_type_symbol
 _atom_site_label
 _atom_site_symmetry_multiplicity
 _atom_site_fract_x
 _atom_site_fract_y
 _atom_site_fract_z
 _atom_site_occupancy
  Tb  Tb0  1  0.668426  0.335617  0.000000  1
  Tb  Tb1  1  0.332744  0.665956  0.500000  1
  Mn  Mn2  1  0.784100  0.904212  0.500000  1
  Mn  Mn3  1  0.120705  0.216135  0.500000  1
  Co  Co4  1  0.875514  0.155351  0.000000  1
  Ni  Ni5  1  0.062304  0.627345  0.000000  1
  Ni  Ni6  1  0.565394  0.937715  0.000000  1
  Ni  Ni7  1  0.369951  0.431254  0.000000  1
  Ni  Ni8  1  0.276588  0.119932  0.000000  1
  Ni  Ni9  1  0.848555  0.726118  0.000000  1
  Ni  Ni10  1  0.434517  0.049007  0.500000  1
  Ni  Ni11  1  0.614565  0.565944  0.500000  1
  Ni  Ni12  1  0.949589  0.384151  0.500000  1
  Ni  Ni13  1  0.096621  0.877823  0.500000  1
  P  P14  1  0.293896  0.886267  0.000000  1
  P  P15  1  0.592712  0.704268  0.000000  1
  P  P16  1  0.109460  0.404523  0.000000  1
  P  P17  1  0.404647  0.292251  0.500000  1
  P  P18  1  0.888786  0.599050  0.500000  1
  P  P19  1  0.712306  0.113843  0.500000  1
  P  P20  1  0.998621  0.003238  0.000000  1
