# generated using pymatgen
data_SrEr6Sn23Ir6
_symmetry_space_group_name_H-M   'P 1'
_cell_length_a   9.89146000
_cell_length_b   9.89145945
_cell_length_c   10.06128000
_cell_angle_alpha   90.00000000
_cell_angle_beta   90.00000000
_cell_angle_gamma   120.00000186
_symmetry_Int_Tables_number   1
_chemical_formula_structural   SrEr6Sn23Ir6
_chemical_formula_sum   'Sr1 Er6 Sn23 Ir6'
_cell_volume   852.52011089
_cell_formula_units_Z   1
loop_
 _symmetry_equiv_pos_site_id
 _symmetry_equiv_pos_as_xyz
  1  'x, y, z'
loop_
 _atom_site_type_symbol
 _atom_site_label
 _atom_site_symmetry_multiplicity
 _atom_site_fract_x
 _atom_site_fract_y
 _atom_site_fract_z
 _atom_site_occupancy
  Sr  Sr0  1  0.000000  0.000000  0.000000  1
  Er  Er1  1  0.484033  0.515967  0.305426  1
  Er  Er2  1  0.515967  0.484033  0.694574  1
  Er  Er3  1  0.484033  0.968068  0.305426  1
  Er  Er4  1  0.515967  0.031932  0.694574  1
  Er  Er5  1  0.031932  0.515967  0.305426  1
  Er  Er6  1  0.968068  0.484033  0.694574  1
  Sn  Sn7  1  0.118623  0.881377  0.285428  1
  Sn  Sn8  1  0.881377  0.118623  0.714572  1
  Sn  Sn9  1  0.118623  0.237245  0.285428  1
  Sn  Sn10  1  0.881377  0.762755  0.714572  1
  Sn  Sn11  1  0.762755  0.881377  0.285428  1
  Sn  Sn12  1  0.237245  0.118623  0.714572  1
  Sn  Sn13  1  0.776472  0.223528  0.460983  1
  Sn  Sn14  1  0.223528  0.776472  0.539017  1
  Sn  Sn15  1  0.776472  0.552944  0.460983  1
  Sn  Sn16  1  0.223528  0.447056  0.539017  1
  Sn  Sn17  1  0.447056  0.223528  0.460983  1
  Sn  Sn18  1  0.552944  0.776472  0.539017  1
  Sn  Sn19  1  0.352956  0.000000  0.000000  1
  Sn  Sn20  1  0.647044  0.000000  0.000000  1
  Sn  Sn21  1  0.000000  0.352956  0.000000  1
  Sn  Sn22  1  0.000000  0.647044  0.000000  1
  Sn  Sn23  1  0.647044  0.647044  0.000000  1
  Sn  Sn24  1  0.352956  0.352956  0.000000  1
  Sn  Sn25  1  0.333333  0.666667  0.128917  1
  Sn  Sn26  1  0.666667  0.333333  0.871083  1
  Sn  Sn27  1  0.333333  0.666667  0.830173  1
  Sn  Sn28  1  0.666667  0.333333  0.169827  1
  Sn  Sn29  1  0.000000  0.000000  0.500000  1
  Ir  Ir30  1  0.828477  0.171523  0.202374  1
  Ir  Ir31  1  0.171523  0.828477  0.797626  1
  Ir  Ir32  1  0.828477  0.656955  0.202374  1
  Ir  Ir33  1  0.171523  0.343045  0.797626  1
  Ir  Ir34  1  0.343045  0.171523  0.202374  1
  Ir  Ir35  1  0.656955  0.828477  0.797626  1
