# generated using pymatgen
data_CaPr3Al8
_symmetry_space_group_name_H-M   'P 1'
_cell_length_a   9.82762157
_cell_length_b   9.82762093
_cell_length_c   9.82762236
_cell_angle_alpha   33.76068951
_cell_angle_beta   33.76069398
_cell_angle_gamma   33.76069119
_symmetry_Int_Tables_number   1
_chemical_formula_structural   CaPr3Al8
_chemical_formula_sum   'Ca1 Pr3 Al8'
_cell_volume   261.18866665
_cell_formula_units_Z   1
loop_
 _symmetry_equiv_pos_site_id
 _symmetry_equiv_pos_as_xyz
  1  'x, y, z'
loop_
 _atom_site_type_symbol
 _atom_site_label
 _atom_site_symmetry_multiplicity
 _atom_site_fract_x
 _atom_site_fract_y
 _atom_site_fract_z
 _atom_site_occupancy
  Ca  Ca0  1  0.062492  0.062492  0.062492  1
  Pr  Pr1  1  0.563118  0.563118  0.563118  1
  Pr  Pr2  1  0.435427  0.435427  0.435427  1
  Pr  Pr3  1  0.939191  0.939191  0.939191  1
  Al  Al4  1  0.749672  0.749672  0.749672  1
  Al  Al5  1  0.250360  0.250360  0.250360  1
  Al  Al6  1  0.998281  0.499664  0.499664  1
  Al  Al7  1  0.501744  0.000193  0.000193  1
  Al  Al8  1  0.499664  0.998281  0.499664  1
  Al  Al9  1  0.000193  0.501744  0.000193  1
  Al  Al10  1  0.499664  0.499664  0.998281  1
  Al  Al11  1  0.000193  0.000193  0.501744  1
