# generated using pymatgen
data_Tm13Lu7(Ir3Os)3
_symmetry_space_group_name_H-M   'P 1'
_cell_length_a   10.68304101
_cell_length_b   10.68561102
_cell_length_c   6.32170901
_cell_angle_alpha   90.00658226
_cell_angle_beta   89.99636915
_cell_angle_gamma   90.00155526
_symmetry_Int_Tables_number   1
_chemical_formula_structural   Tm13Lu7(Ir3Os)3
_chemical_formula_sum   'Tm13 Lu7 Ir9 Os3'
_cell_volume   721.65355242
_cell_formula_units_Z   1
loop_
 _symmetry_equiv_pos_site_id
 _symmetry_equiv_pos_as_xyz
  1  'x, y, z'
loop_
 _atom_site_type_symbol
 _atom_site_label
 _atom_site_symmetry_multiplicity
 _atom_site_fract_x
 _atom_site_fract_y
 _atom_site_fract_z
 _atom_site_occupancy
  Tm  Tm0  1  0.706761  0.914451  0.375833  1
  Tm  Tm1  1  0.585453  0.793689  0.876158  1
  Tm  Tm2  1  0.585761  0.206425  0.375782  1
  Tm  Tm3  1  0.413835  0.793647  0.375911  1
  Tm  Tm4  1  0.414264  0.206208  0.876115  1
  Tm  Tm5  1  0.208763  0.413436  0.625842  1
  Tm  Tm6  1  0.208195  0.586757  0.121518  1
  Tm  Tm7  1  0.791855  0.413256  0.121596  1
  Tm  Tm8  1  0.791199  0.586463  0.625733  1
  Tm  Tm9  1  0.913404  0.708309  0.121733  1
  Tm  Tm10  1  0.913346  0.290911  0.626228  1
  Tm  Tm11  1  0.086671  0.709169  0.625961  1
  Tm  Tm12  1  0.086884  0.291571  0.121897  1
  Lu  Lu13  1  0.293603  0.085484  0.376120  1
  Lu  Lu14  1  0.293543  0.914717  0.876595  1
  Lu  Lu15  1  0.706299  0.085447  0.876612  1
  Lu  Lu16  1  0.000283  0.000167  0.499520  1
  Lu  Lu17  1  0.000076  0.000079  0.999505  1
  Lu  Lu18  1  0.499966  0.499885  0.999838  1
  Lu  Lu19  1  0.499937  0.499939  0.499607  1
  Ir  Ir20  1  0.848744  0.152350  0.249337  1
  Ir  Ir21  1  0.848470  0.848158  0.749915  1
  Ir  Ir22  1  0.151846  0.151724  0.748842  1
  Ir  Ir23  1  0.151499  0.848003  0.249611  1
  Ir  Ir24  1  0.652284  0.348199  0.749921  1
  Ir  Ir25  1  0.652582  0.650977  0.250195  1
  Ir  Ir26  1  0.347397  0.348505  0.250563  1
  Ir  Ir27  1  0.347734  0.651806  0.749914  1
  Ir  Ir28  1  0.000016  0.500009  0.378297  1
  Os  Os29  1  0.499664  0.000130  0.124159  1
  Os  Os30  1  0.499607  0.000107  0.624938  1
  Os  Os31  1  0.000060  0.500024  0.876204  1
