# generated using pymatgen
data_Dy2Er2Lu(ReO6)2
_symmetry_space_group_name_H-M   'P 1'
_cell_length_a   6.79404291
_cell_length_b   6.79404355
_cell_length_c   7.47345606
_cell_angle_alpha   73.90271713
_cell_angle_beta   73.90272269
_cell_angle_gamma   49.24053087
_symmetry_Int_Tables_number   1
_chemical_formula_structural   Dy2Er2Lu(ReO6)2
_chemical_formula_sum   'Dy2 Er2 Lu1 Re2 O12'
_cell_volume   248.84807295
_cell_formula_units_Z   1
loop_
 _symmetry_equiv_pos_site_id
 _symmetry_equiv_pos_as_xyz
  1  'x, y, z'
loop_
 _atom_site_type_symbol
 _atom_site_label
 _atom_site_symmetry_multiplicity
 _atom_site_fract_x
 _atom_site_fract_y
 _atom_site_fract_z
 _atom_site_occupancy
  Dy  Dy0  1  0.697073  0.697073  0.641273  1
  Dy  Dy1  1  0.302927  0.302927  0.358727  1
  Er  Er2  1  0.685147  0.685147  0.176007  1
  Er  Er3  1  0.314853  0.314853  0.823993  1
  Lu  Lu4  1  0.000000  0.000000  0.500000  1
  Re  Re5  1  0.785799  0.214201  0.000000  1
  Re  Re6  1  0.214201  0.785799  0.000000  1
  O  O7  1  0.000560  0.000560  0.209605  1
  O  O8  1  0.999440  0.999440  0.790395  1
  O  O9  1  0.581235  0.086265  0.084305  1
  O  O10  1  0.418765  0.913735  0.915695  1
  O  O11  1  0.913735  0.418765  0.915695  1
  O  O12  1  0.086265  0.581235  0.084305  1
  O  O13  1  0.499621  0.499621  0.178378  1
  O  O14  1  0.500379  0.500379  0.821622  1
  O  O15  1  0.401846  0.901063  0.425908  1
  O  O16  1  0.598154  0.098937  0.574092  1
  O  O17  1  0.098937  0.598154  0.574092  1
  O  O18  1  0.901063  0.401846  0.425908  1
