# generated using pymatgen
data_Nd6Y10Cd4IrPt3
_symmetry_space_group_name_H-M   'P 1'
_cell_length_a   9.82696953
_cell_length_b   9.79725580
_cell_length_c   9.79725600
_cell_angle_alpha   60.00000608
_cell_angle_beta   60.09997867
_cell_angle_gamma   60.09998019
_symmetry_Int_Tables_number   1
_chemical_formula_structural   Nd6Y10Cd4IrPt3
_chemical_formula_sum   'Nd6 Y10 Cd4 Ir1 Pt3'
_cell_volume   667.98726932
_cell_formula_units_Z   1
loop_
 _symmetry_equiv_pos_site_id
 _symmetry_equiv_pos_as_xyz
  1  'x, y, z'
loop_
 _atom_site_type_symbol
 _atom_site_label
 _atom_site_symmetry_multiplicity
 _atom_site_fract_x
 _atom_site_fract_y
 _atom_site_fract_z
 _atom_site_occupancy
  Nd  Nd0  1  0.937513  0.563077  0.563077  1
  Nd  Nd1  1  0.564788  0.936979  0.936979  1
  Nd  Nd2  1  0.564788  0.936979  0.561254  1
  Nd  Nd3  1  0.937513  0.563077  0.936335  1
  Nd  Nd4  1  0.564788  0.561254  0.936979  1
  Nd  Nd5  1  0.937513  0.936335  0.563077  1
  Y  Y6  1  0.351220  0.347472  0.347472  1
  Y  Y7  1  0.351220  0.347472  0.953837  1
  Y  Y8  1  0.351220  0.953837  0.347472  1
  Y  Y9  1  0.947509  0.350830  0.350830  1
  Y  Y10  1  0.808387  0.188287  0.188287  1
  Y  Y11  1  0.189783  0.810771  0.810771  1
  Y  Y12  1  0.189783  0.810771  0.188676  1
  Y  Y13  1  0.808387  0.188287  0.815039  1
  Y  Y14  1  0.189783  0.188676  0.810771  1
  Y  Y15  1  0.808387  0.815039  0.188287  1
  Cd  Cd16  1  0.579674  0.580034  0.580034  1
  Cd  Cd17  1  0.579674  0.580034  0.260256  1
  Cd  Cd18  1  0.579674  0.260256  0.580034  1
  Cd  Cd19  1  0.261089  0.579636  0.579636  1
  Ir  Ir20  1  0.575542  0.141486  0.141486  1
  Pt  Pt21  1  0.140591  0.142311  0.142311  1
  Pt  Pt22  1  0.140591  0.142311  0.574786  1
  Pt  Pt23  1  0.140591  0.574786  0.142311  1
