# generated using pymatgen
data_CaMnNi2(PO4)3
_symmetry_space_group_name_H-M   'P 1'
_cell_length_a   9.09194042
_cell_length_b   9.09194142
_cell_length_c   9.09194099
_cell_angle_alpha   138.39891237
_cell_angle_beta   111.14625481
_cell_angle_gamma   83.76910840
_symmetry_Int_Tables_number   1
_chemical_formula_structural   CaMnNi2(PO4)3
_chemical_formula_sum   'Ca2 Mn2 Ni4 P6 O24'
_cell_volume   449.34513135
_cell_formula_units_Z   2
loop_
 _symmetry_equiv_pos_site_id
 _symmetry_equiv_pos_as_xyz
  1  'x, y, z'
loop_
 _atom_site_type_symbol
 _atom_site_label
 _atom_site_symmetry_multiplicity
 _atom_site_fract_x
 _atom_site_fract_y
 _atom_site_fract_z
 _atom_site_occupancy
  Ca  Ca0  1  0.250000  0.345223  0.095223  1
  Ca  Ca1  1  0.750000  0.654777  0.904777  1
  Mn  Mn2  1  0.000000  0.500000  0.500000  1
  Mn  Mn3  1  0.500000  0.000000  0.500000  1
  Ni  Ni4  1  0.116007  0.116007  0.500000  1
  Ni  Ni5  1  0.383993  0.883993  0.000000  1
  Ni  Ni6  1  0.616007  0.116007  0.000000  1
  Ni  Ni7  1  0.883993  0.883993  0.500000  1
  P  P8  1  0.250000  0.829640  0.579640  1
  P  P9  1  0.750000  0.170360  0.420360  1
  P  P10  1  0.323051  0.323051  0.500000  1
  P  P11  1  0.176949  0.676949  0.000000  1
  P  P12  1  0.823051  0.323051  0.000000  1
  P  P13  1  0.676949  0.676949  0.500000  1
  O  O14  1  0.340867  0.778702  0.437836  1
  O  O15  1  0.659133  0.221298  0.562164  1
  O  O16  1  0.840867  0.403031  0.562164  1
  O  O17  1  0.159133  0.596969  0.437836  1
  O  O18  1  0.131459  0.983317  0.614774  1
  O  O19  1  0.631459  0.016683  0.148142  1
  O  O20  1  0.868541  0.016683  0.385226  1
  O  O21  1  0.368541  0.983317  0.851858  1
  O  O22  1  0.341455  0.202430  0.271370  1
  O  O23  1  0.068940  0.797570  0.139025  1
  O  O24  1  0.841455  0.570085  0.139025  1
  O  O25  1  0.568940  0.429915  0.271370  1
  O  O26  1  0.658545  0.797570  0.728630  1
  O  O27  1  0.931060  0.202430  0.860975  1
  O  O28  1  0.158545  0.429915  0.860975  1
  O  O29  1  0.431060  0.570085  0.728630  1
  O  O30  1  0.132655  0.289961  0.433917  1
  O  O31  1  0.143957  0.710039  0.842696  1
  O  O32  1  0.632655  0.198739  0.842696  1
  O  O33  1  0.643957  0.801261  0.433917  1
  O  O34  1  0.867345  0.710039  0.566083  1
  O  O35  1  0.856043  0.289961  0.157304  1
  O  O36  1  0.367345  0.801261  0.157304  1
  O  O37  1  0.356043  0.198739  0.566083  1
