# generated using pymatgen
data_Dy3Hg5Au
_symmetry_space_group_name_H-M   'P 1'
_cell_length_a   8.15497900
_cell_length_b   8.15497890
_cell_length_c   3.73460700
_cell_angle_alpha   90.00000000
_cell_angle_beta   90.00000000
_cell_angle_gamma   120.00000555
_symmetry_Int_Tables_number   1
_chemical_formula_structural   Dy3Hg5Au
_chemical_formula_sum   'Dy3 Hg5 Au1'
_cell_volume   215.09048708
_cell_formula_units_Z   1
loop_
 _symmetry_equiv_pos_site_id
 _symmetry_equiv_pos_as_xyz
  1  'x, y, z'
loop_
 _atom_site_type_symbol
 _atom_site_label
 _atom_site_symmetry_multiplicity
 _atom_site_fract_x
 _atom_site_fract_y
 _atom_site_fract_z
 _atom_site_occupancy
  Dy  Dy0  1  0.613008  0.014264  0.000000  1
  Dy  Dy1  1  0.985736  0.598744  0.000000  1
  Dy  Dy2  1  0.401256  0.386992  0.000000  1
  Hg  Hg3  1  0.284235  0.000240  0.500000  1
  Hg  Hg4  1  0.999760  0.283995  0.500000  1
  Hg  Hg5  1  0.716005  0.715765  0.500000  1
  Hg  Hg6  1  0.333333  0.666667  0.500000  1
  Hg  Hg7  1  0.000000  0.000000  0.000000  1
  Au  Au8  1  0.666667  0.333333  0.500000  1
