# generated using pymatgen
data_Sc6Zn16Pd7C
_symmetry_space_group_name_H-M   'P 1'
_cell_length_a   8.78200935
_cell_length_b   8.78200828
_cell_length_c   8.78200800
_cell_angle_alpha   59.99999351
_cell_angle_beta   59.99999753
_cell_angle_gamma   59.99999216
_symmetry_Int_Tables_number   1
_chemical_formula_structural   Sc6Zn16Pd7C
_chemical_formula_sum   'Sc6 Zn16 Pd7 C1'
_cell_volume   478.92390222
_cell_formula_units_Z   1
loop_
 _symmetry_equiv_pos_site_id
 _symmetry_equiv_pos_as_xyz
  1  'x, y, z'
loop_
 _atom_site_type_symbol
 _atom_site_label
 _atom_site_symmetry_multiplicity
 _atom_site_fract_x
 _atom_site_fract_y
 _atom_site_fract_z
 _atom_site_occupancy
  Sc  Sc0  1  0.688285  0.311715  0.311715  1
  Sc  Sc1  1  0.311715  0.688285  0.688285  1
  Sc  Sc2  1  0.311715  0.688285  0.311715  1
  Sc  Sc3  1  0.688285  0.311715  0.688285  1
  Sc  Sc4  1  0.311715  0.311715  0.688285  1
  Sc  Sc5  1  0.688285  0.688285  0.311715  1
  Zn  Zn6  1  0.120151  0.120151  0.120151  1
  Zn  Zn7  1  0.879849  0.879849  0.879849  1
  Zn  Zn8  1  0.120151  0.120151  0.639548  1
  Zn  Zn9  1  0.120151  0.639548  0.120151  1
  Zn  Zn10  1  0.879849  0.879849  0.360452  1
  Zn  Zn11  1  0.879849  0.360452  0.879849  1
  Zn  Zn12  1  0.639548  0.120151  0.120151  1
  Zn  Zn13  1  0.360452  0.879849  0.879849  1
  Zn  Zn14  1  0.333873  0.333873  0.333873  1
  Zn  Zn15  1  0.666127  0.666127  0.666127  1
  Zn  Zn16  1  0.333873  0.333873  0.998382  1
  Zn  Zn17  1  0.333873  0.998382  0.333873  1
  Zn  Zn18  1  0.666127  0.666127  0.001618  1
  Zn  Zn19  1  0.666127  0.001618  0.666127  1
  Zn  Zn20  1  0.998382  0.333873  0.333873  1
  Zn  Zn21  1  0.001618  0.666127  0.666127  1
  Pd  Pd22  1  0.500000  0.000000  0.000000  1
  Pd  Pd23  1  0.000000  0.500000  0.500000  1
  Pd  Pd24  1  0.000000  0.500000  0.000000  1
  Pd  Pd25  1  0.500000  0.000000  0.500000  1
  Pd  Pd26  1  0.000000  0.000000  0.500000  1
  Pd  Pd27  1  0.500000  0.500000  0.000000  1
  Pd  Pd28  1  0.000000  0.000000  0.000000  1
  C  C29  1  0.500000  0.500000  0.500000  1
