# generated using pymatgen
data_SmDy2Pt2Rh7
_symmetry_space_group_name_H-M   'P 1'
_cell_length_a   5.32071108
_cell_length_b   5.32091877
_cell_length_c   17.51433400
_cell_angle_alpha   90.00000000
_cell_angle_beta   90.00000000
_cell_angle_gamma   119.99886670
_symmetry_Int_Tables_number   1
_chemical_formula_structural   SmDy2Pt2Rh7
_chemical_formula_sum   'Sm2 Dy4 Pt4 Rh14'
_cell_volume   429.42322043
_cell_formula_units_Z   2
loop_
 _symmetry_equiv_pos_site_id
 _symmetry_equiv_pos_as_xyz
  1  'x, y, z'
loop_
 _atom_site_type_symbol
 _atom_site_label
 _atom_site_symmetry_multiplicity
 _atom_site_fract_x
 _atom_site_fract_y
 _atom_site_fract_z
 _atom_site_occupancy
  Sm  Sm0  1  0.333342  0.666667  0.750000  1
  Sm  Sm1  1  0.666658  0.333333  0.250000  1
  Dy  Dy2  1  0.333337  0.666666  0.957447  1
  Dy  Dy3  1  0.666663  0.333334  0.042553  1
  Dy  Dy4  1  0.666663  0.333334  0.457447  1
  Dy  Dy5  1  0.333337  0.666666  0.542553  1
  Pt  Pt6  1  0.333402  0.666634  0.250000  1
  Pt  Pt7  1  0.666598  0.333366  0.750000  1
  Pt  Pt8  1  0.000000  0.000000  0.500000  1
  Pt  Pt9  1  0.000000  0.000000  0.000000  1
  Rh  Rh10  1  0.167488  0.832515  0.374810  1
  Rh  Rh11  1  0.167491  0.334969  0.374829  1
  Rh  Rh12  1  0.665026  0.832509  0.374839  1
  Rh  Rh13  1  0.832512  0.167485  0.625190  1
  Rh  Rh14  1  0.832509  0.665031  0.625171  1
  Rh  Rh15  1  0.334974  0.167491  0.625161  1
  Rh  Rh16  1  0.832512  0.167485  0.874810  1
  Rh  Rh17  1  0.832509  0.665031  0.874829  1
  Rh  Rh18  1  0.334974  0.167491  0.874839  1
  Rh  Rh19  1  0.167488  0.832515  0.125190  1
  Rh  Rh20  1  0.167491  0.334969  0.125171  1
  Rh  Rh21  1  0.665026  0.832509  0.125161  1
  Rh  Rh22  1  0.999930  0.000038  0.250000  1
  Rh  Rh23  1  0.000070  0.999962  0.750000  1
