# generated using pymatgen
data_Tb13Y3(In3Ir)2
_symmetry_space_group_name_H-M   'P 1'
_cell_length_a   10.47217200
_cell_length_b   10.47217251
_cell_length_c   7.13099600
_cell_angle_alpha   90.00000000
_cell_angle_beta   90.00000000
_cell_angle_gamma   120.00000470
_symmetry_Int_Tables_number   1
_chemical_formula_structural   Tb13Y3(In3Ir)2
_chemical_formula_sum   'Tb13 Y3 In6 Ir2'
_cell_volume   677.25833500
_cell_formula_units_Z   1
loop_
 _symmetry_equiv_pos_site_id
 _symmetry_equiv_pos_as_xyz
  1  'x, y, z'
loop_
 _atom_site_type_symbol
 _atom_site_label
 _atom_site_symmetry_multiplicity
 _atom_site_fract_x
 _atom_site_fract_y
 _atom_site_fract_z
 _atom_site_occupancy
  Tb  Tb0  1  0.465696  0.534304  0.480824  1
  Tb  Tb1  1  0.068607  0.534304  0.480824  1
  Tb  Tb2  1  0.465696  0.931393  0.480824  1
  Tb  Tb3  1  0.534316  0.465684  0.980939  1
  Tb  Tb4  1  0.931368  0.465684  0.980939  1
  Tb  Tb5  1  0.534316  0.068632  0.980939  1
  Tb  Tb6  1  0.823947  0.176053  0.275476  1
  Tb  Tb7  1  0.352106  0.176053  0.275476  1
  Tb  Tb8  1  0.823947  0.647894  0.275476  1
  Tb  Tb9  1  0.176028  0.823972  0.775315  1
  Tb  Tb10  1  0.647944  0.823972  0.775315  1
  Tb  Tb11  1  0.176028  0.352056  0.775315  1
  Tb  Tb12  1  0.333333  0.666667  0.099483  1
  Y  Y13  1  0.666667  0.333333  0.599573  1
  Y  Y14  1  0.000000  0.000000  0.497180  1
  Y  Y15  1  0.000000  0.000000  0.997355  1
  In  In16  1  0.162979  0.837021  0.233551  1
  In  In17  1  0.674042  0.837021  0.233551  1
  In  In18  1  0.162979  0.325958  0.233551  1
  In  In19  1  0.836949  0.163051  0.733456  1
  In  In20  1  0.326100  0.163051  0.733456  1
  In  In21  1  0.836949  0.673900  0.733456  1
  Ir  Ir22  1  0.333333  0.666667  0.706549  1
  Ir  Ir23  1  0.666667  0.333333  0.205739  1
