# generated using pymatgen
data_La6Dy3PdRh5
_symmetry_space_group_name_H-M   'P 1'
_cell_length_a   7.68967001
_cell_length_b   7.68095036
_cell_length_c   7.68594600
_cell_angle_alpha   70.75528173
_cell_angle_beta   71.05468589
_cell_angle_gamma   70.73280483
_symmetry_Int_Tables_number   1
_chemical_formula_structural   La6Dy3PdRh5
_chemical_formula_sum   'La6 Dy3 Pd1 Rh5'
_cell_volume   392.53783404
_cell_formula_units_Z   1
loop_
 _symmetry_equiv_pos_site_id
 _symmetry_equiv_pos_as_xyz
  1  'x, y, z'
loop_
 _atom_site_type_symbol
 _atom_site_label
 _atom_site_symmetry_multiplicity
 _atom_site_fract_x
 _atom_site_fract_y
 _atom_site_fract_z
 _atom_site_occupancy
  La  La0  1  0.164044  0.393084  0.674020  1
  La  La1  1  0.666384  0.159741  0.386568  1
  La  La2  1  0.388807  0.672142  0.161458  1
  La  La3  1  0.840758  0.613089  0.326395  1
  La  La4  1  0.332454  0.836285  0.612035  1
  La  La5  1  0.604124  0.330221  0.848337  1
  Dy  Dy6  1  0.999990  0.999664  0.003166  1
  Dy  Dy7  1  0.800655  0.798519  0.804449  1
  Dy  Dy8  1  0.199709  0.197219  0.192555  1
  Pd  Pd9  1  0.960033  0.156059  0.588540  1
  Rh  Rh10  1  0.594832  0.958147  0.156703  1
  Rh  Rh11  1  0.160611  0.593661  0.956338  1
  Rh  Rh12  1  0.042446  0.841451  0.407400  1
  Rh  Rh13  1  0.405536  0.044966  0.839326  1
  Rh  Rh14  1  0.839615  0.405753  0.042713  1
