# generated using pymatgen
data_Y8Er2Al3Ru
_symmetry_space_group_name_H-M   'P 1'
_cell_length_a   9.55289148
_cell_length_b   9.55331930
_cell_length_c   9.66459463
_cell_angle_alpha   90.00000053
_cell_angle_beta   89.96383422
_cell_angle_gamma   120.00148221
_symmetry_Int_Tables_number   1
_chemical_formula_structural   Y8Er2Al3Ru
_chemical_formula_sum   'Y16 Er4 Al6 Ru2'
_cell_volume   763.83017367
_cell_formula_units_Z   2
loop_
 _symmetry_equiv_pos_site_id
 _symmetry_equiv_pos_as_xyz
  1  'x, y, z'
loop_
 _atom_site_type_symbol
 _atom_site_label
 _atom_site_symmetry_multiplicity
 _atom_site_fract_x
 _atom_site_fract_y
 _atom_site_fract_z
 _atom_site_occupancy
  Y  Y0  1  0.585753  0.792877  0.440365  1
  Y  Y1  1  0.794434  0.206957  0.559914  1
  Y  Y2  1  0.794434  0.587476  0.559914  1
  Y  Y3  1  0.412818  0.206408  0.559564  1
  Y  Y4  1  0.793422  0.206699  0.939835  1
  Y  Y5  1  0.793422  0.586723  0.939835  1
  Y  Y6  1  0.413043  0.206521  0.939848  1
  Y  Y7  1  0.206683  0.793369  0.060795  1
  Y  Y8  1  0.206683  0.413315  0.060795  1
  Y  Y9  1  0.586233  0.793117  0.060375  1
  Y  Y10  1  0.539538  0.459641  0.250639  1
  Y  Y11  1  0.539538  0.079896  0.250639  1
  Y  Y12  1  0.921295  0.460648  0.251277  1
  Y  Y13  1  0.459646  0.539868  0.749232  1
  Y  Y14  1  0.459646  0.919778  0.749232  1
  Y  Y15  1  0.081094  0.540547  0.748364  1
  Er  Er16  1  0.001110  0.000555  0.499507  1
  Er  Er17  1  0.000077  0.000039  0.000338  1
  Er  Er18  1  0.206877  0.792434  0.439268  1
  Er  Er19  1  0.206877  0.414445  0.439268  1
  Al  Al20  1  0.889427  0.110355  0.249872  1
  Al  Al21  1  0.889427  0.779072  0.249872  1
  Al  Al22  1  0.220902  0.110452  0.249743  1
  Al  Al23  1  0.110353  0.889674  0.750020  1
  Al  Al24  1  0.110353  0.220677  0.750020  1
  Al  Al25  1  0.779393  0.889696  0.749952  1
  Ru  Ru26  1  0.330917  0.665459  0.252054  1
  Ru  Ru27  1  0.666603  0.333301  0.749462  1
