# generated using pymatgen
data_Dy3HoHg2
_symmetry_space_group_name_H-M   'P 1'
_cell_length_a   7.04959109
_cell_length_b   5.11345300
_cell_length_c   9.27216612
_cell_angle_alpha   90.00000000
_cell_angle_beta   89.98152936
_cell_angle_gamma   90.00000000
_symmetry_Int_Tables_number   1
_chemical_formula_structural   Dy3HoHg2
_chemical_formula_sum   'Dy6 Ho2 Hg4'
_cell_volume   334.24073408
_cell_formula_units_Z   2
loop_
 _symmetry_equiv_pos_site_id
 _symmetry_equiv_pos_as_xyz
  1  'x, y, z'
loop_
 _atom_site_type_symbol
 _atom_site_label
 _atom_site_symmetry_multiplicity
 _atom_site_fract_x
 _atom_site_fract_y
 _atom_site_fract_z
 _atom_site_occupancy
  Dy  Dy0  1  0.830470  0.750000  0.074358  1
  Dy  Dy1  1  0.516515  0.250000  0.194659  1
  Dy  Dy2  1  0.016654  0.250000  0.305242  1
  Dy  Dy3  1  0.330325  0.750000  0.425518  1
  Dy  Dy4  1  0.669574  0.250000  0.574710  1
  Dy  Dy5  1  0.983481  0.750000  0.694794  1
  Ho  Ho6  1  0.483190  0.750000  0.805426  1
  Ho  Ho7  1  0.169685  0.250000  0.925417  1
  Hg  Hg8  1  0.263671  0.750000  0.101336  1
  Hg  Hg9  1  0.763688  0.750000  0.398289  1
  Hg  Hg10  1  0.236281  0.250000  0.601943  1
  Hg  Hg11  1  0.736469  0.250000  0.898308  1
