# generated using pymatgen
data_Ta12ReOs6W5
_symmetry_space_group_name_H-M   'P 1'
_cell_length_a   4.53033400
_cell_length_b   6.41835700
_cell_length_c   13.67483400
_cell_angle_alpha   90.00000000
_cell_angle_beta   89.99997090
_cell_angle_gamma   90.00000000
_symmetry_Int_Tables_number   1
_chemical_formula_structural   Ta12ReOs6W5
_chemical_formula_sum   'Ta12 Re1 Os6 W5'
_cell_volume   397.62726354
_cell_formula_units_Z   1
loop_
 _symmetry_equiv_pos_site_id
 _symmetry_equiv_pos_as_xyz
  1  'x, y, z'
loop_
 _atom_site_type_symbol
 _atom_site_label
 _atom_site_symmetry_multiplicity
 _atom_site_fract_x
 _atom_site_fract_y
 _atom_site_fract_z
 _atom_site_occupancy
  Ta  Ta0  1  0.499999  0.250282  0.000291  1
  Ta  Ta1  1  0.499999  0.749719  0.000291  1
  Ta  Ta2  1  0.999974  0.249819  0.166952  1
  Ta  Ta3  1  0.999974  0.750180  0.166952  1
  Ta  Ta4  1  0.499961  0.250252  0.333347  1
  Ta  Ta5  1  0.499961  0.749749  0.333347  1
  Ta  Ta6  1  0.999999  0.249810  0.499726  1
  Ta  Ta7  1  0.999999  0.750189  0.499726  1
  Ta  Ta8  1  0.500034  0.250273  0.666364  1
  Ta  Ta9  1  0.500034  0.749728  0.666364  1
  Ta  Ta10  1  0.000031  0.249958  0.833323  1
  Ta  Ta11  1  0.000031  0.750041  0.833323  1
  Re  Re12  1  0.500041  0.000000  0.833330  1
  Os  Os13  1  0.999999  0.000000  0.999072  1
  Os  Os14  1  0.499969  0.500000  0.166367  1
  Os  Os15  1  0.999969  0.000000  0.333330  1
  Os  Os16  1  0.499999  0.500000  0.500316  1
  Os  Os17  1  0.000025  0.000000  0.667603  1
  Os  Os18  1  0.500037  0.500000  0.833318  1
  W  W19  1  0.999999  0.500000  0.999414  1
  W  W20  1  0.499973  0.000000  0.166153  1
  W  W21  1  0.999960  0.500000  0.333334  1
  W  W22  1  0.500001  0.000000  0.500504  1
  W  W23  1  0.000030  0.500000  0.667254  1
