# generated using pymatgen
data_Ho15Th(InRu)4
_symmetry_space_group_name_H-M   'P 1'
_cell_length_a   9.63436785
_cell_length_b   9.63436829
_cell_length_c   9.63436707
_cell_angle_alpha   59.99936734
_cell_angle_beta   59.99937400
_cell_angle_gamma   59.99936365
_symmetry_Int_Tables_number   1
_chemical_formula_structural   Ho15Th(InRu)4
_chemical_formula_sum   'Ho15 Th1 In4 Ru4'
_cell_volume   632.33677384
_cell_formula_units_Z   1
loop_
 _symmetry_equiv_pos_site_id
 _symmetry_equiv_pos_as_xyz
  1  'x, y, z'
loop_
 _atom_site_type_symbol
 _atom_site_label
 _atom_site_symmetry_multiplicity
 _atom_site_fract_x
 _atom_site_fract_y
 _atom_site_fract_z
 _atom_site_occupancy
  Ho  Ho0  1  0.600529  0.600529  0.201440  1
  Ho  Ho1  1  0.600529  0.201440  0.600529  1
  Ho  Ho2  1  0.201440  0.600529  0.600529  1
  Ho  Ho3  1  0.060094  0.440931  0.440931  1
  Ho  Ho4  1  0.440702  0.057696  0.057696  1
  Ho  Ho5  1  0.440931  0.060094  0.440931  1
  Ho  Ho6  1  0.057696  0.440702  0.057696  1
  Ho  Ho7  1  0.440931  0.440931  0.060094  1
  Ho  Ho8  1  0.057696  0.057696  0.440702  1
  Ho  Ho9  1  0.187247  0.812081  0.812081  1
  Ho  Ho10  1  0.807250  0.193856  0.193856  1
  Ho  Ho11  1  0.812081  0.187247  0.812081  1
  Ho  Ho12  1  0.193856  0.807250  0.193856  1
  Ho  Ho13  1  0.812081  0.812081  0.187247  1
  Ho  Ho14  1  0.193856  0.193856  0.807250  1
  Th  Th15  1  0.593714  0.593714  0.593714  1
  In  In16  1  0.832127  0.832127  0.832127  1
  In  In17  1  0.832978  0.832978  0.499631  1
  In  In18  1  0.832978  0.499631  0.832978  1
  In  In19  1  0.499631  0.832978  0.832978  1
  Ru  Ru20  1  0.389890  0.389890  0.389890  1
  Ru  Ru21  1  0.391205  0.391205  0.829355  1
  Ru  Ru22  1  0.391205  0.829355  0.391205  1
  Ru  Ru23  1  0.829355  0.391205  0.391205  1
