# generated using pymatgen
data_Rb4SnSb7Au8
_symmetry_space_group_name_H-M   'P 1'
_cell_length_a   4.90165200
_cell_length_b   9.05032696
_cell_length_c   12.46803600
_cell_angle_alpha   90.09696886
_cell_angle_beta   90.00000000
_cell_angle_gamma   90.00000000
_symmetry_Int_Tables_number   1
_chemical_formula_structural   Rb4SnSb7Au8
_chemical_formula_sum   'Rb4 Sn1 Sb7 Au8'
_cell_volume   553.10065083
_cell_formula_units_Z   1
loop_
 _symmetry_equiv_pos_site_id
 _symmetry_equiv_pos_as_xyz
  1  'x, y, z'
loop_
 _atom_site_type_symbol
 _atom_site_label
 _atom_site_symmetry_multiplicity
 _atom_site_fract_x
 _atom_site_fract_y
 _atom_site_fract_z
 _atom_site_occupancy
  Rb  Rb0  1  0.750000  0.743205  0.334091  1
  Rb  Rb1  1  0.250000  0.759127  0.835154  1
  Rb  Rb2  1  0.250000  0.256038  0.663358  1
  Rb  Rb3  1  0.750000  0.242919  0.167349  1
  Sn  Sn4  1  0.250000  0.387415  0.949385  1
  Sb  Sb5  1  0.250000  0.403466  0.345941  1
  Sb  Sb6  1  0.250000  0.905909  0.155354  1
  Sb  Sb7  1  0.750000  0.607798  0.046770  1
  Sb  Sb8  1  0.750000  0.597615  0.653341  1
  Sb  Sb9  1  0.750000  0.096715  0.848628  1
  Sb  Sb10  1  0.250000  0.889976  0.547903  1
  Sb  Sb11  1  0.750000  0.111575  0.454223  1
  Au  Au12  1  0.250000  0.084495  0.970864  1
  Au  Au13  1  0.750000  0.434956  0.844729  1
  Au  Au14  1  0.750000  0.932692  0.653420  1
  Au  Au15  1  0.250000  0.561068  0.150525  1
  Au  Au16  1  0.250000  0.069339  0.348982  1
  Au  Au17  1  0.750000  0.912219  0.032948  1
  Au  Au18  1  0.250000  0.585954  0.530366  1
  Au  Au19  1  0.750000  0.417519  0.466666  1
