# generated using pymatgen
data_Nd10Tl3Bi3Cl2
_symmetry_space_group_name_H-M   'P 1'
_cell_length_a   9.60727300
_cell_length_b   9.57678347
_cell_length_c   6.71471700
_cell_angle_alpha   90.00000000
_cell_angle_beta   90.00000000
_cell_angle_gamma   120.18275726
_symmetry_Int_Tables_number   1
_chemical_formula_structural   Nd10Tl3Bi3Cl2
_chemical_formula_sum   'Nd10 Tl3 Bi3 Cl2'
_cell_volume   534.04199114
_cell_formula_units_Z   1
loop_
 _symmetry_equiv_pos_site_id
 _symmetry_equiv_pos_as_xyz
  1  'x, y, z'
loop_
 _atom_site_type_symbol
 _atom_site_label
 _atom_site_symmetry_multiplicity
 _atom_site_fract_x
 _atom_site_fract_y
 _atom_site_fract_z
 _atom_site_occupancy
  Nd  Nd0  1  0.260756  0.994697  0.750000  1
  Nd  Nd1  1  0.737172  0.000506  0.250000  1
  Nd  Nd2  1  0.995831  0.259307  0.750000  1
  Nd  Nd3  1  0.003748  0.743043  0.250000  1
  Nd  Nd4  1  0.743836  0.742399  0.750000  1
  Nd  Nd5  1  0.259035  0.256453  0.250000  1
  Nd  Nd6  1  0.332293  0.671646  0.499381  1
  Nd  Nd7  1  0.667215  0.329430  0.499670  1
  Nd  Nd8  1  0.667215  0.329430  0.000330  1
  Nd  Nd9  1  0.332293  0.671646  0.000619  1
  Tl  Tl10  1  0.610555  0.999679  0.750000  1
  Tl  Tl11  1  0.390810  0.000749  0.250000  1
  Tl  Tl12  1  0.998773  0.612337  0.750000  1
  Bi  Bi13  1  0.999917  0.387205  0.250000  1
  Bi  Bi14  1  0.385576  0.385006  0.750000  1
  Bi  Bi15  1  0.615380  0.613683  0.250000  1
  Cl  Cl16  1  0.999799  0.001392  0.499541  1
  Cl  Cl17  1  0.999799  0.001392  0.000459  1
