# generated using pymatgen
data_PrTm7(AlRu)8
_symmetry_space_group_name_H-M   'P 1'
_cell_length_a   4.08251100
_cell_length_b   6.97233123
_cell_length_c   15.86126259
_cell_angle_alpha   89.75672599
_cell_angle_beta   90.00000000
_cell_angle_gamma   90.00000000
_symmetry_Int_Tables_number   1
_chemical_formula_structural   PrTm7(AlRu)8
_chemical_formula_sum   'Pr1 Tm7 Al8 Ru8'
_cell_volume   451.48072557
_cell_formula_units_Z   1
loop_
 _symmetry_equiv_pos_site_id
 _symmetry_equiv_pos_as_xyz
  1  'x, y, z'
loop_
 _atom_site_type_symbol
 _atom_site_label
 _atom_site_symmetry_multiplicity
 _atom_site_fract_x
 _atom_site_fract_y
 _atom_site_fract_z
 _atom_site_occupancy
  Pr  Pr0  1  0.250000  0.534437  0.721159  1
  Tm  Tm1  1  0.750000  0.962774  0.219238  1
  Tm  Tm2  1  0.250000  0.157158  0.561543  1
  Tm  Tm3  1  0.750000  0.844435  0.435083  1
  Tm  Tm4  1  0.750000  0.462409  0.281037  1
  Tm  Tm5  1  0.750000  0.342485  0.064637  1
  Tm  Tm6  1  0.250000  0.657043  0.938487  1
  Tm  Tm7  1  0.250000  0.037537  0.782444  1
  Al  Al8  1  0.750000  0.503216  0.562062  1
  Al  Al9  1  0.750000  0.361305  0.853001  1
  Al  Al10  1  0.750000  0.000812  0.936173  1
  Al  Al11  1  0.750000  0.870407  0.648712  1
  Al  Al12  1  0.250000  0.499267  0.432905  1
  Al  Al13  1  0.250000  0.996889  0.067262  1
  Al  Al14  1  0.250000  0.633365  0.151909  1
  Al  Al15  1  0.250000  0.134266  0.348033  1
  Ru  Ru16  1  0.750000  0.755605  0.814574  1
  Ru  Ru17  1  0.250000  0.235740  0.939352  1
  Ru  Ru18  1  0.750000  0.263514  0.436262  1
  Ru  Ru19  1  0.250000  0.753097  0.311761  1
  Ru  Ru20  1  0.750000  0.761930  0.063862  1
  Ru  Ru21  1  0.750000  0.238655  0.684548  1
  Ru  Ru22  1  0.250000  0.252456  0.187178  1
  Ru  Ru23  1  0.250000  0.741201  0.558778  1
