# generated using pymatgen
data_LuIrF7
_symmetry_space_group_name_H-M   'P 1'
_cell_length_a   5.46193600
_cell_length_b   8.77915344
_cell_length_c   11.82958533
_cell_angle_alpha   62.71760721
_cell_angle_beta   90.00000000
_cell_angle_gamma   90.00000000
_symmetry_Int_Tables_number   1
_chemical_formula_structural   LuIrF7
_chemical_formula_sum   'Lu4 Ir4 F28'
_cell_volume   504.14139306
_cell_formula_units_Z   4
loop_
 _symmetry_equiv_pos_site_id
 _symmetry_equiv_pos_as_xyz
  1  'x, y, z'
loop_
 _atom_site_type_symbol
 _atom_site_label
 _atom_site_symmetry_multiplicity
 _atom_site_fract_x
 _atom_site_fract_y
 _atom_site_fract_z
 _atom_site_occupancy
  Lu  Lu0  1  0.259981  0.816566  0.264054  1
  Lu  Lu1  1  0.740019  0.183434  0.735946  1
  Lu  Lu2  1  0.759981  0.183434  0.235946  1
  Lu  Lu3  1  0.240019  0.816566  0.764054  1
  Ir  Ir4  1  0.758746  0.727178  0.042624  1
  Ir  Ir5  1  0.241254  0.272822  0.957376  1
  Ir  Ir6  1  0.258746  0.272822  0.457376  1
  Ir  Ir7  1  0.741254  0.727178  0.542624  1
  F  F8  1  0.946002  0.708986  0.412425  1
  F  F9  1  0.053998  0.291014  0.587575  1
  F  F10  1  0.446002  0.291014  0.087575  1
  F  F11  1  0.553998  0.708986  0.912425  1
  F  F12  1  0.466586  0.730086  0.139349  1
  F  F13  1  0.533414  0.269914  0.860651  1
  F  F14  1  0.966586  0.269914  0.360651  1
  F  F15  1  0.033414  0.730086  0.639349  1
  F  F16  1  0.957695  0.744238  0.175241  1
  F  F17  1  0.042305  0.255762  0.824759  1
  F  F18  1  0.457695  0.255762  0.324759  1
  F  F19  1  0.542305  0.744238  0.675241  1
  F  F20  1  0.769956  0.478090  0.140379  1
  F  F21  1  0.230044  0.521910  0.859621  1
  F  F22  1  0.269956  0.521910  0.359621  1
  F  F23  1  0.730044  0.478090  0.640379  1
  F  F24  1  0.939480  0.278435  0.047899  1
  F  F25  1  0.060520  0.721565  0.952101  1
  F  F26  1  0.439480  0.721565  0.452101  1
  F  F27  1  0.560520  0.278435  0.547899  1
  F  F28  1  0.738356  0.976490  0.446707  1
  F  F29  1  0.261644  0.023510  0.553293  1
  F  F30  1  0.238356  0.023510  0.053293  1
  F  F31  1  0.761644  0.976490  0.946707  1
  F  F32  1  0.584645  0.969751  0.232136  1
  F  F33  1  0.415355  0.030249  0.767864  1
  F  F34  1  0.084645  0.030249  0.267864  1
  F  F35  1  0.915355  0.969751  0.732136  1
