# generated using pymatgen
data_ErTm5TaO12
_symmetry_space_group_name_H-M   'P 1'
_cell_length_a   6.39690210
_cell_length_b   6.39812262
_cell_length_c   6.40007736
_cell_angle_alpha   98.83973487
_cell_angle_beta   98.87648454
_cell_angle_gamma   98.86084436
_symmetry_Int_Tables_number   1
_chemical_formula_structural   ErTm5TaO12
_chemical_formula_sum   'Er1 Tm5 Ta1 O12'
_cell_volume   251.45794560
_cell_formula_units_Z   1
loop_
 _symmetry_equiv_pos_site_id
 _symmetry_equiv_pos_as_xyz
  1  'x, y, z'
loop_
 _atom_site_type_symbol
 _atom_site_label
 _atom_site_symmetry_multiplicity
 _atom_site_fract_x
 _atom_site_fract_y
 _atom_site_fract_z
 _atom_site_occupancy
  Er  Er0  1  0.694666  0.860585  0.389302  1
  Tm  Tm1  1  0.389063  0.694170  0.860444  1
  Tm  Tm2  1  0.860947  0.389522  0.694891  1
  Tm  Tm3  1  0.305495  0.139369  0.610809  1
  Tm  Tm4  1  0.610427  0.305658  0.139065  1
  Tm  Tm5  1  0.139745  0.610421  0.305753  1
  Ta  Ta6  1  0.000354  0.000201  0.000183  1
  O  O7  1  0.433215  0.584027  0.177800  1
  O  O8  1  0.178536  0.433798  0.585037  1
  O  O9  1  0.584498  0.179778  0.434279  1
  O  O10  1  0.566093  0.415008  0.821298  1
  O  O11  1  0.822083  0.564693  0.415012  1
  O  O12  1  0.413737  0.821562  0.566466  1
  O  O13  1  0.924594  0.044376  0.694443  1
  O  O14  1  0.956540  0.306235  0.076465  1
  O  O15  1  0.306440  0.076368  0.956773  1
  O  O16  1  0.076654  0.956631  0.306191  1
  O  O17  1  0.043269  0.693811  0.923623  1
  O  O18  1  0.693643  0.923788  0.042167  1
