# generated using pymatgen
data_Pu6MnCrSb10
_symmetry_space_group_name_H-M   'P 1'
_cell_length_a   9.12497900
_cell_length_b   9.12497821
_cell_length_c   6.18359400
_cell_angle_alpha   90.00000000
_cell_angle_beta   90.00000000
_cell_angle_gamma   119.99999924
_symmetry_Int_Tables_number   1
_chemical_formula_structural   Pu6MnCrSb10
_chemical_formula_sum   'Pu6 Mn1 Cr1 Sb10'
_cell_volume   445.89778180
_cell_formula_units_Z   1
loop_
 _symmetry_equiv_pos_site_id
 _symmetry_equiv_pos_as_xyz
  1  'x, y, z'
loop_
 _atom_site_type_symbol
 _atom_site_label
 _atom_site_symmetry_multiplicity
 _atom_site_fract_x
 _atom_site_fract_y
 _atom_site_fract_z
 _atom_site_occupancy
  Pu  Pu0  1  0.385940  0.000000  0.749801  1
  Pu  Pu1  1  0.385940  0.385940  0.250199  1
  Pu  Pu2  1  0.000000  0.614060  0.250199  1
  Pu  Pu3  1  0.000000  0.385940  0.749801  1
  Pu  Pu4  1  0.614060  0.614060  0.749801  1
  Pu  Pu5  1  0.614060  0.000000  0.250199  1
  Mn  Mn6  1  0.000000  0.000000  0.500000  1
  Cr  Cr7  1  0.000000  0.000000  0.000000  1
  Sb  Sb8  1  0.666667  0.333333  0.500000  1
  Sb  Sb9  1  0.333333  0.666667  0.000000  1
  Sb  Sb10  1  0.746037  0.000000  0.748808  1
  Sb  Sb11  1  0.746037  0.746037  0.251192  1
  Sb  Sb12  1  0.333333  0.666667  0.500000  1
  Sb  Sb13  1  0.666667  0.333333  0.000000  1
  Sb  Sb14  1  0.253963  0.000000  0.251192  1
  Sb  Sb15  1  0.253963  0.253963  0.748808  1
  Sb  Sb16  1  0.000000  0.746037  0.748808  1
  Sb  Sb17  1  0.000000  0.253963  0.251192  1
