# generated using pymatgen
data_Tb15Th5Ir11Ru
_symmetry_space_group_name_H-M   'P 1'
_cell_length_a   11.14110742
_cell_length_b   11.02867399
_cell_length_c   6.36820670
_cell_angle_alpha   89.73833485
_cell_angle_beta   90.01231144
_cell_angle_gamma   90.08916582
_symmetry_Int_Tables_number   1
_chemical_formula_structural   Tb15Th5Ir11Ru
_chemical_formula_sum   'Tb15 Th5 Ir11 Ru1'
_cell_volume   782.46288764
_cell_formula_units_Z   1
loop_
 _symmetry_equiv_pos_site_id
 _symmetry_equiv_pos_as_xyz
  1  'x, y, z'
loop_
 _atom_site_type_symbol
 _atom_site_label
 _atom_site_symmetry_multiplicity
 _atom_site_fract_x
 _atom_site_fract_y
 _atom_site_fract_z
 _atom_site_occupancy
  Tb  Tb0  1  0.589385  0.214152  0.380276  1
  Tb  Tb1  1  0.407840  0.786782  0.378279  1
  Tb  Tb2  1  0.409542  0.212777  0.879102  1
  Tb  Tb3  1  0.207668  0.411938  0.620167  1
  Tb  Tb4  1  0.206783  0.587330  0.119149  1
  Tb  Tb5  1  0.793627  0.412204  0.117925  1
  Tb  Tb6  1  0.793412  0.585777  0.616906  1
  Tb  Tb7  1  0.913698  0.706021  0.114918  1
  Tb  Tb8  1  0.913036  0.293030  0.615255  1
  Tb  Tb9  1  0.087088  0.706320  0.616879  1
  Tb  Tb10  1  0.088009  0.293145  0.114858  1
  Tb  Tb11  1  0.000113  0.000116  0.500991  1
  Tb  Tb12  1  0.998781  0.000759  0.000323  1
  Tb  Tb13  1  0.498371  0.494552  0.010199  1
  Tb  Tb14  1  0.500310  0.500294  0.508914  1
  Th  Th15  1  0.294296  0.093005  0.379519  1
  Th  Th16  1  0.289026  0.908925  0.881824  1
  Th  Th17  1  0.706556  0.098593  0.882750  1
  Th  Th18  1  0.708572  0.910279  0.377475  1
  Th  Th19  1  0.589500  0.786373  0.883170  1
  Ir  Ir20  1  0.844499  0.152022  0.246215  1
  Ir  Ir21  1  0.839785  0.849988  0.748451  1
  Ir  Ir22  1  0.157421  0.150125  0.745038  1
  Ir  Ir23  1  0.155491  0.849477  0.248010  1
  Ir  Ir24  1  0.654310  0.346216  0.755322  1
  Ir  Ir25  1  0.654029  0.655952  0.249913  1
  Ir  Ir26  1  0.346036  0.343491  0.259655  1
  Ir  Ir27  1  0.350028  0.657122  0.760988  1
  Ir  Ir28  1  0.500691  0.996667  0.619521  1
  Ir  Ir29  1  0.001124  0.499626  0.877010  1
  Ir  Ir30  1  0.000553  0.499782  0.377895  1
  Ru  Ru31  1  0.500419  0.997162  0.113102  1
