# generated using pymatgen
data_DyYBe25Co
_symmetry_space_group_name_H-M   'P 1'
_cell_length_a   7.22691882
_cell_length_b   7.26834009
_cell_length_c   7.21255819
_cell_angle_alpha   59.87949558
_cell_angle_beta   59.93139945
_cell_angle_gamma   59.66952575
_symmetry_Int_Tables_number   1
_chemical_formula_structural   DyYBe25Co
_chemical_formula_sum   'Dy1 Y1 Be25 Co1'
_cell_volume   266.83763096
_cell_formula_units_Z   1
loop_
 _symmetry_equiv_pos_site_id
 _symmetry_equiv_pos_as_xyz
  1  'x, y, z'
loop_
 _atom_site_type_symbol
 _atom_site_label
 _atom_site_symmetry_multiplicity
 _atom_site_fract_x
 _atom_site_fract_y
 _atom_site_fract_z
 _atom_site_occupancy
  Dy  Dy0  1  0.246728  0.254966  0.250306  1
  Y  Y1  1  0.749638  0.752128  0.753023  1
  Be  Be2  1  0.502593  0.501540  0.497416  1
  Be  Be3  1  0.998778  0.003073  0.001210  1
  Be  Be4  1  0.203749  0.440063  0.796373  1
  Be  Be5  1  0.566595  0.787614  0.433297  1
  Be  Be6  1  0.434557  0.208166  0.565328  1
  Be  Be7  1  0.290686  0.933962  0.709216  1
  Be  Be8  1  0.707625  0.064367  0.292241  1
  Be  Be9  1  0.933947  0.289412  0.066159  1
  Be  Be10  1  0.066011  0.714023  0.934121  1
  Be  Be11  1  0.206653  0.795608  0.561930  1
  Be  Be12  1  0.791478  0.207718  0.436071  1
  Be  Be13  1  0.437936  0.564048  0.793494  1
  Be  Be14  1  0.563849  0.435168  0.208632  1
  Be  Be15  1  0.710859  0.284551  0.934180  1
  Be  Be16  1  0.288127  0.712275  0.064364  1
  Be  Be17  1  0.065948  0.929710  0.289016  1
  Be  Be18  1  0.935768  0.064879  0.711774  1
  Be  Be19  1  0.559699  0.209095  0.793832  1
  Be  Be20  1  0.438879  0.791035  0.206707  1
  Be  Be21  1  0.793410  0.436489  0.561015  1
  Be  Be22  1  0.206311  0.562498  0.440144  1
  Be  Be23  1  0.936248  0.709713  0.288917  1
  Be  Be24  1  0.065452  0.288812  0.709152  1
  Be  Be25  1  0.290749  0.063529  0.934673  1
  Be  Be26  1  0.710976  0.934952  0.063881  1
  Co  Co27  1  0.796750  0.560608  0.203528  1
