# generated using pymatgen
data_Dy3HoCuPt3
_symmetry_space_group_name_H-M   'P 1'
_cell_length_a   4.50975900
_cell_length_b   5.59906625
_cell_length_c   7.03706700
_cell_angle_alpha   89.70462940
_cell_angle_beta   90.00000000
_cell_angle_gamma   90.00000000
_symmetry_Int_Tables_number   1
_chemical_formula_structural   Dy3HoCuPt3
_chemical_formula_sum   'Dy3 Ho1 Cu1 Pt3'
_cell_volume   177.68667276
_cell_formula_units_Z   1
loop_
 _symmetry_equiv_pos_site_id
 _symmetry_equiv_pos_as_xyz
  1  'x, y, z'
loop_
 _atom_site_type_symbol
 _atom_site_label
 _atom_site_symmetry_multiplicity
 _atom_site_fract_x
 _atom_site_fract_y
 _atom_site_fract_z
 _atom_site_occupancy
  Dy  Dy0  1  0.000000  0.641184  0.317397  1
  Dy  Dy1  1  0.500000  0.364762  0.686929  1
  Dy  Dy2  1  0.500000  0.138427  0.176106  1
  Ho  Ho3  1  0.000000  0.856629  0.819684  1
  Cu  Cu4  1  0.000000  0.136973  0.464422  1
  Pt  Pt5  1  0.000000  0.339007  0.954943  1
  Pt  Pt6  1  0.500000  0.867282  0.535194  1
  Pt  Pt7  1  0.500000  0.655737  0.045326  1
