# generated using pymatgen
data_Ce2ErGa6(Ni2Pd)3
_symmetry_space_group_name_H-M   'P 1'
_cell_length_a   8.97508300
_cell_length_b   8.97508299
_cell_length_c   4.19604700
_cell_angle_alpha   90.00000000
_cell_angle_beta   90.00000000
_cell_angle_gamma   119.99999833
_symmetry_Int_Tables_number   1
_chemical_formula_structural   Ce2ErGa6(Ni2Pd)3
_chemical_formula_sum   'Ce2 Er1 Ga6 Ni6 Pd3'
_cell_volume   292.71698931
_cell_formula_units_Z   1
loop_
 _symmetry_equiv_pos_site_id
 _symmetry_equiv_pos_as_xyz
  1  'x, y, z'
loop_
 _atom_site_type_symbol
 _atom_site_label
 _atom_site_symmetry_multiplicity
 _atom_site_fract_x
 _atom_site_fract_y
 _atom_site_fract_z
 _atom_site_occupancy
  Ce  Ce0  1  0.666667  0.333333  0.500000  1
  Ce  Ce1  1  0.000000  0.000000  0.000000  1
  Er  Er2  1  0.333333  0.666667  0.500000  1
  Ga  Ga3  1  0.462925  0.463947  0.000000  1
  Ga  Ga4  1  0.536053  0.998979  0.000000  1
  Ga  Ga5  1  0.001021  0.537075  0.000000  1
  Ga  Ga6  1  0.711199  0.712538  0.500000  1
  Ga  Ga7  1  0.287462  0.998660  0.500000  1
  Ga  Ga8  1  0.001340  0.288801  0.500000  1
  Ni  Ni9  1  0.835852  0.223173  0.000000  1
  Ni  Ni10  1  0.776827  0.612680  0.000000  1
  Ni  Ni11  1  0.387320  0.164148  0.000000  1
  Ni  Ni12  1  0.224518  0.834227  0.000000  1
  Ni  Ni13  1  0.609708  0.775482  0.000000  1
  Ni  Ni14  1  0.165773  0.390292  0.000000  1
  Pd  Pd15  1  0.283628  0.284596  0.500000  1
  Pd  Pd16  1  0.715404  0.999031  0.500000  1
  Pd  Pd17  1  0.000969  0.716372  0.500000  1
