# generated using pymatgen
data_Dy11ErAl(InFe)2
_symmetry_space_group_name_H-M   'P 1'
_cell_length_a   8.42329512
_cell_length_b   8.43058724
_cell_length_c   8.42329447
_cell_angle_alpha   109.96975349
_cell_angle_beta   109.94111956
_cell_angle_gamma   108.47263187
_symmetry_Int_Tables_number   1
_chemical_formula_structural   Dy11ErAl(InFe)2
_chemical_formula_sum   'Dy11 Er1 Al1 In2 Fe2'
_cell_volume   460.56295870
_cell_formula_units_Z   1
loop_
 _symmetry_equiv_pos_site_id
 _symmetry_equiv_pos_as_xyz
  1  'x, y, z'
loop_
 _atom_site_type_symbol
 _atom_site_label
 _atom_site_symmetry_multiplicity
 _atom_site_fract_x
 _atom_site_fract_y
 _atom_site_fract_z
 _atom_site_occupancy
  Dy  Dy0  1  0.305541  0.304646  0.609355  1
  Dy  Dy1  1  0.695536  0.695535  0.391522  1
  Dy  Dy2  1  0.304013  0.695535  0.999999  1
  Dy  Dy3  1  0.695291  0.304646  0.999105  1
  Dy  Dy4  1  0.449596  0.204262  0.245979  1
  Dy  Dy5  1  0.551689  0.796015  0.755115  1
  Dy  Dy6  1  0.958282  0.204262  0.754664  1
  Dy  Dy7  1  0.203483  0.958845  0.755362  1
  Dy  Dy8  1  0.040900  0.796015  0.244327  1
  Dy  Dy9  1  0.796385  0.040974  0.244590  1
  Dy  Dy10  1  0.202948  0.447779  0.244832  1
  Er  Er11  1  0.796084  0.551734  0.755649  1
  Al  Al12  1  0.999933  0.998950  0.999017  1
  In  In13  1  0.499455  0.999369  0.499915  1
  In  In14  1  0.999245  0.499855  0.500610  1
  Fe  Fe15  1  0.389687  0.390564  0.000877  1
  Fe  Fe16  1  0.611931  0.611014  0.999083  1
