# generated using pymatgen
data_Er7TmSc12Si15Ge
_symmetry_space_group_name_H-M   'P 1'
_cell_length_a   7.07063000
_cell_length_b   7.36196159
_cell_length_c   13.93794140
_cell_angle_alpha   90.00022579
_cell_angle_beta   89.88627093
_cell_angle_gamma   90.02877991
_symmetry_Int_Tables_number   1
_chemical_formula_structural   Er7TmSc12Si15Ge
_chemical_formula_sum   'Er7 Tm1 Sc12 Si15 Ge1'
_cell_volume   725.51998988
_cell_formula_units_Z   1
loop_
 _symmetry_equiv_pos_site_id
 _symmetry_equiv_pos_as_xyz
  1  'x, y, z'
loop_
 _atom_site_type_symbol
 _atom_site_label
 _atom_site_symmetry_multiplicity
 _atom_site_fract_x
 _atom_site_fract_y
 _atom_site_fract_z
 _atom_site_occupancy
  Er  Er0  1  0.012253  0.176303  0.096455  1
  Er  Er1  1  0.987989  0.823767  0.903567  1
  Er  Er2  1  0.488307  0.676435  0.903603  1
  Er  Er3  1  0.987480  0.824578  0.596606  1
  Er  Er4  1  0.511985  0.323697  0.096578  1
  Er  Er5  1  0.010813  0.175711  0.402932  1
  Er  Er6  1  0.512482  0.322311  0.402677  1
  Tm  Tm7  1  0.490956  0.678091  0.596996  1
  Sc  Sc8  1  0.161059  0.503368  0.751128  1
  Sc  Sc9  1  0.838911  0.496738  0.250026  1
  Sc  Sc10  1  0.339082  0.003194  0.249940  1
  Sc  Sc11  1  0.660945  0.996595  0.750023  1
  Sc  Sc12  1  0.332808  0.174554  0.626066  1
  Sc  Sc13  1  0.668293  0.823612  0.374402  1
  Sc  Sc14  1  0.167992  0.677594  0.374232  1
  Sc  Sc15  1  0.668890  0.822966  0.125185  1
  Sc  Sc16  1  0.829781  0.323177  0.625404  1
  Sc  Sc17  1  0.331105  0.176709  0.874752  1
  Sc  Sc18  1  0.831044  0.323025  0.874759  1
  Sc  Sc19  1  0.168837  0.677030  0.125258  1
  Si  Si20  1  0.033072  0.114461  0.750169  1
  Si  Si21  1  0.966969  0.886292  0.249560  1
  Si  Si22  1  0.466745  0.614238  0.249728  1
  Si  Si23  1  0.532656  0.386315  0.750212  1
  Si  Si24  1  0.285145  0.870587  0.750177  1
  Si  Si25  1  0.714994  0.128652  0.249597  1
  Si  Si26  1  0.214681  0.371184  0.249941  1
  Si  Si27  1  0.785519  0.628901  0.750008  1
  Si  Si28  1  0.835272  0.535882  0.459872  1
  Si  Si29  1  0.340186  0.965062  0.460535  1
  Si  Si30  1  0.840846  0.534631  0.039404  1
  Si  Si31  1  0.659577  0.034972  0.539389  1
  Si  Si32  1  0.159071  0.465346  0.960770  1
  Si  Si33  1  0.659125  0.034733  0.960586  1
  Si  Si34  1  0.340883  0.965262  0.039477  1
  Ge  Ge35  1  0.164251  0.464027  0.539985  1
