# generated using pymatgen
data_Zn3SnP7N12
_symmetry_space_group_name_H-M   'P 1'
_cell_length_a   7.23091483
_cell_length_b   7.27509429
_cell_length_c   7.23091488
_cell_angle_alpha   109.59503809
_cell_angle_beta   109.34712829
_cell_angle_gamma   109.59503339
_symmetry_Int_Tables_number   1
_chemical_formula_structural   Zn3SnP7N12
_chemical_formula_sum   'Zn3 Sn1 P7 N12'
_cell_volume   292.37302084
_cell_formula_units_Z   1
loop_
 _symmetry_equiv_pos_site_id
 _symmetry_equiv_pos_as_xyz
  1  'x, y, z'
loop_
 _atom_site_type_symbol
 _atom_site_label
 _atom_site_symmetry_multiplicity
 _atom_site_fract_x
 _atom_site_fract_y
 _atom_site_fract_z
 _atom_site_occupancy
  Zn  Zn0  1  0.662172  0.664351  0.662172  1
  Zn  Zn1  1  0.337828  0.002179  0.000000  1
  Zn  Zn2  1  0.000000  0.002179  0.337828  1
  Sn  Sn3  1  0.000000  0.305612  0.000000  1
  P  P4  1  0.748079  0.254086  0.495855  1
  P  P5  1  0.252224  0.758231  0.504145  1
  P  P6  1  0.504145  0.758231  0.252224  1
  P  P7  1  0.495855  0.254086  0.748079  1
  P  P8  1  0.747776  0.506007  0.251921  1
  P  P9  1  0.251921  0.506007  0.747776  1
  P  P10  1  0.000000  0.938092  0.000000  1
  N  N11  1  0.560488  0.278459  0.000000  1
  N  N12  1  0.439110  0.443029  0.711329  1
  N  N13  1  0.000000  0.278459  0.560488  1
  N  N14  1  0.272218  0.003919  0.560890  1
  N  N15  1  0.711329  0.443029  0.439110  1
  N  N16  1  0.000000  0.566540  0.280865  1
  N  N17  1  0.560890  0.003919  0.272218  1
  N  N18  1  0.439512  0.717971  0.439512  1
  N  N19  1  0.280865  0.566540  0.000000  1
  N  N20  1  0.719135  0.285675  0.719135  1
  N  N21  1  0.727782  0.731700  0.288671  1
  N  N22  1  0.288671  0.731700  0.727782  1
