# generated using pymatgen
data_Y5Er(Sb4Au3)2
_symmetry_space_group_name_H-M   'P 1'
_cell_length_a   8.62322863
_cell_length_b   8.62322939
_cell_length_c   8.62322905
_cell_angle_alpha   109.56709013
_cell_angle_beta   109.56708843
_cell_angle_gamma   109.27965210
_symmetry_Int_Tables_number   1
_chemical_formula_structural   Y5Er(Sb4Au3)2
_chemical_formula_sum   'Y5 Er1 Sb8 Au6'
_cell_volume   493.61032582
_cell_formula_units_Z   1
loop_
 _symmetry_equiv_pos_site_id
 _symmetry_equiv_pos_as_xyz
  1  'x, y, z'
loop_
 _atom_site_type_symbol
 _atom_site_label
 _atom_site_symmetry_multiplicity
 _atom_site_fract_x
 _atom_site_fract_y
 _atom_site_fract_z
 _atom_site_occupancy
  Y  Y0  1  0.875010  0.249906  0.125107  1
  Y  Y1  1  0.624799  0.749903  0.374893  1
  Y  Y2  1  0.250097  0.124990  0.874895  1
  Y  Y3  1  0.750094  0.375201  0.625105  1
  Y  Y4  1  0.125000  0.875000  0.250000  1
  Er  Er5  1  0.375000  0.625000  0.750000  1
  Sb  Sb6  1  0.677526  0.500168  0.000102  1
  Sb  Sb7  1  0.499657  0.000137  0.678127  1
  Sb  Sb8  1  0.000066  0.677424  0.499898  1
  Sb  Sb9  1  0.822010  0.821530  0.821873  1
  Sb  Sb10  1  0.499832  0.999934  0.177358  1
  Sb  Sb11  1  0.178470  0.500343  0.000480  1
  Sb  Sb12  1  0.999863  0.177990  0.499520  1
  Sb  Sb13  1  0.322576  0.322474  0.322642  1
  Au  Au14  1  0.375358  0.252645  0.626267  1
  Au  Au15  1  0.126378  0.749091  0.873733  1
  Au  Au16  1  0.250909  0.624642  0.377287  1
  Au  Au17  1  0.747355  0.873622  0.122713  1
  Au  Au18  1  0.625000  0.375000  0.250000  1
  Au  Au19  1  0.875000  0.125000  0.750000  1
