# generated using pymatgen
data_Eu6NpTaO12
_symmetry_space_group_name_H-M   'P 1'
_cell_length_a   7.01549980
_cell_length_b   7.01549887
_cell_length_c   7.01549900
_cell_angle_alpha   92.09489303
_cell_angle_beta   92.09490092
_cell_angle_gamma   92.09489943
_symmetry_Int_Tables_number   1
_chemical_formula_structural   Eu6NpTaO12
_chemical_formula_sum   'Eu6 Np1 Ta1 O12'
_cell_volume   344.57376307
_cell_formula_units_Z   1
loop_
 _symmetry_equiv_pos_site_id
 _symmetry_equiv_pos_as_xyz
  1  'x, y, z'
loop_
 _atom_site_type_symbol
 _atom_site_label
 _atom_site_symmetry_multiplicity
 _atom_site_fract_x
 _atom_site_fract_y
 _atom_site_fract_z
 _atom_site_occupancy
  Eu  Eu0  1  0.066520  0.257556  0.559707  1
  Eu  Eu1  1  0.440293  0.933480  0.742444  1
  Eu  Eu2  1  0.742444  0.440293  0.933480  1
  Eu  Eu3  1  0.257556  0.559707  0.066520  1
  Eu  Eu4  1  0.559707  0.066520  0.257556  1
  Eu  Eu5  1  0.933480  0.742444  0.440293  1
  Np  Np6  1  0.000000  0.000000  0.000000  1
  Ta  Ta7  1  0.500000  0.500000  0.500000  1
  O  O8  1  0.058455  0.296268  0.926544  1
  O  O9  1  0.073456  0.941545  0.703732  1
  O  O10  1  0.457037  0.579477  0.777782  1
  O  O11  1  0.703732  0.073456  0.941545  1
  O  O12  1  0.222218  0.542963  0.420523  1
  O  O13  1  0.420523  0.222218  0.542963  1
  O  O14  1  0.579477  0.777782  0.457037  1
  O  O15  1  0.777782  0.457037  0.579477  1
  O  O16  1  0.296268  0.926544  0.058455  1
  O  O17  1  0.542963  0.420523  0.222218  1
  O  O18  1  0.926544  0.058455  0.296268  1
  O  O19  1  0.941545  0.703732  0.073456  1
