# generated using pymatgen
data_Rb20Si4(AsP3)3
_symmetry_space_group_name_H-M   'P 1'
_cell_length_a   5.63018100
_cell_length_b   14.13662403
_cell_length_c   15.50739504
_cell_angle_alpha   90.00775650
_cell_angle_beta   90.00000000
_cell_angle_gamma   90.00000000
_symmetry_Int_Tables_number   1
_chemical_formula_structural   Rb20Si4(AsP3)3
_chemical_formula_sum   'Rb20 Si4 As3 P9'
_cell_volume   1234.26072902
_cell_formula_units_Z   1
loop_
 _symmetry_equiv_pos_site_id
 _symmetry_equiv_pos_as_xyz
  1  'x, y, z'
loop_
 _atom_site_type_symbol
 _atom_site_label
 _atom_site_symmetry_multiplicity
 _atom_site_fract_x
 _atom_site_fract_y
 _atom_site_fract_z
 _atom_site_occupancy
  Rb  Rb0  1  0.750000  0.447806  0.146327  1
  Rb  Rb1  1  0.250000  0.550987  0.853224  1
  Rb  Rb2  1  0.750000  0.948207  0.352831  1
  Rb  Rb3  1  0.250000  0.051929  0.647132  1
  Rb  Rb4  1  0.250000  0.276447  0.784556  1
  Rb  Rb5  1  0.750000  0.721373  0.215945  1
  Rb  Rb6  1  0.250000  0.778246  0.716488  1
  Rb  Rb7  1  0.750000  0.221244  0.283218  1
  Rb  Rb8  1  0.250000  0.852166  0.460061  1
  Rb  Rb9  1  0.750000  0.147901  0.539656  1
  Rb  Rb10  1  0.250000  0.351397  0.039008  1
  Rb  Rb11  1  0.750000  0.647639  0.959787  1
  Rb  Rb12  1  0.250000  0.616057  0.318590  1
  Rb  Rb13  1  0.750000  0.383856  0.681883  1
  Rb  Rb14  1  0.250000  0.116112  0.180716  1
  Rb  Rb15  1  0.750000  0.888151  0.819004  1
  Rb  Rb16  1  0.250000  0.565008  0.556673  1
  Rb  Rb17  1  0.750000  0.434809  0.443566  1
  Rb  Rb18  1  0.250000  0.066266  0.942277  1
  Rb  Rb19  1  0.750000  0.934977  0.056970  1
  Si  Si20  1  0.750000  0.238513  0.925211  1
  Si  Si21  1  0.250000  0.759130  0.072648  1
  Si  Si22  1  0.750000  0.741280  0.572771  1
  Si  Si23  1  0.250000  0.258742  0.427578  1
  As  As24  1  0.250000  0.865597  0.189157  1
  As  As25  1  0.750000  0.634505  0.688845  1
  As  As26  1  0.250000  0.365586  0.311544  1
  P  P27  1  0.250000  0.310503  0.561543  1
  P  P28  1  0.750000  0.689387  0.439102  1
  P  P29  1  0.250000  0.811346  0.938829  1
  P  P30  1  0.750000  0.188403  0.059855  1
  P  P31  1  0.250000  0.105309  0.403797  1
  P  P32  1  0.750000  0.894995  0.596694  1
  P  P33  1  0.250000  0.605677  0.096223  1
  P  P34  1  0.750000  0.392687  0.902796  1
  P  P35  1  0.750000  0.137761  0.815494  1
