# generated using pymatgen
data_TaMo(SeO3)4
_symmetry_space_group_name_H-M   'P 1'
_cell_length_a   8.74086919
_cell_length_b   4.98181755
_cell_length_c   7.16578096
_cell_angle_alpha   68.02039904
_cell_angle_beta   92.90346004
_cell_angle_gamma   93.15265896
_symmetry_Int_Tables_number   1
_chemical_formula_structural   TaMo(SeO3)4
_chemical_formula_sum   'Ta1 Mo1 Se4 O12'
_cell_volume   288.76686037
_cell_formula_units_Z   1
loop_
 _symmetry_equiv_pos_site_id
 _symmetry_equiv_pos_as_xyz
  1  'x, y, z'
loop_
 _atom_site_type_symbol
 _atom_site_label
 _atom_site_symmetry_multiplicity
 _atom_site_fract_x
 _atom_site_fract_y
 _atom_site_fract_z
 _atom_site_occupancy
  Ta  Ta0  1  0.000000  0.500000  0.000000  1
  Mo  Mo1  1  0.500000  0.500000  0.500000  1
  Se  Se2  1  0.633125  0.150388  0.189236  1
  Se  Se3  1  0.157122  0.848404  0.324893  1
  Se  Se4  1  0.366875  0.849612  0.810764  1
  Se  Se5  1  0.842878  0.151596  0.675107  1
  O  O6  1  0.146423  0.178000  0.120043  1
  O  O7  1  0.652870  0.880332  0.422633  1
  O  O8  1  0.853577  0.822000  0.879957  1
  O  O9  1  0.347130  0.119668  0.577367  1
  O  O10  1  0.039244  0.621079  0.238095  1
  O  O11  1  0.578947  0.438186  0.239443  1
  O  O12  1  0.665323  0.236689  0.715913  1
  O  O13  1  0.166196  0.754588  0.849989  1
  O  O14  1  0.334677  0.763311  0.284087  1
  O  O15  1  0.833804  0.245412  0.150011  1
  O  O16  1  0.421053  0.561814  0.760557  1
  O  O17  1  0.960756  0.378921  0.761905  1
