# generated using pymatgen
data_Sc12Tc(IrBr8)2
_symmetry_space_group_name_H-M   'P 1'
_cell_length_a   9.03384482
_cell_length_b   11.61411189
_cell_length_c   12.35560079
_cell_angle_alpha   117.00662374
_cell_angle_beta   101.25994849
_cell_angle_gamma   100.93365152
_symmetry_Int_Tables_number   1
_chemical_formula_structural   Sc12Tc(IrBr8)2
_chemical_formula_sum   'Sc12 Tc1 Ir2 Br16'
_cell_volume   1073.75225157
_cell_formula_units_Z   1
loop_
 _symmetry_equiv_pos_site_id
 _symmetry_equiv_pos_as_xyz
  1  'x, y, z'
loop_
 _atom_site_type_symbol
 _atom_site_label
 _atom_site_symmetry_multiplicity
 _atom_site_fract_x
 _atom_site_fract_y
 _atom_site_fract_z
 _atom_site_occupancy
  Sc  Sc0  1  0.087321  0.269128  0.358835  1
  Sc  Sc1  1  0.916816  0.730099  0.642650  1
  Sc  Sc2  1  0.783241  0.534376  0.328229  1
  Sc  Sc3  1  0.219074  0.463261  0.669773  1
  Sc  Sc4  1  0.275967  0.730918  0.641448  1
  Sc  Sc5  1  0.727789  0.269826  0.356920  1
  Sc  Sc6  1  0.143596  0.536251  0.330674  1
  Sc  Sc7  1  0.861184  0.466169  0.671251  1
  Sc  Sc8  1  0.404403  0.358679  0.274001  1
  Sc  Sc9  1  0.593599  0.641163  0.726199  1
  Sc  Sc10  1  0.458025  0.310770  0.520376  1
  Sc  Sc11  1  0.539594  0.689037  0.479794  1
  Tc  Tc12  1  0.336201  0.499907  0.499742  1
  Ir  Ir13  1  0.998186  0.500009  0.499894  1
  Ir  Ir14  1  0.660898  0.499975  0.500392  1
  Br  Br15  1  0.391049  0.729921  0.867172  1
  Br  Br16  1  0.607790  0.269405  0.131955  1
  Br  Br17  1  0.182360  0.946766  0.773064  1
  Br  Br18  1  0.818342  0.053298  0.226158  1
  Br  Br19  1  0.341808  0.111230  0.262550  1
  Br  Br20  1  0.653142  0.888633  0.737529  1
  Br  Br21  1  0.552653  0.438205  0.785686  1
  Br  Br22  1  0.443878  0.561489  0.214545  1
  Br  Br23  1  0.307008  0.814719  0.465122  1
  Br  Br24  1  0.694842  0.188496  0.534356  1
  Br  Br25  1  0.170335  0.183788  0.532183  1
  Br  Br26  1  0.829545  0.813167  0.468311  1
  Br  Br27  1  0.929478  0.570596  0.172197  1
  Br  Br28  1  0.071816  0.429674  0.827996  1
  Br  Br29  1  0.915843  0.729884  0.867950  1
  Br  Br30  1  0.084216  0.271159  0.133046  1
