# generated using pymatgen
data_Cs3In7S12
_symmetry_space_group_name_H-M   'P 1'
_cell_length_a   13.89020600
_cell_length_b   10.12559332
_cell_length_c   10.70767600
_cell_angle_alpha   83.89618589
_cell_angle_beta   90.00000000
_cell_angle_gamma   90.00000000
_symmetry_Int_Tables_number   1
_chemical_formula_structural   Cs3In7S12
_chemical_formula_sum   'Cs6 In14 S24'
_cell_volume   1497.46027739
_cell_formula_units_Z   2
loop_
 _symmetry_equiv_pos_site_id
 _symmetry_equiv_pos_as_xyz
  1  'x, y, z'
loop_
 _atom_site_type_symbol
 _atom_site_label
 _atom_site_symmetry_multiplicity
 _atom_site_fract_x
 _atom_site_fract_y
 _atom_site_fract_z
 _atom_site_occupancy
  Cs  Cs0  1  0.255902  0.045719  0.489156  1
  Cs  Cs1  1  0.755902  0.954281  0.510844  1
  Cs  Cs2  1  0.020711  0.117901  0.241352  1
  Cs  Cs3  1  0.520711  0.882099  0.758648  1
  Cs  Cs4  1  0.025318  0.617643  0.158754  1
  Cs  Cs5  1  0.525318  0.382357  0.841246  1
  In  In6  1  0.283325  0.031533  0.028846  1
  In  In7  1  0.783325  0.968467  0.971154  1
  In  In8  1  0.762227  0.292262  0.184920  1
  In  In9  1  0.262227  0.707738  0.815080  1
  In  In10  1  0.372536  0.697086  0.179143  1
  In  In11  1  0.872536  0.302914  0.820857  1
  In  In12  1  0.768628  0.477319  0.477353  1
  In  In13  1  0.268628  0.522681  0.522647  1
  In  In14  1  0.672547  0.672547  0.175796  1
  In  In15  1  0.172547  0.327453  0.824204  1
  In  In16  1  0.536761  0.022856  0.197049  1
  In  In17  1  0.036761  0.977144  0.802951  1
  In  In18  1  0.516312  0.372292  0.359029  1
  In  In19  1  0.016312  0.627708  0.640971  1
  S  S20  1  0.958649  0.927157  0.006502  1
  S  S21  1  0.204098  0.247242  0.045036  1
  S  S22  1  0.305582  0.322339  0.672530  1
  S  S23  1  0.805582  0.677661  0.327470  1
  S  S24  1  0.704098  0.752758  0.954964  1
  S  S25  1  0.611543  0.433299  0.155195  1
  S  S26  1  0.847925  0.525015  0.685528  1
  S  S27  1  0.347925  0.474985  0.314472  1
  S  S28  1  0.334711  0.724019  0.603415  1
  S  S29  1  0.834711  0.275981  0.396585  1
  S  S30  1  0.595030  0.471074  0.531417  1
  S  S31  1  0.095030  0.528926  0.468583  1
  S  S32  1  0.394569  0.641332  0.961770  1
  S  S33  1  0.894569  0.358668  0.038230  1
  S  S34  1  0.744163  0.138563  0.793751  1
  S  S35  1  0.244163  0.861437  0.206249  1
  S  S36  1  0.527220  0.776801  0.274221  1
  S  S37  1  0.027220  0.223199  0.725779  1
  S  S38  1  0.720243  0.048871  0.175781  1
  S  S39  1  0.220243  0.951129  0.824219  1
  S  S40  1  0.498956  0.126147  0.391294  1
  S  S41  1  0.998956  0.873853  0.608706  1
  S  S42  1  0.111543  0.566701  0.844805  1
  S  S43  1  0.458649  0.072843  0.993498  1
