# generated using pymatgen
data_Zn8SnPd3O16
_symmetry_space_group_name_H-M   'P 1'
_cell_length_a   6.14657300
_cell_length_b   6.15812576
_cell_length_c   8.62775752
_cell_angle_alpha   89.95743519
_cell_angle_beta   90.00000000
_cell_angle_gamma   90.00000000
_symmetry_Int_Tables_number   1
_chemical_formula_structural   Zn8SnPd3O16
_chemical_formula_sum   'Zn8 Sn1 Pd3 O16'
_cell_volume   326.57234776
_cell_formula_units_Z   1
loop_
 _symmetry_equiv_pos_site_id
 _symmetry_equiv_pos_as_xyz
  1  'x, y, z'
loop_
 _atom_site_type_symbol
 _atom_site_label
 _atom_site_symmetry_multiplicity
 _atom_site_fract_x
 _atom_site_fract_y
 _atom_site_fract_z
 _atom_site_occupancy
  Zn  Zn0  1  0.999293  0.232724  0.997333  1
  Zn  Zn1  1  0.999293  0.767276  0.502667  1
  Zn  Zn2  1  0.236237  0.000000  0.750000  1
  Zn  Zn3  1  0.255843  0.243675  0.375348  1
  Zn  Zn4  1  0.255843  0.756325  0.124652  1
  Zn  Zn5  1  0.748437  0.250681  0.627989  1
  Zn  Zn6  1  0.748437  0.749319  0.872011  1
  Zn  Zn7  1  0.761021  0.000000  0.250000  1
  Sn  Sn8  1  0.761914  0.500000  0.250000  1
  Pd  Pd9  1  0.247749  0.500000  0.750000  1
  Pd  Pd10  1  0.497791  0.248922  0.997903  1
  Pd  Pd11  1  0.497791  0.751078  0.502097  1
  O  O12  1  0.019915  0.260343  0.754398  1
  O  O13  1  0.019915  0.739657  0.745602  1
  O  O14  1  0.254708  0.480367  0.986684  1
  O  O15  1  0.254708  0.519633  0.513316  1
  O  O16  1  0.261017  0.020157  0.991867  1
  O  O17  1  0.261017  0.979843  0.508133  1
  O  O18  1  0.477708  0.256157  0.762483  1
  O  O19  1  0.477708  0.743843  0.737517  1
  O  O20  1  0.518449  0.254595  0.234295  1
  O  O21  1  0.518449  0.745405  0.265705  1
  O  O22  1  0.737104  0.980029  0.496697  1
  O  O23  1  0.737104  0.019971  0.003303  1
  O  O24  1  0.739178  0.481586  0.008415  1
  O  O25  1  0.739178  0.518414  0.491585  1
  O  O26  1  0.987098  0.253596  0.247507  1
  O  O27  1  0.987098  0.746404  0.252493  1
