# generated using pymatgen
data_HoPuOsC2
_symmetry_space_group_name_H-M   'P 1'
_cell_length_a   5.16190800
_cell_length_b   6.34595900
_cell_length_c   9.80086800
_cell_angle_alpha   90.00000000
_cell_angle_beta   90.00000000
_cell_angle_gamma   90.00000000
_symmetry_Int_Tables_number   1
_chemical_formula_structural   HoPuOsC2
_chemical_formula_sum   'Ho4 Pu4 Os4 C8'
_cell_volume   321.04954729
_cell_formula_units_Z   4
loop_
 _symmetry_equiv_pos_site_id
 _symmetry_equiv_pos_as_xyz
  1  'x, y, z'
loop_
 _atom_site_type_symbol
 _atom_site_label
 _atom_site_symmetry_multiplicity
 _atom_site_fract_x
 _atom_site_fract_y
 _atom_site_fract_z
 _atom_site_occupancy
  Ho  Ho0  1  0.250000  0.687643  0.550972  1
  Ho  Ho1  1  0.750000  0.312357  0.449028  1
  Ho  Ho2  1  0.750000  0.812357  0.050972  1
  Ho  Ho3  1  0.250000  0.187643  0.949028  1
  Pu  Pu4  1  0.250000  0.525583  0.220957  1
  Pu  Pu5  1  0.750000  0.474417  0.779043  1
  Pu  Pu6  1  0.750000  0.974417  0.720957  1
  Pu  Pu7  1  0.250000  0.025583  0.279043  1
  Os  Os8  1  0.250000  0.723260  0.867777  1
  Os  Os9  1  0.750000  0.276740  0.132223  1
  Os  Os10  1  0.750000  0.776740  0.367777  1
  Os  Os11  1  0.250000  0.223260  0.632223  1
  C  C12  1  0.250000  0.459281  0.757707  1
  C  C13  1  0.750000  0.540719  0.242293  1
  C  C14  1  0.750000  0.040719  0.257707  1
  C  C15  1  0.250000  0.959281  0.742293  1
  C  C16  1  0.250000  0.823215  0.057341  1
  C  C17  1  0.750000  0.176785  0.942659  1
  C  C18  1  0.750000  0.676785  0.557341  1
  C  C19  1  0.250000  0.323215  0.442659  1
