# generated using pymatgen
data_Sc6NbAl12Mo2Os7W
_symmetry_space_group_name_H-M   'P 1'
_cell_length_a   8.81420319
_cell_length_b   8.81420434
_cell_length_c   8.81795400
_cell_angle_alpha   59.72549375
_cell_angle_beta   59.72549689
_cell_angle_gamma   59.72725942
_symmetry_Int_Tables_number   1
_chemical_formula_structural   Sc6NbAl12Mo2Os7W
_chemical_formula_sum   'Sc6 Nb1 Al12 Mo2 Os7 W1'
_cell_volume   481.40303499
_cell_formula_units_Z   1
loop_
 _symmetry_equiv_pos_site_id
 _symmetry_equiv_pos_as_xyz
  1  'x, y, z'
loop_
 _atom_site_type_symbol
 _atom_site_label
 _atom_site_symmetry_multiplicity
 _atom_site_fract_x
 _atom_site_fract_y
 _atom_site_fract_z
 _atom_site_occupancy
  Sc  Sc0  1  0.705471  0.705471  0.295724  1
  Sc  Sc1  1  0.292358  0.708161  0.290608  1
  Sc  Sc2  1  0.708161  0.292358  0.290608  1
  Sc  Sc3  1  0.290790  0.290790  0.709218  1
  Sc  Sc4  1  0.705879  0.295724  0.706553  1
  Sc  Sc5  1  0.295724  0.705879  0.706553  1
  Nb  Nb6  1  0.879877  0.879877  0.879787  1
  Al  Al7  1  0.121186  0.121186  0.636563  1
  Al  Al8  1  0.121052  0.637071  0.121012  1
  Al  Al9  1  0.637071  0.121052  0.121012  1
  Al  Al10  1  0.121758  0.121758  0.121736  1
  Al  Al11  1  0.660003  0.660003  0.018098  1
  Al  Al12  1  0.659155  0.019341  0.660353  1
  Al  Al13  1  0.019341  0.659155  0.660353  1
  Al  Al14  1  0.657798  0.657798  0.658953  1
  Al  Al15  1  0.334942  0.334942  0.996663  1
  Al  Al16  1  0.335083  0.996044  0.335117  1
  Al  Al17  1  0.996044  0.335083  0.335117  1
  Al  Al18  1  0.335226  0.335226  0.335197  1
  Mo  Mo19  1  0.879145  0.362400  0.878781  1
  Mo  Mo20  1  0.362400  0.879145  0.878781  1
  Os  Os21  1  0.002488  0.002488  0.003078  1
  Os  Os22  1  0.996932  0.996932  0.500251  1
  Os  Os23  1  0.504838  0.996867  0.502164  1
  Os  Os24  1  0.996867  0.504838  0.502164  1
  Os  Os25  1  0.502968  0.502968  0.997426  1
  Os  Os26  1  0.997528  0.501108  0.997582  1
  Os  Os27  1  0.501108  0.997528  0.997582  1
  W  W28  1  0.878811  0.878811  0.362963  1
