# generated using pymatgen
data_Hf8V7Zn9
_symmetry_space_group_name_H-M   'P 1'
_cell_length_a   5.20281123
_cell_length_b   5.20281059
_cell_length_c   16.99145501
_cell_angle_alpha   90.00267677
_cell_angle_beta   89.99732182
_cell_angle_gamma   120.00836053
_symmetry_Int_Tables_number   1
_chemical_formula_structural   Hf8V7Zn9
_chemical_formula_sum   'Hf8 V7 Zn9'
_cell_volume   398.29118259
_cell_formula_units_Z   1
loop_
 _symmetry_equiv_pos_site_id
 _symmetry_equiv_pos_as_xyz
  1  'x, y, z'
loop_
 _atom_site_type_symbol
 _atom_site_label
 _atom_site_symmetry_multiplicity
 _atom_site_fract_x
 _atom_site_fract_y
 _atom_site_fract_z
 _atom_site_occupancy
  Hf  Hf0  1  0.000093  0.999907  0.597369  1
  Hf  Hf1  1  0.999958  0.000042  0.403707  1
  Hf  Hf2  1  0.999983  0.000017  0.097069  1
  Hf  Hf3  1  0.000088  0.999912  0.900040  1
  Hf  Hf4  1  0.666649  0.333351  0.339510  1
  Hf  Hf5  1  0.333328  0.666672  0.658475  1
  Hf  Hf6  1  0.333385  0.666615  0.841251  1
  Hf  Hf7  1  0.666653  0.333347  0.161910  1
  V  V8  1  0.666667  0.333333  0.631119  1
  V  V9  1  0.840452  0.680757  0.746576  1
  V  V10  1  0.840387  0.159613  0.746587  1
  V  V11  1  0.319243  0.159548  0.746576  1
  V  V12  1  0.155032  0.310802  0.250598  1
  V  V13  1  0.155242  0.844758  0.250617  1
  V  V14  1  0.689198  0.844968  0.250598  1
  Zn  Zn15  1  0.333389  0.666611  0.376202  1
  Zn  Zn16  1  0.333382  0.666618  0.125377  1
  Zn  Zn17  1  0.666690  0.333310  0.874206  1
  Zn  Zn18  1  0.500450  0.000884  0.500881  1
  Zn  Zn19  1  0.500482  0.499518  0.500918  1
  Zn  Zn20  1  0.999116  0.499550  0.500881  1
  Zn  Zn21  1  0.499872  0.999575  0.999848  1
  Zn  Zn22  1  0.499836  0.500164  0.999835  1
  Zn  Zn23  1  0.000425  0.500128  0.999848  1
