# generated using pymatgen
data_Th2RhN3
_symmetry_space_group_name_H-M   'P 1'
_cell_length_a   3.52086025
_cell_length_b   4.00467971
_cell_length_c   6.89747829
_cell_angle_alpha   106.87592214
_cell_angle_beta   104.78710826
_cell_angle_gamma   89.99999367
_symmetry_Int_Tables_number   1
_chemical_formula_structural   Th2RhN3
_chemical_formula_sum   'Th2 Rh1 N3'
_cell_volume   89.69446293
_cell_formula_units_Z   1
loop_
 _symmetry_equiv_pos_site_id
 _symmetry_equiv_pos_as_xyz
  1  'x, y, z'
loop_
 _atom_site_type_symbol
 _atom_site_label
 _atom_site_symmetry_multiplicity
 _atom_site_fract_x
 _atom_site_fract_y
 _atom_site_fract_z
 _atom_site_occupancy
  Th  Th0  1  0.644056  0.644056  0.288110  1
  Th  Th1  1  0.355945  0.355945  0.711890  1
  Rh  Rh2  1  0.000000  0.000000  0.000000  1
  N  N3  1  0.000000  0.500001  0.000000  1
  N  N4  1  0.170016  0.170016  0.340032  1
  N  N5  1  0.829985  0.829985  0.659968  1
