# generated using pymatgen
data_La15PrCd4PdRu3
_symmetry_space_group_name_H-M   'P 1'
_cell_length_a   10.09058656
_cell_length_b   10.16333643
_cell_length_c   10.16591400
_cell_angle_alpha   59.99161014
_cell_angle_beta   59.75274703
_cell_angle_gamma   59.64942987
_symmetry_Int_Tables_number   1
_chemical_formula_structural   La15PrCd4PdRu3
_chemical_formula_sum   'La15 Pr1 Cd4 Pd1 Ru3'
_cell_volume   733.80241866
_cell_formula_units_Z   1
loop_
 _symmetry_equiv_pos_site_id
 _symmetry_equiv_pos_as_xyz
  1  'x, y, z'
loop_
 _atom_site_type_symbol
 _atom_site_label
 _atom_site_symmetry_multiplicity
 _atom_site_fract_x
 _atom_site_fract_y
 _atom_site_fract_z
 _atom_site_occupancy
  La  La0  1  0.341934  0.350318  0.351723  1
  La  La1  1  0.341934  0.350318  0.956028  1
  La  La2  1  0.341721  0.954875  0.351703  1
  La  La3  1  0.962115  0.344722  0.346582  1
  La  La4  1  0.817845  0.190930  0.191717  1
  La  La5  1  0.189124  0.810963  0.810534  1
  La  La6  1  0.189124  0.810963  0.189379  1
  La  La7  1  0.817845  0.190930  0.799509  1
  La  La8  1  0.189798  0.188844  0.810679  1
  La  La9  1  0.817871  0.799885  0.191123  1
  La  La10  1  0.938425  0.561588  0.561181  1
  La  La11  1  0.557909  0.940042  0.938469  1
  La  La12  1  0.557909  0.940042  0.563578  1
  La  La13  1  0.938425  0.561588  0.938807  1
  La  La14  1  0.557902  0.564365  0.938866  1
  Pr  Pr15  1  0.937573  0.939920  0.561254  1
  Cd  Cd16  1  0.579524  0.579276  0.579284  1
  Cd  Cd17  1  0.579524  0.579276  0.261915  1
  Cd  Cd18  1  0.580444  0.260644  0.579455  1
  Cd  Cd19  1  0.260638  0.580258  0.579551  1
  Pd  Pd20  1  0.577283  0.141031  0.140843  1
  Ru  Ru21  1  0.141827  0.137702  0.136707  1
  Ru  Ru22  1  0.141827  0.137702  0.583765  1
  Ru  Ru23  1  0.141477  0.583821  0.137351  1
