# generated using pymatgen
data_Cs6DyHoBr12
_symmetry_space_group_name_H-M   'P 1'
_cell_length_a   9.99440703
_cell_length_b   9.99192103
_cell_length_c   8.29727600
_cell_angle_alpha   90.00000000
_cell_angle_beta   90.00000000
_cell_angle_gamma   90.00856585
_symmetry_Int_Tables_number   1
_chemical_formula_structural   Cs6DyHoBr12
_chemical_formula_sum   'Cs6 Dy1 Ho1 Br12'
_cell_volume   828.59356671
_cell_formula_units_Z   1
loop_
 _symmetry_equiv_pos_site_id
 _symmetry_equiv_pos_as_xyz
  1  'x, y, z'
loop_
 _atom_site_type_symbol
 _atom_site_label
 _atom_site_symmetry_multiplicity
 _atom_site_fract_x
 _atom_site_fract_y
 _atom_site_fract_z
 _atom_site_occupancy
  Cs  Cs0  1  0.000000  0.000000  0.500000  1
  Cs  Cs1  1  0.000000  0.000000  0.000000  1
  Cs  Cs2  1  0.234773  0.585496  0.500000  1
  Cs  Cs3  1  0.765227  0.414504  0.500000  1
  Cs  Cs4  1  0.414517  0.234775  0.000000  1
  Cs  Cs5  1  0.585483  0.765225  0.000000  1
  Dy  Dy6  1  0.000000  0.500000  0.000000  1
  Ho  Ho7  1  0.500000  0.000000  0.500000  1
  Br  Br8  1  0.691463  0.058482  0.739989  1
  Br  Br9  1  0.308537  0.941518  0.739989  1
  Br  Br10  1  0.941400  0.691903  0.240529  1
  Br  Br11  1  0.058600  0.308097  0.240529  1
  Br  Br12  1  0.308537  0.941518  0.260011  1
  Br  Br13  1  0.691463  0.058482  0.260011  1
  Br  Br14  1  0.058600  0.308097  0.759471  1
  Br  Br15  1  0.941400  0.691903  0.759471  1
  Br  Br16  1  0.570632  0.729461  0.500000  1
  Br  Br17  1  0.429368  0.270539  0.500000  1
  Br  Br18  1  0.271218  0.570810  0.000000  1
  Br  Br19  1  0.728782  0.429190  0.000000  1
