# generated using pymatgen
data_NdSm3PCl6
_symmetry_space_group_name_H-M   'P 1'
_cell_length_a   3.98586700
_cell_length_b   12.92167212
_cell_length_c   13.72348800
_cell_angle_alpha   90.29572811
_cell_angle_beta   90.00000000
_cell_angle_gamma   90.00000000
_symmetry_Int_Tables_number   1
_chemical_formula_structural   NdSm3PCl6
_chemical_formula_sum   'Nd2 Sm6 P2 Cl12'
_cell_volume   706.80602343
_cell_formula_units_Z   2
loop_
 _symmetry_equiv_pos_site_id
 _symmetry_equiv_pos_as_xyz
  1  'x, y, z'
loop_
 _atom_site_type_symbol
 _atom_site_label
 _atom_site_symmetry_multiplicity
 _atom_site_fract_x
 _atom_site_fract_y
 _atom_site_fract_z
 _atom_site_occupancy
  Nd  Nd0  1  0.000000  0.622451  0.919112  1
  Nd  Nd1  1  0.000000  0.377549  0.080888  1
  Sm  Sm2  1  0.500000  0.119824  0.338765  1
  Sm  Sm3  1  0.500000  0.880176  0.661235  1
  Sm  Sm4  1  0.500000  0.620942  0.162495  1
  Sm  Sm5  1  0.500000  0.379058  0.837505  1
  Sm  Sm6  1  0.000000  0.120395  0.579729  1
  Sm  Sm7  1  0.000000  0.879605  0.420271  1
  P  P8  1  0.500000  0.000000  0.500000  1
  P  P9  1  0.500000  0.500000  0.000000  1
  Cl  Cl10  1  0.500000  0.239027  0.166276  1
  Cl  Cl11  1  0.500000  0.760973  0.833724  1
  Cl  Cl12  1  0.500000  0.744008  0.336297  1
  Cl  Cl13  1  0.500000  0.255992  0.663703  1
  Cl  Cl14  1  0.000000  0.251401  0.411704  1
  Cl  Cl15  1  0.000000  0.748599  0.588296  1
  Cl  Cl16  1  0.000000  0.752980  0.092243  1
  Cl  Cl17  1  0.000000  0.247020  0.907757  1
  Cl  Cl18  1  0.000000  0.001959  0.247157  1
  Cl  Cl19  1  0.000000  0.998041  0.752843  1
  Cl  Cl20  1  0.000000  0.505521  0.255420  1
  Cl  Cl21  1  0.000000  0.494479  0.744580  1
