# generated using pymatgen
data_NdSm3GeBr6
_symmetry_space_group_name_H-M   'P 1'
_cell_length_a   4.19564900
_cell_length_b   13.60176051
_cell_length_c   14.44577688
_cell_angle_alpha   90.29572996
_cell_angle_beta   90.00000000
_cell_angle_gamma   90.00000000
_symmetry_Int_Tables_number   1
_chemical_formula_structural   NdSm3GeBr6
_chemical_formula_sum   'Nd2 Sm6 Ge2 Br12'
_cell_volume   824.38368892
_cell_formula_units_Z   2
loop_
 _symmetry_equiv_pos_site_id
 _symmetry_equiv_pos_as_xyz
  1  'x, y, z'
loop_
 _atom_site_type_symbol
 _atom_site_label
 _atom_site_symmetry_multiplicity
 _atom_site_fract_x
 _atom_site_fract_y
 _atom_site_fract_z
 _atom_site_occupancy
  Nd  Nd0  1  0.000000  0.621396  0.919619  1
  Nd  Nd1  1  0.000000  0.378604  0.080381  1
  Sm  Sm2  1  0.500000  0.118382  0.340477  1
  Sm  Sm3  1  0.500000  0.881618  0.659523  1
  Sm  Sm4  1  0.500000  0.619179  0.160420  1
  Sm  Sm5  1  0.500000  0.380821  0.839580  1
  Sm  Sm6  1  0.000000  0.119004  0.578938  1
  Sm  Sm7  1  0.000000  0.880996  0.421062  1
  Ge  Ge8  1  0.500000  0.000000  0.500000  1
  Ge  Ge9  1  0.500000  0.500000  0.000000  1
  Br  Br10  1  0.500000  0.240024  0.165451  1
  Br  Br11  1  0.500000  0.759976  0.834549  1
  Br  Br12  1  0.500000  0.745232  0.337741  1
  Br  Br13  1  0.500000  0.254768  0.662259  1
  Br  Br14  1  0.000000  0.252437  0.411699  1
  Br  Br15  1  0.000000  0.747563  0.588301  1
  Br  Br16  1  0.000000  0.754194  0.091897  1
  Br  Br17  1  0.000000  0.245806  0.908103  1
  Br  Br18  1  0.000000  0.001956  0.245836  1
  Br  Br19  1  0.000000  0.998044  0.754164  1
  Br  Br20  1  0.000000  0.504939  0.256717  1
  Br  Br21  1  0.000000  0.495061  0.743283  1
