# generated using pymatgen
data_Lu2AlB8Os
_symmetry_space_group_name_H-M   'P 1'
_cell_length_a   5.90437159
_cell_length_b   5.90437234
_cell_length_c   3.51041400
_cell_angle_alpha   90.00000000
_cell_angle_beta   90.00000000
_cell_angle_gamma   104.17967320
_symmetry_Int_Tables_number   1
_chemical_formula_structural   Lu2AlB8Os
_chemical_formula_sum   'Lu2 Al1 B8 Os1'
_cell_volume   118.65008315
_cell_formula_units_Z   1
loop_
 _symmetry_equiv_pos_site_id
 _symmetry_equiv_pos_as_xyz
  1  'x, y, z'
loop_
 _atom_site_type_symbol
 _atom_site_label
 _atom_site_symmetry_multiplicity
 _atom_site_fract_x
 _atom_site_fract_y
 _atom_site_fract_z
 _atom_site_occupancy
  Lu  Lu0  1  0.199615  0.802519  0.000000  1
  Lu  Lu1  1  0.802519  0.199615  0.000000  1
  Al  Al2  1  0.319836  0.319836  0.000000  1
  B  B3  1  0.882871  0.567237  0.500000  1
  B  B4  1  0.409178  0.597204  0.500000  1
  B  B5  1  0.875925  0.875925  0.500000  1
  B  B6  1  0.567237  0.882871  0.500000  1
  B  B7  1  0.436343  0.118496  0.500000  1
  B  B8  1  0.120868  0.120868  0.500000  1
  B  B9  1  0.597204  0.409178  0.500000  1
  B  B10  1  0.118496  0.436343  0.500000  1
  Os  Os11  1  0.669909  0.669909  0.000000  1
