# generated using pymatgen
data_Zr10CdHgPb6
_symmetry_space_group_name_H-M   'P 1'
_cell_length_a   8.92422002
_cell_length_b   8.92387913
_cell_length_c   6.05370200
_cell_angle_alpha   89.99885674
_cell_angle_beta   89.99970085
_cell_angle_gamma   119.99313042
_symmetry_Int_Tables_number   1
_chemical_formula_structural   Zr10CdHgPb6
_chemical_formula_sum   'Zr10 Cd1 Hg1 Pb6'
_cell_volume   417.54729756
_cell_formula_units_Z   1
loop_
 _symmetry_equiv_pos_site_id
 _symmetry_equiv_pos_as_xyz
  1  'x, y, z'
loop_
 _atom_site_type_symbol
 _atom_site_label
 _atom_site_symmetry_multiplicity
 _atom_site_fract_x
 _atom_site_fract_y
 _atom_site_fract_z
 _atom_site_occupancy
  Zr  Zr0  1  0.666678  0.333330  0.999999  1
  Zr  Zr1  1  0.333322  0.666670  0.000001  1
  Zr  Zr2  1  0.333320  0.666670  0.500001  1
  Zr  Zr3  1  0.666680  0.333330  0.499999  1
  Zr  Zr4  1  0.721129  0.721125  0.751515  1
  Zr  Zr5  1  0.278860  0.999990  0.751507  1
  Zr  Zr6  1  0.999993  0.278859  0.751507  1
  Zr  Zr7  1  0.278871  0.278875  0.248485  1
  Zr  Zr8  1  0.721140  0.000010  0.248493  1
  Zr  Zr9  1  0.000007  0.721141  0.248493  1
  Cd  Cd10  1  0.000000  0.000000  0.500000  1
  Hg  Hg11  1  0.000000  0.000000  0.000000  1
  Pb  Pb12  1  0.379970  0.379973  0.749323  1
  Pb  Pb13  1  0.620028  0.000012  0.749322  1
  Pb  Pb14  1  0.000008  0.620015  0.749320  1
  Pb  Pb15  1  0.620030  0.620027  0.250677  1
  Pb  Pb16  1  0.379972  0.999988  0.250678  1
  Pb  Pb17  1  0.999992  0.379985  0.250680  1
