# generated using pymatgen
data_Sm3Ho3Cr2(Co4P3)4
_symmetry_space_group_name_H-M   'P 1'
_cell_length_a   3.70236500
_cell_length_b   10.53897703
_cell_length_c   12.21548404
_cell_angle_alpha   89.99165685
_cell_angle_beta   90.00000000
_cell_angle_gamma   90.00000000
_symmetry_Int_Tables_number   1
_chemical_formula_structural   Sm3Ho3Cr2(Co4P3)4
_chemical_formula_sum   'Sm3 Ho3 Cr2 Co16 P12'
_cell_volume   476.63767272
_cell_formula_units_Z   1
loop_
 _symmetry_equiv_pos_site_id
 _symmetry_equiv_pos_as_xyz
  1  'x, y, z'
loop_
 _atom_site_type_symbol
 _atom_site_label
 _atom_site_symmetry_multiplicity
 _atom_site_fract_x
 _atom_site_fract_y
 _atom_site_fract_z
 _atom_site_occupancy
  Sm  Sm0  1  0.000000  0.500304  0.522183  1
  Sm  Sm1  1  0.500000  0.000064  0.477634  1
  Sm  Sm2  1  0.000000  0.318187  0.795663  1
  Ho  Ho3  1  0.500000  0.818039  0.204581  1
  Ho  Ho4  1  0.500000  0.181666  0.203570  1
  Ho  Ho5  1  0.000000  0.682771  0.796509  1
  Cr  Cr6  1  0.500000  0.501762  0.153281  1
  Cr  Cr7  1  0.000000  0.997938  0.845921  1
  Co  Co8  1  0.500000  0.501874  0.703440  1
  Co  Co9  1  0.000000  0.999578  0.296196  1
  Co  Co10  1  0.000000  0.501578  0.987907  1
  Co  Co11  1  0.500000  0.998646  0.013711  1
  Co  Co12  1  0.500000  0.333004  0.994047  1
  Co  Co13  1  0.500000  0.668883  0.992787  1
  Co  Co14  1  0.000000  0.166062  0.008376  1
  Co  Co15  1  0.000000  0.832144  0.008550  1
  Co  Co16  1  0.500000  0.295670  0.428344  1
  Co  Co17  1  0.500000  0.704536  0.429998  1
  Co  Co18  1  0.000000  0.203826  0.568445  1
  Co  Co19  1  0.000000  0.795993  0.570455  1
  Co  Co20  1  0.500000  0.878750  0.710693  1
  Co  Co21  1  0.500000  0.118891  0.709715  1
  Co  Co22  1  0.000000  0.620719  0.290030  1
  Co  Co23  1  0.000000  0.379544  0.288655  1
  P  P24  1  0.500000  0.502283  0.883631  1
  P  P25  1  0.000000  0.999236  0.118351  1
  P  P26  1  0.500000  0.500030  0.339811  1
  P  P27  1  0.000000  0.999742  0.659096  1
  P  P28  1  0.500000  0.309249  0.614333  1
  P  P29  1  0.500000  0.690907  0.617273  1
  P  P30  1  0.000000  0.189955  0.381856  1
  P  P31  1  0.000000  0.809686  0.383271  1
  P  P32  1  0.500000  0.847570  0.892411  1
  P  P33  1  0.500000  0.150180  0.893902  1
  P  P34  1  0.000000  0.653109  0.108451  1
  P  P35  1  0.000000  0.347626  0.106925  1
