# generated using pymatgen
data_Zr6Al16Cu2TcNi4
_symmetry_space_group_name_H-M   'P 1'
_cell_length_a   8.62439766
_cell_length_b   8.60988971
_cell_length_c   8.62439825
_cell_angle_alpha   60.05563524
_cell_angle_beta   59.88873506
_cell_angle_gamma   60.05564000
_symmetry_Int_Tables_number   1
_chemical_formula_structural   Zr6Al16Cu2TcNi4
_chemical_formula_sum   'Zr6 Al16 Cu2 Tc1 Ni4'
_cell_volume   452.83266374
_cell_formula_units_Z   1
loop_
 _symmetry_equiv_pos_site_id
 _symmetry_equiv_pos_as_xyz
  1  'x, y, z'
loop_
 _atom_site_type_symbol
 _atom_site_label
 _atom_site_symmetry_multiplicity
 _atom_site_fract_x
 _atom_site_fract_y
 _atom_site_fract_z
 _atom_site_occupancy
  Zr  Zr0  1  0.693690  0.693690  0.306310  1
  Zr  Zr1  1  0.307920  0.692080  0.307920  1
  Zr  Zr2  1  0.693690  0.306310  0.306310  1
  Zr  Zr3  1  0.306310  0.306310  0.693690  1
  Zr  Zr4  1  0.692080  0.307920  0.692080  1
  Zr  Zr5  1  0.306310  0.693690  0.693690  1
  Al  Al6  1  0.885599  0.878193  0.358014  1
  Al  Al7  1  0.878193  0.358014  0.878193  1
  Al  Al8  1  0.358014  0.878193  0.885599  1
  Al  Al9  1  0.878193  0.885599  0.878193  1
  Al  Al10  1  0.114401  0.121807  0.641986  1
  Al  Al11  1  0.121807  0.641986  0.121807  1
  Al  Al12  1  0.641986  0.121807  0.114401  1
  Al  Al13  1  0.121807  0.114401  0.121807  1
  Al  Al14  1  0.662702  0.667813  0.001673  1
  Al  Al15  1  0.667813  0.001673  0.667813  1
  Al  Al16  1  0.001673  0.667813  0.662702  1
  Al  Al17  1  0.667813  0.662702  0.667813  1
  Al  Al18  1  0.337298  0.332187  0.998327  1
  Al  Al19  1  0.332187  0.998327  0.332187  1
  Al  Al20  1  0.998327  0.332187  0.337298  1
  Al  Al21  1  0.332187  0.337298  0.332187  1
  Cu  Cu22  1  0.500000  0.000000  0.500000  1
  Cu  Cu23  1  0.000000  0.500000  0.000000  1
  Tc  Tc24  1  0.000000  0.000000  0.000000  1
  Ni  Ni25  1  0.000000  0.000000  0.500000  1
  Ni  Ni26  1  0.000000  0.500000  0.500000  1
  Ni  Ni27  1  0.500000  0.500000  0.000000  1
  Ni  Ni28  1  0.500000  0.000000  0.000000  1
