# generated using pymatgen
data_DyHo7Re(B8Ru)3
_symmetry_space_group_name_H-M   'P 1'
_cell_length_a   3.65925600
_cell_length_b   9.12833674
_cell_length_c   11.51208700
_cell_angle_alpha   90.12897772
_cell_angle_beta   90.00000000
_cell_angle_gamma   90.00000000
_symmetry_Int_Tables_number   1
_chemical_formula_structural   DyHo7Re(B8Ru)3
_chemical_formula_sum   'Dy1 Ho7 Re1 B24 Ru3'
_cell_volume   384.53635818
_cell_formula_units_Z   1
loop_
 _symmetry_equiv_pos_site_id
 _symmetry_equiv_pos_as_xyz
  1  'x, y, z'
loop_
 _atom_site_type_symbol
 _atom_site_label
 _atom_site_symmetry_multiplicity
 _atom_site_fract_x
 _atom_site_fract_y
 _atom_site_fract_z
 _atom_site_occupancy
  Dy  Dy0  1  0.000000  0.323028  0.415091  1
  Ho  Ho1  1  0.000000  0.680012  0.588089  1
  Ho  Ho2  1  0.000000  0.822798  0.083439  1
  Ho  Ho3  1  0.000000  0.176046  0.913462  1
  Ho  Ho4  1  0.000000  0.943063  0.370993  1
  Ho  Ho5  1  0.000000  0.056375  0.627749  1
  Ho  Ho6  1  0.000000  0.442621  0.128648  1
  Ho  Ho7  1  0.000000  0.555987  0.872444  1
  Re  Re8  1  0.000000  0.862390  0.821239  1
  B  B9  1  0.500000  0.554169  0.433299  1
  B  B10  1  0.500000  0.446394  0.567169  1
  B  B11  1  0.500000  0.053692  0.067375  1
  B  B12  1  0.500000  0.947175  0.933324  1
  B  B13  1  0.500000  0.748417  0.419530  1
  B  B14  1  0.500000  0.251958  0.580417  1
  B  B15  1  0.500000  0.248024  0.080661  1
  B  B16  1  0.500000  0.751379  0.919422  1
  B  B17  1  0.500000  0.790349  0.265722  1
  B  B18  1  0.500000  0.209206  0.733329  1
  B  B19  1  0.500000  0.290706  0.234174  1
  B  B20  1  0.500000  0.708287  0.765809  1
  B  B21  1  0.500000  0.630996  0.185182  1
  B  B22  1  0.500000  0.368307  0.814469  1
  B  B23  1  0.500000  0.131613  0.314845  1
  B  B24  1  0.500000  0.868791  0.685312  1
  B  B25  1  0.500000  0.983313  0.212395  1
  B  B26  1  0.500000  0.018000  0.787386  1
  B  B27  1  0.500000  0.483331  0.287965  1
  B  B28  1  0.500000  0.516853  0.712584  1
  B  B29  1  0.500000  0.605524  0.030026  1
  B  B30  1  0.500000  0.392404  0.970840  1
  B  B31  1  0.500000  0.107118  0.469893  1
  B  B32  1  0.500000  0.893531  0.528747  1
  Ru  Ru33  1  0.000000  0.637831  0.321142  1
  Ru  Ru34  1  0.000000  0.362459  0.678539  1
  Ru  Ru35  1  0.000000  0.137851  0.179291  1
