# generated using pymatgen
data_Tb8Cd(InAu4)5
_symmetry_space_group_name_H-M   'P 1'
_cell_length_a   8.59686237
_cell_length_b   8.59686224
_cell_length_c   10.30213373
_cell_angle_alpha   90.05436467
_cell_angle_beta   89.94563611
_cell_angle_gamma   108.22708661
_symmetry_Int_Tables_number   1
_chemical_formula_structural   Tb8Cd(InAu4)5
_chemical_formula_sum   'Tb8 Cd1 In5 Au20'
_cell_volume   723.18614530
_cell_formula_units_Z   1
loop_
 _symmetry_equiv_pos_site_id
 _symmetry_equiv_pos_as_xyz
  1  'x, y, z'
loop_
 _atom_site_type_symbol
 _atom_site_label
 _atom_site_symmetry_multiplicity
 _atom_site_fract_x
 _atom_site_fract_y
 _atom_site_fract_z
 _atom_site_occupancy
  Tb  Tb0  1  0.698275  0.300825  0.001028  1
  Tb  Tb1  1  0.198734  0.801703  0.499412  1
  Tb  Tb2  1  0.803928  0.804641  0.299769  1
  Tb  Tb3  1  0.304641  0.303928  0.200231  1
  Tb  Tb4  1  0.800825  0.198275  0.498972  1
  Tb  Tb5  1  0.301703  0.698734  0.000588  1
  Tb  Tb6  1  0.697012  0.696634  0.800355  1
  Tb  Tb7  1  0.196634  0.197012  0.699645  1
  Cd  Cd8  1  0.520976  0.020976  0.250000  1
  In  In9  1  0.980684  0.480684  0.750000  1
  In  In10  1  0.999665  0.000319  0.000007  1
  In  In11  1  0.019329  0.519329  0.250000  1
  In  In12  1  0.480800  0.980800  0.750000  1
  In  In13  1  0.500319  0.499665  0.499993  1
  Au  Au14  1  0.151263  0.429975  0.483773  1
  Au  Au15  1  0.902027  0.902918  0.596089  1
  Au  Au16  1  0.568831  0.848520  0.515451  1
  Au  Au17  1  0.883182  0.165379  0.210415  1
  Au  Au18  1  0.384197  0.665235  0.289853  1
  Au  Au19  1  0.665379  0.383182  0.289585  1
  Au  Au20  1  0.402918  0.402027  0.903911  1
  Au  Au21  1  0.929975  0.651263  0.016227  1
  Au  Au22  1  0.334328  0.615524  0.710887  1
  Au  Au23  1  0.348520  0.068831  0.984549  1
  Au  Au24  1  0.597504  0.597176  0.096619  1
  Au  Au25  1  0.651910  0.930049  0.016558  1
  Au  Au26  1  0.097176  0.097504  0.403381  1
  Au  Au27  1  0.615465  0.334185  0.711018  1
  Au  Au28  1  0.115524  0.834328  0.789113  1
  Au  Au29  1  0.070231  0.348575  0.982742  1
  Au  Au30  1  0.848575  0.570231  0.517258  1
  Au  Au31  1  0.165235  0.884197  0.210147  1
  Au  Au32  1  0.430049  0.151910  0.483442  1
  Au  Au33  1  0.834185  0.115465  0.788982  1
