# generated using pymatgen
data_Ba5Pt2O9F
_symmetry_space_group_name_H-M   'P 1'
_cell_length_a   6.12394375
_cell_length_b   6.12394406
_cell_length_c   18.03289400
_cell_angle_alpha   90.00000000
_cell_angle_beta   90.00000000
_cell_angle_gamma   120.19153458
_symmetry_Int_Tables_number   1
_chemical_formula_structural   Ba5Pt2O9F
_chemical_formula_sum   'Ba10 Pt4 O18 F2'
_cell_volume   584.54375942
_cell_formula_units_Z   2
loop_
 _symmetry_equiv_pos_site_id
 _symmetry_equiv_pos_as_xyz
  1  'x, y, z'
loop_
 _atom_site_type_symbol
 _atom_site_label
 _atom_site_symmetry_multiplicity
 _atom_site_fract_x
 _atom_site_fract_y
 _atom_site_fract_z
 _atom_site_occupancy
  Ba  Ba0  1  0.164979  0.835021  0.012481  1
  Ba  Ba1  1  0.835021  0.164979  0.512481  1
  Ba  Ba2  1  0.832942  0.167058  0.746218  1
  Ba  Ba3  1  0.167058  0.832942  0.246218  1
  Ba  Ba4  1  0.498552  0.501448  0.357119  1
  Ba  Ba5  1  0.501448  0.498552  0.857119  1
  Ba  Ba6  1  0.499701  0.500299  0.635101  1
  Ba  Ba7  1  0.830610  0.169390  0.979688  1
  Ba  Ba8  1  0.500299  0.499701  0.135101  1
  Ba  Ba9  1  0.169390  0.830610  0.479688  1
  Pt  Pt10  1  0.173282  0.826718  0.668895  1
  Pt  Pt11  1  0.159621  0.840379  0.823301  1
  Pt  Pt12  1  0.826718  0.173282  0.168895  1
  Pt  Pt13  1  0.840379  0.159621  0.323301  1
  O  O14  1  0.467947  0.014384  0.886634  1
  O  O15  1  0.999717  0.000283  0.881583  1
  O  O16  1  0.685676  0.314324  0.250044  1
  O  O17  1  0.315623  0.130062  0.744167  1
  O  O18  1  0.014384  0.467947  0.386634  1
  O  O19  1  0.985616  0.532053  0.886634  1
  O  O20  1  0.032750  0.510731  0.609022  1
  O  O21  1  0.021104  0.978896  0.604029  1
  O  O22  1  0.510731  0.032750  0.109022  1
  O  O23  1  0.869938  0.684377  0.744167  1
  O  O24  1  0.684377  0.869938  0.244167  1
  O  O25  1  0.130062  0.315623  0.244167  1
  O  O26  1  0.000283  0.999717  0.381583  1
  O  O27  1  0.314324  0.685676  0.750044  1
  O  O28  1  0.489269  0.967250  0.609022  1
  O  O29  1  0.967250  0.489269  0.109022  1
  O  O30  1  0.532053  0.985616  0.386634  1
  O  O31  1  0.978896  0.021104  0.104029  1
  F  F32  1  0.446179  0.553821  0.996097  1
  F  F33  1  0.553821  0.446179  0.496097  1
