# generated using pymatgen
data_Tb9Lu(In2Ni)4
_symmetry_space_group_name_H-M   'P 1'
_cell_length_a   3.60646100
_cell_length_b   8.00986130
_cell_length_c   17.93243467
_cell_angle_alpha   90.03124969
_cell_angle_beta   90.00000000
_cell_angle_gamma   90.00000000
_symmetry_Int_Tables_number   1
_chemical_formula_structural   Tb9Lu(In2Ni)4
_chemical_formula_sum   'Tb9 Lu1 In8 Ni4'
_cell_volume   518.01868907
_cell_formula_units_Z   1
loop_
 _symmetry_equiv_pos_site_id
 _symmetry_equiv_pos_as_xyz
  1  'x, y, z'
loop_
 _atom_site_type_symbol
 _atom_site_label
 _atom_site_symmetry_multiplicity
 _atom_site_fract_x
 _atom_site_fract_y
 _atom_site_fract_z
 _atom_site_occupancy
  Tb  Tb0  1  0.000000  0.883287  0.088110  1
  Tb  Tb1  1  0.000000  0.754755  0.279057  1
  Tb  Tb2  1  0.000000  0.744426  0.778738  1
  Tb  Tb3  1  0.000000  0.383508  0.412116  1
  Tb  Tb4  1  0.000000  0.116514  0.911792  1
  Tb  Tb5  1  0.000000  0.245835  0.720495  1
  Tb  Tb6  1  0.000000  0.499962  0.999891  1
  Tb  Tb7  1  0.000000  0.254943  0.220832  1
  Tb  Tb8  1  0.000000  0.999869  0.500136  1
  Lu  Lu9  1  0.000000  0.615335  0.589928  1
  In  In10  1  0.500000  0.206089  0.068394  1
  In  In11  1  0.500000  0.426313  0.847622  1
  In  In12  1  0.500000  0.573737  0.152122  1
  In  In13  1  0.500000  0.074059  0.347960  1
  In  In14  1  0.500000  0.922901  0.651556  1
  In  In15  1  0.500000  0.793875  0.931425  1
  In  In16  1  0.500000  0.705412  0.432643  1
  In  In17  1  0.500000  0.297694  0.568498  1
  Ni  Ni18  1  0.500000  0.976428  0.196305  1
  Ni  Ni19  1  0.500000  0.023432  0.803734  1
  Ni  Ni20  1  0.500000  0.525020  0.694624  1
  Ni  Ni21  1  0.500000  0.476605  0.304022  1
