# generated using pymatgen
data_TmMgReB6
_symmetry_space_group_name_H-M   'P 1'
_cell_length_a   3.55031000
_cell_length_b   8.95444500
_cell_length_c   11.25530300
_cell_angle_alpha   90.00000000
_cell_angle_beta   90.00000000
_cell_angle_gamma   90.00000000
_symmetry_Int_Tables_number   1
_chemical_formula_structural   TmMgReB6
_chemical_formula_sum   'Tm4 Mg4 Re4 B24'
_cell_volume   357.81796378
_cell_formula_units_Z   4
loop_
 _symmetry_equiv_pos_site_id
 _symmetry_equiv_pos_as_xyz
  1  'x, y, z'
loop_
 _atom_site_type_symbol
 _atom_site_label
 _atom_site_symmetry_multiplicity
 _atom_site_fract_x
 _atom_site_fract_y
 _atom_site_fract_z
 _atom_site_occupancy
  Tm  Tm0  1  0.000000  0.324401  0.413298  1
  Tm  Tm1  1  0.000000  0.675599  0.586702  1
  Tm  Tm2  1  0.000000  0.824401  0.086702  1
  Tm  Tm3  1  0.000000  0.175599  0.913298  1
  Mg  Mg4  1  0.000000  0.944625  0.372809  1
  Mg  Mg5  1  0.000000  0.055375  0.627191  1
  Mg  Mg6  1  0.000000  0.444625  0.127191  1
  Mg  Mg7  1  0.000000  0.555375  0.872809  1
  Re  Re8  1  0.000000  0.642085  0.318402  1
  Re  Re9  1  0.000000  0.357915  0.681598  1
  Re  Re10  1  0.000000  0.142085  0.181598  1
  Re  Re11  1  0.000000  0.857915  0.818402  1
  B  B12  1  0.500000  0.554588  0.433607  1
  B  B13  1  0.500000  0.445412  0.566393  1
  B  B14  1  0.500000  0.054588  0.066393  1
  B  B15  1  0.500000  0.945412  0.933607  1
  B  B16  1  0.500000  0.755798  0.419580  1
  B  B17  1  0.500000  0.244202  0.580420  1
  B  B18  1  0.500000  0.255798  0.080420  1
  B  B19  1  0.500000  0.744202  0.919580  1
  B  B20  1  0.500000  0.795135  0.262524  1
  B  B21  1  0.500000  0.204865  0.737476  1
  B  B22  1  0.500000  0.295135  0.237476  1
  B  B23  1  0.500000  0.704865  0.762524  1
  B  B24  1  0.500000  0.628408  0.181296  1
  B  B25  1  0.500000  0.371592  0.818704  1
  B  B26  1  0.500000  0.128408  0.318704  1
  B  B27  1  0.500000  0.871592  0.681296  1
  B  B28  1  0.500000  0.979837  0.212828  1
  B  B29  1  0.500000  0.020163  0.787172  1
  B  B30  1  0.500000  0.479837  0.287172  1
  B  B31  1  0.500000  0.520163  0.712828  1
  B  B32  1  0.500000  0.592674  0.025516  1
  B  B33  1  0.500000  0.407326  0.974484  1
  B  B34  1  0.500000  0.092674  0.474484  1
  B  B35  1  0.500000  0.907326  0.525516  1
