# generated using pymatgen
data_Sr3Ca9Al2(InAs6)2
_symmetry_space_group_name_H-M   'P 1'
_cell_length_a   4.31629200
_cell_length_b   12.45341032
_cell_length_c   13.86107808
_cell_angle_alpha   90.11932304
_cell_angle_beta   90.00000000
_cell_angle_gamma   90.00000000
_symmetry_Int_Tables_number   1
_chemical_formula_structural   Sr3Ca9Al2(InAs6)2
_chemical_formula_sum   'Sr3 Ca9 Al2 In2 As12'
_cell_volume   745.06675052
_cell_formula_units_Z   1
loop_
 _symmetry_equiv_pos_site_id
 _symmetry_equiv_pos_as_xyz
  1  'x, y, z'
loop_
 _atom_site_type_symbol
 _atom_site_label
 _atom_site_symmetry_multiplicity
 _atom_site_fract_x
 _atom_site_fract_y
 _atom_site_fract_z
 _atom_site_occupancy
  Sr  Sr0  1  0.250000  0.847573  0.496491  1
  Sr  Sr1  1  0.250000  0.349730  0.003708  1
  Sr  Sr2  1  0.750000  0.152348  0.497490  1
  Ca  Ca3  1  0.750000  0.226334  0.212308  1
  Ca  Ca4  1  0.750000  0.437111  0.387658  1
  Ca  Ca5  1  0.250000  0.562906  0.603519  1
  Ca  Ca6  1  0.750000  0.935322  0.110465  1
  Ca  Ca7  1  0.250000  0.061940  0.897042  1
  Ca  Ca8  1  0.250000  0.272799  0.715139  1
  Ca  Ca9  1  0.750000  0.725151  0.282507  1
  Ca  Ca10  1  0.250000  0.770879  0.789815  1
  Ca  Ca11  1  0.750000  0.651151  0.006129  1
  Al  Al12  1  0.250000  0.061825  0.293642  1
  Al  Al13  1  0.250000  0.561555  0.203592  1
  In  In14  1  0.750000  0.942457  0.704439  1
  In  In15  1  0.750000  0.446340  0.798922  1
  As  As16  1  0.750000  0.461861  0.153667  1
  As  As17  1  0.250000  0.553529  0.863645  1
  As  As18  1  0.750000  0.959288  0.342317  1
  As  As19  1  0.250000  0.051009  0.644161  1
  As  As20  1  0.750000  0.394384  0.608627  1
  As  As21  1  0.250000  0.603168  0.382293  1
  As  As22  1  0.750000  0.891745  0.894313  1
  As  As23  1  0.250000  0.101496  0.115386  1
  As  As24  1  0.750000  0.241388  0.871947  1
  As  As25  1  0.250000  0.746311  0.127250  1
  As  As26  1  0.750000  0.739662  0.629134  1
  As  As27  1  0.250000  0.250736  0.364394  1
