# generated using pymatgen
data_Dy4HoEr5Pb8
_symmetry_space_group_name_H-M   'P 1'
_cell_length_a   8.17835200
_cell_length_b   8.25319801
_cell_length_c   15.58265702
_cell_angle_alpha   89.99483630
_cell_angle_beta   90.00000000
_cell_angle_gamma   90.00000000
_symmetry_Int_Tables_number   1
_chemical_formula_structural   Dy4HoEr5Pb8
_chemical_formula_sum   'Dy8 Ho2 Er10 Pb16'
_cell_volume   1051.79129828
_cell_formula_units_Z   2
loop_
 _symmetry_equiv_pos_site_id
 _symmetry_equiv_pos_as_xyz
  1  'x, y, z'
loop_
 _atom_site_type_symbol
 _atom_site_label
 _atom_site_symmetry_multiplicity
 _atom_site_fract_x
 _atom_site_fract_y
 _atom_site_fract_z
 _atom_site_occupancy
  Dy  Dy0  1  0.536470  0.323268  0.899962  1
  Dy  Dy1  1  0.036470  0.176732  0.600038  1
  Dy  Dy2  1  0.463538  0.676722  0.399967  1
  Dy  Dy3  1  0.963538  0.823278  0.100033  1
  Dy  Dy4  1  0.463547  0.676732  0.100084  1
  Dy  Dy5  1  0.963547  0.823268  0.399916  1
  Dy  Dy6  1  0.536451  0.323220  0.600022  1
  Dy  Dy7  1  0.036451  0.176780  0.899978  1
  Ho  Ho8  1  0.376517  0.841227  0.879113  1
  Ho  Ho9  1  0.876517  0.658773  0.620887  1
  Er  Er10  1  0.623489  0.158728  0.379058  1
  Er  Er11  1  0.123489  0.341272  0.120942  1
  Er  Er12  1  0.623497  0.158712  0.120905  1
  Er  Er13  1  0.123497  0.341288  0.379095  1
  Er  Er14  1  0.376454  0.841266  0.620882  1
  Er  Er15  1  0.876454  0.658734  0.879118  1
  Er  Er16  1  0.208289  0.504483  0.750000  1
  Er  Er17  1  0.708289  0.995517  0.750000  1
  Er  Er18  1  0.791746  0.495454  0.249991  1
  Er  Er19  1  0.291746  0.004546  0.250009  1
  Pb  Pb20  1  0.281546  0.033405  0.042973  1
  Pb  Pb21  1  0.781546  0.466595  0.457027  1
  Pb  Pb22  1  0.718288  0.966906  0.542820  1
  Pb  Pb23  1  0.218288  0.533094  0.957180  1
  Pb  Pb24  1  0.718570  0.966769  0.957181  1
  Pb  Pb25  1  0.218570  0.533231  0.542819  1
  Pb  Pb26  1  0.281617  0.033281  0.457127  1
  Pb  Pb27  1  0.781617  0.466719  0.042873  1
  Pb  Pb28  1  0.571176  0.626999  0.749990  1
  Pb  Pb29  1  0.071176  0.873001  0.750010  1
  Pb  Pb30  1  0.428842  0.372897  0.249997  1
  Pb  Pb31  1  0.928842  0.127103  0.250003  1
  Pb  Pb32  1  0.347404  0.153495  0.749966  1
  Pb  Pb33  1  0.847404  0.346505  0.750034  1
  Pb  Pb34  1  0.652558  0.846567  0.250001  1
  Pb  Pb35  1  0.152558  0.653433  0.249999  1
