# generated using pymatgen
data_Y4Sc4Re3B24Ir
_symmetry_space_group_name_H-M   'P 1'
_cell_length_a   3.58809700
_cell_length_b   9.00194211
_cell_length_c   11.39746399
_cell_angle_alpha   90.04291595
_cell_angle_beta   90.00000000
_cell_angle_gamma   90.00000000
_symmetry_Int_Tables_number   1
_chemical_formula_structural   Y4Sc4Re3B24Ir
_chemical_formula_sum   'Y4 Sc4 Re3 B24 Ir1'
_cell_volume   368.13617674
_cell_formula_units_Z   1
loop_
 _symmetry_equiv_pos_site_id
 _symmetry_equiv_pos_as_xyz
  1  'x, y, z'
loop_
 _atom_site_type_symbol
 _atom_site_label
 _atom_site_symmetry_multiplicity
 _atom_site_fract_x
 _atom_site_fract_y
 _atom_site_fract_z
 _atom_site_occupancy
  Y  Y0  1  0.500000  0.316461  0.415335  1
  Y  Y1  1  0.500000  0.680520  0.590064  1
  Y  Y2  1  0.500000  0.179151  0.912312  1
  Y  Y3  1  0.500000  0.823806  0.082255  1
  Sc  Sc4  1  0.500000  0.441352  0.126797  1
  Sc  Sc5  1  0.500000  0.555976  0.871490  1
  Sc  Sc6  1  0.500000  0.055054  0.628193  1
  Sc  Sc7  1  0.500000  0.946723  0.371989  1
  Re  Re8  1  0.500000  0.140390  0.182265  1
  Re  Re9  1  0.500000  0.860027  0.818744  1
  Re  Re10  1  0.500000  0.360207  0.680309  1
  B  B11  1  0.000000  0.096085  0.473343  1
  B  B12  1  0.000000  0.901343  0.526300  1
  B  B13  1  0.000000  0.403384  0.973986  1
  B  B14  1  0.000000  0.597539  0.027131  1
  B  B15  1  0.000000  0.128516  0.317069  1
  B  B16  1  0.000000  0.871121  0.683526  1
  B  B17  1  0.000000  0.371897  0.816237  1
  B  B18  1  0.000000  0.628794  0.182376  1
  B  B19  1  0.000000  0.054188  0.067152  1
  B  B20  1  0.000000  0.946169  0.932256  1
  B  B21  1  0.000000  0.445805  0.567221  1
  B  B22  1  0.000000  0.555037  0.433435  1
  B  B23  1  0.000000  0.481620  0.285925  1
  B  B24  1  0.000000  0.519321  0.714170  1
  B  B25  1  0.000000  0.019052  0.785280  1
  B  B26  1  0.000000  0.981024  0.213954  1
  B  B27  1  0.000000  0.253771  0.081579  1
  B  B28  1  0.000000  0.746579  0.918507  1
  B  B29  1  0.000000  0.245963  0.581739  1
  B  B30  1  0.000000  0.753858  0.419503  1
  B  B31  1  0.000000  0.294621  0.235400  1
  B  B32  1  0.000000  0.705536  0.765709  1
  B  B33  1  0.000000  0.205775  0.734400  1
  B  B34  1  0.000000  0.793701  0.265246  1
  Ir  Ir35  1  0.500000  0.639635  0.318801  1
