# generated using pymatgen
data_TbDy2TmAl18(Pd2Rh)2
_symmetry_space_group_name_H-M   'P 1'
_cell_length_a   7.54969800
_cell_length_b   7.55331545
_cell_length_c   9.47229600
_cell_angle_alpha   90.00000000
_cell_angle_beta   90.00000000
_cell_angle_gamma   119.30877667
_symmetry_Int_Tables_number   1
_chemical_formula_structural   TbDy2TmAl18(Pd2Rh)2
_chemical_formula_sum   'Tb1 Dy2 Tm1 Al18 Pd4 Rh2'
_cell_volume   471.01648567
_cell_formula_units_Z   1
loop_
 _symmetry_equiv_pos_site_id
 _symmetry_equiv_pos_as_xyz
  1  'x, y, z'
loop_
 _atom_site_type_symbol
 _atom_site_label
 _atom_site_symmetry_multiplicity
 _atom_site_fract_x
 _atom_site_fract_y
 _atom_site_fract_z
 _atom_site_occupancy
  Tb  Tb0  1  0.994269  0.669082  0.250000  1
  Dy  Dy1  1  0.005902  0.330369  0.750000  1
  Dy  Dy2  1  0.669177  0.993995  0.250000  1
  Tm  Tm3  1  0.329919  0.006094  0.750000  1
  Al  Al4  1  0.128049  0.127860  0.250000  1
  Al  Al5  1  0.873120  0.873137  0.750000  1
  Al  Al6  1  0.999997  0.331270  0.075932  1
  Al  Al7  1  0.000894  0.668834  0.921798  1
  Al  Al8  1  0.000894  0.668834  0.578202  1
  Al  Al9  1  0.331742  0.000102  0.424648  1
  Al  Al10  1  0.999997  0.331270  0.424068  1
  Al  Al11  1  0.667544  0.000335  0.577858  1
  Al  Al12  1  0.667544  0.000335  0.922142  1
  Al  Al13  1  0.331742  0.000102  0.075352  1
  Al  Al14  1  0.330111  0.329616  0.555646  1
  Al  Al15  1  0.669823  0.669952  0.447350  1
  Al  Al16  1  0.669823  0.669952  0.052650  1
  Al  Al17  1  0.330111  0.329616  0.944354  1
  Al  Al18  1  0.341895  0.548514  0.250000  1
  Al  Al19  1  0.657742  0.450020  0.750000  1
  Al  Al20  1  0.548290  0.340965  0.250000  1
  Al  Al21  1  0.450728  0.659254  0.750000  1
  Pd  Pd22  1  0.672235  0.327618  0.999731  1
  Pd  Pd23  1  0.327697  0.672348  0.999789  1
  Pd  Pd24  1  0.327697  0.672348  0.500211  1
  Pd  Pd25  1  0.672235  0.327618  0.500269  1
  Rh  Rh26  1  0.000411  0.000279  0.999594  1
  Rh  Rh27  1  0.000411  0.000279  0.500406  1
