# generated using pymatgen
data_YbHo3Ga15(SiIr2)3
_symmetry_space_group_name_H-M   'P 1'
_cell_length_a   7.57160660
_cell_length_b   7.50119069
_cell_length_c   9.48063767
_cell_angle_alpha   89.95131179
_cell_angle_beta   89.90340808
_cell_angle_gamma   119.89291592
_symmetry_Int_Tables_number   1
_chemical_formula_structural   YbHo3Ga15(SiIr2)3
_chemical_formula_sum   'Yb1 Ho3 Ga15 Si3 Ir6'
_cell_volume   466.82338203
_cell_formula_units_Z   1
loop_
 _symmetry_equiv_pos_site_id
 _symmetry_equiv_pos_as_xyz
  1  'x, y, z'
loop_
 _atom_site_type_symbol
 _atom_site_label
 _atom_site_symmetry_multiplicity
 _atom_site_fract_x
 _atom_site_fract_y
 _atom_site_fract_z
 _atom_site_occupancy
  Yb  Yb0  1  0.323786  0.993640  0.749841  1
  Ho  Ho1  1  0.996737  0.666240  0.248038  1
  Ho  Ho2  1  0.004695  0.340530  0.750782  1
  Ho  Ho3  1  0.673289  0.003637  0.247451  1
  Ga  Ga4  1  0.130341  0.127569  0.250893  1
  Ga  Ga5  1  0.872256  0.869760  0.750954  1
  Ga  Ga6  1  0.340575  0.004456  0.421037  1
  Ga  Ga7  1  0.000189  0.327893  0.420819  1
  Ga  Ga8  1  0.665241  0.002611  0.580996  1
  Ga  Ga9  1  0.660380  0.998670  0.916804  1
  Ga  Ga10  1  0.339165  0.003127  0.079813  1
  Ga  Ga11  1  0.332412  0.327521  0.569991  1
  Ga  Ga12  1  0.660803  0.668937  0.431595  1
  Ga  Ga13  1  0.660903  0.668476  0.070659  1
  Ga  Ga14  1  0.336906  0.328531  0.929036  1
  Ga  Ga15  1  0.336021  0.546659  0.251168  1
  Ga  Ga16  1  0.662420  0.454735  0.751571  1
  Ga  Ga17  1  0.549367  0.341347  0.250723  1
  Ga  Ga18  1  0.452429  0.661758  0.750762  1
  Si  Si19  1  0.000597  0.328828  0.072688  1
  Si  Si20  1  0.998967  0.670914  0.930049  1
  Si  Si21  1  0.000888  0.666227  0.566853  1
  Ir  Ir22  1  0.696986  0.343353  0.003093  1
  Ir  Ir23  1  0.303435  0.655767  0.999293  1
  Ir  Ir24  1  0.315750  0.668294  0.502737  1
  Ir  Ir25  1  0.686907  0.343905  0.500664  1
  Ir  Ir26  1  0.998825  0.000050  0.001496  1
  Ir  Ir27  1  0.999730  0.986563  0.500194  1
