# generated using pymatgen
data_NdY9(In2Pd)4
_symmetry_space_group_name_H-M   'P 1'
_cell_length_a   3.65303100
_cell_length_b   8.18265082
_cell_length_c   18.42781023
_cell_angle_alpha   90.07701333
_cell_angle_beta   90.00000000
_cell_angle_gamma   90.00000000
_symmetry_Int_Tables_number   1
_chemical_formula_structural   NdY9(In2Pd)4
_chemical_formula_sum   'Nd1 Y9 In8 Pd4'
_cell_volume   550.83396989
_cell_formula_units_Z   1
loop_
 _symmetry_equiv_pos_site_id
 _symmetry_equiv_pos_as_xyz
  1  'x, y, z'
loop_
 _atom_site_type_symbol
 _atom_site_label
 _atom_site_symmetry_multiplicity
 _atom_site_fract_x
 _atom_site_fract_y
 _atom_site_fract_z
 _atom_site_occupancy
  Nd  Nd0  1  0.500000  0.000000  0.000000  1
  Y  Y1  1  0.500000  0.240708  0.780898  1
  Y  Y2  1  0.500000  0.759292  0.219102  1
  Y  Y3  1  0.500000  0.259575  0.281412  1
  Y  Y4  1  0.500000  0.740425  0.718588  1
  Y  Y5  1  0.500000  0.118823  0.582883  1
  Y  Y6  1  0.500000  0.881177  0.417117  1
  Y  Y7  1  0.500000  0.378944  0.082966  1
  Y  Y8  1  0.500000  0.621056  0.917034  1
  Y  Y9  1  0.500000  0.500000  0.500000  1
  In  In10  1  0.000000  0.080729  0.152907  1
  In  In11  1  0.000000  0.919271  0.847093  1
  In  In12  1  0.000000  0.420116  0.650852  1
  In  In13  1  0.000000  0.579884  0.349148  1
  In  In14  1  0.000000  0.207539  0.432043  1
  In  In15  1  0.000000  0.792461  0.567957  1
  In  In16  1  0.000000  0.297230  0.930831  1
  In  In17  1  0.000000  0.702770  0.069169  1
  Pd  Pd18  1  0.000000  0.025108  0.695327  1
  Pd  Pd19  1  0.000000  0.974892  0.304673  1
  Pd  Pd20  1  0.000000  0.474731  0.196147  1
  Pd  Pd21  1  0.000000  0.525269  0.803853  1
