# generated using pymatgen
data_Ho5PaAl18
_symmetry_space_group_name_H-M   'P 1'
_cell_length_a   14.61202753
_cell_length_b   14.61202777
_cell_length_c   14.61202903
_cell_angle_alpha   24.28342528
_cell_angle_beta   24.28342280
_cell_angle_gamma   24.28342606
_symmetry_Int_Tables_number   1
_chemical_formula_structural   Ho5PaAl18
_chemical_formula_sum   'Ho5 Pa1 Al18'
_cell_volume   463.79306850
_cell_formula_units_Z   1
loop_
 _symmetry_equiv_pos_site_id
 _symmetry_equiv_pos_as_xyz
  1  'x, y, z'
loop_
 _atom_site_type_symbol
 _atom_site_label
 _atom_site_symmetry_multiplicity
 _atom_site_fract_x
 _atom_site_fract_y
 _atom_site_fract_z
 _atom_site_occupancy
  Ho  Ho0  1  0.890636  0.890636  0.890636  1
  Ho  Ho1  1  0.390915  0.390915  0.390915  1
  Ho  Ho2  1  0.999677  0.999677  0.999677  1
  Ho  Ho3  1  0.499896  0.499896  0.499896  1
  Ho  Ho4  1  0.609374  0.609374  0.609374  1
  Pa  Pa5  1  0.109056  0.109056  0.109056  1
  Al  Al6  1  0.922814  0.372160  0.372160  1
  Al  Al7  1  0.419893  0.871762  0.871762  1
  Al  Al8  1  0.372160  0.372160  0.922814  1
  Al  Al9  1  0.871762  0.871762  0.419893  1
  Al  Al10  1  0.372160  0.922814  0.372160  1
  Al  Al11  1  0.871762  0.419893  0.871762  1
  Al  Al12  1  0.578484  0.127971  0.127971  1
  Al  Al13  1  0.079035  0.627862  0.627862  1
  Al  Al14  1  0.127971  0.127971  0.578484  1
  Al  Al15  1  0.627862  0.627862  0.079035  1
  Al  Al16  1  0.127971  0.578484  0.127971  1
  Al  Al17  1  0.627862  0.079035  0.627862  1
  Al  Al18  1  0.499461  0.499461  0.000194  1
  Al  Al19  1  0.002020  0.002020  0.497551  1
  Al  Al20  1  0.499461  0.000194  0.499461  1
  Al  Al21  1  0.002020  0.497551  0.002020  1
  Al  Al22  1  0.000194  0.499461  0.499461  1
  Al  Al23  1  0.497551  0.002020  0.002020  1
