# generated using pymatgen
data_Th12Co3Si8Ni
_symmetry_space_group_name_H-M   'P 1'
_cell_length_a   4.16145900
_cell_length_b   11.51161700
_cell_length_c   11.76694263
_cell_angle_alpha   89.99635903
_cell_angle_beta   90.00000000
_cell_angle_gamma   90.00000000
_symmetry_Int_Tables_number   1
_chemical_formula_structural   Th12Co3Si8Ni
_chemical_formula_sum   'Th12 Co3 Si8 Ni1'
_cell_volume   563.69682283
_cell_formula_units_Z   1
loop_
 _symmetry_equiv_pos_site_id
 _symmetry_equiv_pos_as_xyz
  1  'x, y, z'
loop_
 _atom_site_type_symbol
 _atom_site_label
 _atom_site_symmetry_multiplicity
 _atom_site_fract_x
 _atom_site_fract_y
 _atom_site_fract_z
 _atom_site_occupancy
  Th  Th0  1  0.250000  0.060821  0.883014  1
  Th  Th1  1  0.250000  0.441947  0.381227  1
  Th  Th2  1  0.750000  0.941803  0.120353  1
  Th  Th3  1  0.750000  0.558080  0.618159  1
  Th  Th4  1  0.250000  0.125824  0.556084  1
  Th  Th5  1  0.250000  0.374118  0.054679  1
  Th  Th6  1  0.750000  0.874499  0.445664  1
  Th  Th7  1  0.750000  0.622307  0.945200  1
  Th  Th8  1  0.250000  0.792502  0.711132  1
  Th  Th9  1  0.250000  0.706083  0.214819  1
  Th  Th10  1  0.750000  0.206118  0.284932  1
  Th  Th11  1  0.750000  0.295449  0.784850  1
  Co  Co12  1  0.250000  0.367547  0.633136  1
  Co  Co13  1  0.250000  0.132645  0.133623  1
  Co  Co14  1  0.750000  0.633059  0.366247  1
  Si  Si15  1  0.250000  0.813790  0.972589  1
  Si  Si16  1  0.250000  0.684742  0.472404  1
  Si  Si17  1  0.750000  0.184548  0.027037  1
  Si  Si18  1  0.750000  0.314827  0.526578  1
  Si  Si19  1  0.250000  0.495473  0.803010  1
  Si  Si20  1  0.250000  0.006617  0.304672  1
  Si  Si21  1  0.750000  0.505912  0.196119  1
  Si  Si22  1  0.750000  0.993364  0.696182  1
  Ni  Ni23  1  0.750000  0.867927  0.868289  1
