# generated using pymatgen
data_Na3Rh3O8
_symmetry_space_group_name_H-M   'P 1'
_cell_length_a   8.98836100
_cell_length_b   8.98836100
_cell_length_c   8.98836100
_cell_angle_alpha   90.00000000
_cell_angle_beta   90.00000000
_cell_angle_gamma   90.00000000
_symmetry_Int_Tables_number   1
_chemical_formula_structural   Na3Rh3O8
_chemical_formula_sum   'Na12 Rh12 O32'
_cell_volume   726.17537901
_cell_formula_units_Z   4
loop_
 _symmetry_equiv_pos_site_id
 _symmetry_equiv_pos_as_xyz
  1  'x, y, z'
loop_
 _atom_site_type_symbol
 _atom_site_label
 _atom_site_symmetry_multiplicity
 _atom_site_fract_x
 _atom_site_fract_y
 _atom_site_fract_z
 _atom_site_occupancy
  Na  Na0  1  0.006444  0.006444  0.006444  1
  Na  Na1  1  0.125000  0.875000  0.375000  1
  Na  Na2  1  0.243556  0.243556  0.243556  1
  Na  Na3  1  0.256444  0.756444  0.743556  1
  Na  Na4  1  0.375000  0.125000  0.875000  1
  Na  Na5  1  0.493556  0.993556  0.506444  1
  Na  Na6  1  0.506444  0.493556  0.993556  1
  Na  Na7  1  0.625000  0.625000  0.625000  1
  Na  Na8  1  0.743556  0.256444  0.756444  1
  Na  Na9  1  0.756444  0.743556  0.256444  1
  Na  Na10  1  0.875000  0.375000  0.125000  1
  Na  Na11  1  0.993556  0.506444  0.493556  1
  Rh  Rh12  1  0.113596  0.136404  0.625000  1
  Rh  Rh13  1  0.125000  0.386404  0.863596  1
  Rh  Rh14  1  0.136404  0.625000  0.113596  1
  Rh  Rh15  1  0.363596  0.375000  0.613596  1
  Rh  Rh16  1  0.375000  0.613596  0.363596  1
  Rh  Rh17  1  0.386404  0.863596  0.125000  1
  Rh  Rh18  1  0.613596  0.363596  0.375000  1
  Rh  Rh19  1  0.625000  0.113596  0.136404  1
  Rh  Rh20  1  0.636404  0.875000  0.886404  1
  Rh  Rh21  1  0.863596  0.125000  0.386404  1
  Rh  Rh22  1  0.875000  0.886404  0.636404  1
  Rh  Rh23  1  0.886404  0.636404  0.875000  1
  O  O24  1  0.082004  0.138625  0.406625  1
  O  O25  1  0.093375  0.917996  0.638625  1
  O  O26  1  0.113988  0.613988  0.886012  1
  O  O27  1  0.138625  0.406625  0.082004  1
  O  O28  1  0.111375  0.167996  0.843375  1
  O  O29  1  0.136012  0.363988  0.636012  1
  O  O30  1  0.156625  0.611375  0.332004  1
  O  O31  1  0.167996  0.843375  0.111375  1
  O  O32  1  0.332004  0.156625  0.611375  1
  O  O33  1  0.343375  0.388625  0.832004  1
  O  O34  1  0.363988  0.636012  0.136012  1
  O  O35  1  0.388625  0.832004  0.343375  1
  O  O36  1  0.361375  0.593375  0.582004  1
  O  O37  1  0.386012  0.386012  0.386012  1
  O  O38  1  0.406625  0.082004  0.138625  1
  O  O39  1  0.417996  0.861375  0.906625  1
  O  O40  1  0.582004  0.361375  0.593375  1
  O  O41  1  0.593375  0.582004  0.361375  1
  O  O42  1  0.613988  0.886012  0.113988  1
  O  O43  1  0.638625  0.093375  0.917996  1
  O  O44  1  0.611375  0.332004  0.156625  1
  O  O45  1  0.636012  0.136012  0.363988  1
  O  O46  1  0.656625  0.888625  0.667996  1
  O  O47  1  0.667996  0.656625  0.888625  1
  O  O48  1  0.832004  0.343375  0.388625  1
  O  O49  1  0.843375  0.111375  0.167996  1
  O  O50  1  0.863988  0.863988  0.863988  1
  O  O51  1  0.888625  0.667996  0.656625  1
  O  O52  1  0.861375  0.906625  0.417996  1
  O  O53  1  0.886012  0.113988  0.613988  1
  O  O54  1  0.906625  0.417996  0.861375  1
  O  O55  1  0.917996  0.638625  0.093375  1
