# generated using pymatgen
data_Ca9LaSi6F
_symmetry_space_group_name_H-M   'P 1'
_cell_length_a   9.15035916
_cell_length_b   9.12275759
_cell_length_c   9.13942633
_cell_angle_alpha   130.17668385
_cell_angle_beta   130.25724710
_cell_angle_gamma   73.03631225
_symmetry_Int_Tables_number   1
_chemical_formula_structural   Ca9LaSi6F
_chemical_formula_sum   'Ca9 La1 Si6 F1'
_cell_volume   434.49085063
_cell_formula_units_Z   1
loop_
 _symmetry_equiv_pos_site_id
 _symmetry_equiv_pos_as_xyz
  1  'x, y, z'
loop_
 _atom_site_type_symbol
 _atom_site_label
 _atom_site_symmetry_multiplicity
 _atom_site_fract_x
 _atom_site_fract_y
 _atom_site_fract_z
 _atom_site_occupancy
  Ca  Ca0  1  0.431695  0.773681  0.000000  1
  Ca  Ca1  1  0.934085  0.931325  0.645421  1
  Ca  Ca2  1  0.288662  0.285900  0.354578  1
  Ca  Ca3  1  0.710915  0.066174  0.000002  1
  Ca  Ca4  1  0.068179  0.712172  0.999998  1
  Ca  Ca5  1  0.565046  0.565958  0.337161  1
  Ca  Ca6  1  0.227886  0.228801  0.662843  1
  Ca  Ca7  1  0.254896  0.754747  0.506378  1
  Ca  Ca8  1  0.748519  0.248370  0.493625  1
  La  La9  1  0.781307  0.430200  0.999997  1
  Si  Si10  1  0.997762  0.501357  0.497109  1
  Si  Si11  1  0.500653  0.004248  0.502890  1
  Si  Si12  1  0.131689  0.357726  0.000000  1
  Si  Si13  1  0.361709  0.135835  0.999999  1
  Si  Si14  1  0.865648  0.863245  0.225773  1
  Si  Si15  1  0.639876  0.637471  0.774226  1
  F  F16  1  0.491471  0.502792  0.000000  1
