# generated using pymatgen
data_Ho6CuSi12Pt7
_symmetry_space_group_name_H-M   'P 1'
_cell_length_a   4.21539400
_cell_length_b   8.47671885
_cell_length_c   12.96622825
_cell_angle_alpha   80.32010533
_cell_angle_beta   90.00000000
_cell_angle_gamma   90.00000000
_symmetry_Int_Tables_number   1
_chemical_formula_structural   Ho6CuSi12Pt7
_chemical_formula_sum   'Ho6 Cu1 Si12 Pt7'
_cell_volume   456.72198879
_cell_formula_units_Z   1
loop_
 _symmetry_equiv_pos_site_id
 _symmetry_equiv_pos_as_xyz
  1  'x, y, z'
loop_
 _atom_site_type_symbol
 _atom_site_label
 _atom_site_symmetry_multiplicity
 _atom_site_fract_x
 _atom_site_fract_y
 _atom_site_fract_z
 _atom_site_occupancy
  Ho  Ho0  1  0.250000  0.767180  0.437970  1
  Ho  Ho1  1  0.250000  0.575447  0.184765  1
  Ho  Ho2  1  0.750000  0.233560  0.559262  1
  Ho  Ho3  1  0.750000  0.421920  0.808151  1
  Ho  Ho4  1  0.750000  0.922635  0.816046  1
  Ho  Ho5  1  0.250000  0.082277  0.183230  1
  Cu  Cu6  1  0.750000  0.348344  0.103976  1
  Si  Si7  1  0.750000  0.587462  0.567575  1
  Si  Si8  1  0.750000  0.132785  0.005471  1
  Si  Si9  1  0.750000  0.870570  0.575392  1
  Si  Si10  1  0.250000  0.695828  0.715901  1
  Si  Si11  1  0.750000  0.304067  0.285172  1
  Si  Si12  1  0.750000  0.806573  0.274977  1
  Si  Si13  1  0.250000  0.874505  0.995458  1
  Si  Si14  1  0.250000  0.194526  0.723551  1
  Si  Si15  1  0.250000  0.376978  0.005627  1
  Si  Si16  1  0.250000  0.125702  0.427852  1
  Si  Si17  1  0.750000  0.613892  0.001286  1
  Si  Si18  1  0.250000  0.413681  0.430839  1
  Pt  Pt19  1  0.250000  0.971655  0.623986  1
  Pt  Pt20  1  0.750000  0.849945  0.088495  1
  Pt  Pt21  1  0.750000  0.029535  0.374375  1
  Pt  Pt22  1  0.250000  0.646874  0.903011  1
  Pt  Pt23  1  0.250000  0.153021  0.910539  1
  Pt  Pt24  1  0.750000  0.533829  0.373715  1
  Pt  Pt25  1  0.250000  0.467208  0.623379  1
