# generated using pymatgen
data_Tb8Cu2Si12PtAu
_symmetry_space_group_name_H-M   'P 1'
_cell_length_a   8.09703900
_cell_length_b   8.09703848
_cell_length_c   8.20016400
_cell_angle_alpha   90.00000000
_cell_angle_beta   90.00000000
_cell_angle_gamma   120.00001439
_symmetry_Int_Tables_number   1
_chemical_formula_structural   Tb8Cu2Si12PtAu
_chemical_formula_sum   'Tb8 Cu2 Si12 Pt1 Au1'
_cell_volume   465.59203386
_cell_formula_units_Z   1
loop_
 _symmetry_equiv_pos_site_id
 _symmetry_equiv_pos_as_xyz
  1  'x, y, z'
loop_
 _atom_site_type_symbol
 _atom_site_label
 _atom_site_symmetry_multiplicity
 _atom_site_fract_x
 _atom_site_fract_y
 _atom_site_fract_z
 _atom_site_occupancy
  Tb  Tb0  1  0.501493  0.002984  0.253347  1
  Tb  Tb1  1  0.501097  0.002195  0.746784  1
  Tb  Tb2  1  0.997016  0.498507  0.253347  1
  Tb  Tb3  1  0.997805  0.498903  0.746784  1
  Tb  Tb4  1  0.501493  0.498507  0.253347  1
  Tb  Tb5  1  0.501097  0.498903  0.746784  1
  Tb  Tb6  1  0.000000  0.000000  0.253219  1
  Tb  Tb7  1  0.000000  0.000000  0.746280  1
  Cu  Cu8  1  0.666667  0.333333  0.500470  1
  Cu  Cu9  1  0.333333  0.666667  0.499773  1
  Si  Si10  1  0.162323  0.324646  0.999236  1
  Si  Si11  1  0.833050  0.666100  0.000112  1
  Si  Si12  1  0.675354  0.837677  0.999236  1
  Si  Si13  1  0.830631  0.661262  0.501162  1
  Si  Si14  1  0.333900  0.166950  0.000112  1
  Si  Si15  1  0.169439  0.338876  0.498845  1
  Si  Si16  1  0.162323  0.837677  0.999236  1
  Si  Si17  1  0.338738  0.169369  0.501162  1
  Si  Si18  1  0.833050  0.166950  0.000112  1
  Si  Si19  1  0.661124  0.830561  0.498845  1
  Si  Si20  1  0.830631  0.169369  0.501162  1
  Si  Si21  1  0.169439  0.830561  0.498845  1
  Pt  Pt22  1  0.666667  0.333333  0.000338  1
  Au  Au23  1  0.333333  0.666667  0.001459  1
