# generated using pymatgen
data_LuHfAsPt8
_symmetry_space_group_name_H-M   'P 1'
_cell_length_a   4.07269800
_cell_length_b   4.07269800
_cell_length_c   11.18983100
_cell_angle_alpha   90.00000000
_cell_angle_beta   90.00000000
_cell_angle_gamma   90.00000000
_symmetry_Int_Tables_number   1
_chemical_formula_structural   LuHfAsPt8
_chemical_formula_sum   'Lu1 Hf1 As1 Pt8'
_cell_volume   185.60426092
_cell_formula_units_Z   1
loop_
 _symmetry_equiv_pos_site_id
 _symmetry_equiv_pos_as_xyz
  1  'x, y, z'
loop_
 _atom_site_type_symbol
 _atom_site_label
 _atom_site_symmetry_multiplicity
 _atom_site_fract_x
 _atom_site_fract_y
 _atom_site_fract_z
 _atom_site_occupancy
  Lu  Lu0  1  0.500000  0.500000  0.181821  1
  Hf  Hf1  1  0.500000  0.500000  0.820389  1
  As  As2  1  0.000000  0.000000  0.499890  1
  Pt  Pt3  1  0.500000  0.000000  0.994728  1
  Pt  Pt4  1  0.000000  0.500000  0.994728  1
  Pt  Pt5  1  0.500000  0.000000  0.642424  1
  Pt  Pt6  1  0.000000  0.500000  0.642424  1
  Pt  Pt7  1  0.500000  0.000000  0.362930  1
  Pt  Pt8  1  0.000000  0.500000  0.362930  1
  Pt  Pt9  1  0.000000  0.000000  0.819127  1
  Pt  Pt10  1  0.000000  0.000000  0.178611  1
