# generated using pymatgen
data_Y4TmIr2Ru
_symmetry_space_group_name_H-M   'P 1'
_cell_length_a   10.83597400
_cell_length_b   10.83597400
_cell_length_c   6.42993400
_cell_angle_alpha   90.00000000
_cell_angle_beta   90.00000000
_cell_angle_gamma   90.00000000
_symmetry_Int_Tables_number   1
_chemical_formula_structural   Y4TmIr2Ru
_chemical_formula_sum   'Y16 Tm4 Ir8 Ru4'
_cell_volume   754.99212855
_cell_formula_units_Z   4
loop_
 _symmetry_equiv_pos_site_id
 _symmetry_equiv_pos_as_xyz
  1  'x, y, z'
loop_
 _atom_site_type_symbol
 _atom_site_label
 _atom_site_symmetry_multiplicity
 _atom_site_fract_x
 _atom_site_fract_y
 _atom_site_fract_z
 _atom_site_occupancy
  Y  Y0  1  0.292674  0.086558  0.377062  1
  Y  Y1  1  0.292674  0.913442  0.877062  1
  Y  Y2  1  0.707326  0.086558  0.877062  1
  Y  Y3  1  0.707326  0.913442  0.377062  1
  Y  Y4  1  0.586558  0.792674  0.877062  1
  Y  Y5  1  0.586558  0.207326  0.377062  1
  Y  Y6  1  0.413442  0.792674  0.377062  1
  Y  Y7  1  0.413442  0.207326  0.877062  1
  Y  Y8  1  0.207326  0.413442  0.622938  1
  Y  Y9  1  0.207326  0.586558  0.122938  1
  Y  Y10  1  0.792674  0.413442  0.122938  1
  Y  Y11  1  0.792674  0.586558  0.622938  1
  Y  Y12  1  0.913442  0.707326  0.122938  1
  Y  Y13  1  0.913442  0.292674  0.622938  1
  Y  Y14  1  0.086558  0.707326  0.622938  1
  Y  Y15  1  0.086558  0.292674  0.122938  1
  Tm  Tm16  1  0.000000  0.000000  0.500000  1
  Tm  Tm17  1  0.000000  0.000000  0.000000  1
  Tm  Tm18  1  0.500000  0.500000  0.000000  1
  Tm  Tm19  1  0.500000  0.500000  0.500000  1
  Ir  Ir20  1  0.849587  0.150413  0.250000  1
  Ir  Ir21  1  0.849587  0.849587  0.750000  1
  Ir  Ir22  1  0.150413  0.150413  0.750000  1
  Ir  Ir23  1  0.150413  0.849587  0.250000  1
  Ir  Ir24  1  0.650413  0.349587  0.750000  1
  Ir  Ir25  1  0.650413  0.650413  0.250000  1
  Ir  Ir26  1  0.349587  0.349587  0.250000  1
  Ir  Ir27  1  0.349587  0.650413  0.750000  1
  Ru  Ru28  1  0.500000  0.000000  0.122671  1
  Ru  Ru29  1  0.500000  0.000000  0.622671  1
  Ru  Ru30  1  0.000000  0.500000  0.877329  1
  Ru  Ru31  1  0.000000  0.500000  0.377329  1
