# generated using pymatgen
data_Tb2PtPbAu
_symmetry_space_group_name_H-M   'P 1'
_cell_length_a   8.17953400
_cell_length_b   8.12618800
_cell_length_c   3.59661300
_cell_angle_alpha   90.00000000
_cell_angle_beta   90.00000000
_cell_angle_gamma   90.00000000
_symmetry_Int_Tables_number   1
_chemical_formula_structural   Tb2PtPbAu
_chemical_formula_sum   'Tb4 Pt2 Pb2 Au2'
_cell_volume   239.06122316
_cell_formula_units_Z   2
loop_
 _symmetry_equiv_pos_site_id
 _symmetry_equiv_pos_as_xyz
  1  'x, y, z'
loop_
 _atom_site_type_symbol
 _atom_site_label
 _atom_site_symmetry_multiplicity
 _atom_site_fract_x
 _atom_site_fract_y
 _atom_site_fract_z
 _atom_site_occupancy
  Tb  Tb0  1  0.680496  0.165132  0.500000  1
  Tb  Tb1  1  0.148953  0.330301  0.500000  1
  Tb  Tb2  1  0.819504  0.665132  0.500000  1
  Tb  Tb3  1  0.351047  0.830301  0.500000  1
  Pt  Pt4  1  0.627531  0.876994  0.000000  1
  Pt  Pt5  1  0.872469  0.376994  0.000000  1
  Pb  Pb6  1  0.997976  0.997066  0.000000  1
  Pb  Pb7  1  0.502024  0.497066  0.000000  1
  Au  Au8  1  0.374006  0.130506  0.000000  1
  Au  Au9  1  0.125994  0.630506  0.000000  1
