# generated using pymatgen
data_Ho8Tm2Si5Pb
_symmetry_space_group_name_H-M   'P 1'
_cell_length_a   8.50021645
_cell_length_b   8.50021672
_cell_length_c   6.35831301
_cell_angle_alpha   89.99660099
_cell_angle_beta   89.99660151
_cell_angle_gamma   120.23584665
_symmetry_Int_Tables_number   1
_chemical_formula_structural   Ho8Tm2Si5Pb
_chemical_formula_sum   'Ho8 Tm2 Si5 Pb1'
_cell_volume   396.91314379
_cell_formula_units_Z   1
loop_
 _symmetry_equiv_pos_site_id
 _symmetry_equiv_pos_as_xyz
  1  'x, y, z'
loop_
 _atom_site_type_symbol
 _atom_site_label
 _atom_site_symmetry_multiplicity
 _atom_site_fract_x
 _atom_site_fract_y
 _atom_site_fract_z
 _atom_site_occupancy
  Ho  Ho0  1  0.675147  0.331104  0.503796  1
  Ho  Ho1  1  0.331104  0.675147  0.503796  1
  Ho  Ho2  1  0.766751  0.766751  0.249516  1
  Ho  Ho3  1  0.240381  0.987623  0.249449  1
  Ho  Ho4  1  0.987623  0.240381  0.249449  1
  Ho  Ho5  1  0.240364  0.240364  0.750499  1
  Ho  Ho6  1  0.755657  0.998166  0.750602  1
  Ho  Ho7  1  0.998166  0.755657  0.750602  1
  Tm  Tm8  1  0.331133  0.675302  0.996248  1
  Tm  Tm9  1  0.675302  0.331133  0.996248  1
  Si  Si10  1  0.603527  0.998314  0.248543  1
  Si  Si11  1  0.998314  0.603527  0.248543  1
  Si  Si12  1  0.605387  0.605387  0.751172  1
  Si  Si13  1  0.393911  0.001738  0.751471  1
  Si  Si14  1  0.001738  0.393911  0.751471  1
  Pb  Pb15  1  0.395495  0.395495  0.248595  1
