# generated using pymatgen
data_Lu3Zn3Si2Ag
_symmetry_space_group_name_H-M   'P 1'
_cell_length_a   6.78067300
_cell_length_b   6.78067405
_cell_length_c   4.24279600
_cell_angle_alpha   90.00000000
_cell_angle_beta   90.00000000
_cell_angle_gamma   119.99999974
_symmetry_Int_Tables_number   1
_chemical_formula_structural   Lu3Zn3Si2Ag
_chemical_formula_sum   'Lu3 Zn3 Si2 Ag1'
_cell_volume   168.93842961
_cell_formula_units_Z   1
loop_
 _symmetry_equiv_pos_site_id
 _symmetry_equiv_pos_as_xyz
  1  'x, y, z'
loop_
 _atom_site_type_symbol
 _atom_site_label
 _atom_site_symmetry_multiplicity
 _atom_site_fract_x
 _atom_site_fract_y
 _atom_site_fract_z
 _atom_site_occupancy
  Lu  Lu0  1  0.573582  0.000000  0.000000  1
  Lu  Lu1  1  0.000000  0.573582  0.000000  1
  Lu  Lu2  1  0.426418  0.426418  0.000000  1
  Zn  Zn3  1  0.250215  0.000000  0.500000  1
  Zn  Zn4  1  0.000000  0.250215  0.500000  1
  Zn  Zn5  1  0.749785  0.749785  0.500000  1
  Si  Si6  1  0.333333  0.666667  0.500000  1
  Si  Si7  1  0.666667  0.333333  0.500000  1
  Ag  Ag8  1  0.000000  0.000000  0.000000  1
