# generated using pymatgen
data_Pr4Ni2Hg3
_symmetry_space_group_name_H-M   'P 1'
_cell_length_a   3.77789500
_cell_length_b   7.60095474
_cell_length_c   8.31406700
_cell_angle_alpha   107.39905581
_cell_angle_beta   90.00000000
_cell_angle_gamma   90.00000000
_symmetry_Int_Tables_number   1
_chemical_formula_structural   Pr4Ni2Hg3
_chemical_formula_sum   'Pr4 Ni2 Hg3'
_cell_volume   227.81984879
_cell_formula_units_Z   1
loop_
 _symmetry_equiv_pos_site_id
 _symmetry_equiv_pos_as_xyz
  1  'x, y, z'
loop_
 _atom_site_type_symbol
 _atom_site_label
 _atom_site_symmetry_multiplicity
 _atom_site_fract_x
 _atom_site_fract_y
 _atom_site_fract_z
 _atom_site_occupancy
  Pr  Pr0  1  0.500000  0.914674  0.780337  1
  Pr  Pr1  1  0.500000  0.085326  0.219663  1
  Pr  Pr2  1  0.500000  0.391605  0.690392  1
  Pr  Pr3  1  0.500000  0.608395  0.309608  1
  Ni  Ni4  1  0.000000  0.651605  0.606297  1
  Ni  Ni5  1  0.000000  0.348395  0.393703  1
  Hg  Hg6  1  0.000000  0.702285  0.991385  1
  Hg  Hg7  1  0.000000  0.297715  0.008615  1
  Hg  Hg8  1  0.000000  0.000000  0.500000  1
