# generated using pymatgen
data_Er5Si9P3Ir11Rh8
_symmetry_space_group_name_H-M   'P 1'
_cell_length_a   12.80083965
_cell_length_b   12.81757563
_cell_length_c   3.92704400
_cell_angle_alpha   90.00000000
_cell_angle_beta   90.00000000
_cell_angle_gamma   120.04326092
_symmetry_Int_Tables_number   1
_chemical_formula_structural   Er5Si9P3Ir11Rh8
_chemical_formula_sum   'Er5 Si9 P3 Ir11 Rh8'
_cell_volume   557.76500136
_cell_formula_units_Z   1
loop_
 _symmetry_equiv_pos_site_id
 _symmetry_equiv_pos_as_xyz
  1  'x, y, z'
loop_
 _atom_site_type_symbol
 _atom_site_label
 _atom_site_symmetry_multiplicity
 _atom_site_fract_x
 _atom_site_fract_y
 _atom_site_fract_z
 _atom_site_occupancy
  Er  Er0  1  0.666800  0.333428  0.000000  1
  Er  Er1  1  0.333200  0.666629  0.000000  1
  Er  Er2  1  0.814837  0.814619  0.500000  1
  Er  Er3  1  0.185163  0.999783  0.500000  1
  Er  Er4  1  0.000000  0.185271  0.500000  1
  Si  Si5  1  0.685927  0.166675  0.500000  1
  Si  Si6  1  0.833392  0.519011  0.500000  1
  Si  Si7  1  0.480898  0.314077  0.500000  1
  Si  Si8  1  0.166608  0.685619  0.500000  1
  Si  Si9  1  0.519102  0.833179  0.500000  1
  Si  Si10  1  0.314073  0.480748  0.500000  1
  Si  Si11  1  0.631439  0.631470  0.000000  1
  Si  Si12  1  0.368561  0.000031  0.000000  1
  Si  Si13  1  0.000000  0.368134  0.000000  1
  P  P14  1  0.179141  0.179144  0.000000  1
  P  P15  1  0.820859  0.000003  0.000000  1
  P  P16  1  0.000000  0.821680  0.000000  1
  Ir  Ir17  1  0.000000  0.553793  0.000000  1
  Ir  Ir18  1  0.276831  0.276924  0.500000  1
  Ir  Ir19  1  0.723169  0.000093  0.500000  1
  Ir  Ir20  1  0.000000  0.722376  0.500000  1
  Ir  Ir21  1  0.872733  0.359080  0.500000  1
  Ir  Ir22  1  0.641262  0.513702  0.500000  1
  Ir  Ir23  1  0.485989  0.127213  0.500000  1
  Ir  Ir24  1  0.358738  0.872439  0.500000  1
  Ir  Ir25  1  0.514011  0.641223  0.500000  1
  Ir  Ir26  1  0.127267  0.486346  0.500000  1
  Ir  Ir27  1  0.000000  0.000404  0.000000  1
  Rh  Rh28  1  0.807966  0.179933  0.000000  1
  Rh  Rh29  1  0.820398  0.628244  0.000000  1
  Rh  Rh30  1  0.372050  0.192254  0.000000  1
  Rh  Rh31  1  0.179602  0.807846  0.000000  1
  Rh  Rh32  1  0.627950  0.820204  0.000000  1
  Rh  Rh33  1  0.192034  0.371967  0.000000  1
  Rh  Rh34  1  0.446463  0.446460  0.000000  1
  Rh  Rh35  1  0.553537  0.999997  0.000000  1
