# generated using pymatgen
data_YbEr3(B6Ru)2
_symmetry_space_group_name_H-M   'P 1'
_cell_length_a   3.63400100
_cell_length_b   9.10729396
_cell_length_c   11.49324478
_cell_angle_alpha   89.82239184
_cell_angle_beta   90.00000000
_cell_angle_gamma   90.00000000
_symmetry_Int_Tables_number   1
_chemical_formula_structural   YbEr3(B6Ru)2
_chemical_formula_sum   'Yb2 Er6 B24 Ru4'
_cell_volume   380.37762884
_cell_formula_units_Z   2
loop_
 _symmetry_equiv_pos_site_id
 _symmetry_equiv_pos_as_xyz
  1  'x, y, z'
loop_
 _atom_site_type_symbol
 _atom_site_label
 _atom_site_symmetry_multiplicity
 _atom_site_fract_x
 _atom_site_fract_y
 _atom_site_fract_z
 _atom_site_occupancy
  Yb  Yb0  1  0.000000  0.325247  0.414632  1
  Yb  Yb1  1  0.000000  0.674753  0.585368  1
  Er  Er2  1  0.000000  0.822675  0.086199  1
  Er  Er3  1  0.000000  0.177325  0.913801  1
  Er  Er4  1  0.000000  0.942224  0.369836  1
  Er  Er5  1  0.000000  0.057776  0.630164  1
  Er  Er6  1  0.000000  0.443058  0.130571  1
  Er  Er7  1  0.000000  0.556942  0.869429  1
  B  B8  1  0.500000  0.554427  0.432360  1
  B  B9  1  0.500000  0.445573  0.567640  1
  B  B10  1  0.500000  0.053565  0.066517  1
  B  B11  1  0.500000  0.946435  0.933483  1
  B  B12  1  0.500000  0.748434  0.418109  1
  B  B13  1  0.500000  0.251566  0.581891  1
  B  B14  1  0.500000  0.248595  0.080793  1
  B  B15  1  0.500000  0.751405  0.919207  1
  B  B16  1  0.500000  0.791790  0.264540  1
  B  B17  1  0.500000  0.208210  0.735460  1
  B  B18  1  0.500000  0.290486  0.234267  1
  B  B19  1  0.500000  0.709514  0.765733  1
  B  B20  1  0.500000  0.631713  0.184834  1
  B  B21  1  0.500000  0.368287  0.815166  1
  B  B22  1  0.500000  0.130851  0.314088  1
  B  B23  1  0.500000  0.869149  0.685912  1
  B  B24  1  0.500000  0.982969  0.211479  1
  B  B25  1  0.500000  0.017031  0.788521  1
  B  B26  1  0.500000  0.484116  0.288065  1
  B  B27  1  0.500000  0.515884  0.711935  1
  B  B28  1  0.500000  0.604092  0.028588  1
  B  B29  1  0.500000  0.395908  0.971412  1
  B  B30  1  0.500000  0.098875  0.472651  1
  B  B31  1  0.500000  0.901125  0.527349  1
  Ru  Ru32  1  0.000000  0.639925  0.318937  1
  Ru  Ru33  1  0.000000  0.360075  0.681063  1
  Ru  Ru34  1  0.000000  0.137364  0.177946  1
  Ru  Ru35  1  0.000000  0.862636  0.822054  1
