# generated using pymatgen
data_Tb2Np2GaNi13
_symmetry_space_group_name_H-M   'P 1'
_cell_length_a   4.95472043
_cell_length_b   4.92638773
_cell_length_c   12.45249500
_cell_angle_alpha   78.62525471
_cell_angle_beta   78.52473782
_cell_angle_gamma   59.80958094
_symmetry_Int_Tables_number   1
_chemical_formula_structural   Tb2Np2GaNi13
_chemical_formula_sum   'Tb2 Np2 Ga1 Ni13'
_cell_volume   255.77144132
_cell_formula_units_Z   1
loop_
 _symmetry_equiv_pos_site_id
 _symmetry_equiv_pos_as_xyz
  1  'x, y, z'
loop_
 _atom_site_type_symbol
 _atom_site_label
 _atom_site_symmetry_multiplicity
 _atom_site_fract_x
 _atom_site_fract_y
 _atom_site_fract_z
 _atom_site_occupancy
  Tb  Tb0  1  0.946128  0.945545  0.162201  1
  Tb  Tb1  1  0.053872  0.054455  0.837799  1
  Np  Np2  1  0.849866  0.846777  0.453493  1
  Np  Np3  1  0.150134  0.153223  0.546507  1
  Ga  Ga4  1  0.500000  0.000000  0.000000  1
  Ni  Ni5  1  0.500000  0.500000  0.500000  1
  Ni  Ni6  1  0.723696  0.719411  0.833195  1
  Ni  Ni7  1  0.276304  0.280589  0.166805  1
  Ni  Ni8  1  0.613113  0.607564  0.166207  1
  Ni  Ni9  1  0.386887  0.392436  0.833793  1
  Ni  Ni10  1  0.000000  0.500000  0.000000  1
  Ni  Ni11  1  0.500000  0.500000  0.000000  1
  Ni  Ni12  1  0.389883  0.389215  0.331331  1
  Ni  Ni13  1  0.889571  0.389215  0.331331  1
  Ni  Ni14  1  0.389011  0.890520  0.331459  1
  Ni  Ni15  1  0.610117  0.610785  0.668669  1
  Ni  Ni16  1  0.110429  0.610785  0.668669  1
  Ni  Ni17  1  0.610989  0.109480  0.668541  1
