# generated using pymatgen
data_DyReF7
_symmetry_space_group_name_H-M   'P 1'
_cell_length_a   5.62491500
_cell_length_b   8.94631378
_cell_length_c   12.08060823
_cell_angle_alpha   62.57681624
_cell_angle_beta   90.00000000
_cell_angle_gamma   90.00000000
_symmetry_Int_Tables_number   1
_chemical_formula_structural   DyReF7
_chemical_formula_sum   'Dy4 Re4 F28'
_cell_volume   539.61053838
_cell_formula_units_Z   4
loop_
 _symmetry_equiv_pos_site_id
 _symmetry_equiv_pos_as_xyz
  1  'x, y, z'
loop_
 _atom_site_type_symbol
 _atom_site_label
 _atom_site_symmetry_multiplicity
 _atom_site_fract_x
 _atom_site_fract_y
 _atom_site_fract_z
 _atom_site_occupancy
  Dy  Dy0  1  0.758175  0.814015  0.764773  1
  Dy  Dy1  1  0.258175  0.185985  0.735227  1
  Dy  Dy2  1  0.241825  0.185985  0.235227  1
  Dy  Dy3  1  0.741825  0.814015  0.264773  1
  Re  Re4  1  0.757246  0.272974  0.956790  1
  Re  Re5  1  0.257246  0.727026  0.543210  1
  Re  Re6  1  0.242754  0.727026  0.043210  1
  Re  Re7  1  0.742754  0.272974  0.456790  1
  F  F8  1  0.448245  0.707241  0.917754  1
  F  F9  1  0.948245  0.292759  0.582246  1
  F  F10  1  0.551755  0.292759  0.082246  1
  F  F11  1  0.051755  0.707241  0.417754  1
  F  F12  1  0.449434  0.278318  0.547254  1
  F  F13  1  0.949434  0.721682  0.952746  1
  F  F14  1  0.550566  0.721682  0.452746  1
  F  F15  1  0.050566  0.278318  0.047254  1
  F  F16  1  0.770814  0.521577  0.858331  1
  F  F17  1  0.270814  0.478423  0.641669  1
  F  F18  1  0.229186  0.478423  0.141669  1
  F  F19  1  0.729186  0.521577  0.358331  1
  F  F20  1  0.757173  0.024854  0.053878  1
  F  F21  1  0.257173  0.975146  0.446122  1
  F  F22  1  0.242827  0.975146  0.946122  1
  F  F23  1  0.742827  0.024854  0.553878  1
  F  F24  1  0.975343  0.729154  0.640825  1
  F  F25  1  0.475343  0.270846  0.859175  1
  F  F26  1  0.024657  0.270846  0.359175  1
  F  F27  1  0.524657  0.729154  0.140825  1
  F  F28  1  0.043171  0.746156  0.172107  1
  F  F29  1  0.543171  0.253844  0.327893  1
  F  F30  1  0.956829  0.253844  0.827893  1
  F  F31  1  0.456829  0.746156  0.672107  1
  F  F32  1  0.420588  0.971288  0.232512  1
  F  F33  1  0.920588  0.028712  0.267488  1
  F  F34  1  0.579412  0.028712  0.767488  1
  F  F35  1  0.079412  0.971288  0.732512  1
