# generated using pymatgen
data_Pr2NiOs3
_symmetry_space_group_name_H-M   'P 1'
_cell_length_a   5.32760898
_cell_length_b   5.32760906
_cell_length_c   5.50502504
_cell_angle_alpha   61.06049205
_cell_angle_beta   61.06049631
_cell_angle_gamma   60.00000814
_symmetry_Int_Tables_number   1
_chemical_formula_structural   Pr2NiOs3
_chemical_formula_sum   'Pr2 Ni1 Os3'
_cell_volume   112.22447927
_cell_formula_units_Z   1
loop_
 _symmetry_equiv_pos_site_id
 _symmetry_equiv_pos_as_xyz
  1  'x, y, z'
loop_
 _atom_site_type_symbol
 _atom_site_label
 _atom_site_symmetry_multiplicity
 _atom_site_fract_x
 _atom_site_fract_y
 _atom_site_fract_z
 _atom_site_occupancy
  Pr  Pr0  1  0.748563  0.748563  0.754310  1
  Pr  Pr1  1  0.501437  0.501437  0.495690  1
  Ni  Ni2  1  0.125000  0.125000  0.625000  1
  Os  Os3  1  0.125000  0.625000  0.125000  1
  Os  Os4  1  0.625000  0.125000  0.125000  1
  Os  Os5  1  0.125000  0.125000  0.125000  1
