# generated using pymatgen
data_LiHoNbB6
_symmetry_space_group_name_H-M   'P 1'
_cell_length_a   3.40349700
_cell_length_b   8.92103900
_cell_length_c   11.27741600
_cell_angle_alpha   90.00000000
_cell_angle_beta   90.00000000
_cell_angle_gamma   90.00000000
_symmetry_Int_Tables_number   1
_chemical_formula_structural   LiHoNbB6
_chemical_formula_sum   'Li4 Ho4 Nb4 B24'
_cell_volume   342.41313117
_cell_formula_units_Z   4
loop_
 _symmetry_equiv_pos_site_id
 _symmetry_equiv_pos_as_xyz
  1  'x, y, z'
loop_
 _atom_site_type_symbol
 _atom_site_label
 _atom_site_symmetry_multiplicity
 _atom_site_fract_x
 _atom_site_fract_y
 _atom_site_fract_z
 _atom_site_occupancy
  Li  Li0  1  0.000000  0.142807  0.182425  1
  Li  Li1  1  0.000000  0.857193  0.817575  1
  Li  Li2  1  0.000000  0.642807  0.317575  1
  Li  Li3  1  0.000000  0.357193  0.682425  1
  Ho  Ho4  1  0.000000  0.821272  0.086821  1
  Ho  Ho5  1  0.000000  0.178728  0.913179  1
  Ho  Ho6  1  0.000000  0.321272  0.413179  1
  Ho  Ho7  1  0.000000  0.678728  0.586821  1
  Nb  Nb8  1  0.000000  0.444676  0.128538  1
  Nb  Nb9  1  0.000000  0.555324  0.871462  1
  Nb  Nb10  1  0.000000  0.944676  0.371462  1
  Nb  Nb11  1  0.000000  0.055324  0.628538  1
  B  B12  1  0.500000  0.051810  0.065098  1
  B  B13  1  0.500000  0.948190  0.934902  1
  B  B14  1  0.500000  0.551810  0.434902  1
  B  B15  1  0.500000  0.448190  0.565098  1
  B  B16  1  0.500000  0.253486  0.082665  1
  B  B17  1  0.500000  0.746514  0.917335  1
  B  B18  1  0.500000  0.753486  0.417335  1
  B  B19  1  0.500000  0.246514  0.582665  1
  B  B20  1  0.500000  0.298748  0.235222  1
  B  B21  1  0.500000  0.701252  0.764778  1
  B  B22  1  0.500000  0.798748  0.264778  1
  B  B23  1  0.500000  0.201252  0.735222  1
  B  B24  1  0.500000  0.128852  0.317792  1
  B  B25  1  0.500000  0.871148  0.682208  1
  B  B26  1  0.500000  0.628852  0.182208  1
  B  B27  1  0.500000  0.371148  0.817792  1
  B  B28  1  0.500000  0.481353  0.286016  1
  B  B29  1  0.500000  0.518647  0.713984  1
  B  B30  1  0.500000  0.981353  0.213984  1
  B  B31  1  0.500000  0.018647  0.786016  1
  B  B32  1  0.500000  0.099094  0.473585  1
  B  B33  1  0.500000  0.900906  0.526415  1
  B  B34  1  0.500000  0.599094  0.026415  1
  B  B35  1  0.500000  0.400906  0.973585  1
