# generated using pymatgen
data_Er4GaTc4Ru3
_symmetry_space_group_name_H-M   'P 1'
_cell_length_a   5.30267234
_cell_length_b   5.23987005
_cell_length_c   9.01381800
_cell_angle_alpha   90.00000000
_cell_angle_beta   90.00000000
_cell_angle_gamma   119.87669345
_symmetry_Int_Tables_number   1
_chemical_formula_structural   Er4GaTc4Ru3
_chemical_formula_sum   'Er4 Ga1 Tc4 Ru3'
_cell_volume   217.16658593
_cell_formula_units_Z   1
loop_
 _symmetry_equiv_pos_site_id
 _symmetry_equiv_pos_as_xyz
  1  'x, y, z'
loop_
 _atom_site_type_symbol
 _atom_site_label
 _atom_site_symmetry_multiplicity
 _atom_site_fract_x
 _atom_site_fract_y
 _atom_site_fract_z
 _atom_site_occupancy
  Er  Er0  1  0.330000  0.662852  0.437772  1
  Er  Er1  1  0.668843  0.331961  0.563266  1
  Er  Er2  1  0.668843  0.331961  0.936734  1
  Er  Er3  1  0.330000  0.662852  0.062228  1
  Ga  Ga4  1  0.337713  0.173180  0.250000  1
  Tc  Tc5  1  0.176790  0.347616  0.750000  1
  Tc  Tc6  1  0.173423  0.831258  0.750000  1
  Tc  Tc7  1  0.835397  0.669274  0.250000  1
  Tc  Tc8  1  0.666600  0.831883  0.750000  1
  Ru  Ru9  1  0.988792  0.984591  0.002726  1
  Ru  Ru10  1  0.834804  0.187981  0.250000  1
  Ru  Ru11  1  0.988792  0.984591  0.497274  1
