# generated using pymatgen
data_Tm2Co3Ni
_symmetry_space_group_name_H-M   'P 1'
_cell_length_a   5.09599652
_cell_length_b   4.94780639
_cell_length_c   4.94780600
_cell_angle_alpha   60.00000258
_cell_angle_beta   60.95737845
_cell_angle_gamma   60.95737653
_symmetry_Int_Tables_number   1
_chemical_formula_structural   Tm2Co3Ni
_chemical_formula_sum   'Tm2 Co3 Ni1'
_cell_volume   89.46945154
_cell_formula_units_Z   1
loop_
 _symmetry_equiv_pos_site_id
 _symmetry_equiv_pos_as_xyz
  1  'x, y, z'
loop_
 _atom_site_type_symbol
 _atom_site_label
 _atom_site_symmetry_multiplicity
 _atom_site_fract_x
 _atom_site_fract_y
 _atom_site_fract_z
 _atom_site_occupancy
  Tm  Tm0  1  0.491078  0.502974  0.502974  1
  Tm  Tm1  1  0.758922  0.747026  0.747026  1
  Co  Co2  1  0.125000  0.125000  0.625000  1
  Co  Co3  1  0.125000  0.625000  0.125000  1
  Co  Co4  1  0.125000  0.125000  0.125000  1
  Ni  Ni5  1  0.625000  0.125000  0.125000  1
