# generated using pymatgen
data_YbLu(Al5Os)4
_symmetry_space_group_name_H-M   'P 1'
_cell_length_a   6.87305910
_cell_length_b   6.87305944
_cell_length_c   9.14495800
_cell_angle_alpha   90.00000000
_cell_angle_beta   90.00000000
_cell_angle_gamma   96.45170253
_symmetry_Int_Tables_number   1
_chemical_formula_structural   YbLu(Al5Os)4
_chemical_formula_sum   'Yb1 Lu1 Al20 Os4'
_cell_volume   429.26228074
_cell_formula_units_Z   1
loop_
 _symmetry_equiv_pos_site_id
 _symmetry_equiv_pos_as_xyz
  1  'x, y, z'
loop_
 _atom_site_type_symbol
 _atom_site_label
 _atom_site_symmetry_multiplicity
 _atom_site_fract_x
 _atom_site_fract_y
 _atom_site_fract_z
 _atom_site_occupancy
  Yb  Yb0  1  0.872892  0.127108  0.750000  1
  Lu  Lu1  1  0.128734  0.871266  0.250000  1
  Al  Al2  1  0.521661  0.783478  0.750000  1
  Al  Al3  1  0.782189  0.519479  0.250000  1
  Al  Al4  1  0.480521  0.217811  0.250000  1
  Al  Al5  1  0.216522  0.478339  0.750000  1
  Al  Al6  1  0.623981  0.376019  0.958740  1
  Al  Al7  1  0.375962  0.624038  0.049440  1
  Al  Al8  1  0.623981  0.376019  0.541260  1
  Al  Al9  1  0.375962  0.624038  0.450560  1
  Al  Al10  1  0.414292  0.145341  0.750000  1
  Al  Al11  1  0.146826  0.420033  0.250000  1
  Al  Al12  1  0.579967  0.853174  0.250000  1
  Al  Al13  1  0.854659  0.585708  0.750000  1
  Al  Al14  1  0.846747  0.153253  0.399103  1
  Al  Al15  1  0.157820  0.842180  0.600715  1
  Al  Al16  1  0.846747  0.153253  0.100897  1
  Al  Al17  1  0.157820  0.842180  0.899285  1
  Al  Al18  1  0.775542  0.776767  0.001662  1
  Al  Al19  1  0.775542  0.776767  0.498338  1
  Al  Al20  1  0.223233  0.224458  0.001662  1
  Al  Al21  1  0.223233  0.224458  0.498338  1
  Os  Os22  1  0.498038  0.000455  0.000764  1
  Os  Os23  1  0.999545  0.501962  0.000764  1
  Os  Os24  1  0.498038  0.000455  0.499236  1
  Os  Os25  1  0.999545  0.501962  0.499236  1
