# generated using pymatgen
data_Li2Ru2(OF2)3
_symmetry_space_group_name_H-M   'P 1'
_cell_length_a   5.53010400
_cell_length_b   5.53010402
_cell_length_c   20.65031000
_cell_angle_alpha   90.00000000
_cell_angle_beta   90.00000000
_cell_angle_gamma   120.00001182
_symmetry_Int_Tables_number   1
_chemical_formula_structural   Li2Ru2(OF2)3
_chemical_formula_sum   'Li6 Ru6 O9 F18'
_cell_volume   546.91993695
_cell_formula_units_Z   3
loop_
 _symmetry_equiv_pos_site_id
 _symmetry_equiv_pos_as_xyz
  1  'x, y, z'
loop_
 _atom_site_type_symbol
 _atom_site_label
 _atom_site_symmetry_multiplicity
 _atom_site_fract_x
 _atom_site_fract_y
 _atom_site_fract_z
 _atom_site_occupancy
  Li  Li0  1  0.438797  0.448313  0.142677  1
  Li  Li1  1  0.990485  0.551687  0.523989  1
  Li  Li2  1  0.448313  0.438797  0.857323  1
  Li  Li3  1  0.551687  0.990485  0.476011  1
  Li  Li4  1  0.561203  0.009515  0.190656  1
  Li  Li5  1  0.009515  0.561203  0.809344  1
  Ru  Ru6  1  0.773873  0.106607  0.043771  1
  Ru  Ru7  1  0.667266  0.893393  0.622896  1
  Ru  Ru8  1  0.226127  0.332734  0.289563  1
  Ru  Ru9  1  0.893393  0.667266  0.377104  1
  Ru  Ru10  1  0.332734  0.226127  0.710437  1
  Ru  Ru11  1  0.106607  0.773873  0.956229  1
  O  O12  1  0.101626  0.000000  0.333333  1
  O  O13  1  0.898374  0.898374  0.000000  1
  O  O14  1  0.506983  0.580226  0.674813  1
  O  O15  1  0.580226  0.506983  0.325187  1
  O  O16  1  0.419774  0.926757  0.008147  1
  O  O17  1  0.000000  0.101626  0.666667  1
  O  O18  1  0.926757  0.419774  0.991853  1
  O  O19  1  0.073243  0.493017  0.341480  1
  O  O20  1  0.493017  0.073243  0.658520  1
  F  F21  1  0.360923  0.701858  0.558859  1
  F  F22  1  0.157681  0.876689  0.759283  1
  F  F23  1  0.280994  0.123311  0.907384  1
  F  F24  1  0.828093  0.635783  0.884261  1
  F  F25  1  0.659065  0.298142  0.107808  1
  F  F26  1  0.635783  0.828093  0.115739  1
  F  F27  1  0.192311  0.364217  0.782406  1
  F  F28  1  0.171907  0.807689  0.449072  1
  F  F29  1  0.639077  0.340935  0.774474  1
  F  F30  1  0.719006  0.842319  0.425950  1
  F  F31  1  0.364217  0.192311  0.217594  1
  F  F32  1  0.123311  0.280994  0.092616  1
  F  F33  1  0.876689  0.157681  0.240717  1
  F  F34  1  0.340935  0.639077  0.225526  1
  F  F35  1  0.298142  0.659065  0.892192  1
  F  F36  1  0.701858  0.360923  0.441141  1
  F  F37  1  0.807689  0.171907  0.550928  1
  F  F38  1  0.842319  0.719006  0.574050  1
