# generated using pymatgen
data_Y4Er4B24MoRu3
_symmetry_space_group_name_H-M   'P 1'
_cell_length_a   3.64799400
_cell_length_b   9.14095762
_cell_length_c   11.53386902
_cell_angle_alpha   89.87057184
_cell_angle_beta   90.00000000
_cell_angle_gamma   90.00000000
_symmetry_Int_Tables_number   1
_chemical_formula_structural   Y4Er4B24MoRu3
_chemical_formula_sum   'Y4 Er4 B24 Mo1 Ru3'
_cell_volume   384.60924367
_cell_formula_units_Z   1
loop_
 _symmetry_equiv_pos_site_id
 _symmetry_equiv_pos_as_xyz
  1  'x, y, z'
loop_
 _atom_site_type_symbol
 _atom_site_label
 _atom_site_symmetry_multiplicity
 _atom_site_fract_x
 _atom_site_fract_y
 _atom_site_fract_z
 _atom_site_occupancy
  Y  Y0  1  0.000000  0.322049  0.413523  1
  Y  Y1  1  0.000000  0.677671  0.584718  1
  Y  Y2  1  0.000000  0.820379  0.087103  1
  Y  Y3  1  0.000000  0.177347  0.914774  1
  Er  Er4  1  0.000000  0.945269  0.372422  1
  Er  Er5  1  0.000000  0.058179  0.629215  1
  Er  Er6  1  0.000000  0.442610  0.126992  1
  Er  Er7  1  0.000000  0.557234  0.870406  1
  B  B8  1  0.500000  0.551349  0.435234  1
  B  B9  1  0.500000  0.445898  0.568388  1
  B  B10  1  0.500000  0.053663  0.067421  1
  B  B11  1  0.500000  0.945774  0.932869  1
  B  B12  1  0.500000  0.751146  0.421069  1
  B  B13  1  0.500000  0.251882  0.581741  1
  B  B14  1  0.500000  0.248278  0.080775  1
  B  B15  1  0.500000  0.751125  0.918435  1
  B  B16  1  0.500000  0.794173  0.264754  1
  B  B17  1  0.500000  0.209096  0.734549  1
  B  B18  1  0.500000  0.290514  0.232871  1
  B  B19  1  0.500000  0.709685  0.765780  1
  B  B20  1  0.500000  0.630964  0.183237  1
  B  B21  1  0.500000  0.368702  0.814873  1
  B  B22  1  0.500000  0.130963  0.313856  1
  B  B23  1  0.500000  0.870014  0.685748  1
  B  B24  1  0.500000  0.983463  0.212828  1
  B  B25  1  0.500000  0.016993  0.788087  1
  B  B26  1  0.500000  0.478473  0.286338  1
  B  B27  1  0.500000  0.516364  0.712989  1
  B  B28  1  0.500000  0.604477  0.027338  1
  B  B29  1  0.500000  0.394621  0.969994  1
  B  B30  1  0.500000  0.105911  0.471576  1
  B  B31  1  0.500000  0.897225  0.530029  1
  Mo  Mo32  1  0.000000  0.637802  0.320763  1
  Ru  Ru33  1  0.000000  0.360706  0.680884  1
  Ru  Ru34  1  0.000000  0.137984  0.178134  1
  Ru  Ru35  1  0.000000  0.862017  0.820290  1
