# generated using pymatgen
data_Be12Tc
_symmetry_space_group_name_H-M   'P 1'
_cell_length_a   5.49172433
_cell_length_b   5.49172392
_cell_length_c   5.49172512
_cell_angle_alpha   98.29015990
_cell_angle_beta   98.29014992
_cell_angle_gamma   135.36750191
_symmetry_Int_Tables_number   1
_chemical_formula_structural   Be12Tc
_chemical_formula_sum   'Be12 Tc1'
_cell_volume   107.64585387
_cell_formula_units_Z   1
loop_
 _symmetry_equiv_pos_site_id
 _symmetry_equiv_pos_as_xyz
  1  'x, y, z'
loop_
 _atom_site_type_symbol
 _atom_site_label
 _atom_site_symmetry_multiplicity
 _atom_site_fract_x
 _atom_site_fract_y
 _atom_site_fract_z
 _atom_site_occupancy
  Be  Be0  1  0.500000  0.000000  0.000000  1
  Be  Be1  1  0.000000  0.500000  0.000000  1
  Be  Be2  1  0.711102  0.499999  0.211103  1
  Be  Be3  1  0.499999  0.711102  0.211103  1
  Be  Be4  1  0.349415  0.000000  0.349415  1
  Be  Be5  1  0.000000  0.349415  0.349415  1
  Be  Be6  1  0.000000  0.000000  0.500001  1
  Be  Be7  1  0.500000  0.500000  0.500001  1
  Be  Be8  1  0.650584  0.000000  0.650584  1
  Be  Be9  1  0.000000  0.650584  0.650584  1
  Be  Be10  1  0.500001  0.288898  0.788898  1
  Be  Be11  1  0.288898  0.500001  0.788898  1
  Tc  Tc12  1  0.000000  0.000000  0.000000  1
