# generated using pymatgen
data_Dy3Y3Al6V4O24
_symmetry_space_group_name_H-M   'P 1'
_cell_length_a   10.67950692
_cell_length_b   10.68506334
_cell_length_c   10.65665214
_cell_angle_alpha   109.50749203
_cell_angle_beta   109.45520530
_cell_angle_gamma   109.51259669
_symmetry_Int_Tables_number   1
_chemical_formula_structural   Dy3Y3Al6V4O24
_chemical_formula_sum   'Dy6 Y6 Al12 V8 O48'
_cell_volume   935.39776185
_cell_formula_units_Z   2
loop_
 _symmetry_equiv_pos_site_id
 _symmetry_equiv_pos_as_xyz
  1  'x, y, z'
loop_
 _atom_site_type_symbol
 _atom_site_label
 _atom_site_symmetry_multiplicity
 _atom_site_fract_x
 _atom_site_fract_y
 _atom_site_fract_z
 _atom_site_occupancy
  Dy  Dy0  1  0.376019  0.750054  0.123670  1
  Dy  Dy1  1  0.246995  0.373867  0.123447  1
  Dy  Dy2  1  0.375453  0.125223  0.251069  1
  Dy  Dy3  1  0.874998  0.625670  0.250448  1
  Dy  Dy4  1  0.750170  0.124237  0.376674  1
  Dy  Dy5  1  0.126502  0.252127  0.375883  1
  Y  Y6  1  0.249740  0.875663  0.623317  1
  Y  Y7  1  0.873566  0.747928  0.624052  1
  Y  Y8  1  0.125014  0.374338  0.749546  1
  Y  Y9  1  0.624576  0.874785  0.748985  1
  Y  Y10  1  0.752913  0.626105  0.876575  1
  Y  Y11  1  0.624094  0.250051  0.876369  1
  Al  Al12  1  0.875587  0.250767  0.125528  1
  Al  Al13  1  0.750526  0.875278  0.125455  1
  Al  Al14  1  0.124987  0.874769  0.250067  1
  Al  Al15  1  0.625093  0.375132  0.249934  1
  Al  Al16  1  0.249717  0.624692  0.374809  1
  Al  Al17  1  0.625131  0.750037  0.374784  1
  Al  Al18  1  0.749984  0.374897  0.624751  1
  Al  Al19  1  0.374709  0.249923  0.624781  1
  Al  Al20  1  0.875173  0.125384  0.749925  1
  Al  Al21  1  0.374732  0.624708  0.750071  1
  Al  Al22  1  0.249507  0.124873  0.874980  1
  Al  Al23  1  0.124827  0.749548  0.874928  1
  V  V24  1  0.000252  0.000286  0.000302  1
  V  V25  1  0.500057  0.000026  0.000333  1
  V  V26  1  0.500016  0.500113  0.000260  1
  V  V27  1  0.000255  0.500151  0.000273  1
  V  V28  1  0.499967  0.999929  0.499671  1
  V  V29  1  0.999834  0.499723  0.499706  1
  V  V30  1  0.999881  0.999985  0.499705  1
  V  V31  1  0.499702  0.499736  0.499669  1
  O  O32  1  0.208838  0.123042  0.024375  1
  O  O33  1  0.314330  0.900399  0.024869  1
  O  O34  1  0.710556  0.686089  0.086626  1
  O  O35  1  0.877394  0.400957  0.085749  1
  O  O36  1  0.975388  0.686025  0.099182  1
  O  O37  1  0.624168  0.413564  0.099268  1
  O  O38  1  0.599999  0.913919  0.124760  1
  O  O39  1  0.025005  0.211112  0.124963  1
  O  O40  1  0.210141  0.586518  0.185132  1
  O  O41  1  0.476539  0.598952  0.184401  1
  O  O42  1  0.584727  0.184543  0.207667  1
  O  O43  1  0.123980  0.023931  0.209243  1
  O  O44  1  0.476426  0.376685  0.291815  1
  O  O45  1  0.315554  0.915028  0.292101  1
  O  O46  1  0.914120  0.291849  0.315683  1
  O  O47  1  0.901469  0.024278  0.315659  1
  O  O48  1  0.289116  0.475002  0.375471  1
  O  O49  1  0.585431  0.900037  0.375725  1
  O  O50  1  0.814011  0.524676  0.400503  1
  O  O51  1  0.086985  0.876072  0.400971  1
  O  O52  1  0.814465  0.790413  0.413581  1
  O  O53  1  0.098767  0.623328  0.412925  1
  O  O54  1  0.375969  0.289796  0.475105  1
  O  O55  1  0.599062  0.185777  0.474353  1
  O  O56  1  0.400591  0.813879  0.524854  1
  O  O57  1  0.623564  0.709729  0.524093  1
  O  O58  1  0.900601  0.376158  0.586183  1
  O  O59  1  0.185263  0.209189  0.585510  1
  O  O60  1  0.912258  0.123627  0.598368  1
  O  O61  1  0.186091  0.474970  0.598852  1
  O  O62  1  0.710251  0.524310  0.623952  1
  O  O63  1  0.414585  0.100058  0.623703  1
  O  O64  1  0.098617  0.976383  0.684490  1
  O  O65  1  0.085959  0.707640  0.684489  1
  O  O66  1  0.684542  0.084994  0.707405  1
  O  O67  1  0.522982  0.622778  0.707698  1
  O  O68  1  0.415251  0.815367  0.792842  1
  O  O69  1  0.876570  0.976681  0.791290  1
  O  O70  1  0.790390  0.413414  0.814709  1
  O  O71  1  0.522809  0.400972  0.815428  1
  O  O72  1  0.975674  0.789533  0.875616  1
  O  O73  1  0.399912  0.086047  0.875820  1
  O  O74  1  0.024969  0.313870  0.901464  1
  O  O75  1  0.376120  0.587176  0.901381  1
  O  O76  1  0.289834  0.314181  0.914262  1
  O  O77  1  0.123137  0.599692  0.915158  1
  O  O78  1  0.686020  0.099934  0.975929  1
  O  O79  1  0.791601  0.877420  0.976414  1
