# generated using pymatgen
data_EuGe6(As3Pt2)2
_symmetry_space_group_name_H-M   'P 1'
_cell_length_a   7.55042675
_cell_length_b   7.55039019
_cell_length_c   7.55795925
_cell_angle_alpha   109.42323432
_cell_angle_beta   109.45503588
_cell_angle_gamma   109.49388866
_symmetry_Int_Tables_number   1
_chemical_formula_structural   EuGe6(As3Pt2)2
_chemical_formula_sum   'Eu1 Ge6 As6 Pt4'
_cell_volume   331.85294280
_cell_formula_units_Z   1
loop_
 _symmetry_equiv_pos_site_id
 _symmetry_equiv_pos_as_xyz
  1  'x, y, z'
loop_
 _atom_site_type_symbol
 _atom_site_label
 _atom_site_symmetry_multiplicity
 _atom_site_fract_x
 _atom_site_fract_y
 _atom_site_fract_z
 _atom_site_occupancy
  Eu  Eu0  1  0.007321  0.997089  0.004393  1
  Ge  Ge1  1  0.150422  0.356595  0.507016  1
  Ge  Ge2  1  0.798854  0.150742  0.654379  1
  Ge  Ge3  1  0.503645  0.855535  0.654388  1
  Ge  Ge4  1  0.148123  0.644824  0.792949  1
  Ge  Ge5  1  0.350656  0.201431  0.844037  1
  Ge  Ge6  1  0.642594  0.493349  0.844015  1
  As  As7  1  0.347933  0.493657  0.139325  1
  As  As8  1  0.645670  0.791398  0.139318  1
  As  As9  1  0.854219  0.350577  0.204796  1
  As  As10  1  0.500443  0.149072  0.357282  1
  As  As11  1  0.208206  0.856834  0.357284  1
  As  As12  1  0.855296  0.651282  0.506577  1
  Pt  Pt13  1  0.494050  0.000124  0.001196  1
  Pt  Pt14  1  0.001069  0.507156  0.001199  1
  Pt  Pt15  1  0.994874  0.999297  0.495927  1
  Pt  Pt16  1  0.496624  0.501037  0.495919  1
