# generated using pymatgen
data_TbTmGa2RuPt
_symmetry_space_group_name_H-M   'P 1'
_cell_length_a   4.33419000
_cell_length_b   6.84786400
_cell_length_c   7.79105700
_cell_angle_alpha   90.00000000
_cell_angle_beta   90.00000000
_cell_angle_gamma   90.00000000
_symmetry_Int_Tables_number   1
_chemical_formula_structural   TbTmGa2RuPt
_chemical_formula_sum   'Tb2 Tm2 Ga4 Ru2 Pt2'
_cell_volume   231.23813289
_cell_formula_units_Z   2
loop_
 _symmetry_equiv_pos_site_id
 _symmetry_equiv_pos_as_xyz
  1  'x, y, z'
loop_
 _atom_site_type_symbol
 _atom_site_label
 _atom_site_symmetry_multiplicity
 _atom_site_fract_x
 _atom_site_fract_y
 _atom_site_fract_z
 _atom_site_occupancy
  Tb  Tb0  1  0.250000  0.974582  0.315191  1
  Tb  Tb1  1  0.250000  0.474582  0.184809  1
  Tm  Tm2  1  0.750000  0.019844  0.694633  1
  Tm  Tm3  1  0.750000  0.519844  0.805367  1
  Ga  Ga4  1  0.250000  0.344763  0.574050  1
  Ga  Ga5  1  0.250000  0.844763  0.925950  1
  Ga  Ga6  1  0.750000  0.663203  0.436565  1
  Ga  Ga7  1  0.750000  0.163203  0.063435  1
  Ru  Ru8  1  0.250000  0.228990  0.889772  1
  Ru  Ru9  1  0.250000  0.728990  0.610228  1
  Pt  Pt10  1  0.750000  0.768620  0.107093  1
  Pt  Pt11  1  0.750000  0.268620  0.392907  1
