# generated using pymatgen
data_Tb6Tm10Cd4OsPt3
_symmetry_space_group_name_H-M   'P 1'
_cell_length_a   9.63905393
_cell_length_b   9.63905403
_cell_length_c   9.63905370
_cell_angle_alpha   59.52382778
_cell_angle_beta   59.52382396
_cell_angle_gamma   59.52382858
_symmetry_Int_Tables_number   1
_chemical_formula_structural   Tb6Tm10Cd4OsPt3
_chemical_formula_sum   'Tb6 Tm10 Cd4 Os1 Pt3'
_cell_volume   626.41203038
_cell_formula_units_Z   1
loop_
 _symmetry_equiv_pos_site_id
 _symmetry_equiv_pos_as_xyz
  1  'x, y, z'
loop_
 _atom_site_type_symbol
 _atom_site_label
 _atom_site_symmetry_multiplicity
 _atom_site_fract_x
 _atom_site_fract_y
 _atom_site_fract_z
 _atom_site_occupancy
  Tb  Tb0  1  0.936683  0.564057  0.564057  1
  Tb  Tb1  1  0.556393  0.939788  0.939788  1
  Tb  Tb2  1  0.564057  0.936683  0.564057  1
  Tb  Tb3  1  0.939788  0.556393  0.939788  1
  Tb  Tb4  1  0.564057  0.564057  0.936683  1
  Tb  Tb5  1  0.939788  0.939788  0.556393  1
  Tm  Tm6  1  0.351385  0.351385  0.351385  1
  Tm  Tm7  1  0.350081  0.350081  0.949418  1
  Tm  Tm8  1  0.350081  0.949418  0.350081  1
  Tm  Tm9  1  0.949418  0.350081  0.350081  1
  Tm  Tm10  1  0.815587  0.187494  0.187494  1
  Tm  Tm11  1  0.185915  0.811151  0.811151  1
  Tm  Tm12  1  0.187494  0.815587  0.187494  1
  Tm  Tm13  1  0.811151  0.185915  0.811151  1
  Tm  Tm14  1  0.187494  0.187494  0.815587  1
  Tm  Tm15  1  0.811151  0.811151  0.185915  1
  Cd  Cd16  1  0.579589  0.579589  0.579589  1
  Cd  Cd17  1  0.580284  0.580284  0.256055  1
  Cd  Cd18  1  0.580284  0.256055  0.580284  1
  Cd  Cd19  1  0.256055  0.580284  0.580284  1
  Os  Os20  1  0.143489  0.143489  0.143489  1
  Pt  Pt21  1  0.143623  0.143623  0.572531  1
  Pt  Pt22  1  0.143623  0.572531  0.143623  1
  Pt  Pt23  1  0.572531  0.143623  0.143623  1
