# generated using pymatgen
data_Co7Si16Ru
_symmetry_space_group_name_H-M   'P 1'
_cell_length_a   6.55130088
_cell_length_b   6.55130120
_cell_length_c   7.70845636
_cell_angle_alpha   88.48372774
_cell_angle_beta   88.48372756
_cell_angle_gamma   108.20510811
_symmetry_Int_Tables_number   1
_chemical_formula_structural   Co7Si16Ru
_chemical_formula_sum   'Co7 Si16 Ru1'
_cell_volume   313.96260628
_cell_formula_units_Z   1
loop_
 _symmetry_equiv_pos_site_id
 _symmetry_equiv_pos_as_xyz
  1  'x, y, z'
loop_
 _atom_site_type_symbol
 _atom_site_label
 _atom_site_symmetry_multiplicity
 _atom_site_fract_x
 _atom_site_fract_y
 _atom_site_fract_z
 _atom_site_occupancy
  Co  Co0  1  0.269282  0.269282  0.265236  1
  Co  Co1  1  0.727833  0.727833  0.736875  1
  Co  Co2  1  0.757926  0.757926  0.235323  1
  Co  Co3  1  0.245298  0.742896  0.494728  1
  Co  Co4  1  0.246340  0.785763  0.993372  1
  Co  Co5  1  0.742896  0.245298  0.494728  1
  Co  Co6  1  0.785763  0.246340  0.993372  1
  Si  Si7  1  0.382668  0.644914  0.245285  1
  Si  Si8  1  0.097998  0.842621  0.733401  1
  Si  Si9  1  0.131628  0.888635  0.255251  1
  Si  Si10  1  0.360607  0.622068  0.750044  1
  Si  Si11  1  0.622068  0.360607  0.750044  1
  Si  Si12  1  0.888635  0.131628  0.255251  1
  Si  Si13  1  0.842621  0.097998  0.733401  1
  Si  Si14  1  0.644914  0.382668  0.245285  1
  Si  Si15  1  0.144855  0.415207  0.028371  1
  Si  Si16  1  0.370018  0.119716  0.509555  1
  Si  Si17  1  0.868749  0.619406  0.488783  1
  Si  Si18  1  0.621747  0.870807  0.988724  1
  Si  Si19  1  0.870807  0.621747  0.988724  1
  Si  Si20  1  0.619406  0.868749  0.488783  1
  Si  Si21  1  0.119716  0.370018  0.509555  1
  Si  Si22  1  0.415207  0.144855  0.028371  1
  Ru  Ru23  1  0.223017  0.223017  0.787535  1
