# generated using pymatgen
data_YbY3Ir8
_symmetry_space_group_name_H-M   'P 1'
_cell_length_a   5.35932800
_cell_length_b   5.35932696
_cell_length_c   8.70926800
_cell_angle_alpha   90.00000000
_cell_angle_beta   90.00000000
_cell_angle_gamma   120.00000639
_symmetry_Int_Tables_number   1
_chemical_formula_structural   YbY3Ir8
_chemical_formula_sum   'Yb1 Y3 Ir8'
_cell_volume   216.63710803
_cell_formula_units_Z   1
loop_
 _symmetry_equiv_pos_site_id
 _symmetry_equiv_pos_as_xyz
  1  'x, y, z'
loop_
 _atom_site_type_symbol
 _atom_site_label
 _atom_site_symmetry_multiplicity
 _atom_site_fract_x
 _atom_site_fract_y
 _atom_site_fract_z
 _atom_site_occupancy
  Yb  Yb0  1  0.666666  0.333334  0.934586  1
  Y  Y1  1  0.333334  0.666667  0.062335  1
  Y  Y2  1  0.333334  0.666667  0.431481  1
  Y  Y3  1  0.666666  0.333334  0.574159  1
  Ir  Ir4  1  0.000000  0.000000  0.999212  1
  Ir  Ir5  1  0.339892  0.169946  0.250367  1
  Ir  Ir6  1  0.830055  0.169946  0.250367  1
  Ir  Ir7  1  0.830053  0.660107  0.250367  1
  Ir  Ir8  1  0.000000  0.000000  0.499469  1
  Ir  Ir9  1  0.169591  0.339182  0.749218  1
  Ir  Ir10  1  0.169591  0.830408  0.749218  1
  Ir  Ir11  1  0.660817  0.830408  0.749218  1
