# generated using pymatgen
data_YbEr3(SiPt2)4
_symmetry_space_group_name_H-M   'P 1'
_cell_length_a   5.51371104
_cell_length_b   6.96188100
_cell_length_c   7.29849306
_cell_angle_alpha   90.00000000
_cell_angle_beta   89.98580497
_cell_angle_gamma   90.00000000
_symmetry_Int_Tables_number   1
_chemical_formula_structural   YbEr3(SiPt2)4
_chemical_formula_sum   'Yb1 Er3 Si4 Pt8'
_cell_volume   280.15848721
_cell_formula_units_Z   1
loop_
 _symmetry_equiv_pos_site_id
 _symmetry_equiv_pos_as_xyz
  1  'x, y, z'
loop_
 _atom_site_type_symbol
 _atom_site_label
 _atom_site_symmetry_multiplicity
 _atom_site_fract_x
 _atom_site_fract_y
 _atom_site_fract_z
 _atom_site_occupancy
  Yb  Yb0  1  0.866622  0.250000  0.522845  1
  Er  Er1  1  0.134223  0.750000  0.475702  1
  Er  Er2  1  0.366020  0.750000  0.976124  1
  Er  Er3  1  0.634821  0.250000  0.024585  1
  Si  Si4  1  0.133163  0.250000  0.877824  1
  Si  Si5  1  0.368334  0.250000  0.380430  1
  Si  Si6  1  0.632441  0.750000  0.620904  1
  Si  Si7  1  0.867311  0.750000  0.121672  1
  Pt  Pt8  1  0.098876  0.050658  0.179009  1
  Pt  Pt9  1  0.098876  0.449342  0.179009  1
  Pt  Pt10  1  0.403927  0.049940  0.679342  1
  Pt  Pt11  1  0.403927  0.450060  0.679342  1
  Pt  Pt12  1  0.592531  0.550950  0.318313  1
  Pt  Pt13  1  0.592531  0.949050  0.318313  1
  Pt  Pt14  1  0.903198  0.551555  0.823292  1
  Pt  Pt15  1  0.903198  0.948445  0.823292  1
