# generated using pymatgen
data_AlB2Ru5W2
_symmetry_space_group_name_H-M   'P 1'
_cell_length_a   9.30749000
_cell_length_b   9.30749000
_cell_length_c   2.91572800
_cell_angle_alpha   90.00000000
_cell_angle_beta   90.00000000
_cell_angle_gamma   90.00000000
_symmetry_Int_Tables_number   1
_chemical_formula_structural   AlB2Ru5W2
_chemical_formula_sum   'Al2 B4 Ru10 W4'
_cell_volume   252.58768002
_cell_formula_units_Z   2
loop_
 _symmetry_equiv_pos_site_id
 _symmetry_equiv_pos_as_xyz
  1  'x, y, z'
loop_
 _atom_site_type_symbol
 _atom_site_label
 _atom_site_symmetry_multiplicity
 _atom_site_fract_x
 _atom_site_fract_y
 _atom_site_fract_z
 _atom_site_occupancy
  Al  Al0  1  0.000000  0.000000  0.000000  1
  Al  Al1  1  0.500000  0.500000  0.000000  1
  B  B2  1  0.125277  0.625277  0.000000  1
  B  B3  1  0.874723  0.374723  0.000000  1
  B  B4  1  0.625277  0.874723  0.000000  1
  B  B5  1  0.374723  0.125277  0.000000  1
  Ru  Ru6  1  0.215310  0.067900  0.500000  1
  Ru  Ru7  1  0.784690  0.932100  0.500000  1
  Ru  Ru8  1  0.067900  0.784690  0.500000  1
  Ru  Ru9  1  0.715310  0.432100  0.500000  1
  Ru  Ru10  1  0.932100  0.215310  0.500000  1
  Ru  Ru11  1  0.284690  0.567900  0.500000  1
  Ru  Ru12  1  0.567900  0.715310  0.500000  1
  Ru  Ru13  1  0.432100  0.284690  0.500000  1
  Ru  Ru14  1  0.500000  0.000000  0.500000  1
  Ru  Ru15  1  0.000000  0.500000  0.500000  1
  W  W16  1  0.678311  0.178311  0.000000  1
  W  W17  1  0.321689  0.821689  0.000000  1
  W  W18  1  0.178311  0.321689  0.000000  1
  W  W19  1  0.821689  0.678311  0.000000  1
