# generated using pymatgen
data_LiTb16In3Ir4
_symmetry_space_group_name_H-M   'P 1'
_cell_length_a   9.70753739
_cell_length_b   9.70753683
_cell_length_c   9.70753699
_cell_angle_alpha   59.86575237
_cell_angle_beta   59.86575146
_cell_angle_gamma   59.86575371
_symmetry_Int_Tables_number   1
_chemical_formula_structural   LiTb16In3Ir4
_chemical_formula_sum   'Li1 Tb16 In3 Ir4'
_cell_volume   644.89226868
_cell_formula_units_Z   1
loop_
 _symmetry_equiv_pos_site_id
 _symmetry_equiv_pos_as_xyz
  1  'x, y, z'
loop_
 _atom_site_type_symbol
 _atom_site_label
 _atom_site_symmetry_multiplicity
 _atom_site_fract_x
 _atom_site_fract_y
 _atom_site_fract_z
 _atom_site_occupancy
  Li  Li0  1  0.321915  0.321915  0.321915  1
  Tb  Tb1  1  0.098908  0.704508  0.098908  1
  Tb  Tb2  1  0.942108  0.942108  0.557762  1
  Tb  Tb3  1  0.942108  0.557762  0.942108  1
  Tb  Tb4  1  0.311214  0.690135  0.311214  1
  Tb  Tb5  1  0.936656  0.561487  0.561487  1
  Tb  Tb6  1  0.311214  0.311214  0.690135  1
  Tb  Tb7  1  0.099198  0.099198  0.099198  1
  Tb  Tb8  1  0.561487  0.561487  0.936656  1
  Tb  Tb9  1  0.098908  0.098908  0.704508  1
  Tb  Tb10  1  0.690299  0.309690  0.690299  1
  Tb  Tb11  1  0.690299  0.690299  0.309690  1
  Tb  Tb12  1  0.690135  0.311214  0.311214  1
  Tb  Tb13  1  0.309690  0.690299  0.690299  1
  Tb  Tb14  1  0.561487  0.936656  0.561487  1
  Tb  Tb15  1  0.704508  0.098908  0.098908  1
  Tb  Tb16  1  0.557762  0.942108  0.942108  1
  In  In17  1  0.004680  0.332581  0.332581  1
  In  In18  1  0.332581  0.004680  0.332581  1
  In  In19  1  0.332581  0.332581  0.004680  1
  Ir  Ir20  1  0.892146  0.892146  0.892146  1
  Ir  Ir21  1  0.892183  0.892183  0.325751  1
  Ir  Ir22  1  0.325751  0.892183  0.892183  1
  Ir  Ir23  1  0.892183  0.325751  0.892183  1
