# generated using pymatgen
data_Hf4CoNi3Au2
_symmetry_space_group_name_H-M   'P 1'
_cell_length_a   7.03401122
_cell_length_b   7.03401120
_cell_length_c   6.50105043
_cell_angle_alpha   90.00581860
_cell_angle_beta   90.00581660
_cell_angle_gamma   90.15665105
_symmetry_Int_Tables_number   1
_chemical_formula_structural   Hf4CoNi3Au2
_chemical_formula_sum   'Hf8 Co2 Ni6 Au4'
_cell_volume   321.65330640
_cell_formula_units_Z   2
loop_
 _symmetry_equiv_pos_site_id
 _symmetry_equiv_pos_as_xyz
  1  'x, y, z'
loop_
 _atom_site_type_symbol
 _atom_site_label
 _atom_site_symmetry_multiplicity
 _atom_site_fract_x
 _atom_site_fract_y
 _atom_site_fract_z
 _atom_site_occupancy
  Hf  Hf0  1  0.173167  0.826833  0.500000  1
  Hf  Hf1  1  0.321256  0.321256  0.003410  1
  Hf  Hf2  1  0.669949  0.669949  0.503430  1
  Hf  Hf3  1  0.826833  0.173167  0.500000  1
  Hf  Hf4  1  0.165029  0.834971  0.000000  1
  Hf  Hf5  1  0.330051  0.330051  0.496570  1
  Hf  Hf6  1  0.678744  0.678744  0.996590  1
  Hf  Hf7  1  0.834971  0.165029  0.000000  1
  Co  Co8  1  0.126596  0.126596  0.259014  1
  Co  Co9  1  0.873404  0.873404  0.740986  1
  Ni  Ni10  1  0.872920  0.872920  0.260210  1
  Ni  Ni11  1  0.127080  0.127080  0.739790  1
  Ni  Ni12  1  0.375670  0.625799  0.239806  1
  Ni  Ni13  1  0.624330  0.374201  0.760194  1
  Ni  Ni14  1  0.374201  0.624330  0.760194  1
  Ni  Ni15  1  0.625799  0.375670  0.239806  1
  Au  Au16  1  0.498467  0.000731  0.750012  1
  Au  Au17  1  0.999269  0.501533  0.249988  1
  Au  Au18  1  0.000731  0.498467  0.750012  1
  Au  Au19  1  0.501533  0.999269  0.249988  1
