# generated using pymatgen
data_Tb2Re3Tc
_symmetry_space_group_name_H-M   'P 1'
_cell_length_a   5.40101600
_cell_length_b   5.40101545
_cell_length_c   8.98200500
_cell_angle_alpha   90.00000000
_cell_angle_beta   90.00000000
_cell_angle_gamma   119.99999114
_symmetry_Int_Tables_number   1
_chemical_formula_structural   Tb2Re3Tc
_chemical_formula_sum   'Tb4 Re6 Tc2'
_cell_volume   226.91063234
_cell_formula_units_Z   2
loop_
 _symmetry_equiv_pos_site_id
 _symmetry_equiv_pos_as_xyz
  1  'x, y, z'
loop_
 _atom_site_type_symbol
 _atom_site_label
 _atom_site_symmetry_multiplicity
 _atom_site_fract_x
 _atom_site_fract_y
 _atom_site_fract_z
 _atom_site_occupancy
  Tb  Tb0  1  0.333333  0.666667  0.436840  1
  Tb  Tb1  1  0.666667  0.333333  0.563160  1
  Tb  Tb2  1  0.666667  0.333333  0.936840  1
  Tb  Tb3  1  0.333333  0.666667  0.063160  1
  Re  Re4  1  0.828746  0.171254  0.250000  1
  Re  Re5  1  0.828746  0.657493  0.250000  1
  Re  Re6  1  0.342507  0.171254  0.250000  1
  Re  Re7  1  0.171254  0.828746  0.750000  1
  Re  Re8  1  0.171254  0.342507  0.750000  1
  Re  Re9  1  0.657493  0.828746  0.750000  1
  Tc  Tc10  1  0.000000  0.000000  0.500000  1
  Tc  Tc11  1  0.000000  0.000000  0.000000  1
