# generated using pymatgen
data_HoEr9TlSb5
_symmetry_space_group_name_H-M   'P 1'
_cell_length_a   8.91291500
_cell_length_b   8.89910371
_cell_length_c   6.32833200
_cell_angle_alpha   90.00000000
_cell_angle_beta   90.00000000
_cell_angle_gamma   119.85596736
_symmetry_Int_Tables_number   1
_chemical_formula_structural   HoEr9TlSb5
_chemical_formula_sum   'Ho1 Er9 Tl1 Sb5'
_cell_volume   435.32580648
_cell_formula_units_Z   1
loop_
 _symmetry_equiv_pos_site_id
 _symmetry_equiv_pos_as_xyz
  1  'x, y, z'
loop_
 _atom_site_type_symbol
 _atom_site_label
 _atom_site_symmetry_multiplicity
 _atom_site_fract_x
 _atom_site_fract_y
 _atom_site_fract_z
 _atom_site_occupancy
  Ho  Ho0  1  0.997660  0.243843  0.250000  1
  Er  Er1  1  0.004138  0.759859  0.750000  1
  Er  Er2  1  0.753786  0.755803  0.250000  1
  Er  Er3  1  0.757143  0.000387  0.750000  1
  Er  Er4  1  0.246357  0.242498  0.750000  1
  Er  Er5  1  0.241932  0.999507  0.250000  1
  Er  Er6  1  0.333754  0.668633  0.498931  1
  Er  Er7  1  0.664831  0.330833  0.001328  1
  Er  Er8  1  0.664831  0.330833  0.498672  1
  Er  Er9  1  0.333754  0.668633  0.001069  1
  Tl  Tl10  1  0.393221  0.999085  0.750000  1
  Sb  Sb11  1  0.388911  0.389478  0.250000  1
  Sb  Sb12  1  0.997887  0.609687  0.250000  1
  Sb  Sb13  1  0.000727  0.390404  0.750000  1
  Sb  Sb14  1  0.612347  0.611091  0.750000  1
  Sb  Sb15  1  0.608719  0.999424  0.250000  1
