# generated using pymatgen
data_NdTmTh2(Al3Ir)6
_symmetry_space_group_name_H-M   'P 1'
_cell_length_a   7.62476223
_cell_length_b   7.63604450
_cell_length_c   9.51249900
_cell_angle_alpha   90.00000000
_cell_angle_beta   90.00000000
_cell_angle_gamma   119.50994932
_symmetry_Int_Tables_number   1
_chemical_formula_structural   NdTmTh2(Al3Ir)6
_chemical_formula_sum   'Nd1 Tm1 Th2 Al18 Ir6'
_cell_volume   481.99605055
_cell_formula_units_Z   1
loop_
 _symmetry_equiv_pos_site_id
 _symmetry_equiv_pos_as_xyz
  1  'x, y, z'
loop_
 _atom_site_type_symbol
 _atom_site_label
 _atom_site_symmetry_multiplicity
 _atom_site_fract_x
 _atom_site_fract_y
 _atom_site_fract_z
 _atom_site_occupancy
  Nd  Nd0  1  0.004561  0.328923  0.750000  1
  Tm  Tm1  1  0.328007  0.005400  0.750000  1
  Th  Th2  1  0.995438  0.671416  0.250000  1
  Th  Th3  1  0.671041  0.994569  0.250000  1
  Al  Al4  1  0.135548  0.133818  0.250000  1
  Al  Al5  1  0.873136  0.872259  0.750000  1
  Al  Al6  1  0.005906  0.335449  0.071632  1
  Al  Al7  1  0.000716  0.667092  0.919459  1
  Al  Al8  1  0.000716  0.667092  0.580541  1
  Al  Al9  1  0.335408  0.005091  0.431712  1
  Al  Al10  1  0.005906  0.335449  0.428368  1
  Al  Al11  1  0.662043  0.998592  0.580469  1
  Al  Al12  1  0.662043  0.998592  0.919531  1
  Al  Al13  1  0.335408  0.005091  0.068288  1
  Al  Al14  1  0.333607  0.331992  0.556003  1
  Al  Al15  1  0.663006  0.662833  0.456701  1
  Al  Al16  1  0.663006  0.662833  0.043299  1
  Al  Al17  1  0.333607  0.331992  0.943997  1
  Al  Al18  1  0.341171  0.543196  0.250000  1
  Al  Al19  1  0.656768  0.448153  0.750000  1
  Al  Al20  1  0.543419  0.338712  0.250000  1
  Al  Al21  1  0.449789  0.661412  0.750000  1
  Ir  Ir22  1  0.672595  0.328512  0.001769  1
  Ir  Ir23  1  0.328875  0.673586  0.001999  1
  Ir  Ir24  1  0.328875  0.673586  0.498001  1
  Ir  Ir25  1  0.672595  0.328512  0.498231  1
  Ir  Ir26  1  0.998406  0.997924  0.002309  1
  Ir  Ir27  1  0.998406  0.997924  0.497691  1
