# generated using pymatgen
data_Y2ErZr7Pb6
_symmetry_space_group_name_H-M   'P 1'
_cell_length_a   8.83133000
_cell_length_b   8.77828754
_cell_length_c   6.03675300
_cell_angle_alpha   90.00000000
_cell_angle_beta   90.00000000
_cell_angle_gamma   120.20010022
_symmetry_Int_Tables_number   1
_chemical_formula_structural   Y2ErZr7Pb6
_chemical_formula_sum   'Y2 Er1 Zr7 Pb6'
_cell_volume   404.47411312
_cell_formula_units_Z   1
loop_
 _symmetry_equiv_pos_site_id
 _symmetry_equiv_pos_as_xyz
  1  'x, y, z'
loop_
 _atom_site_type_symbol
 _atom_site_label
 _atom_site_symmetry_multiplicity
 _atom_site_fract_x
 _atom_site_fract_y
 _atom_site_fract_z
 _atom_site_occupancy
  Y  Y0  1  0.761389  0.758366  0.250000  1
  Y  Y1  1  0.003023  0.241634  0.250000  1
  Er  Er2  1  0.756421  0.000000  0.750000  1
  Zr  Zr3  1  0.330471  0.666064  0.500686  1
  Zr  Zr4  1  0.248666  0.000000  0.250000  1
  Zr  Zr5  1  0.664408  0.333936  0.500686  1
  Zr  Zr6  1  0.002154  0.755996  0.750000  1
  Zr  Zr7  1  0.330471  0.666064  0.999314  1
  Zr  Zr8  1  0.246158  0.244004  0.750000  1
  Zr  Zr9  1  0.664408  0.333936  0.999314  1
  Pb  Pb10  1  0.605529  0.604420  0.750000  1
  Pb  Pb11  1  0.388386  0.000000  0.750000  1
  Pb  Pb12  1  0.600666  0.000000  0.250000  1
  Pb  Pb13  1  0.001108  0.395580  0.750000  1
  Pb  Pb14  1  0.394417  0.392090  0.250000  1
  Pb  Pb15  1  0.002327  0.607910  0.250000  1
