# generated using pymatgen
data_Dy2Co3(NiP)4
_symmetry_space_group_name_H-M   'P 1'
_cell_length_a   3.67229300
_cell_length_b   9.06814800
_cell_length_c   10.27992900
_cell_angle_alpha   90.00000000
_cell_angle_beta   90.00000000
_cell_angle_gamma   90.00000000
_symmetry_Int_Tables_number   1
_chemical_formula_structural   Dy2Co3(NiP)4
_chemical_formula_sum   'Dy4 Co6 Ni8 P8'
_cell_volume   342.33085087
_cell_formula_units_Z   2
loop_
 _symmetry_equiv_pos_site_id
 _symmetry_equiv_pos_as_xyz
  1  'x, y, z'
loop_
 _atom_site_type_symbol
 _atom_site_label
 _atom_site_symmetry_multiplicity
 _atom_site_fract_x
 _atom_site_fract_y
 _atom_site_fract_z
 _atom_site_occupancy
  Dy  Dy0  1  0.000000  0.059737  0.395988  1
  Dy  Dy1  1  0.500000  0.940263  0.895988  1
  Dy  Dy2  1  0.000000  0.435748  0.177871  1
  Dy  Dy3  1  0.500000  0.564252  0.677871  1
  Co  Co4  1  0.000000  0.064722  0.703303  1
  Co  Co5  1  0.500000  0.935278  0.203303  1
  Co  Co6  1  0.000000  0.730455  0.508246  1
  Co  Co7  1  0.500000  0.269545  0.008246  1
  Co  Co8  1  0.000000  0.094485  0.100087  1
  Co  Co9  1  0.500000  0.905515  0.600087  1
  Ni  Ni10  1  0.000000  0.748305  0.271158  1
  Ni  Ni11  1  0.500000  0.251695  0.771158  1
  Ni  Ni12  1  0.000000  0.309800  0.599803  1
  Ni  Ni13  1  0.500000  0.690200  0.099803  1
  Ni  Ni14  1  0.000000  0.684974  0.909135  1
  Ni  Ni15  1  0.500000  0.315026  0.409135  1
  Ni  Ni16  1  0.000000  0.414556  0.867140  1
  Ni  Ni17  1  0.500000  0.585444  0.367140  1
  P  P18  1  0.000000  0.178668  0.897991  1
  P  P19  1  0.500000  0.821332  0.397991  1
  P  P20  1  0.000000  0.848697  0.084153  1
  P  P21  1  0.500000  0.151303  0.584153  1
  P  P22  1  0.000000  0.817004  0.709579  1
  P  P23  1  0.500000  0.182996  0.209579  1
  P  P24  1  0.000000  0.485595  0.459643  1
  P  P25  1  0.500000  0.514405  0.959643  1
