# generated using pymatgen
data_Sr9La(Sn3H)2
_symmetry_space_group_name_H-M   'P 1'
_cell_length_a   10.09140065
_cell_length_b   10.09140038
_cell_length_c   10.05822256
_cell_angle_alpha   129.46796563
_cell_angle_beta   129.46796131
_cell_angle_gamma   74.50065108
_symmetry_Int_Tables_number   1
_chemical_formula_structural   Sr9La(Sn3H)2
_chemical_formula_sum   'Sr9 La1 Sn6 H2'
_cell_volume   594.12588922
_cell_formula_units_Z   1
loop_
 _symmetry_equiv_pos_site_id
 _symmetry_equiv_pos_as_xyz
  1  'x, y, z'
loop_
 _atom_site_type_symbol
 _atom_site_label
 _atom_site_symmetry_multiplicity
 _atom_site_fract_x
 _atom_site_fract_y
 _atom_site_fract_z
 _atom_site_occupancy
  Sr  Sr0  1  0.497779  0.502934  0.000707  1
  Sr  Sr1  1  0.002934  0.997779  0.000707  1
  Sr  Sr2  1  0.183544  0.683544  0.169918  1
  Sr  Sr3  1  0.010897  0.185553  0.499510  1
  Sr  Sr4  1  0.685553  0.510897  0.499510  1
  Sr  Sr5  1  0.487568  0.987568  0.174797  1
  Sr  Sr6  1  0.812896  0.312896  0.825680  1
  Sr  Sr7  1  0.986749  0.812804  0.497846  1
  Sr  Sr8  1  0.312804  0.486749  0.497846  1
  La  La9  1  0.518592  0.018592  0.832028  1
  Sn  Sn10  1  0.255478  0.244009  0.994278  1
  Sn  Sn11  1  0.744009  0.755478  0.994278  1
  Sn  Sn12  1  0.871824  0.371824  0.247395  1
  Sn  Sn13  1  0.119171  0.619171  0.738645  1
  Sn  Sn14  1  0.379467  0.119988  0.506278  1
  Sn  Sn15  1  0.619988  0.879467  0.506278  1
  H  H16  1  0.260476  0.760476  0.511923  1
  H  H17  1  0.750270  0.250270  0.502378  1
