# generated using pymatgen
data_Tb2YbY(B4Ru)4
_symmetry_space_group_name_H-M   'P 1'
_cell_length_a   3.55817500
_cell_length_b   5.97369405
_cell_length_c   11.54600734
_cell_angle_alpha   90.00627649
_cell_angle_beta   90.00000000
_cell_angle_gamma   90.00000000
_symmetry_Int_Tables_number   1
_chemical_formula_structural   Tb2YbY(B4Ru)4
_chemical_formula_sum   'Tb2 Yb1 Y1 B16 Ru4'
_cell_volume   245.41556667
_cell_formula_units_Z   1
loop_
 _symmetry_equiv_pos_site_id
 _symmetry_equiv_pos_as_xyz
  1  'x, y, z'
loop_
 _atom_site_type_symbol
 _atom_site_label
 _atom_site_symmetry_multiplicity
 _atom_site_fract_x
 _atom_site_fract_y
 _atom_site_fract_z
 _atom_site_occupancy
  Tb  Tb0  1  0.500000  0.628433  0.349730  1
  Tb  Tb1  1  0.500000  0.371127  0.651411  1
  Yb  Yb2  1  0.500000  0.870546  0.850667  1
  Y  Y3  1  0.500000  0.128328  0.148838  1
  B  B4  1  0.000000  0.475379  0.190941  1
  B  B5  1  0.000000  0.524456  0.809235  1
  B  B6  1  0.000000  0.976019  0.308236  1
  B  B7  1  0.000000  0.024244  0.692068  1
  B  B8  1  0.000000  0.288105  0.314261  1
  B  B9  1  0.000000  0.713049  0.686126  1
  B  B10  1  0.000000  0.788504  0.184438  1
  B  B11  1  0.000000  0.211402  0.815354  1
  B  B12  1  0.000000  0.363312  0.469454  1
  B  B13  1  0.000000  0.636582  0.530492  1
  B  B14  1  0.000000  0.863624  0.029932  1
  B  B15  1  0.000000  0.135830  0.969313  1
  B  B16  1  0.000000  0.388401  0.045794  1
  B  B17  1  0.000000  0.613603  0.953045  1
  B  B18  1  0.000000  0.888186  0.453321  1
  B  B19  1  0.000000  0.111106  0.546897  1
  Ru  Ru20  1  0.500000  0.139749  0.407788  1
  Ru  Ru21  1  0.500000  0.859814  0.591556  1
  Ru  Ru22  1  0.500000  0.639501  0.091885  1
  Ru  Ru23  1  0.500000  0.360702  0.909219  1
