# generated using pymatgen
data_Pr2YHo2Sn3
_symmetry_space_group_name_H-M   'P 1'
_cell_length_a   9.09165970
_cell_length_b   9.17234680
_cell_length_c   6.66023000
_cell_angle_alpha   90.00000000
_cell_angle_beta   90.00000000
_cell_angle_gamma   120.29401983
_symmetry_Int_Tables_number   1
_chemical_formula_structural   Pr2YHo2Sn3
_chemical_formula_sum   'Pr4 Y2 Ho4 Sn6'
_cell_volume   479.56685243
_cell_formula_units_Z   2
loop_
 _symmetry_equiv_pos_site_id
 _symmetry_equiv_pos_as_xyz
  1  'x, y, z'
loop_
 _atom_site_type_symbol
 _atom_site_label
 _atom_site_symmetry_multiplicity
 _atom_site_fract_x
 _atom_site_fract_y
 _atom_site_fract_z
 _atom_site_occupancy
  Pr  Pr0  1  0.762467  0.761386  0.250000  1
  Pr  Pr1  1  0.762467  0.001081  0.750000  1
  Pr  Pr2  1  0.237533  0.238614  0.750000  1
  Pr  Pr3  1  0.237533  0.998919  0.250000  1
  Y  Y4  1  0.000000  0.753775  0.750000  1
  Y  Y5  1  0.000000  0.246225  0.250000  1
  Ho  Ho6  1  0.333361  0.666681  0.500000  1
  Ho  Ho7  1  0.666639  0.333319  0.000000  1
  Ho  Ho8  1  0.666639  0.333319  0.500000  1
  Ho  Ho9  1  0.333361  0.666681  0.000000  1
  Sn  Sn10  1  0.394500  0.996752  0.750000  1
  Sn  Sn11  1  0.394500  0.397748  0.250000  1
  Sn  Sn12  1  0.000000  0.596816  0.250000  1
  Sn  Sn13  1  0.000000  0.403184  0.750000  1
  Sn  Sn14  1  0.605500  0.602252  0.750000  1
  Sn  Sn15  1  0.605500  0.003248  0.250000  1
