# generated using pymatgen
data_YbEr(Re2Si)4
_symmetry_space_group_name_H-M   'P 1'
_cell_length_a   7.37687896
_cell_length_b   7.37687960
_cell_length_c   4.15916500
_cell_angle_alpha   90.00000000
_cell_angle_beta   90.00000000
_cell_angle_gamma   90.07658985
_symmetry_Int_Tables_number   1
_chemical_formula_structural   YbEr(Re2Si)4
_chemical_formula_sum   'Yb1 Er1 Re8 Si4'
_cell_volume   226.33468576
_cell_formula_units_Z   1
loop_
 _symmetry_equiv_pos_site_id
 _symmetry_equiv_pos_as_xyz
  1  'x, y, z'
loop_
 _atom_site_type_symbol
 _atom_site_label
 _atom_site_symmetry_multiplicity
 _atom_site_fract_x
 _atom_site_fract_y
 _atom_site_fract_z
 _atom_site_occupancy
  Yb  Yb0  1  0.000000  0.000000  0.500000  1
  Er  Er1  1  0.500000  0.500000  0.000000  1
  Re  Re2  1  0.657285  0.902959  0.000000  1
  Re  Re3  1  0.159042  0.593476  0.500000  1
  Re  Re4  1  0.097041  0.342715  0.000000  1
  Re  Re5  1  0.902959  0.657285  0.000000  1
  Re  Re6  1  0.406524  0.840958  0.500000  1
  Re  Re7  1  0.593476  0.159042  0.500000  1
  Re  Re8  1  0.342715  0.097041  0.000000  1
  Re  Re9  1  0.840958  0.406524  0.500000  1
  Si  Si10  1  0.207156  0.792844  0.000000  1
  Si  Si11  1  0.792844  0.207156  0.000000  1
  Si  Si12  1  0.709090  0.709090  0.500000  1
  Si  Si13  1  0.290910  0.290910  0.500000  1
