# generated using pymatgen
data_Tb7YHf10(ZrSi8)2
_symmetry_space_group_name_H-M   'P 1'
_cell_length_a   7.30134101
_cell_length_b   7.30121470
_cell_length_c   13.42063801
_cell_angle_alpha   90.00292467
_cell_angle_beta   90.00205682
_cell_angle_gamma   89.96322687
_symmetry_Int_Tables_number   1
_chemical_formula_structural   Tb7YHf10(ZrSi8)2
_chemical_formula_sum   'Tb7 Y1 Hf10 Zr2 Si16'
_cell_volume   715.43605722
_cell_formula_units_Z   1
loop_
 _symmetry_equiv_pos_site_id
 _symmetry_equiv_pos_as_xyz
  1  'x, y, z'
loop_
 _atom_site_type_symbol
 _atom_site_label
 _atom_site_symmetry_multiplicity
 _atom_site_fract_x
 _atom_site_fract_y
 _atom_site_fract_z
 _atom_site_occupancy
  Tb  Tb0  1  0.003584  0.656255  0.715108  1
  Tb  Tb1  1  0.156245  0.496444  0.465030  1
  Tb  Tb2  1  0.503552  0.843742  0.034962  1
  Tb  Tb3  1  0.843739  0.503541  0.965049  1
  Tb  Tb4  1  0.496442  0.156270  0.534951  1
  Tb  Tb5  1  0.343737  0.996414  0.784885  1
  Tb  Tb6  1  0.656253  0.003585  0.284893  1
  Y  Y7  1  0.996436  0.343755  0.215121  1
  Hf  Hf8  1  0.325438  0.674568  0.250010  1
  Hf  Hf9  1  0.674563  0.325448  0.749997  1
  Hf  Hf10  1  0.149487  0.995282  0.374414  1
  Hf  Hf11  1  0.850515  0.004714  0.874422  1
  Hf  Hf12  1  0.504419  0.649783  0.624338  1
  Hf  Hf13  1  0.350193  0.495578  0.875675  1
  Hf  Hf14  1  0.495607  0.350207  0.124356  1
  Hf  Hf15  1  0.649782  0.504375  0.375658  1
  Hf  Hf16  1  0.995302  0.149497  0.625580  1
  Hf  Hf17  1  0.004704  0.850548  0.125590  1
  Zr  Zr18  1  0.174307  0.174284  0.999992  1
  Zr  Zr19  1  0.825719  0.825694  0.499988  1
  Si  Si20  1  0.363574  0.295073  0.316988  1
  Si  Si21  1  0.636416  0.704940  0.816992  1
  Si  Si22  1  0.205982  0.863579  0.567106  1
  Si  Si23  1  0.136416  0.794014  0.932890  1
  Si  Si24  1  0.794024  0.136436  0.067129  1
  Si  Si25  1  0.863559  0.206005  0.432888  1
  Si  Si26  1  0.295067  0.363586  0.683004  1
  Si  Si27  1  0.704934  0.636403  0.183004  1
  Si  Si28  1  0.295497  0.048111  0.186278  1
  Si  Si29  1  0.704496  0.951891  0.686285  1
  Si  Si30  1  0.450473  0.794867  0.435467  1
  Si  Si31  1  0.205132  0.549519  0.064534  1
  Si  Si32  1  0.549532  0.205142  0.935465  1
  Si  Si33  1  0.794867  0.450475  0.564529  1
  Si  Si34  1  0.048107  0.295502  0.813715  1
  Si  Si35  1  0.951902  0.704473  0.313707  1
