# generated using pymatgen
data_Tm8Sc2Ir5Pd
_symmetry_space_group_name_H-M   'P 1'
_cell_length_a   10.70385902
_cell_length_b   10.70391600
_cell_length_c   6.21676400
_cell_angle_alpha   90.00000000
_cell_angle_beta   90.00309393
_cell_angle_gamma   90.00000000
_symmetry_Int_Tables_number   1
_chemical_formula_structural   Tm8Sc2Ir5Pd
_chemical_formula_sum   'Tm16 Sc4 Ir10 Pd2'
_cell_volume   712.27459245
_cell_formula_units_Z   2
loop_
 _symmetry_equiv_pos_site_id
 _symmetry_equiv_pos_as_xyz
  1  'x, y, z'
loop_
 _atom_site_type_symbol
 _atom_site_label
 _atom_site_symmetry_multiplicity
 _atom_site_fract_x
 _atom_site_fract_y
 _atom_site_fract_z
 _atom_site_occupancy
  Tm  Tm0  1  0.288885  0.085651  0.374614  1
  Tm  Tm1  1  0.288885  0.914349  0.874614  1
  Tm  Tm2  1  0.706054  0.089324  0.872518  1
  Tm  Tm3  1  0.706054  0.910676  0.372518  1
  Tm  Tm4  1  0.580855  0.787515  0.877407  1
  Tm  Tm5  1  0.580855  0.212485  0.377407  1
  Tm  Tm6  1  0.412628  0.788414  0.376551  1
  Tm  Tm7  1  0.412628  0.211586  0.876551  1
  Tm  Tm8  1  0.211778  0.413794  0.622746  1
  Tm  Tm9  1  0.211778  0.586206  0.122746  1
  Tm  Tm10  1  0.787790  0.418159  0.123186  1
  Tm  Tm11  1  0.787790  0.581841  0.623186  1
  Tm  Tm12  1  0.916274  0.709224  0.129429  1
  Tm  Tm13  1  0.916274  0.290776  0.629429  1
  Tm  Tm14  1  0.090880  0.708403  0.623525  1
  Tm  Tm15  1  0.090880  0.291597  0.123525  1
  Sc  Sc16  1  0.006020  0.999181  0.500145  1
  Sc  Sc17  1  0.006020  0.000819  0.000145  1
  Sc  Sc18  1  0.499626  0.499700  0.000003  1
  Sc  Sc19  1  0.499626  0.500300  0.500003  1
  Ir  Ir20  1  0.147507  0.149129  0.749685  1
  Ir  Ir21  1  0.147507  0.850871  0.249685  1
  Ir  Ir22  1  0.650265  0.349769  0.750266  1
  Ir  Ir23  1  0.650265  0.650231  0.250266  1
  Ir  Ir24  1  0.350889  0.350816  0.249810  1
  Ir  Ir25  1  0.350889  0.649184  0.749810  1
  Ir  Ir26  1  0.501149  0.000022  0.121931  1
  Ir  Ir27  1  0.501149  0.999978  0.621931  1
  Ir  Ir28  1  0.999754  0.500483  0.878017  1
  Ir  Ir29  1  0.999754  0.499517  0.378017  1
  Pd  Pd30  1  0.849647  0.149104  0.250168  1
  Pd  Pd31  1  0.849647  0.850896  0.750168  1
