# generated using pymatgen
data_Ba3PrHfSe6
_symmetry_space_group_name_H-M   'P 1'
_cell_length_a   8.81142297
_cell_length_b   8.81142312
_cell_length_c   8.81142505
_cell_angle_alpha   92.51257326
_cell_angle_beta   92.51256522
_cell_angle_gamma   92.51257716
_symmetry_Int_Tables_number   1
_chemical_formula_structural   Ba3PrHfSe6
_chemical_formula_sum   'Ba6 Pr2 Hf2 Se12'
_cell_volume   682.09658286
_cell_formula_units_Z   2
loop_
 _symmetry_equiv_pos_site_id
 _symmetry_equiv_pos_as_xyz
  1  'x, y, z'
loop_
 _atom_site_type_symbol
 _atom_site_label
 _atom_site_symmetry_multiplicity
 _atom_site_fract_x
 _atom_site_fract_y
 _atom_site_fract_z
 _atom_site_occupancy
  Ba  Ba0  1  0.876003  0.623997  0.250000  1
  Ba  Ba1  1  0.250000  0.876003  0.623997  1
  Ba  Ba2  1  0.623997  0.250000  0.876003  1
  Ba  Ba3  1  0.750000  0.123997  0.376003  1
  Ba  Ba4  1  0.376003  0.750000  0.123997  1
  Ba  Ba5  1  0.123997  0.376003  0.750000  1
  Pr  Pr6  1  0.250000  0.250000  0.250000  1
  Pr  Pr7  1  0.750000  0.750000  0.750000  1
  Hf  Hf8  1  0.500000  0.500000  0.500000  1
  Hf  Hf9  1  0.000000  0.000000  0.000000  1
  Se  Se10  1  0.205746  0.547771  0.416473  1
  Se  Se11  1  0.416473  0.205746  0.547771  1
  Se  Se12  1  0.547771  0.416473  0.205746  1
  Se  Se13  1  0.916473  0.047771  0.705746  1
  Se  Se14  1  0.705746  0.916473  0.047771  1
  Se  Se15  1  0.047771  0.705746  0.916473  1
  Se  Se16  1  0.794254  0.452229  0.583527  1
  Se  Se17  1  0.583527  0.794254  0.452229  1
  Se  Se18  1  0.452229  0.583527  0.794254  1
  Se  Se19  1  0.083527  0.952229  0.294254  1
  Se  Se20  1  0.294254  0.083527  0.952229  1
  Se  Se21  1  0.952229  0.294254  0.083527  1
