# generated using pymatgen
data_Th6Sc4Ru5Pt
_symmetry_space_group_name_H-M   'P 1'
_cell_length_a   6.12356600
_cell_length_b   8.27876977
_cell_length_c   8.27876946
_cell_angle_alpha   120.03829327
_cell_angle_beta   90.00000000
_cell_angle_gamma   90.00000000
_symmetry_Int_Tables_number   1
_chemical_formula_structural   Th6Sc4Ru5Pt
_chemical_formula_sum   'Th6 Sc4 Ru5 Pt1'
_cell_volume   363.32804248
_cell_formula_units_Z   1
loop_
 _symmetry_equiv_pos_site_id
 _symmetry_equiv_pos_as_xyz
  1  'x, y, z'
loop_
 _atom_site_type_symbol
 _atom_site_label
 _atom_site_symmetry_multiplicity
 _atom_site_fract_x
 _atom_site_fract_y
 _atom_site_fract_z
 _atom_site_occupancy
  Th  Th0  1  0.750000  0.747330  0.747330  1
  Th  Th1  1  0.250000  0.258247  0.258247  1
  Th  Th2  1  0.750000  0.989931  0.257224  1
  Th  Th3  1  0.250000  0.998293  0.740688  1
  Th  Th4  1  0.750000  0.257224  0.989931  1
  Th  Th5  1  0.250000  0.740688  0.998293  1
  Sc  Sc6  1  0.002184  0.667498  0.333053  1
  Sc  Sc7  1  0.002184  0.333053  0.667498  1
  Sc  Sc8  1  0.497816  0.333053  0.667498  1
  Sc  Sc9  1  0.497816  0.667498  0.333053  1
  Ru  Ru10  1  0.250000  0.614605  0.614605  1
  Ru  Ru11  1  0.750000  0.998813  0.610993  1
  Ru  Ru12  1  0.250000  0.001869  0.386267  1
  Ru  Ru13  1  0.750000  0.610993  0.998813  1
  Ru  Ru14  1  0.250000  0.386267  0.001869  1
  Pt  Pt15  1  0.750000  0.394638  0.394638  1
