# generated using pymatgen
data_Tb8In2OsPt
_symmetry_space_group_name_H-M   'P 1'
_cell_length_a   9.72668854
_cell_length_b   9.72668851
_cell_length_c   9.72888900
_cell_angle_alpha   59.99251263
_cell_angle_beta   59.99251272
_cell_angle_gamma   59.97931107
_symmetry_Int_Tables_number   1
_chemical_formula_structural   Tb8In2OsPt
_chemical_formula_sum   'Tb16 In4 Os2 Pt2'
_cell_volume   650.67058537
_cell_formula_units_Z   2
loop_
 _symmetry_equiv_pos_site_id
 _symmetry_equiv_pos_as_xyz
  1  'x, y, z'
loop_
 _atom_site_type_symbol
 _atom_site_label
 _atom_site_symmetry_multiplicity
 _atom_site_fract_x
 _atom_site_fract_y
 _atom_site_fract_z
 _atom_site_occupancy
  Tb  Tb0  1  0.348751  0.348751  0.352885  1
  Tb  Tb1  1  0.348751  0.348751  0.949614  1
  Tb  Tb2  1  0.346445  0.954157  0.349698  1
  Tb  Tb3  1  0.954157  0.346445  0.349698  1
  Tb  Tb4  1  0.814161  0.188645  0.191792  1
  Tb  Tb5  1  0.188645  0.814161  0.805402  1
  Tb  Tb6  1  0.188645  0.814161  0.191792  1
  Tb  Tb7  1  0.814161  0.188645  0.805402  1
  Tb  Tb8  1  0.189507  0.189507  0.810493  1
  Tb  Tb9  1  0.807840  0.807840  0.192160  1
  Tb  Tb10  1  0.938904  0.555819  0.565324  1
  Tb  Tb11  1  0.555819  0.938904  0.939953  1
  Tb  Tb12  1  0.555819  0.938904  0.565324  1
  Tb  Tb13  1  0.938904  0.555819  0.939953  1
  Tb  Tb14  1  0.562659  0.562659  0.937341  1
  Tb  Tb15  1  0.941799  0.941799  0.558201  1
  In  In16  1  0.582090  0.582090  0.582831  1
  In  In17  1  0.582090  0.582090  0.252987  1
  In  In18  1  0.582353  0.251928  0.582859  1
  In  In19  1  0.251928  0.582353  0.582859  1
  Os  Os20  1  0.143672  0.143672  0.137955  1
  Os  Os21  1  0.143672  0.143672  0.574703  1
  Pt  Pt22  1  0.144099  0.575131  0.140386  1
  Pt  Pt23  1  0.575131  0.144099  0.140386  1
