# generated using pymatgen
data_Nb4Ga6CoPt
_symmetry_space_group_name_H-M   'P 1'
_cell_length_a   5.17807100
_cell_length_b   5.17807209
_cell_length_c   7.95085300
_cell_angle_alpha   90.00000000
_cell_angle_beta   90.00000000
_cell_angle_gamma   119.99999942
_symmetry_Int_Tables_number   1
_chemical_formula_structural   Nb4Ga6CoPt
_chemical_formula_sum   'Nb4 Ga6 Co1 Pt1'
_cell_volume   184.62072492
_cell_formula_units_Z   1
loop_
 _symmetry_equiv_pos_site_id
 _symmetry_equiv_pos_as_xyz
  1  'x, y, z'
loop_
 _atom_site_type_symbol
 _atom_site_label
 _atom_site_symmetry_multiplicity
 _atom_site_fract_x
 _atom_site_fract_y
 _atom_site_fract_z
 _atom_site_occupancy
  Nb  Nb0  1  0.666665  0.333332  0.073969  1
  Nb  Nb1  1  0.666665  0.333332  0.427968  1
  Nb  Nb2  1  0.333333  0.666667  0.572031  1
  Nb  Nb3  1  0.333333  0.666667  0.926032  1
  Ga  Ga4  1  0.170595  0.341190  0.239952  1
  Ga  Ga5  1  0.170595  0.829405  0.239952  1
  Ga  Ga6  1  0.658810  0.829405  0.239952  1
  Ga  Ga7  1  0.341190  0.170596  0.760048  1
  Ga  Ga8  1  0.829406  0.170596  0.760048  1
  Ga  Ga9  1  0.829404  0.658809  0.760048  1
  Co  Co10  1  0.000000  0.000000  0.000000  1
  Pt  Pt11  1  0.000000  0.000000  0.500000  1
