# generated using pymatgen
data_Tm5Lu11Cd4(NiIr)2
_symmetry_space_group_name_H-M   'P 1'
_cell_length_a   9.42034666
_cell_length_b   9.41704382
_cell_length_c   9.40947318
_cell_angle_alpha   60.01903987
_cell_angle_beta   60.02177844
_cell_angle_gamma   60.28522355
_symmetry_Int_Tables_number   1
_chemical_formula_structural   Tm5Lu11Cd4(NiIr)2
_chemical_formula_sum   'Tm5 Lu11 Cd4 Ni2 Ir2'
_cell_volume   591.68926362
_cell_formula_units_Z   1
loop_
 _symmetry_equiv_pos_site_id
 _symmetry_equiv_pos_as_xyz
  1  'x, y, z'
loop_
 _atom_site_type_symbol
 _atom_site_label
 _atom_site_symmetry_multiplicity
 _atom_site_fract_x
 _atom_site_fract_y
 _atom_site_fract_z
 _atom_site_occupancy
  Tm  Tm0  1  0.814356  0.187012  0.187458  1
  Tm  Tm1  1  0.814574  0.186763  0.811179  1
  Tm  Tm2  1  0.187014  0.814393  0.187206  1
  Tm  Tm3  1  0.811142  0.810948  0.188820  1
  Tm  Tm4  1  0.185764  0.185489  0.814289  1
  Lu  Lu5  1  0.596368  0.596538  0.602702  1
  Lu  Lu6  1  0.596388  0.596522  0.204474  1
  Lu  Lu7  1  0.596086  0.205129  0.599436  1
  Lu  Lu8  1  0.205032  0.596196  0.599457  1
  Lu  Lu9  1  0.063318  0.439431  0.438126  1
  Lu  Lu10  1  0.439343  0.063358  0.059230  1
  Lu  Lu11  1  0.439274  0.063276  0.438248  1
  Lu  Lu12  1  0.063403  0.439599  0.059025  1
  Lu  Lu13  1  0.438627  0.438939  0.061160  1
  Lu  Lu14  1  0.061481  0.061267  0.438784  1
  Lu  Lu15  1  0.187035  0.814353  0.811206  1
  Cd  Cd16  1  0.831781  0.831593  0.830407  1
  Cd  Cd17  1  0.831580  0.831599  0.506401  1
  Cd  Cd18  1  0.831848  0.506136  0.831005  1
  Cd  Cd19  1  0.505977  0.831844  0.831007  1
  Ni  Ni20  1  0.391685  0.391721  0.391611  1
  Ni  Ni21  1  0.391722  0.391728  0.824938  1
  Ir  Ir22  1  0.392251  0.823877  0.391961  1
  Ir  Ir23  1  0.823950  0.392291  0.391872  1
