# generated using pymatgen
data_TbYb6DySb6
_symmetry_space_group_name_H-M   'P 1'
_cell_length_a   8.12441056
_cell_length_b   8.12137204
_cell_length_c   8.17277347
_cell_angle_alpha   70.54521000
_cell_angle_beta   70.52264656
_cell_angle_gamma   109.13106836
_symmetry_Int_Tables_number   1
_chemical_formula_structural   TbYb6DySb6
_chemical_formula_sum   'Tb1 Yb6 Dy1 Sb6'
_cell_volume   416.89753487
_cell_formula_units_Z   1
loop_
 _symmetry_equiv_pos_site_id
 _symmetry_equiv_pos_as_xyz
  1  'x, y, z'
loop_
 _atom_site_type_symbol
 _atom_site_label
 _atom_site_symmetry_multiplicity
 _atom_site_fract_x
 _atom_site_fract_y
 _atom_site_fract_z
 _atom_site_occupancy
  Tb  Tb0  1  0.854756  0.000481  0.999432  1
  Yb  Yb1  1  0.001330  0.359701  0.494923  1
  Yb  Yb2  1  0.495643  0.495313  0.148267  1
  Yb  Yb3  1  0.644384  0.148246  0.357384  1
  Yb  Yb4  1  0.359601  0.001297  0.995029  1
  Yb  Yb5  1  0.495512  0.495843  0.648211  1
  Yb  Yb6  1  0.148186  0.644429  0.857231  1
  Dy  Dy7  1  0.000463  0.854819  0.499471  1
  Sb  Sb8  1  0.633287  0.873551  0.749613  1
  Sb  Sb9  1  0.873646  0.632691  0.250674  1
  Sb  Sb10  1  0.240392  0.118566  0.628106  1
  Sb  Sb11  1  0.756495  0.378466  0.870981  1
  Sb  Sb12  1  0.377332  0.756378  0.371508  1
  Sb  Sb13  1  0.118973  0.240218  0.129167  1
