# generated using pymatgen
data_EuP12Ru3Rh
_symmetry_space_group_name_H-M   'P 1'
_cell_length_a   7.01001406
_cell_length_b   7.02219110
_cell_length_c   7.00990533
_cell_angle_alpha   109.50613072
_cell_angle_beta   109.43181306
_cell_angle_gamma   109.50615554
_symmetry_Int_Tables_number   1
_chemical_formula_structural   EuP12Ru3Rh
_chemical_formula_sum   'Eu1 P12 Ru3 Rh1'
_cell_volume   265.53291739
_cell_formula_units_Z   1
loop_
 _symmetry_equiv_pos_site_id
 _symmetry_equiv_pos_as_xyz
  1  'x, y, z'
loop_
 _atom_site_type_symbol
 _atom_site_label
 _atom_site_symmetry_multiplicity
 _atom_site_fract_x
 _atom_site_fract_y
 _atom_site_fract_z
 _atom_site_occupancy
  Eu  Eu0  1  0.000000  0.000000  0.000000  1
  P  P1  1  0.357196  0.213745  0.856964  1
  P  P2  1  0.642804  0.786255  0.143036  1
  P  P3  1  0.639492  0.499912  0.855567  1
  P  P4  1  0.360508  0.500088  0.144433  1
  P  P5  1  0.216080  0.860371  0.360508  1
  P  P6  1  0.783920  0.139629  0.639492  1
  P  P7  1  0.499767  0.856515  0.642758  1
  P  P8  1  0.500233  0.143485  0.357242  1
  P  P9  1  0.855533  0.355656  0.216098  1
  P  P10  1  0.144467  0.644344  0.783902  1
  P  P11  1  0.856996  0.643234  0.499787  1
  P  P12  1  0.143004  0.356766  0.500213  1
  Ru  Ru13  1  0.000000  0.000000  0.500000  1
  Ru  Ru14  1  0.500000  0.000000  0.000000  1
  Ru  Ru15  1  0.500000  0.500000  0.500000  1
  Rh  Rh16  1  0.000000  0.500000  0.000000  1
