# generated using pymatgen
data_Pa2Mn3Ni9P7
_symmetry_space_group_name_H-M   'P 1'
_cell_length_a   9.15280000
_cell_length_b   9.15280109
_cell_length_c   3.72022700
_cell_angle_alpha   90.00000000
_cell_angle_beta   90.00000000
_cell_angle_gamma   120.00000328
_symmetry_Int_Tables_number   1
_chemical_formula_structural   Pa2Mn3Ni9P7
_chemical_formula_sum   'Pa2 Mn3 Ni9 P7'
_cell_volume   269.90321313
_cell_formula_units_Z   1
loop_
 _symmetry_equiv_pos_site_id
 _symmetry_equiv_pos_as_xyz
  1  'x, y, z'
loop_
 _atom_site_type_symbol
 _atom_site_label
 _atom_site_symmetry_multiplicity
 _atom_site_fract_x
 _atom_site_fract_y
 _atom_site_fract_z
 _atom_site_occupancy
  Pa  Pa0  1  0.000000  0.000000  0.000000  1
  Pa  Pa1  1  0.666667  0.333333  0.500000  1
  Mn  Mn2  1  0.452892  0.567608  0.500000  1
  Mn  Mn3  1  0.432392  0.885285  0.500000  1
  Mn  Mn4  1  0.114715  0.547108  0.500000  1
  Ni  Ni5  1  0.706426  0.606814  0.000000  1
  Ni  Ni6  1  0.393186  0.099612  0.000000  1
  Ni  Ni7  1  0.900388  0.293574  0.000000  1
  Ni  Ni8  1  0.208778  0.388330  0.000000  1
  Ni  Ni9  1  0.611670  0.820448  0.000000  1
  Ni  Ni10  1  0.179552  0.791222  0.000000  1
  Ni  Ni11  1  0.283534  0.230505  0.500000  1
  Ni  Ni12  1  0.769495  0.053027  0.500000  1
  Ni  Ni13  1  0.946973  0.716466  0.500000  1
  P  P14  1  0.444978  0.371244  0.000000  1
  P  P15  1  0.628756  0.073735  0.000000  1
  P  P16  1  0.926265  0.555022  0.000000  1
  P  P17  1  0.042966  0.262722  0.500000  1
  P  P18  1  0.737278  0.780245  0.500000  1
  P  P19  1  0.219755  0.957034  0.500000  1
  P  P20  1  0.333333  0.666667  0.000000  1
