# generated using pymatgen
data_La2Zn2CoNi5B2
_symmetry_space_group_name_H-M   'P 1'
_cell_length_a   5.25386000
_cell_length_b   5.27501360
_cell_length_c   6.86133800
_cell_angle_alpha   90.00000000
_cell_angle_beta   90.00000000
_cell_angle_gamma   119.86743369
_symmetry_Int_Tables_number   1
_chemical_formula_structural   La2Zn2CoNi5B2
_chemical_formula_sum   'La2 Zn2 Co1 Ni5 B2'
_cell_volume   164.89979610
_cell_formula_units_Z   1
loop_
 _symmetry_equiv_pos_site_id
 _symmetry_equiv_pos_as_xyz
  1  'x, y, z'
loop_
 _atom_site_type_symbol
 _atom_site_label
 _atom_site_symmetry_multiplicity
 _atom_site_fract_x
 _atom_site_fract_y
 _atom_site_fract_z
 _atom_site_occupancy
  La  La0  1  0.000000  0.000000  0.002145  1
  La  La1  1  0.000000  0.000000  0.497730  1
  Zn  Zn2  1  0.665871  0.331741  0.499564  1
  Zn  Zn3  1  0.334129  0.668259  0.499564  1
  Co  Co4  1  0.500000  0.000000  0.197073  1
  Ni  Ni5  1  0.500000  0.500000  0.800087  1
  Ni  Ni6  1  0.500000  0.000000  0.800111  1
  Ni  Ni7  1  0.000000  0.500000  0.800087  1
  Ni  Ni8  1  0.500000  0.500000  0.200643  1
  Ni  Ni9  1  0.000000  0.500000  0.200643  1
  B  B10  1  0.664591  0.329181  0.001177  1
  B  B11  1  0.335409  0.670819  0.001177  1
