# generated using pymatgen
data_Tb2P7(Rh3W)3
_symmetry_space_group_name_H-M   'P 1'
_cell_length_a   3.95133731
_cell_length_b   9.52864098
_cell_length_c   9.52661561
_cell_angle_alpha   119.99178977
_cell_angle_beta   89.99385162
_cell_angle_gamma   90.01937123
_symmetry_Int_Tables_number   1
_chemical_formula_structural   Tb2P7(Rh3W)3
_chemical_formula_sum   'Tb2 P7 Rh9 W3'
_cell_volume   310.65635407
_cell_formula_units_Z   1
loop_
 _symmetry_equiv_pos_site_id
 _symmetry_equiv_pos_as_xyz
  1  'x, y, z'
loop_
 _atom_site_type_symbol
 _atom_site_label
 _atom_site_symmetry_multiplicity
 _atom_site_fract_x
 _atom_site_fract_y
 _atom_site_fract_z
 _atom_site_occupancy
  Tb  Tb0  1  0.261419  0.666583  0.333222  1
  Tb  Tb1  1  0.762880  0.333359  0.666701  1
  P  P2  1  0.261605  0.999975  0.999904  1
  P  P3  1  0.762273  0.881428  0.592139  1
  P  P4  1  0.762306  0.407848  0.289280  1
  P  P5  1  0.762306  0.710716  0.118478  1
  P  P6  1  0.261835  0.118884  0.412089  1
  P  P7  1  0.261848  0.587983  0.706875  1
  P  P8  1  0.261777  0.293217  0.881178  1
  Rh  Rh9  1  0.261494  0.886495  0.159371  1
  Rh  Rh10  1  0.261480  0.840535  0.726872  1
  Rh  Rh11  1  0.261480  0.273008  0.113665  1
  Rh  Rh12  1  0.761922  0.614043  0.559897  1
  Rh  Rh13  1  0.761878  0.439955  0.053991  1
  Rh  Rh14  1  0.761943  0.945780  0.385905  1
  Rh  Rh15  1  0.262317  0.371429  0.438886  1
  Rh  Rh16  1  0.262260  0.561318  0.932683  1
  Rh  Rh17  1  0.262312  0.067399  0.628648  1
  W  W18  1  0.761544  0.090743  0.869837  1
  W  W19  1  0.761574  0.130327  0.221258  1
  W  W20  1  0.761545  0.778975  0.909121  1
