# generated using pymatgen
data_Er4Al18ZnRuRh4
_symmetry_space_group_name_H-M   'P 1'
_cell_length_a   7.57140000
_cell_length_b   7.57139987
_cell_length_c   9.42127732
_cell_angle_alpha   89.99805172
_cell_angle_beta   89.99804573
_cell_angle_gamma   119.38297098
_symmetry_Int_Tables_number   1
_chemical_formula_structural   Er4Al18ZnRuRh4
_chemical_formula_sum   'Er4 Al18 Zn1 Ru1 Rh4'
_cell_volume   470.60833951
_cell_formula_units_Z   1
loop_
 _symmetry_equiv_pos_site_id
 _symmetry_equiv_pos_as_xyz
  1  'x, y, z'
loop_
 _atom_site_type_symbol
 _atom_site_label
 _atom_site_symmetry_multiplicity
 _atom_site_fract_x
 _atom_site_fract_y
 _atom_site_fract_z
 _atom_site_occupancy
  Er  Er0  1  0.995162  0.676267  0.748438  1
  Er  Er1  1  0.004964  0.323791  0.251517  1
  Er  Er2  1  0.676209  0.995036  0.748483  1
  Er  Er3  1  0.323733  0.004838  0.251562  1
  Al  Al4  1  0.135012  0.135691  0.756281  1
  Al  Al5  1  0.864309  0.864988  0.243719  1
  Al  Al6  1  0.000892  0.344947  0.579494  1
  Al  Al7  1  0.996853  0.653353  0.420488  1
  Al  Al8  1  0.000618  0.663526  0.074598  1
  Al  Al9  1  0.336474  0.999382  0.925402  1
  Al  Al10  1  0.999398  0.337063  0.925685  1
  Al  Al11  1  0.662937  0.000602  0.074315  1
  Al  Al12  1  0.655053  0.999108  0.420506  1
  Al  Al13  1  0.346647  0.003147  0.579512  1
  Al  Al14  1  0.332397  0.332541  0.052028  1
  Al  Al15  1  0.667459  0.667603  0.947972  1
  Al  Al16  1  0.659071  0.657176  0.556507  1
  Al  Al17  1  0.342824  0.340929  0.443493  1
  Al  Al18  1  0.338532  0.552589  0.751031  1
  Al  Al19  1  0.660830  0.446633  0.249790  1
  Al  Al20  1  0.553367  0.339170  0.750210  1
  Al  Al21  1  0.447411  0.661468  0.248969  1
  Zn  Zn22  1  0.000020  0.999980  0.500000  1
  Ru  Ru23  1  0.672235  0.327765  0.500000  1
  Rh  Rh24  1  0.327891  0.672109  0.500000  1
  Rh  Rh25  1  0.328132  0.671868  0.000000  1
  Rh  Rh26  1  0.671596  0.328404  0.000000  1
  Rh  Rh27  1  0.999974  0.000026  0.000000  1
