# generated using pymatgen
data_NF11
_symmetry_space_group_name_H-M   'P 1'
_cell_length_a   7.32407874
_cell_length_b   7.32407784
_cell_length_c   7.32407786
_cell_angle_alpha   86.79628930
_cell_angle_beta   86.79629351
_cell_angle_gamma   86.79628822
_symmetry_Int_Tables_number   1
_chemical_formula_structural   NF11
_chemical_formula_sum   'N2 F22'
_cell_volume   391.10304924
_cell_formula_units_Z   2
loop_
 _symmetry_equiv_pos_site_id
 _symmetry_equiv_pos_as_xyz
  1  'x, y, z'
loop_
 _atom_site_type_symbol
 _atom_site_label
 _atom_site_symmetry_multiplicity
 _atom_site_fract_x
 _atom_site_fract_y
 _atom_site_fract_z
 _atom_site_occupancy
  N  N0  1  0.494822  0.494822  0.494822  1
  N  N1  1  0.994822  0.994822  0.994822  1
  F  F2  1  0.595631  0.595631  0.595631  1
  F  F3  1  0.095631  0.095631  0.095631  1
  F  F4  1  0.467653  0.584943  0.333010  1
  F  F5  1  0.333010  0.467653  0.584943  1
  F  F6  1  0.584943  0.333010  0.467653  1
  F  F7  1  0.967653  0.833010  0.084943  1
  F  F8  1  0.084943  0.967653  0.833010  1
  F  F9  1  0.833010  0.084943  0.967653  1
  F  F10  1  0.792747  0.934372  0.550169  1
  F  F11  1  0.550169  0.792747  0.934372  1
  F  F12  1  0.050169  0.434372  0.292747  1
  F  F13  1  0.434372  0.292747  0.050169  1
  F  F14  1  0.292747  0.050169  0.434372  1
  F  F15  1  0.934372  0.550169  0.792747  1
  F  F16  1  0.800416  0.061516  0.376387  1
  F  F17  1  0.376387  0.800416  0.061516  1
  F  F18  1  0.061516  0.376387  0.800416  1
  F  F19  1  0.300416  0.876387  0.561516  1
  F  F20  1  0.561516  0.300416  0.876387  1
  F  F21  1  0.876387  0.561516  0.300416  1
  F  F22  1  0.778834  0.778834  0.778834  1
  F  F23  1  0.278834  0.278834  0.278834  1
