# generated using pymatgen
data_Hf6VInF30
_symmetry_space_group_name_H-M   'P 1'
_cell_length_a   7.91812951
_cell_length_b   7.91812915
_cell_length_c   7.91812809
_cell_angle_alpha   99.89611470
_cell_angle_beta   99.89612490
_cell_angle_gamma   99.89613336
_symmetry_Int_Tables_number   1
_chemical_formula_structural   Hf6VInF30
_chemical_formula_sum   'Hf6 V1 In1 F30'
_cell_volume   471.28899968
_cell_formula_units_Z   1
loop_
 _symmetry_equiv_pos_site_id
 _symmetry_equiv_pos_as_xyz
  1  'x, y, z'
loop_
 _atom_site_type_symbol
 _atom_site_label
 _atom_site_symmetry_multiplicity
 _atom_site_fract_x
 _atom_site_fract_y
 _atom_site_fract_z
 _atom_site_occupancy
  Hf  Hf0  1  0.679642  0.820358  0.250000  1
  Hf  Hf1  1  0.750000  0.319244  0.180756  1
  Hf  Hf2  1  0.820358  0.250000  0.679642  1
  Hf  Hf3  1  0.180756  0.750000  0.319244  1
  Hf  Hf4  1  0.250000  0.679642  0.820358  1
  Hf  Hf5  1  0.319244  0.180756  0.750000  1
  V  V6  1  0.750000  0.750000  0.750000  1
  In  In7  1  0.250000  0.250000  0.250000  1
  F  F8  1  0.964658  0.535342  0.250000  1
  F  F9  1  0.286918  0.522986  0.279389  1
  F  F10  1  0.148606  0.674146  0.047668  1
  F  F11  1  0.750000  0.040315  0.459685  1
  F  F12  1  0.776480  0.009566  0.776348  1
  F  F13  1  0.550665  0.181258  0.652676  1
  F  F14  1  0.977014  0.213082  0.220611  1
  F  F15  1  0.213082  0.220611  0.977014  1
  F  F16  1  0.674146  0.047668  0.148606  1
  F  F17  1  0.825854  0.351394  0.452332  1
  F  F18  1  0.535342  0.250000  0.964658  1
  F  F19  1  0.047668  0.148606  0.674146  1
  F  F20  1  0.351394  0.452332  0.825854  1
  F  F21  1  0.522986  0.279389  0.286918  1
  F  F22  1  0.279389  0.286918  0.522986  1
  F  F23  1  0.723520  0.723652  0.490434  1
  F  F24  1  0.490434  0.723520  0.723652  1
  F  F25  1  0.652676  0.550665  0.181258  1
  F  F26  1  0.949335  0.847324  0.318742  1
  F  F27  1  0.459685  0.750000  0.040315  1
  F  F28  1  0.181258  0.652676  0.550665  1
  F  F29  1  0.318742  0.949335  0.847324  1
  F  F30  1  0.776348  0.776480  0.009566  1
  F  F31  1  0.009566  0.776348  0.776480  1
  F  F32  1  0.452332  0.825854  0.351394  1
  F  F33  1  0.220611  0.977014  0.213082  1
  F  F34  1  0.250000  0.964658  0.535342  1
  F  F35  1  0.847324  0.318742  0.949335  1
  F  F36  1  0.723652  0.490434  0.723520  1
  F  F37  1  0.040315  0.459685  0.750000  1
