# generated using pymatgen
data_Ca3Yb7SnSb5
_symmetry_space_group_name_H-M   'P 1'
_cell_length_a   9.12385000
_cell_length_b   9.13810512
_cell_length_c   6.91274100
_cell_angle_alpha   90.00000000
_cell_angle_beta   90.00000000
_cell_angle_gamma   119.94841018
_symmetry_Int_Tables_number   1
_chemical_formula_structural   Ca3Yb7SnSb5
_chemical_formula_sum   'Ca3 Yb7 Sn1 Sb5'
_cell_volume   499.39103109
_cell_formula_units_Z   1
loop_
 _symmetry_equiv_pos_site_id
 _symmetry_equiv_pos_as_xyz
  1  'x, y, z'
loop_
 _atom_site_type_symbol
 _atom_site_label
 _atom_site_symmetry_multiplicity
 _atom_site_fract_x
 _atom_site_fract_y
 _atom_site_fract_z
 _atom_site_occupancy
  Ca  Ca0  1  0.000309  0.262564  0.250000  1
  Ca  Ca1  1  0.737745  0.737436  0.250000  1
  Ca  Ca2  1  0.260631  0.000000  0.250000  1
  Yb  Yb3  1  0.004127  0.736530  0.750000  1
  Yb  Yb4  1  0.732362  0.000000  0.750000  1
  Yb  Yb5  1  0.267597  0.263470  0.750000  1
  Yb  Yb6  1  0.333045  0.669042  0.501717  1
  Yb  Yb7  1  0.664003  0.330958  0.998283  1
  Yb  Yb8  1  0.664003  0.330958  0.501717  1
  Yb  Yb9  1  0.333045  0.669042  0.998283  1
  Sn  Sn10  1  0.383944  0.000000  0.750000  1
  Sb  Sb11  1  0.385011  0.387349  0.250000  1
  Sb  Sb12  1  0.997662  0.612651  0.250000  1
  Sb  Sb13  1  0.000879  0.381129  0.750000  1
  Sb  Sb14  1  0.619750  0.618871  0.750000  1
  Sb  Sb15  1  0.615888  0.000000  0.250000  1
