# generated using pymatgen
data_Er8Ta6Ti6Si15Sn
_symmetry_space_group_name_H-M   'P 1'
_cell_length_a   7.07541718
_cell_length_b   7.03942372
_cell_length_c   12.97895674
_cell_angle_alpha   90.11446330
_cell_angle_beta   89.85734627
_cell_angle_gamma   89.93984408
_symmetry_Int_Tables_number   1
_chemical_formula_structural   Er8Ta6Ti6Si15Sn
_chemical_formula_sum   'Er8 Ta6 Ti6 Si15 Sn1'
_cell_volume   646.43742169
_cell_formula_units_Z   1
loop_
 _symmetry_equiv_pos_site_id
 _symmetry_equiv_pos_as_xyz
  1  'x, y, z'
loop_
 _atom_site_type_symbol
 _atom_site_label
 _atom_site_symmetry_multiplicity
 _atom_site_fract_x
 _atom_site_fract_y
 _atom_site_fract_z
 _atom_site_occupancy
  Er  Er0  1  0.343503  0.998494  0.461088  1
  Er  Er1  1  0.505885  0.835522  0.718523  1
  Er  Er2  1  0.501747  0.158443  0.217357  1
  Er  Er3  1  0.839659  0.498453  0.282324  1
  Er  Er4  1  0.159306  0.507963  0.785564  1
  Er  Er5  1  0.660316  0.996722  0.969184  1
  Er  Er6  1  0.991038  0.348305  0.526922  1
  Er  Er7  1  0.000201  0.660295  0.034130  1
  Ta  Ta8  1  0.327293  0.327842  0.001649  1
  Ta  Ta9  1  0.173495  0.827024  0.249680  1
  Ta  Ta10  1  0.819623  0.174529  0.752097  1
  Ta  Ta11  1  0.671863  0.672110  0.499664  1
  Ta  Ta12  1  0.152693  0.007783  0.882285  1
  Ta  Ta13  1  0.492332  0.650275  0.125331  1
  Ti  Ti14  1  0.515025  0.354019  0.626067  1
  Ti  Ti15  1  0.654778  0.492885  0.876605  1
  Ti  Ti16  1  0.347570  0.508363  0.374013  1
  Ti  Ti17  1  0.845756  0.991757  0.374477  1
  Ti  Ti18  1  0.009329  0.150643  0.124201  1
  Ti  Ti19  1  0.978920  0.835339  0.620129  1
  Si  Si20  1  0.370836  0.704035  0.934341  1
  Si  Si21  1  0.628108  0.298324  0.432837  1
  Si  Si22  1  0.704804  0.365499  0.067687  1
  Si  Si23  1  0.296336  0.631415  0.565640  1
  Si  Si24  1  0.798955  0.869387  0.184072  1
  Si  Si25  1  0.130500  0.202031  0.315444  1
  Si  Si26  1  0.868253  0.799869  0.816756  1
  Si  Si27  1  0.295276  0.953719  0.066825  1
  Si  Si28  1  0.548755  0.792083  0.313930  1
  Si  Si29  1  0.459832  0.208802  0.818914  1
  Si  Si30  1  0.796390  0.543245  0.687158  1
  Si  Si31  1  0.205086  0.451750  0.186626  1
  Si  Si32  1  0.704366  0.048451  0.563965  1
  Si  Si33  1  0.952893  0.297429  0.936000  1
  Si  Si34  1  0.046581  0.708794  0.433533  1
  Sn  Sn35  1  0.202695  0.128402  0.674981  1
