# generated using pymatgen
data_CsRb5(InSb2)2
_symmetry_space_group_name_H-M   'P 1'
_cell_length_a   9.92032352
_cell_length_b   9.92032330
_cell_length_c   10.02801105
_cell_angle_alpha   127.13109352
_cell_angle_beta   72.33546164
_cell_angle_gamma   134.15037242
_symmetry_Int_Tables_number   1
_chemical_formula_structural   CsRb5(InSb2)2
_chemical_formula_sum   'Cs1 Rb5 In2 Sb4'
_cell_volume   552.60225403
_cell_formula_units_Z   1
loop_
 _symmetry_equiv_pos_site_id
 _symmetry_equiv_pos_as_xyz
  1  'x, y, z'
loop_
 _atom_site_type_symbol
 _atom_site_label
 _atom_site_symmetry_multiplicity
 _atom_site_fract_x
 _atom_site_fract_y
 _atom_site_fract_z
 _atom_site_occupancy
  Cs  Cs0  1  0.175336  0.703899  0.879235  1
  Rb  Rb1  1  0.249442  0.249395  0.999049  1
  Rb  Rb2  1  0.749654  0.749607  0.999049  1
  Rb  Rb3  1  0.825181  0.304932  0.130114  1
  Rb  Rb4  1  0.675572  0.802352  0.477924  1
  Rb  Rb5  1  0.324282  0.196346  0.520628  1
  In  In6  1  0.750184  0.249036  0.498856  1
  In  In7  1  0.249819  0.748672  0.498856  1
  Sb  Sb8  1  0.407753  0.813720  0.221472  1
  Sb  Sb9  1  0.094092  0.307909  0.402001  1
  Sb  Sb10  1  0.903969  0.687814  0.591784  1
  Sb  Sb11  1  0.594715  0.186319  0.781034  1
