# generated using pymatgen
data_Sc6Nb6Os11Ru
_symmetry_space_group_name_H-M   'P 1'
_cell_length_a   4.52792400
_cell_length_b   6.36463400
_cell_length_c   13.64551600
_cell_angle_alpha   89.99931780
_cell_angle_beta   90.00111108
_cell_angle_gamma   90.00083168
_symmetry_Int_Tables_number   1
_chemical_formula_structural   Sc6Nb6Os11Ru
_chemical_formula_sum   'Sc6 Nb6 Os11 Ru1'
_cell_volume   393.24438131
_cell_formula_units_Z   1
loop_
 _symmetry_equiv_pos_site_id
 _symmetry_equiv_pos_as_xyz
  1  'x, y, z'
loop_
 _atom_site_type_symbol
 _atom_site_label
 _atom_site_symmetry_multiplicity
 _atom_site_fract_x
 _atom_site_fract_y
 _atom_site_fract_z
 _atom_site_occupancy
  Sc  Sc0  1  0.999996  0.500558  0.999758  1
  Sc  Sc1  1  0.499993  0.000018  0.166644  1
  Sc  Sc2  1  0.999984  0.500025  0.333337  1
  Sc  Sc3  1  0.500007  0.999989  0.500030  1
  Sc  Sc4  1  0.000012  0.500552  0.666906  1
  Sc  Sc5  1  0.500009  0.998977  0.833333  1
  Nb  Nb6  1  0.000004  0.000258  0.000277  1
  Nb  Nb7  1  0.499979  0.500103  0.166585  1
  Nb  Nb8  1  0.999981  0.000002  0.333331  1
  Nb  Nb9  1  0.500000  0.500108  0.500077  1
  Nb  Nb10  1  0.000007  0.000255  0.666387  1
  Nb  Nb11  1  0.500014  0.499155  0.833332  1
  Os  Os12  1  0.499992  0.249649  0.999872  1
  Os  Os13  1  0.499999  0.750401  0.999899  1
  Os  Os14  1  0.999989  0.250212  0.166467  1
  Os  Os15  1  0.999989  0.749618  0.166692  1
  Os  Os16  1  0.500005  0.249626  0.333329  1
  Os  Os17  1  0.499998  0.750337  0.333331  1
  Os  Os18  1  0.000002  0.250220  0.500199  1
  Os  Os19  1  0.999999  0.749619  0.499976  1
  Os  Os20  1  0.500014  0.249646  0.666794  1
  Os  Os21  1  0.500004  0.750405  0.666775  1
  Os  Os22  1  0.000012  0.250700  0.833335  1
  Ru  Ru23  1  0.000008  0.749564  0.833333  1
