# generated using pymatgen
data_Yb4TeP2
_symmetry_space_group_name_H-M   'P 1'
_cell_length_a   7.72291151
_cell_length_b   7.73709741
_cell_length_c   7.73709670
_cell_angle_alpha   109.07973574
_cell_angle_beta   110.04138409
_cell_angle_gamma   110.04138008
_symmetry_Int_Tables_number   1
_chemical_formula_structural   Yb4TeP2
_chemical_formula_sum   'Yb8 Te2 P4'
_cell_volume   352.53752369
_cell_formula_units_Z   2
loop_
 _symmetry_equiv_pos_site_id
 _symmetry_equiv_pos_as_xyz
  1  'x, y, z'
loop_
 _atom_site_type_symbol
 _atom_site_label
 _atom_site_symmetry_multiplicity
 _atom_site_fract_x
 _atom_site_fract_y
 _atom_site_fract_z
 _atom_site_occupancy
  Yb  Yb0  1  0.138593  0.507332  0.999997  1
  Yb  Yb1  1  0.638593  0.499997  0.007332  1
  Yb  Yb2  1  0.497460  0.005776  0.617217  1
  Yb  Yb3  1  0.377758  0.358536  0.349248  1
  Yb  Yb4  1  0.488380  0.004495  0.164943  1
  Yb  Yb5  1  0.988380  0.664943  0.504495  1
  Yb  Yb6  1  0.877758  0.849248  0.858536  1
  Yb  Yb7  1  0.997460  0.117217  0.505776  1
  Te  Te8  1  0.374393  0.629171  0.744303  1
  Te  Te9  1  0.874393  0.244303  0.129171  1
  P  P10  1  0.617073  0.746495  0.368986  1
  P  P11  1  0.117073  0.868986  0.246495  1
  P  P12  1  0.256343  0.123643  0.879858  1
  P  P13  1  0.756343  0.379858  0.623643  1
