# generated using pymatgen
data_Ho11Tm9Fe2(CoBi4)2
_symmetry_space_group_name_H-M   'P 1'
_cell_length_a   7.90650851
_cell_length_b   8.91394100
_cell_length_c   12.37240153
_cell_angle_alpha   90.00000000
_cell_angle_beta   90.08442143
_cell_angle_gamma   90.00000000
_symmetry_Int_Tables_number   1
_chemical_formula_structural   Ho11Tm9Fe2(CoBi4)2
_chemical_formula_sum   'Ho11 Tm9 Fe2 Co2 Bi8'
_cell_volume   871.98302928
_cell_formula_units_Z   1
loop_
 _symmetry_equiv_pos_site_id
 _symmetry_equiv_pos_as_xyz
  1  'x, y, z'
loop_
 _atom_site_type_symbol
 _atom_site_label
 _atom_site_symmetry_multiplicity
 _atom_site_fract_x
 _atom_site_fract_y
 _atom_site_fract_z
 _atom_site_occupancy
  Ho  Ho0  1  0.649499  0.250000  0.300873  1
  Ho  Ho1  1  0.849717  0.250000  0.800588  1
  Ho  Ho2  1  0.150893  0.750000  0.200568  1
  Ho  Ho3  1  0.887646  0.750000  0.814440  1
  Ho  Ho4  1  0.115071  0.250000  0.185430  1
  Ho  Ho5  1  0.384960  0.250000  0.685460  1
  Ho  Ho6  1  0.613223  0.750000  0.314163  1
  Ho  Ho7  1  0.058069  0.750000  0.494949  1
  Ho  Ho8  1  0.944430  0.250000  0.504432  1
  Ho  Ho9  1  0.554968  0.250000  0.003676  1
  Ho  Ho10  1  0.442485  0.750000  0.994699  1
  Tm  Tm11  1  0.349466  0.750000  0.700342  1
  Tm  Tm12  1  0.674225  0.540911  0.564325  1
  Tm  Tm13  1  0.328549  0.466366  0.437471  1
  Tm  Tm14  1  0.171600  0.466297  0.937065  1
  Tm  Tm15  1  0.328549  0.033634  0.437471  1
  Tm  Tm16  1  0.825674  0.539939  0.063902  1
  Tm  Tm17  1  0.674225  0.959089  0.564325  1
  Tm  Tm18  1  0.825674  0.960061  0.063902  1
  Tm  Tm19  1  0.171600  0.033703  0.937065  1
  Fe  Fe20  1  0.067518  0.750000  0.992993  1
  Fe  Fe21  1  0.431592  0.750000  0.492899  1
  Co  Co22  1  0.934609  0.250000  0.006860  1
  Co  Co23  1  0.565627  0.250000  0.507306  1
  Bi  Bi24  1  0.570673  0.507265  0.826210  1
  Bi  Bi25  1  0.429854  0.492442  0.172065  1
  Bi  Bi26  1  0.070787  0.493031  0.672507  1
  Bi  Bi27  1  0.429854  0.007558  0.172065  1
  Bi  Bi28  1  0.928753  0.506471  0.326617  1
  Bi  Bi29  1  0.570673  0.992735  0.826210  1
  Bi  Bi30  1  0.928753  0.993529  0.326617  1
  Bi  Bi31  1  0.070787  0.006969  0.672507  1
