# generated using pymatgen
data_Tb3Lu5(HgIr)2
_symmetry_space_group_name_H-M   'P 1'
_cell_length_a   9.48931041
_cell_length_b   9.48930991
_cell_length_c   9.48931100
_cell_angle_alpha   59.99999967
_cell_angle_beta   60.00000144
_cell_angle_gamma   59.99999920
_symmetry_Int_Tables_number   1
_chemical_formula_structural   Tb3Lu5(HgIr)2
_chemical_formula_sum   'Tb6 Lu10 Hg4 Ir4'
_cell_volume   604.21147243
_cell_formula_units_Z   2
loop_
 _symmetry_equiv_pos_site_id
 _symmetry_equiv_pos_as_xyz
  1  'x, y, z'
loop_
 _atom_site_type_symbol
 _atom_site_label
 _atom_site_symmetry_multiplicity
 _atom_site_fract_x
 _atom_site_fract_y
 _atom_site_fract_z
 _atom_site_occupancy
  Tb  Tb0  1  0.190337  0.809663  0.809663  1
  Tb  Tb1  1  0.809663  0.190337  0.190337  1
  Tb  Tb2  1  0.809663  0.190337  0.809663  1
  Tb  Tb3  1  0.190337  0.809663  0.190337  1
  Tb  Tb4  1  0.809663  0.809663  0.190337  1
  Tb  Tb5  1  0.190337  0.190337  0.809663  1
  Lu  Lu6  1  0.599866  0.599866  0.599866  1
  Lu  Lu7  1  0.599866  0.599866  0.200405  1
  Lu  Lu8  1  0.599866  0.200405  0.599866  1
  Lu  Lu9  1  0.200405  0.599866  0.599866  1
  Lu  Lu10  1  0.062041  0.437959  0.437959  1
  Lu  Lu11  1  0.437959  0.062041  0.062041  1
  Lu  Lu12  1  0.437959  0.062041  0.437959  1
  Lu  Lu13  1  0.062041  0.437959  0.062041  1
  Lu  Lu14  1  0.437959  0.437959  0.062041  1
  Lu  Lu15  1  0.062041  0.062041  0.437959  1
  Hg  Hg16  1  0.833392  0.833392  0.833392  1
  Hg  Hg17  1  0.833392  0.833392  0.499826  1
  Hg  Hg18  1  0.833392  0.499826  0.833392  1
  Hg  Hg19  1  0.499826  0.833392  0.833392  1
  Ir  Ir20  1  0.392222  0.392222  0.392222  1
  Ir  Ir21  1  0.392222  0.392222  0.823335  1
  Ir  Ir22  1  0.392222  0.823335  0.392222  1
  Ir  Ir23  1  0.823335  0.392222  0.392222  1
