# generated using pymatgen
data_Nd16Ag3SnIr4
_symmetry_space_group_name_H-M   'P 1'
_cell_length_a   9.87722205
_cell_length_b   9.87722131
_cell_length_c   9.87722118
_cell_angle_alpha   60.39514422
_cell_angle_beta   60.39514710
_cell_angle_gamma   60.39514752
_symmetry_Int_Tables_number   1
_chemical_formula_structural   Nd16Ag3SnIr4
_chemical_formula_sum   'Nd16 Ag3 Sn1 Ir4'
_cell_volume   687.46905731
_cell_formula_units_Z   1
loop_
 _symmetry_equiv_pos_site_id
 _symmetry_equiv_pos_as_xyz
  1  'x, y, z'
loop_
 _atom_site_type_symbol
 _atom_site_label
 _atom_site_symmetry_multiplicity
 _atom_site_fract_x
 _atom_site_fract_y
 _atom_site_fract_z
 _atom_site_occupancy
  Nd  Nd0  1  0.349409  0.349409  0.349409  1
  Nd  Nd1  1  0.349619  0.349619  0.948564  1
  Nd  Nd2  1  0.349619  0.948564  0.349619  1
  Nd  Nd3  1  0.948564  0.349619  0.349619  1
  Nd  Nd4  1  0.809201  0.189791  0.189791  1
  Nd  Nd5  1  0.194634  0.805988  0.805988  1
  Nd  Nd6  1  0.189791  0.809201  0.189791  1
  Nd  Nd7  1  0.805988  0.194634  0.805988  1
  Nd  Nd8  1  0.189791  0.189791  0.809201  1
  Nd  Nd9  1  0.805988  0.805988  0.194634  1
  Nd  Nd10  1  0.945251  0.561117  0.561117  1
  Nd  Nd11  1  0.561471  0.940401  0.940401  1
  Nd  Nd12  1  0.561117  0.945251  0.561117  1
  Nd  Nd13  1  0.940401  0.561471  0.940401  1
  Nd  Nd14  1  0.561117  0.561117  0.945251  1
  Nd  Nd15  1  0.940401  0.940401  0.561471  1
  Ag  Ag16  1  0.581303  0.581303  0.255069  1
  Ag  Ag17  1  0.581303  0.255069  0.581303  1
  Ag  Ag18  1  0.255069  0.581303  0.581303  1
  Sn  Sn19  1  0.578604  0.578604  0.578604  1
  Ir  Ir20  1  0.141503  0.141503  0.141503  1
  Ir  Ir21  1  0.142989  0.142989  0.573878  1
  Ir  Ir22  1  0.142989  0.573878  0.142989  1
  Ir  Ir23  1  0.573878  0.142989  0.142989  1
