# generated using pymatgen
data_La10Pr6Mg3CdIr4
_symmetry_space_group_name_H-M   'P 1'
_cell_length_a   10.14185466
_cell_length_b   10.15410189
_cell_length_c   10.15410200
_cell_angle_alpha   60.00000615
_cell_angle_beta   59.96005126
_cell_angle_gamma   59.96004438
_symmetry_Int_Tables_number   1
_chemical_formula_structural   La10Pr6Mg3CdIr4
_chemical_formula_sum   'La10 Pr6 Mg3 Cd1 Ir4'
_cell_volume   738.96338277
_cell_formula_units_Z   1
loop_
 _symmetry_equiv_pos_site_id
 _symmetry_equiv_pos_as_xyz
  1  'x, y, z'
loop_
 _atom_site_type_symbol
 _atom_site_label
 _atom_site_symmetry_multiplicity
 _atom_site_fract_x
 _atom_site_fract_y
 _atom_site_fract_z
 _atom_site_occupancy
  La  La0  1  0.345304  0.345910  0.345910  1
  La  La1  1  0.345304  0.345910  0.962873  1
  La  La2  1  0.345304  0.962873  0.345910  1
  La  La3  1  0.963784  0.345405  0.345405  1
  La  La4  1  0.812081  0.187989  0.187989  1
  La  La5  1  0.189186  0.810744  0.810744  1
  La  La6  1  0.189186  0.810744  0.189328  1
  La  La7  1  0.812081  0.187989  0.811940  1
  La  La8  1  0.189186  0.189328  0.810744  1
  La  La9  1  0.812081  0.811940  0.187989  1
  Pr  Pr10  1  0.938636  0.562672  0.562672  1
  Pr  Pr11  1  0.563173  0.936797  0.936797  1
  Pr  Pr12  1  0.563173  0.936797  0.563234  1
  Pr  Pr13  1  0.938636  0.562672  0.936019  1
  Pr  Pr14  1  0.563173  0.563234  0.936797  1
  Pr  Pr15  1  0.938636  0.936019  0.562672  1
  Mg  Mg16  1  0.577015  0.578572  0.578572  1
  Mg  Mg17  1  0.577015  0.578572  0.265839  1
  Mg  Mg18  1  0.577015  0.265839  0.578572  1
  Cd  Cd19  1  0.260441  0.579852  0.579852  1
  Ir  Ir20  1  0.140949  0.140988  0.140988  1
  Ir  Ir21  1  0.140949  0.140988  0.577074  1
  Ir  Ir22  1  0.140949  0.577074  0.140988  1
  Ir  Ir23  1  0.576740  0.141087  0.141087  1
