# generated using pymatgen
data_PrDyHoIrO7
_symmetry_space_group_name_H-M   'P 1'
_cell_length_a   6.47791470
_cell_length_b   6.47062782
_cell_length_c   7.51060100
_cell_angle_alpha   90.00000000
_cell_angle_beta   90.00000000
_cell_angle_gamma   109.80488468
_symmetry_Int_Tables_number   1
_chemical_formula_structural   PrDyHoIrO7
_chemical_formula_sum   'Pr2 Dy2 Ho2 Ir2 O14'
_cell_volume   296.19491375
_cell_formula_units_Z   2
loop_
 _symmetry_equiv_pos_site_id
 _symmetry_equiv_pos_as_xyz
  1  'x, y, z'
loop_
 _atom_site_type_symbol
 _atom_site_label
 _atom_site_symmetry_multiplicity
 _atom_site_fract_x
 _atom_site_fract_y
 _atom_site_fract_z
 _atom_site_occupancy
  Pr  Pr0  1  0.000000  0.000000  0.000000  1
  Pr  Pr1  1  0.000000  0.000000  0.500000  1
  Dy  Dy2  1  0.483786  0.935141  0.750000  1
  Dy  Dy3  1  0.516214  0.064859  0.250000  1
  Ho  Ho4  1  0.936502  0.484304  0.750000  1
  Ho  Ho5  1  0.063498  0.515696  0.250000  1
  Ir  Ir6  1  0.500000  0.500000  0.000000  1
  Ir  Ir7  1  0.500000  0.500000  0.500000  1
  O  O8  1  0.592126  0.591455  0.750000  1
  O  O9  1  0.407874  0.408545  0.250000  1
  O  O10  1  0.838731  0.121972  0.750000  1
  O  O11  1  0.161269  0.878028  0.250000  1
  O  O12  1  0.120265  0.837779  0.750000  1
  O  O13  1  0.879735  0.162221  0.250000  1
  O  O14  1  0.439863  0.180629  0.965032  1
  O  O15  1  0.560137  0.819371  0.465032  1
  O  O16  1  0.180252  0.440428  0.965474  1
  O  O17  1  0.819748  0.559572  0.465474  1
  O  O18  1  0.439863  0.180629  0.534968  1
  O  O19  1  0.560137  0.819371  0.034968  1
  O  O20  1  0.819748  0.559572  0.034526  1
  O  O21  1  0.180252  0.440428  0.534526  1
