# generated using pymatgen
data_Y5P12Pd4Ru15
_symmetry_space_group_name_H-M   'P 1'
_cell_length_a   12.71461359
_cell_length_b   12.63668162
_cell_length_c   3.96607500
_cell_angle_alpha   90.00000000
_cell_angle_beta   90.00000000
_cell_angle_gamma   120.37176967
_symmetry_Int_Tables_number   1
_chemical_formula_structural   Y5P12Pd4Ru15
_chemical_formula_sum   'Y5 P12 Pd4 Ru15'
_cell_volume   549.77956153
_cell_formula_units_Z   1
loop_
 _symmetry_equiv_pos_site_id
 _symmetry_equiv_pos_as_xyz
  1  'x, y, z'
loop_
 _atom_site_type_symbol
 _atom_site_label
 _atom_site_symmetry_multiplicity
 _atom_site_fract_x
 _atom_site_fract_y
 _atom_site_fract_z
 _atom_site_occupancy
  Y  Y0  1  0.003587  0.180027  0.500000  1
  Y  Y1  1  0.817673  0.814822  0.500000  1
  Y  Y2  1  0.182114  0.999366  0.500000  1
  Y  Y3  1  0.663728  0.333518  0.000000  1
  Y  Y4  1  0.334455  0.667806  0.000000  1
  P  P5  1  0.001523  0.814639  0.000000  1
  P  P6  1  0.186640  0.185724  0.000000  1
  P  P7  1  0.814873  0.992817  0.000000  1
  P  P8  1  0.687422  0.174340  0.500000  1
  P  P9  1  0.820376  0.518844  0.500000  1
  P  P10  1  0.479225  0.302543  0.500000  1
  P  P11  1  0.179031  0.698742  0.500000  1
  P  P12  1  0.520086  0.822001  0.500000  1
  P  P13  1  0.301717  0.481524  0.500000  1
  P  P14  1  0.009701  0.375689  0.000000  1
  P  P15  1  0.634038  0.634099  0.000000  1
  P  P16  1  0.365494  0.000017  0.000000  1
  Pd  Pd17  1  0.996156  0.551874  0.000000  1
  Pd  Pd18  1  0.447161  0.447153  0.000000  1
  Pd  Pd19  1  0.554243  0.004063  0.000000  1
  Pd  Pd20  1  0.813523  0.187039  0.000000  1
  Ru  Ru21  1  0.000372  0.712826  0.500000  1
  Ru  Ru22  1  0.287579  0.288181  0.500000  1
  Ru  Ru23  1  0.715631  0.003363  0.500000  1
  Ru  Ru24  1  0.815093  0.621301  0.000000  1
  Ru  Ru25  1  0.377339  0.193211  0.000000  1
  Ru  Ru26  1  0.185650  0.805817  0.000000  1
  Ru  Ru27  1  0.621599  0.816295  0.000000  1
  Ru  Ru28  1  0.195494  0.379706  0.000000  1
  Ru  Ru29  1  0.870095  0.362671  0.500000  1
  Ru  Ru30  1  0.632054  0.508380  0.500000  1
  Ru  Ru31  1  0.487708  0.123325  0.500000  1
  Ru  Ru32  1  0.369348  0.874974  0.500000  1
  Ru  Ru33  1  0.507264  0.632230  0.500000  1
  Ru  Ru34  1  0.121520  0.491033  0.500000  1
  Ru  Ru35  1  0.000488  0.000040  0.000000  1
