# generated using pymatgen
data_PrIn2(SnRh)4
_symmetry_space_group_name_H-M   'P 1'
_cell_length_a   7.01841482
_cell_length_b   7.01841510
_cell_length_c   6.99273035
_cell_angle_alpha   120.26616656
_cell_angle_beta   120.26617400
_cell_angle_gamma   89.75096551
_symmetry_Int_Tables_number   1
_chemical_formula_structural   PrIn2(SnRh)4
_chemical_formula_sum   'Pr1 In2 Sn4 Rh4'
_cell_volume   242.12620292
_cell_formula_units_Z   1
loop_
 _symmetry_equiv_pos_site_id
 _symmetry_equiv_pos_as_xyz
  1  'x, y, z'
loop_
 _atom_site_type_symbol
 _atom_site_label
 _atom_site_symmetry_multiplicity
 _atom_site_fract_x
 _atom_site_fract_y
 _atom_site_fract_z
 _atom_site_occupancy
  Pr  Pr0  1  0.000817  0.000817  0.000000  1
  In  In1  1  0.466142  0.122276  0.000000  1
  In  In2  1  0.122276  0.466142  0.000000  1
  Sn  Sn3  1  0.874767  0.874767  0.340519  1
  Sn  Sn4  1  0.501260  0.001260  0.500000  1
  Sn  Sn5  1  0.001260  0.501260  0.500000  1
  Sn  Sn6  1  0.534249  0.534249  0.659481  1
  Rh  Rh7  1  0.749338  0.400125  0.000000  1
  Rh  Rh8  1  0.400125  0.749338  0.000000  1
  Rh  Rh9  1  0.608750  0.608750  0.367735  1
  Rh  Rh10  1  0.241016  0.241016  0.632265  1
