# generated using pymatgen
data_K4HoErF10
_symmetry_space_group_name_H-M   'P 1'
_cell_length_a   6.69430855
_cell_length_b   7.27934400
_cell_length_c   10.99233991
_cell_angle_alpha   90.00000000
_cell_angle_beta   90.04662396
_cell_angle_gamma   90.00000000
_symmetry_Int_Tables_number   1
_chemical_formula_structural   K4HoErF10
_chemical_formula_sum   'K8 Ho2 Er2 F20'
_cell_volume   535.65846800
_cell_formula_units_Z   2
loop_
 _symmetry_equiv_pos_site_id
 _symmetry_equiv_pos_as_xyz
  1  'x, y, z'
loop_
 _atom_site_type_symbol
 _atom_site_label
 _atom_site_symmetry_multiplicity
 _atom_site_fract_x
 _atom_site_fract_y
 _atom_site_fract_z
 _atom_site_occupancy
  K  K0  1  0.534447  0.996958  0.829025  1
  K  K1  1  0.465553  0.496958  0.170975  1
  K  K2  1  0.965533  0.996940  0.329048  1
  K  K3  1  0.034467  0.496940  0.670952  1
  K  K4  1  0.534447  0.503042  0.829025  1
  K  K5  1  0.465553  0.003042  0.170975  1
  K  K6  1  0.965533  0.503060  0.329048  1
  K  K7  1  0.034467  0.003060  0.670952  1
  Ho  Ho8  1  0.563857  0.250000  0.502685  1
  Ho  Ho9  1  0.436143  0.750000  0.497315  1
  Er  Er10  1  0.936198  0.250000  0.002488  1
  Er  Er11  1  0.063802  0.750000  0.997512  1
  F  F12  1  0.877508  0.750000  0.833843  1
  F  F13  1  0.122492  0.250000  0.166157  1
  F  F14  1  0.623447  0.750000  0.333073  1
  F  F15  1  0.376553  0.250000  0.666927  1
  F  F16  1  0.842968  0.250000  0.810921  1
  F  F17  1  0.157032  0.750000  0.189079  1
  F  F18  1  0.657421  0.250000  0.310068  1
  F  F19  1  0.342579  0.750000  0.689932  1
  F  F20  1  0.647926  0.964143  0.573494  1
  F  F21  1  0.352074  0.464143  0.426506  1
  F  F22  1  0.853027  0.964257  0.073015  1
  F  F23  1  0.146973  0.464257  0.926985  1
  F  F24  1  0.389777  0.750000  0.986130  1
  F  F25  1  0.610223  0.250000  0.013870  1
  F  F26  1  0.108693  0.750000  0.486088  1
  F  F27  1  0.891307  0.250000  0.513912  1
  F  F28  1  0.146973  0.035743  0.926985  1
  F  F29  1  0.853027  0.535743  0.073015  1
  F  F30  1  0.352074  0.035857  0.426506  1
  F  F31  1  0.647926  0.535857  0.573494  1
