# generated using pymatgen
data_Yb5Pa3(Pt2Pb)4
_symmetry_space_group_name_H-M   'P 1'
_cell_length_a   7.97207090
_cell_length_b   7.97207090
_cell_length_c   7.20655800
_cell_angle_alpha   90.00000000
_cell_angle_beta   90.00000000
_cell_angle_gamma   93.55680196
_symmetry_Int_Tables_number   1
_chemical_formula_structural   Yb5Pa3(Pt2Pb)4
_chemical_formula_sum   'Yb5 Pa3 Pt8 Pb4'
_cell_volume   457.12275521
_cell_formula_units_Z   1
loop_
 _symmetry_equiv_pos_site_id
 _symmetry_equiv_pos_as_xyz
  1  'x, y, z'
loop_
 _atom_site_type_symbol
 _atom_site_label
 _atom_site_symmetry_multiplicity
 _atom_site_fract_x
 _atom_site_fract_y
 _atom_site_fract_z
 _atom_site_occupancy
  Yb  Yb0  1  0.826973  0.170554  0.500000  1
  Yb  Yb1  1  0.325817  0.325817  0.000000  1
  Yb  Yb2  1  0.170554  0.826973  0.500000  1
  Yb  Yb3  1  0.837173  0.169089  0.000000  1
  Yb  Yb4  1  0.169089  0.837173  0.000000  1
  Pa  Pa5  1  0.666724  0.666724  0.000000  1
  Pa  Pa6  1  0.327438  0.327438  0.500000  1
  Pa  Pa7  1  0.668013  0.668013  0.500000  1
  Pt  Pt8  1  0.862201  0.862201  0.747955  1
  Pt  Pt9  1  0.127907  0.127907  0.731554  1
  Pt  Pt10  1  0.627753  0.381295  0.745462  1
  Pt  Pt11  1  0.627753  0.381295  0.254538  1
  Pt  Pt12  1  0.381295  0.627753  0.254538  1
  Pt  Pt13  1  0.127907  0.127907  0.268446  1
  Pt  Pt14  1  0.862201  0.862201  0.252045  1
  Pt  Pt15  1  0.381295  0.627753  0.745462  1
  Pb  Pb16  1  0.498962  0.005991  0.753021  1
  Pb  Pb17  1  0.498962  0.005991  0.246979  1
  Pb  Pb18  1  0.005991  0.498962  0.753021  1
  Pb  Pb19  1  0.005991  0.498962  0.246979  1
