# generated using pymatgen
data_Lu10Sc2Re3Si12Ru
_symmetry_space_group_name_H-M   'P 1'
_cell_length_a   4.02165900
_cell_length_b   10.76228790
_cell_length_c   12.11005108
_cell_angle_alpha   90.10620325
_cell_angle_beta   90.00000000
_cell_angle_gamma   90.00000000
_symmetry_Int_Tables_number   1
_chemical_formula_structural   Lu10Sc2Re3Si12Ru
_chemical_formula_sum   'Lu10 Sc2 Re3 Si12 Ru1'
_cell_volume   524.14938220
_cell_formula_units_Z   1
loop_
 _symmetry_equiv_pos_site_id
 _symmetry_equiv_pos_as_xyz
  1  'x, y, z'
loop_
 _atom_site_type_symbol
 _atom_site_label
 _atom_site_symmetry_multiplicity
 _atom_site_fract_x
 _atom_site_fract_y
 _atom_site_fract_z
 _atom_site_occupancy
  Lu  Lu0  1  0.250000  0.876453  0.017871  1
  Lu  Lu1  1  0.250000  0.624545  0.517994  1
  Lu  Lu2  1  0.750000  0.120989  0.983856  1
  Lu  Lu3  1  0.750000  0.379282  0.484288  1
  Lu  Lu4  1  0.250000  0.923055  0.604793  1
  Lu  Lu5  1  0.250000  0.576738  0.105992  1
  Lu  Lu6  1  0.750000  0.075125  0.392629  1
  Lu  Lu7  1  0.750000  0.424716  0.891821  1
  Lu  Lu8  1  0.750000  0.338683  0.201345  1
  Lu  Lu9  1  0.750000  0.158407  0.701406  1
  Sc  Sc10  1  0.250000  0.664456  0.797570  1
  Sc  Sc11  1  0.250000  0.836286  0.297471  1
  Re  Re12  1  0.250000  0.389713  0.680517  1
  Re  Re13  1  0.250000  0.111104  0.179286  1
  Re  Re14  1  0.750000  0.613775  0.321190  1
  Si  Si15  1  0.250000  0.014701  0.821864  1
  Si  Si16  1  0.250000  0.482019  0.321878  1
  Si  Si17  1  0.750000  0.978072  0.179383  1
  Si  Si18  1  0.750000  0.523184  0.679928  1
  Si  Si19  1  0.250000  0.248482  0.844794  1
  Si  Si20  1  0.250000  0.249741  0.345502  1
  Si  Si21  1  0.750000  0.750161  0.156445  1
  Si  Si22  1  0.750000  0.751718  0.658985  1
  Si  Si23  1  0.250000  0.196325  0.543057  1
  Si  Si24  1  0.250000  0.303629  0.042439  1
  Si  Si25  1  0.750000  0.804956  0.453258  1
  Si  Si26  1  0.750000  0.696173  0.952863  1
  Ru  Ru27  1  0.750000  0.887511  0.821575  1
