# generated using pymatgen
data_Tb4Al17CuPt6
_symmetry_space_group_name_H-M   'P 1'
_cell_length_a   7.58822653
_cell_length_b   7.58822615
_cell_length_c   9.45121100
_cell_angle_alpha   90.00000000
_cell_angle_beta   90.00000000
_cell_angle_gamma   119.22933134
_symmetry_Int_Tables_number   1
_chemical_formula_structural   Tb4Al17CuPt6
_chemical_formula_sum   'Tb4 Al17 Cu1 Pt6'
_cell_volume   474.91857909
_cell_formula_units_Z   1
loop_
 _symmetry_equiv_pos_site_id
 _symmetry_equiv_pos_as_xyz
  1  'x, y, z'
loop_
 _atom_site_type_symbol
 _atom_site_label
 _atom_site_symmetry_multiplicity
 _atom_site_fract_x
 _atom_site_fract_y
 _atom_site_fract_z
 _atom_site_occupancy
  Tb  Tb0  1  0.991577  0.670550  0.250000  1
  Tb  Tb1  1  0.006327  0.329048  0.750000  1
  Tb  Tb2  1  0.670550  0.991577  0.250000  1
  Tb  Tb3  1  0.329048  0.006327  0.750000  1
  Al  Al4  1  0.866780  0.866780  0.750000  1
  Al  Al5  1  0.003683  0.327247  0.083529  1
  Al  Al6  1  0.999807  0.663916  0.923605  1
  Al  Al7  1  0.999807  0.663916  0.576395  1
  Al  Al8  1  0.327247  0.003683  0.416471  1
  Al  Al9  1  0.003683  0.327247  0.416471  1
  Al  Al10  1  0.663914  0.999806  0.576396  1
  Al  Al11  1  0.663914  0.999806  0.923604  1
  Al  Al12  1  0.327247  0.003683  0.083529  1
  Al  Al13  1  0.332866  0.332866  0.551619  1
  Al  Al14  1  0.666866  0.666866  0.441923  1
  Al  Al15  1  0.666866  0.666866  0.058077  1
  Al  Al16  1  0.332866  0.332866  0.948381  1
  Al  Al17  1  0.337505  0.542618  0.250000  1
  Al  Al18  1  0.659983  0.451432  0.750000  1
  Al  Al19  1  0.542618  0.337505  0.250000  1
  Al  Al20  1  0.451432  0.659983  0.750000  1
  Cu  Cu21  1  0.155660  0.155660  0.250000  1
  Pt  Pt22  1  0.674704  0.328282  0.000556  1
  Pt  Pt23  1  0.328282  0.674704  0.000556  1
  Pt  Pt24  1  0.328282  0.674704  0.499444  1
  Pt  Pt25  1  0.674704  0.328282  0.499444  1
  Pt  Pt26  1  0.996889  0.996889  0.993633  1
  Pt  Pt27  1  0.996889  0.996889  0.506367  1
