# generated using pymatgen
data_CaY2Ga6(NiRh2)3
_symmetry_space_group_name_H-M   'P 1'
_cell_length_a   9.53105900
_cell_length_b   9.53105906
_cell_length_c   3.85575200
_cell_angle_alpha   90.00000000
_cell_angle_beta   90.00000000
_cell_angle_gamma   120.00000326
_symmetry_Int_Tables_number   1
_chemical_formula_structural   CaY2Ga6(NiRh2)3
_chemical_formula_sum   'Ca1 Y2 Ga6 Ni3 Rh6'
_cell_volume   303.33465413
_cell_formula_units_Z   1
loop_
 _symmetry_equiv_pos_site_id
 _symmetry_equiv_pos_as_xyz
  1  'x, y, z'
loop_
 _atom_site_type_symbol
 _atom_site_label
 _atom_site_symmetry_multiplicity
 _atom_site_fract_x
 _atom_site_fract_y
 _atom_site_fract_z
 _atom_site_occupancy
  Ca  Ca0  1  0.000000  0.000000  0.000000  1
  Y  Y1  1  0.333333  0.666667  0.500000  1
  Y  Y2  1  0.666667  0.333333  0.500000  1
  Ga  Ga3  1  0.331146  0.331146  0.500000  1
  Ga  Ga4  1  0.668854  0.000000  0.500000  1
  Ga  Ga5  1  0.668854  0.668854  0.500000  1
  Ga  Ga6  1  0.000000  0.331146  0.500000  1
  Ga  Ga7  1  0.000000  0.668854  0.500000  1
  Ga  Ga8  1  0.331146  0.000000  0.500000  1
  Ni  Ni9  1  0.500000  0.000000  0.000000  1
  Ni  Ni10  1  0.000000  0.500000  0.000000  1
  Ni  Ni11  1  0.500000  0.500000  0.000000  1
  Rh  Rh12  1  0.183452  0.366903  0.000000  1
  Rh  Rh13  1  0.816548  0.633097  0.000000  1
  Rh  Rh14  1  0.183452  0.816548  0.000000  1
  Rh  Rh15  1  0.633097  0.816548  0.000000  1
  Rh  Rh16  1  0.366903  0.183452  0.000000  1
  Rh  Rh17  1  0.816548  0.183452  0.000000  1
