# generated using pymatgen
data_Yb8Si12Pd3Rh
_symmetry_space_group_name_H-M   'P 1'
_cell_length_a   8.23920000
_cell_length_b   8.23920093
_cell_length_c   8.22932000
_cell_angle_alpha   90.00000000
_cell_angle_beta   90.00000000
_cell_angle_gamma   120.00000431
_symmetry_Int_Tables_number   1
_chemical_formula_structural   Yb8Si12Pd3Rh
_chemical_formula_sum   'Yb8 Si12 Pd3 Rh1'
_cell_volume   483.79870589
_cell_formula_units_Z   1
loop_
 _symmetry_equiv_pos_site_id
 _symmetry_equiv_pos_as_xyz
  1  'x, y, z'
loop_
 _atom_site_type_symbol
 _atom_site_label
 _atom_site_symmetry_multiplicity
 _atom_site_fract_x
 _atom_site_fract_y
 _atom_site_fract_z
 _atom_site_occupancy
  Yb  Yb0  1  0.501347  0.498653  0.751319  1
  Yb  Yb1  1  0.502375  0.497625  0.248742  1
  Yb  Yb2  1  0.997306  0.498653  0.751319  1
  Yb  Yb3  1  0.995253  0.497625  0.248742  1
  Yb  Yb4  1  0.501347  0.002694  0.751319  1
  Yb  Yb5  1  0.502375  0.004747  0.248742  1
  Yb  Yb6  1  0.000000  0.000000  0.749440  1
  Yb  Yb7  1  0.000000  0.000000  0.250243  1
  Si  Si8  1  0.833101  0.166899  0.000012  1
  Si  Si9  1  0.163485  0.836515  0.999953  1
  Si  Si10  1  0.333799  0.166899  0.000012  1
  Si  Si11  1  0.164207  0.835793  0.500201  1
  Si  Si12  1  0.673031  0.836515  0.999953  1
  Si  Si13  1  0.836288  0.163712  0.499649  1
  Si  Si14  1  0.833101  0.666201  0.000012  1
  Si  Si15  1  0.671586  0.835793  0.500201  1
  Si  Si16  1  0.163485  0.326969  0.999953  1
  Si  Si17  1  0.327424  0.163712  0.499649  1
  Si  Si18  1  0.164207  0.328414  0.500201  1
  Si  Si19  1  0.836288  0.672576  0.499649  1
  Pd  Pd20  1  0.333333  0.666667  0.002152  1
  Pd  Pd21  1  0.333333  0.666667  0.498122  1
  Pd  Pd22  1  0.666667  0.333333  0.502055  1
  Rh  Rh23  1  0.666667  0.333333  0.998363  1
