# generated using pymatgen
data_LuAl3Pt8
_symmetry_space_group_name_H-M   'P 1'
_cell_length_a   4.03820100
_cell_length_b   5.61310500
_cell_length_c   16.57645400
_cell_angle_alpha   90.00000000
_cell_angle_beta   90.00000000
_cell_angle_gamma   90.00000000
_symmetry_Int_Tables_number   1
_chemical_formula_structural   LuAl3Pt8
_chemical_formula_sum   'Lu2 Al6 Pt16'
_cell_volume   375.73593376
_cell_formula_units_Z   2
loop_
 _symmetry_equiv_pos_site_id
 _symmetry_equiv_pos_as_xyz
  1  'x, y, z'
loop_
 _atom_site_type_symbol
 _atom_site_label
 _atom_site_symmetry_multiplicity
 _atom_site_fract_x
 _atom_site_fract_y
 _atom_site_fract_z
 _atom_site_occupancy
  Lu  Lu0  1  0.000000  0.199522  0.750000  1
  Lu  Lu1  1  0.000000  0.800478  0.250000  1
  Al  Al2  1  0.000000  0.686457  0.591458  1
  Al  Al3  1  0.000000  0.313543  0.408542  1
  Al  Al4  1  0.000000  0.686457  0.908542  1
  Al  Al5  1  0.000000  0.313543  0.091458  1
  Al  Al6  1  0.500000  0.000000  0.500000  1
  Al  Al7  1  0.500000  0.000000  0.000000  1
  Pt  Pt8  1  0.500000  0.056058  0.345454  1
  Pt  Pt9  1  0.500000  0.943942  0.654546  1
  Pt  Pt10  1  0.500000  0.550031  0.164566  1
  Pt  Pt11  1  0.500000  0.449969  0.835434  1
  Pt  Pt12  1  0.500000  0.550031  0.335434  1
  Pt  Pt13  1  0.500000  0.449969  0.664566  1
  Pt  Pt14  1  0.000000  0.291230  0.250000  1
  Pt  Pt15  1  0.000000  0.708770  0.750000  1
  Pt  Pt16  1  0.500000  0.943942  0.845454  1
  Pt  Pt17  1  0.500000  0.056058  0.154546  1
  Pt  Pt18  1  0.500000  0.500000  0.500000  1
  Pt  Pt19  1  0.500000  0.500000  0.000000  1
  Pt  Pt20  1  0.000000  0.202087  0.567202  1
  Pt  Pt21  1  0.000000  0.797913  0.432798  1
  Pt  Pt22  1  0.000000  0.202087  0.932798  1
  Pt  Pt23  1  0.000000  0.797913  0.067202  1
