# generated using pymatgen
data_DySc3(MnC2)2
_symmetry_space_group_name_H-M   'P 1'
_cell_length_a   4.80461200
_cell_length_b   6.21948177
_cell_length_c   9.17488391
_cell_angle_alpha   88.93964468
_cell_angle_beta   90.00000000
_cell_angle_gamma   90.00000000
_symmetry_Int_Tables_number   1
_chemical_formula_structural   DySc3(MnC2)2
_chemical_formula_sum   'Dy2 Sc6 Mn4 C8'
_cell_volume   274.11873690
_cell_formula_units_Z   2
loop_
 _symmetry_equiv_pos_site_id
 _symmetry_equiv_pos_as_xyz
  1  'x, y, z'
loop_
 _atom_site_type_symbol
 _atom_site_label
 _atom_site_symmetry_multiplicity
 _atom_site_fract_x
 _atom_site_fract_y
 _atom_site_fract_z
 _atom_site_occupancy
  Dy  Dy0  1  0.750000  0.972031  0.707125  1
  Dy  Dy1  1  0.250000  0.027969  0.292875  1
  Sc  Sc2  1  0.250000  0.666076  0.560507  1
  Sc  Sc3  1  0.750000  0.333924  0.439493  1
  Sc  Sc4  1  0.750000  0.829868  0.059229  1
  Sc  Sc5  1  0.250000  0.170132  0.940771  1
  Sc  Sc6  1  0.250000  0.529168  0.213364  1
  Sc  Sc7  1  0.750000  0.470832  0.786636  1
  Mn  Mn8  1  0.250000  0.723313  0.862651  1
  Mn  Mn9  1  0.750000  0.276687  0.137349  1
  Mn  Mn10  1  0.750000  0.770822  0.361808  1
  Mn  Mn11  1  0.250000  0.229178  0.638192  1
  C  C12  1  0.250000  0.454912  0.765624  1
  C  C13  1  0.750000  0.545088  0.234376  1
  C  C14  1  0.750000  0.044351  0.262826  1
  C  C15  1  0.250000  0.955649  0.737174  1
  C  C16  1  0.250000  0.815971  0.045499  1
  C  C17  1  0.750000  0.184029  0.954501  1
  C  C18  1  0.750000  0.667786  0.545380  1
  C  C19  1  0.250000  0.332214  0.454620  1
