# generated using pymatgen
data_Pr2Ga3GeIrRh3
_symmetry_space_group_name_H-M   'P 1'
_cell_length_a   4.29999600
_cell_length_b   4.29999600
_cell_length_c   10.22500500
_cell_angle_alpha   90.00000000
_cell_angle_beta   90.00000000
_cell_angle_gamma   90.00000000
_symmetry_Int_Tables_number   1
_chemical_formula_structural   Pr2Ga3GeIrRh3
_chemical_formula_sum   'Pr2 Ga3 Ge1 Ir1 Rh3'
_cell_volume   189.05999071
_cell_formula_units_Z   1
loop_
 _symmetry_equiv_pos_site_id
 _symmetry_equiv_pos_as_xyz
  1  'x, y, z'
loop_
 _atom_site_type_symbol
 _atom_site_label
 _atom_site_symmetry_multiplicity
 _atom_site_fract_x
 _atom_site_fract_y
 _atom_site_fract_z
 _atom_site_occupancy
  Pr  Pr0  1  0.000000  0.500000  0.244810  1
  Pr  Pr1  1  0.500000  0.000000  0.752672  1
  Ga  Ga2  1  0.000000  0.500000  0.875073  1
  Ga  Ga3  1  0.000000  0.000000  0.498547  1
  Ga  Ga4  1  0.500000  0.500000  0.498547  1
  Ge  Ge5  1  0.500000  0.000000  0.124798  1
  Ir  Ir6  1  0.000000  0.500000  0.630173  1
  Rh  Rh7  1  0.500000  0.000000  0.367803  1
  Rh  Rh8  1  0.000000  0.000000  0.003788  1
  Rh  Rh9  1  0.500000  0.500000  0.003788  1
