# generated using pymatgen
data_Ce4Cd2Pt3Au
_symmetry_space_group_name_H-M   'P 1'
_cell_length_a   7.95207976
_cell_length_b   7.95207976
_cell_length_c   3.77274700
_cell_angle_alpha   90.00000000
_cell_angle_beta   90.00000000
_cell_angle_gamma   90.23526212
_symmetry_Int_Tables_number   1
_chemical_formula_structural   Ce4Cd2Pt3Au
_chemical_formula_sum   'Ce4 Cd2 Pt3 Au1'
_cell_volume   238.56980526
_cell_formula_units_Z   1
loop_
 _symmetry_equiv_pos_site_id
 _symmetry_equiv_pos_as_xyz
  1  'x, y, z'
loop_
 _atom_site_type_symbol
 _atom_site_label
 _atom_site_symmetry_multiplicity
 _atom_site_fract_x
 _atom_site_fract_y
 _atom_site_fract_z
 _atom_site_occupancy
  Ce  Ce0  1  0.172822  0.327178  0.500000  1
  Ce  Ce1  1  0.318300  0.832650  0.500000  1
  Ce  Ce2  1  0.840349  0.659651  0.500000  1
  Ce  Ce3  1  0.667350  0.181700  0.500000  1
  Cd  Cd4  1  0.498570  0.501795  0.000000  1
  Cd  Cd5  1  0.998205  0.001430  0.000000  1
  Pt  Pt6  1  0.132626  0.630114  0.000000  1
  Pt  Pt7  1  0.869886  0.367374  0.000000  1
  Pt  Pt8  1  0.370340  0.129660  0.000000  1
  Au  Au9  1  0.631551  0.868449  0.000000  1
