# generated using pymatgen
data_HoTm4ReRuO12
_symmetry_space_group_name_H-M   'P 1'
_cell_length_a   6.76989762
_cell_length_b   6.77344519
_cell_length_c   7.42424559
_cell_angle_alpha   73.84278681
_cell_angle_beta   73.85225960
_cell_angle_gamma   49.14387160
_symmetry_Int_Tables_number   1
_chemical_formula_structural   HoTm4ReRuO12
_chemical_formula_sum   'Ho1 Tm4 Re1 Ru1 O12'
_cell_volume   245.15230397
_cell_formula_units_Z   1
loop_
 _symmetry_equiv_pos_site_id
 _symmetry_equiv_pos_as_xyz
  1  'x, y, z'
loop_
 _atom_site_type_symbol
 _atom_site_label
 _atom_site_symmetry_multiplicity
 _atom_site_fract_x
 _atom_site_fract_y
 _atom_site_fract_z
 _atom_site_occupancy
  Ho  Ho0  1  0.817540  0.786971  0.358309  1
  Tm  Tm1  1  0.213429  0.182684  0.641866  1
  Tm  Tm2  1  0.190820  0.180320  0.175396  1
  Tm  Tm3  1  0.819829  0.809032  0.824550  1
  Tm  Tm4  1  0.510660  0.489101  0.500263  1
  Re  Re5  1  0.702111  0.298300  0.999758  1
  Ru  Ru6  1  0.267836  0.732434  0.999732  1
  O  O7  1  0.413222  0.937888  0.913035  1
  O  O8  1  0.063565  0.585468  0.085055  1
  O  O9  1  0.587612  0.092354  0.086387  1
  O  O10  1  0.908631  0.411672  0.912364  1
  O  O11  1  0.608218  0.091549  0.569003  1
  O  O12  1  0.910777  0.387742  0.433042  1
  O  O13  1  0.409272  0.899214  0.424480  1
  O  O14  1  0.986061  0.014551  0.820701  1
  O  O15  1  0.986152  0.015086  0.178232  1
  O  O16  1  0.497342  0.496375  0.795496  1
  O  O17  1  0.503786  0.502630  0.204547  1
  O  O18  1  0.103141  0.586628  0.577784  1
