# generated using pymatgen
data_YbTh2P3
_symmetry_space_group_name_H-M   'P 1'
_cell_length_a   7.17289572
_cell_length_b   7.17289547
_cell_length_c   7.17289605
_cell_angle_alpha   146.41738276
_cell_angle_beta   131.98608842
_cell_angle_gamma   59.86499807
_symmetry_Int_Tables_number   1
_chemical_formula_structural   YbTh2P3
_chemical_formula_sum   'Yb1 Th2 P3'
_cell_volume   150.35858791
_cell_formula_units_Z   1
loop_
 _symmetry_equiv_pos_site_id
 _symmetry_equiv_pos_as_xyz
  1  'x, y, z'
loop_
 _atom_site_type_symbol
 _atom_site_label
 _atom_site_symmetry_multiplicity
 _atom_site_fract_x
 _atom_site_fract_y
 _atom_site_fract_z
 _atom_site_occupancy
  Yb  Yb0  1  0.000000  0.000000  0.000000  1
  Th  Th1  1  0.665552  0.665552  0.000000  1
  Th  Th2  1  0.334448  0.334448  0.000000  1
  P  P3  1  0.500000  0.000000  0.500000  1
  P  P4  1  0.168907  0.668907  0.500000  1
  P  P5  1  0.831093  0.331093  0.500000  1
