# generated using pymatgen
data_SmY(SeO3)3
_symmetry_space_group_name_H-M   'P 1'
_cell_length_a   7.19511388
_cell_length_b   8.24258456
_cell_length_c   9.17265992
_cell_angle_alpha   71.06143677
_cell_angle_beta   70.11553276
_cell_angle_gamma   66.10565537
_symmetry_Int_Tables_number   1
_chemical_formula_structural   SmY(SeO3)3
_chemical_formula_sum   'Sm2 Y2 Se6 O18'
_cell_volume   456.54902686
_cell_formula_units_Z   2
loop_
 _symmetry_equiv_pos_site_id
 _symmetry_equiv_pos_as_xyz
  1  'x, y, z'
loop_
 _atom_site_type_symbol
 _atom_site_label
 _atom_site_symmetry_multiplicity
 _atom_site_fract_x
 _atom_site_fract_y
 _atom_site_fract_z
 _atom_site_occupancy
  Sm  Sm0  1  0.333390  0.728911  0.591600  1
  Sm  Sm1  1  0.666610  0.271089  0.408400  1
  Y  Y2  1  0.740256  0.736180  0.800864  1
  Y  Y3  1  0.259744  0.263820  0.199136  1
  Se  Se4  1  0.425808  0.778791  0.196155  1
  Se  Se5  1  0.574192  0.221209  0.803845  1
  Se  Se6  1  0.149184  0.748680  0.966814  1
  Se  Se7  1  0.850816  0.251320  0.033186  1
  Se  Se8  1  0.887049  0.757145  0.417958  1
  Se  Se9  1  0.112951  0.242855  0.582042  1
  O  O10  1  0.645352  0.793264  0.050464  1
  O  O11  1  0.354648  0.206736  0.949536  1
  O  O12  1  0.363014  0.945772  0.299177  1
  O  O13  1  0.636986  0.054228  0.700823  1
  O  O14  1  0.514607  0.598473  0.348036  1
  O  O15  1  0.485393  0.401527  0.651964  1
  O  O16  1  0.169699  0.564873  0.120409  1
  O  O17  1  0.830301  0.435127  0.879591  1
  O  O18  1  0.405241  0.710968  0.850443  1
  O  O19  1  0.594759  0.289032  0.149557  1
  O  O20  1  0.342497  0.249356  0.435228  1
  O  O21  1  0.657503  0.750644  0.564772  1
  O  O22  1  0.970932  0.291968  0.442387  1
  O  O23  1  0.029068  0.708032  0.557613  1
  O  O24  1  0.153833  0.018845  0.656650  1
  O  O25  1  0.846167  0.981155  0.343350  1
  O  O26  1  0.936610  0.303301  0.163368  1
  O  O27  1  0.063390  0.696699  0.836632  1
