# generated using pymatgen
data_SrSn2(H6Os)2
_symmetry_space_group_name_H-M   'P 1'
_cell_length_a   4.97691700
_cell_length_b   4.97691577
_cell_length_c   8.60542700
_cell_angle_alpha   90.00000000
_cell_angle_beta   90.00000000
_cell_angle_gamma   119.99998824
_symmetry_Int_Tables_number   1
_chemical_formula_structural   SrSn2(H6Os)2
_chemical_formula_sum   'Sr1 Sn2 H12 Os2'
_cell_volume   184.59664213
_cell_formula_units_Z   1
loop_
 _symmetry_equiv_pos_site_id
 _symmetry_equiv_pos_as_xyz
  1  'x, y, z'
loop_
 _atom_site_type_symbol
 _atom_site_label
 _atom_site_symmetry_multiplicity
 _atom_site_fract_x
 _atom_site_fract_y
 _atom_site_fract_z
 _atom_site_occupancy
  Sr  Sr0  1  0.000000  0.000000  0.000000  1
  Sn  Sn1  1  0.666667  0.333333  0.396923  1
  Sn  Sn2  1  0.333333  0.666667  0.603077  1
  H  H3  1  0.143244  0.856756  0.301546  1
  H  H4  1  0.713512  0.856756  0.301546  1
  H  H5  1  0.143244  0.286488  0.301546  1
  H  H6  1  0.856756  0.143244  0.698454  1
  H  H7  1  0.286488  0.143244  0.698454  1
  H  H8  1  0.856756  0.713512  0.698454  1
  H  H9  1  0.527229  0.054458  0.872231  1
  H  H10  1  0.527229  0.472771  0.872231  1
  H  H11  1  0.945542  0.472771  0.872231  1
  H  H12  1  0.472771  0.945542  0.127769  1
  H  H13  1  0.472771  0.527229  0.127769  1
  H  H14  1  0.054458  0.527229  0.127769  1
  Os  Os15  1  0.666667  0.333333  0.736628  1
  Os  Os16  1  0.333333  0.666667  0.263372  1
