# generated using pymatgen
data_TbEr4Si12Ir19
_symmetry_space_group_name_H-M   'P 1'
_cell_length_a   12.82935600
_cell_length_b   12.82935545
_cell_length_c   3.98055400
_cell_angle_alpha   90.00000000
_cell_angle_beta   90.00000000
_cell_angle_gamma   120.00000657
_symmetry_Int_Tables_number   1
_chemical_formula_structural   TbEr4Si12Ir19
_chemical_formula_sum   'Tb1 Er4 Si12 Ir19'
_cell_volume   567.39279582
_cell_formula_units_Z   1
loop_
 _symmetry_equiv_pos_site_id
 _symmetry_equiv_pos_as_xyz
  1  'x, y, z'
loop_
 _atom_site_type_symbol
 _atom_site_label
 _atom_site_symmetry_multiplicity
 _atom_site_fract_x
 _atom_site_fract_y
 _atom_site_fract_z
 _atom_site_occupancy
  Tb  Tb0  1  0.666667  0.333333  0.000000  1
  Er  Er1  1  0.333333  0.666667  0.000000  1
  Er  Er2  1  0.814899  0.814881  0.500000  1
  Er  Er3  1  0.185119  0.000018  0.500000  1
  Er  Er4  1  0.999982  0.185101  0.500000  1
  Si  Si5  1  0.688054  0.168761  0.500000  1
  Si  Si6  1  0.831239  0.519292  0.500000  1
  Si  Si7  1  0.480708  0.311946  0.500000  1
  Si  Si8  1  0.169115  0.687975  0.500000  1
  Si  Si9  1  0.518859  0.830885  0.500000  1
  Si  Si10  1  0.312025  0.481141  0.500000  1
  Si  Si11  1  0.632283  0.632255  0.000000  1
  Si  Si12  1  0.367745  0.000029  0.000000  1
  Si  Si13  1  0.999971  0.367717  0.000000  1
  Si  Si14  1  0.180901  0.180932  0.000000  1
  Si  Si15  1  0.819068  0.999969  0.000000  1
  Si  Si16  1  0.000031  0.819099  0.000000  1
  Ir  Ir17  1  0.806380  0.182474  0.000000  1
  Ir  Ir18  1  0.817526  0.623906  0.000000  1
  Ir  Ir19  1  0.376094  0.193620  0.000000  1
  Ir  Ir20  1  0.182649  0.806263  0.000000  1
  Ir  Ir21  1  0.623613  0.817351  0.000000  1
  Ir  Ir22  1  0.193737  0.376387  0.000000  1
  Ir  Ir23  1  0.447092  0.447047  0.000000  1
  Ir  Ir24  1  0.552953  0.000046  0.000000  1
  Ir  Ir25  1  0.999954  0.552908  0.000000  1
  Ir  Ir26  1  0.282403  0.282462  0.500000  1
  Ir  Ir27  1  0.717538  0.999941  0.500000  1
  Ir  Ir28  1  0.000059  0.717597  0.500000  1
  Ir  Ir29  1  0.873936  0.361573  0.500000  1
  Ir  Ir30  1  0.638427  0.512365  0.500000  1
  Ir  Ir31  1  0.487635  0.126064  0.500000  1
  Ir  Ir32  1  0.361554  0.873398  0.500000  1
  Ir  Ir33  1  0.511846  0.638446  0.500000  1
  Ir  Ir34  1  0.126602  0.488154  0.500000  1
  Ir  Ir35  1  0.000000  0.000000  0.000000  1
