# generated using pymatgen
data_SmTm3SiBr6
_symmetry_space_group_name_H-M   'P 1'
_cell_length_a   4.03804100
_cell_length_b   13.24143843
_cell_length_c   13.96336264
_cell_angle_alpha   90.72714860
_cell_angle_beta   90.00000000
_cell_angle_gamma   90.00000000
_symmetry_Int_Tables_number   1
_chemical_formula_structural   SmTm3SiBr6
_chemical_formula_sum   'Sm2 Tm6 Si2 Br12'
_cell_volume   746.55349189
_cell_formula_units_Z   2
loop_
 _symmetry_equiv_pos_site_id
 _symmetry_equiv_pos_as_xyz
  1  'x, y, z'
loop_
 _atom_site_type_symbol
 _atom_site_label
 _atom_site_symmetry_multiplicity
 _atom_site_fract_x
 _atom_site_fract_y
 _atom_site_fract_z
 _atom_site_occupancy
  Sm  Sm0  1  0.000000  0.621103  0.919016  1
  Sm  Sm1  1  0.000000  0.378897  0.080984  1
  Tm  Tm2  1  0.500000  0.116412  0.343382  1
  Tm  Tm3  1  0.500000  0.883588  0.656618  1
  Tm  Tm4  1  0.500000  0.618158  0.158513  1
  Tm  Tm5  1  0.500000  0.381842  0.841487  1
  Tm  Tm6  1  0.000000  0.115818  0.577821  1
  Tm  Tm7  1  0.000000  0.884182  0.422179  1
  Si  Si8  1  0.500000  0.000000  0.500000  1
  Si  Si9  1  0.500000  0.500000  0.000000  1
  Br  Br10  1  0.500000  0.236581  0.170239  1
  Br  Br11  1  0.500000  0.763419  0.829761  1
  Br  Br12  1  0.500000  0.749147  0.336966  1
  Br  Br13  1  0.500000  0.250853  0.663034  1
  Br  Br14  1  0.000000  0.251805  0.412918  1
  Br  Br15  1  0.000000  0.748195  0.587082  1
  Br  Br16  1  0.000000  0.755066  0.096066  1
  Br  Br17  1  0.000000  0.244934  0.903934  1
  Br  Br18  1  0.000000  0.001917  0.246001  1
  Br  Br19  1  0.000000  0.998083  0.753999  1
  Br  Br20  1  0.000000  0.510457  0.260128  1
  Br  Br21  1  0.000000  0.489543  0.739872  1
