# generated using pymatgen
data_Tb12Tc2OsPt
_symmetry_space_group_name_H-M   'P 1'
_cell_length_a   6.37740638
_cell_length_b   7.37872038
_cell_length_c   9.27045900
_cell_angle_alpha   90.00000000
_cell_angle_beta   90.00000000
_cell_angle_gamma   90.09282804
_symmetry_Int_Tables_number   1
_chemical_formula_structural   Tb12Tc2OsPt
_chemical_formula_sum   'Tb12 Tc2 Os1 Pt1'
_cell_volume   436.24032914
_cell_formula_units_Z   1
loop_
 _symmetry_equiv_pos_site_id
 _symmetry_equiv_pos_as_xyz
  1  'x, y, z'
loop_
 _atom_site_type_symbol
 _atom_site_label
 _atom_site_symmetry_multiplicity
 _atom_site_fract_x
 _atom_site_fract_y
 _atom_site_fract_z
 _atom_site_occupancy
  Tb  Tb0  1  0.631195  0.044688  0.250000  1
  Tb  Tb1  1  0.368668  0.960435  0.750000  1
  Tb  Tb2  1  0.126358  0.462203  0.750000  1
  Tb  Tb3  1  0.864170  0.534773  0.250000  1
  Tb  Tb4  1  0.169549  0.182800  0.059383  1
  Tb  Tb5  1  0.827498  0.823448  0.931445  1
  Tb  Tb6  1  0.669597  0.321475  0.934708  1
  Tb  Tb7  1  0.827498  0.823448  0.568555  1
  Tb  Tb8  1  0.336844  0.672440  0.060287  1
  Tb  Tb9  1  0.169549  0.182800  0.440617  1
  Tb  Tb10  1  0.336844  0.672440  0.439713  1
  Tb  Tb11  1  0.669597  0.321475  0.565292  1
  Tc  Tc12  1  0.536727  0.612813  0.750000  1
  Tc  Tc13  1  0.964201  0.112983  0.750000  1
  Os  Os14  1  0.452479  0.385193  0.250000  1
  Pt  Pt15  1  0.049224  0.886583  0.250000  1
