# generated using pymatgen
data_Y6Sn(P3Rh5)4
_symmetry_space_group_name_H-M   'P 1'
_cell_length_a   13.48363800
_cell_length_b   13.48363660
_cell_length_c   3.91309200
_cell_angle_alpha   90.00000000
_cell_angle_beta   90.00000000
_cell_angle_gamma   119.99999854
_symmetry_Int_Tables_number   1
_chemical_formula_structural   Y6Sn(P3Rh5)4
_chemical_formula_sum   'Y6 Sn1 P12 Rh20'
_cell_volume   616.11930979
_cell_formula_units_Z   1
loop_
 _symmetry_equiv_pos_site_id
 _symmetry_equiv_pos_as_xyz
  1  'x, y, z'
loop_
 _atom_site_type_symbol
 _atom_site_label
 _atom_site_symmetry_multiplicity
 _atom_site_fract_x
 _atom_site_fract_y
 _atom_site_fract_z
 _atom_site_occupancy
  Y  Y0  1  0.529777  0.716612  0.252341  1
  Y  Y1  1  0.283388  0.813165  0.252341  1
  Y  Y2  1  0.186835  0.470223  0.252341  1
  Y  Y3  1  0.470223  0.283388  0.747659  1
  Y  Y4  1  0.716612  0.186835  0.747659  1
  Y  Y5  1  0.813165  0.529777  0.747659  1
  Sn  Sn6  1  0.000000  0.000000  0.000000  1
  P  P7  1  0.527358  0.138799  0.249147  1
  P  P8  1  0.861201  0.388559  0.249147  1
  P  P9  1  0.611441  0.472642  0.249147  1
  P  P10  1  0.948302  0.715686  0.245907  1
  P  P11  1  0.284314  0.232617  0.245907  1
  P  P12  1  0.767383  0.051698  0.245907  1
  P  P13  1  0.388559  0.527358  0.750853  1
  P  P14  1  0.472642  0.861201  0.750853  1
  P  P15  1  0.138799  0.611441  0.750853  1
  P  P16  1  0.715686  0.767383  0.754093  1
  P  P17  1  0.232617  0.948302  0.754093  1
  P  P18  1  0.051698  0.284314  0.754093  1
  Rh  Rh19  1  0.333333  0.666667  0.753986  1
  Rh  Rh20  1  0.917988  0.252422  0.243687  1
  Rh  Rh21  1  0.747578  0.665565  0.243687  1
  Rh  Rh22  1  0.334435  0.082012  0.243687  1
  Rh  Rh23  1  0.442217  0.025878  0.748634  1
  Rh  Rh24  1  0.974122  0.416340  0.748634  1
  Rh  Rh25  1  0.583660  0.557783  0.748634  1
  Rh  Rh26  1  0.666667  0.333333  0.246014  1
  Rh  Rh27  1  0.098724  0.205992  0.264999  1
  Rh  Rh28  1  0.794008  0.892732  0.264999  1
  Rh  Rh29  1  0.107268  0.901276  0.264999  1
  Rh  Rh30  1  0.025878  0.583660  0.251366  1
  Rh  Rh31  1  0.416340  0.442217  0.251366  1
  Rh  Rh32  1  0.557783  0.974122  0.251366  1
  Rh  Rh33  1  0.665565  0.917988  0.756313  1
  Rh  Rh34  1  0.082012  0.747578  0.756313  1
  Rh  Rh35  1  0.252422  0.334435  0.756313  1
  Rh  Rh36  1  0.901276  0.794008  0.735001  1
  Rh  Rh37  1  0.205992  0.107268  0.735001  1
  Rh  Rh38  1  0.892732  0.098724  0.735001  1
