# generated using pymatgen
data_LaNd3CdIr
_symmetry_space_group_name_H-M   'P 1'
_cell_length_a   10.01763577
_cell_length_b   10.01763625
_cell_length_c   10.01763700
_cell_angle_alpha   60.00000083
_cell_angle_beta   59.99999925
_cell_angle_gamma   60.00000299
_symmetry_Int_Tables_number   1
_chemical_formula_structural   LaNd3CdIr
_chemical_formula_sum   'La4 Nd12 Cd4 Ir4'
_cell_volume   710.85463276
_cell_formula_units_Z   4
loop_
 _symmetry_equiv_pos_site_id
 _symmetry_equiv_pos_as_xyz
  1  'x, y, z'
loop_
 _atom_site_type_symbol
 _atom_site_label
 _atom_site_symmetry_multiplicity
 _atom_site_fract_x
 _atom_site_fract_y
 _atom_site_fract_z
 _atom_site_occupancy
  La  La0  1  0.348199  0.348199  0.348199  1
  La  La1  1  0.348199  0.348199  0.955402  1
  La  La2  1  0.348199  0.955402  0.348199  1
  La  La3  1  0.955402  0.348199  0.348199  1
  Nd  Nd4  1  0.810222  0.189778  0.189778  1
  Nd  Nd5  1  0.189778  0.810222  0.810222  1
  Nd  Nd6  1  0.189778  0.810222  0.189778  1
  Nd  Nd7  1  0.810222  0.189778  0.810222  1
  Nd  Nd8  1  0.189778  0.189778  0.810222  1
  Nd  Nd9  1  0.810222  0.810222  0.189778  1
  Nd  Nd10  1  0.937781  0.562219  0.562219  1
  Nd  Nd11  1  0.562219  0.937781  0.937781  1
  Nd  Nd12  1  0.562219  0.937781  0.562219  1
  Nd  Nd13  1  0.937781  0.562219  0.937781  1
  Nd  Nd14  1  0.562219  0.562219  0.937781  1
  Nd  Nd15  1  0.937781  0.937781  0.562219  1
  Cd  Cd16  1  0.580258  0.580258  0.580258  1
  Cd  Cd17  1  0.580258  0.580258  0.259224  1
  Cd  Cd18  1  0.580258  0.259224  0.580258  1
  Cd  Cd19  1  0.259224  0.580258  0.580258  1
  Ir  Ir20  1  0.141701  0.141701  0.141701  1
  Ir  Ir21  1  0.141701  0.141701  0.574895  1
  Ir  Ir22  1  0.141701  0.574895  0.141701  1
  Ir  Ir23  1  0.574895  0.141701  0.141701  1
