# generated using pymatgen
data_NaLa7(USe5)4
_symmetry_space_group_name_H-M   'P 1'
_cell_length_a   7.91764522
_cell_length_b   8.53631416
_cell_length_c   12.50156601
_cell_angle_alpha   89.98069056
_cell_angle_beta   89.79272082
_cell_angle_gamma   90.05502707
_symmetry_Int_Tables_number   1
_chemical_formula_structural   NaLa7(USe5)4
_chemical_formula_sum   'Na1 La7 U4 Se20'
_cell_volume   844.94371219
_cell_formula_units_Z   1
loop_
 _symmetry_equiv_pos_site_id
 _symmetry_equiv_pos_as_xyz
  1  'x, y, z'
loop_
 _atom_site_type_symbol
 _atom_site_label
 _atom_site_symmetry_multiplicity
 _atom_site_fract_x
 _atom_site_fract_y
 _atom_site_fract_z
 _atom_site_occupancy
  Na  Na0  1  0.531005  0.500367  0.323200  1
  La  La1  1  0.967864  0.999507  0.824658  1
  La  La2  1  0.467700  0.001032  0.675543  1
  La  La3  1  0.031038  0.498514  0.181025  1
  La  La4  1  0.467488  0.498788  0.670312  1
  La  La5  1  0.037030  0.999680  0.176487  1
  La  La6  1  0.531120  0.997785  0.322818  1
  La  La7  1  0.963823  0.500911  0.826877  1
  U  U8  1  0.068194  0.751796  0.491292  1
  U  U9  1  0.432438  0.748782  0.993798  1
  U  U10  1  0.927397  0.252382  0.504766  1
  U  U11  1  0.564364  0.252018  0.010114  1
  Se  Se12  1  0.836919  0.958430  0.592535  1
  Se  Se13  1  0.671898  0.541352  0.081925  1
  Se  Se14  1  0.162269  0.461343  0.411787  1
  Se  Se15  1  0.334497  0.041221  0.908723  1
  Se  Se16  1  0.167888  0.043852  0.411376  1
  Se  Se17  1  0.333274  0.457164  0.907738  1
  Se  Se18  1  0.834811  0.542899  0.593751  1
  Se  Se19  1  0.667339  0.959073  0.088794  1
  Se  Se20  1  0.846319  0.756070  0.313636  1
  Se  Se21  1  0.660199  0.750829  0.812109  1
  Se  Se22  1  0.158206  0.251049  0.686545  1
  Se  Se23  1  0.333465  0.243656  0.183309  1
  Se  Se24  1  0.448335  0.756366  0.500567  1
  Se  Se25  1  0.049520  0.748267  0.997849  1
  Se  Se26  1  0.552265  0.244667  0.505011  1
  Se  Se27  1  0.951085  0.247804  0.002232  1
  Se  Se28  1  0.185316  0.748414  0.713486  1
  Se  Se29  1  0.314676  0.750821  0.211223  1
  Se  Se30  1  0.816318  0.243945  0.286750  1
  Se  Se31  1  0.685938  0.251216  0.789763  1
