# generated using pymatgen
data_Nd6EuIrI12
_symmetry_space_group_name_H-M   'P 1'
_cell_length_a   10.15490306
_cell_length_b   10.15490230
_cell_length_c   10.15490290
_cell_angle_alpha   107.01974743
_cell_angle_beta   107.01974630
_cell_angle_gamma   107.01974672
_symmetry_Int_Tables_number   1
_chemical_formula_structural   Nd6EuIrI12
_chemical_formula_sum   'Nd6 Eu1 Ir1 I12'
_cell_volume   871.64330135
_cell_formula_units_Z   1
loop_
 _symmetry_equiv_pos_site_id
 _symmetry_equiv_pos_as_xyz
  1  'x, y, z'
loop_
 _atom_site_type_symbol
 _atom_site_label
 _atom_site_symmetry_multiplicity
 _atom_site_fract_x
 _atom_site_fract_y
 _atom_site_fract_z
 _atom_site_occupancy
  Nd  Nd0  1  0.097763  0.023648  0.301021  1
  Nd  Nd1  1  0.301021  0.097763  0.023648  1
  Nd  Nd2  1  0.023648  0.301021  0.097763  1
  Nd  Nd3  1  0.902237  0.976352  0.698979  1
  Nd  Nd4  1  0.698979  0.902237  0.976352  1
  Nd  Nd5  1  0.976352  0.698979  0.902237  1
  Eu  Eu6  1  0.500000  0.500000  0.500000  1
  Ir  Ir7  1  0.000000  0.000000  0.000000  1
  I  I8  1  0.069585  0.680793  0.222176  1
  I  I9  1  0.222176  0.069585  0.680793  1
  I  I10  1  0.680793  0.222176  0.069585  1
  I  I11  1  0.930415  0.319207  0.777824  1
  I  I12  1  0.777824  0.930415  0.319207  1
  I  I13  1  0.319207  0.777824  0.930415  1
  I  I14  1  0.456399  0.151381  0.377253  1
  I  I15  1  0.377253  0.456399  0.151381  1
  I  I16  1  0.151381  0.377253  0.456399  1
  I  I17  1  0.543601  0.848619  0.622747  1
  I  I18  1  0.622747  0.543601  0.848619  1
  I  I19  1  0.848619  0.622747  0.543601  1
