# generated using pymatgen
data_Sc2Ga9Ir2Rh
_symmetry_space_group_name_H-M   'P 1'
_cell_length_a   7.48248494
_cell_length_b   7.48248194
_cell_length_c   9.40364900
_cell_angle_alpha   90.00000000
_cell_angle_beta   90.00000000
_cell_angle_gamma   119.90276741
_symmetry_Int_Tables_number   1
_chemical_formula_structural   Sc2Ga9Ir2Rh
_chemical_formula_sum   'Sc4 Ga18 Ir4 Rh2'
_cell_volume   456.39749328
_cell_formula_units_Z   2
loop_
 _symmetry_equiv_pos_site_id
 _symmetry_equiv_pos_as_xyz
  1  'x, y, z'
loop_
 _atom_site_type_symbol
 _atom_site_label
 _atom_site_symmetry_multiplicity
 _atom_site_fract_x
 _atom_site_fract_y
 _atom_site_fract_z
 _atom_site_occupancy
  Sc  Sc0  1  0.998108  0.667964  0.250000  1
  Sc  Sc1  1  0.001892  0.332036  0.750000  1
  Sc  Sc2  1  0.667963  0.998108  0.250000  1
  Sc  Sc3  1  0.332037  0.001892  0.750000  1
  Ga  Ga4  1  0.120763  0.120765  0.250000  1
  Ga  Ga5  1  0.879237  0.879235  0.750000  1
  Ga  Ga6  1  0.997373  0.333156  0.082651  1
  Ga  Ga7  1  0.002627  0.666844  0.917349  1
  Ga  Ga8  1  0.002627  0.666844  0.582651  1
  Ga  Ga9  1  0.333156  0.997371  0.417348  1
  Ga  Ga10  1  0.997373  0.333156  0.417349  1
  Ga  Ga11  1  0.666844  0.002629  0.582652  1
  Ga  Ga12  1  0.666844  0.002629  0.917348  1
  Ga  Ga13  1  0.333156  0.997371  0.082652  1
  Ga  Ga14  1  0.328874  0.328874  0.568747  1
  Ga  Ga15  1  0.671126  0.671126  0.431253  1
  Ga  Ga16  1  0.671126  0.671126  0.068747  1
  Ga  Ga17  1  0.328874  0.328874  0.931253  1
  Ga  Ga18  1  0.339392  0.549949  0.250000  1
  Ga  Ga19  1  0.660608  0.450051  0.750000  1
  Ga  Ga20  1  0.549949  0.339395  0.250000  1
  Ga  Ga21  1  0.450051  0.660605  0.750000  1
  Ir  Ir22  1  0.672267  0.327732  0.000000  1
  Ir  Ir23  1  0.327733  0.672268  0.000000  1
  Ir  Ir24  1  0.327733  0.672268  0.500000  1
  Ir  Ir25  1  0.672267  0.327732  0.500000  1
  Rh  Rh26  1  0.000000  0.000000  0.000000  1
  Rh  Rh27  1  0.000000  0.000000  0.500000  1
