# generated using pymatgen
data_PrHoTcB6
_symmetry_space_group_name_H-M   'P 1'
_cell_length_a   3.74481400
_cell_length_b   9.23784500
_cell_length_c   11.70740500
_cell_angle_alpha   90.00000000
_cell_angle_beta   90.00000000
_cell_angle_gamma   90.00000000
_symmetry_Int_Tables_number   1
_chemical_formula_structural   PrHoTcB6
_chemical_formula_sum   'Pr4 Ho4 Tc4 B24'
_cell_volume   405.00610070
_cell_formula_units_Z   4
loop_
 _symmetry_equiv_pos_site_id
 _symmetry_equiv_pos_as_xyz
  1  'x, y, z'
loop_
 _atom_site_type_symbol
 _atom_site_label
 _atom_site_symmetry_multiplicity
 _atom_site_fract_x
 _atom_site_fract_y
 _atom_site_fract_z
 _atom_site_occupancy
  Pr  Pr0  1  0.000000  0.323208  0.414933  1
  Pr  Pr1  1  0.000000  0.676792  0.585067  1
  Pr  Pr2  1  0.000000  0.823208  0.085067  1
  Pr  Pr3  1  0.000000  0.176792  0.914933  1
  Ho  Ho4  1  0.000000  0.942598  0.368195  1
  Ho  Ho5  1  0.000000  0.057402  0.631805  1
  Ho  Ho6  1  0.000000  0.442598  0.131805  1
  Ho  Ho7  1  0.000000  0.557402  0.868195  1
  Tc  Tc8  1  0.000000  0.640247  0.318509  1
  Tc  Tc9  1  0.000000  0.359753  0.681491  1
  Tc  Tc10  1  0.000000  0.140247  0.181491  1
  Tc  Tc11  1  0.000000  0.859753  0.818509  1
  B  B12  1  0.500000  0.556185  0.429611  1
  B  B13  1  0.500000  0.443815  0.570389  1
  B  B14  1  0.500000  0.056185  0.070389  1
  B  B15  1  0.500000  0.943815  0.929611  1
  B  B16  1  0.500000  0.750397  0.414877  1
  B  B17  1  0.500000  0.249603  0.585123  1
  B  B18  1  0.500000  0.250397  0.085123  1
  B  B19  1  0.500000  0.749603  0.914877  1
  B  B20  1  0.500000  0.791420  0.265564  1
  B  B21  1  0.500000  0.208580  0.734436  1
  B  B22  1  0.500000  0.291420  0.234436  1
  B  B23  1  0.500000  0.708580  0.765564  1
  B  B24  1  0.500000  0.629574  0.186319  1
  B  B25  1  0.500000  0.370426  0.813681  1
  B  B26  1  0.500000  0.129574  0.313681  1
  B  B27  1  0.500000  0.870426  0.686319  1
  B  B28  1  0.500000  0.984795  0.213121  1
  B  B29  1  0.500000  0.015205  0.786879  1
  B  B30  1  0.500000  0.484795  0.286879  1
  B  B31  1  0.500000  0.515205  0.713121  1
  B  B32  1  0.500000  0.594937  0.026009  1
  B  B33  1  0.500000  0.405063  0.973991  1
  B  B34  1  0.500000  0.094937  0.473991  1
  B  B35  1  0.500000  0.905063  0.526009  1
