# generated using pymatgen
data_Y6NiCl10
_symmetry_space_group_name_H-M   'P 1'
_cell_length_a   7.09835513
_cell_length_b   8.73824900
_cell_length_c   8.89601606
_cell_angle_alpha   109.12485280
_cell_angle_beta   97.05792914
_cell_angle_gamma   105.86958789
_symmetry_Int_Tables_number   1
_chemical_formula_structural   Y6NiCl10
_chemical_formula_sum   'Y6 Ni1 Cl10'
_cell_volume   487.57316757
_cell_formula_units_Z   1
loop_
 _symmetry_equiv_pos_site_id
 _symmetry_equiv_pos_as_xyz
  1  'x, y, z'
loop_
 _atom_site_type_symbol
 _atom_site_label
 _atom_site_symmetry_multiplicity
 _atom_site_fract_x
 _atom_site_fract_y
 _atom_site_fract_z
 _atom_site_occupancy
  Y  Y0  1  0.863713  0.140398  0.188904  1
  Y  Y1  1  0.136287  0.859602  0.811096  1
  Y  Y2  1  0.528850  0.693531  0.898667  1
  Y  Y3  1  0.471150  0.306469  0.101333  1
  Y  Y4  1  0.632987  0.051864  0.754531  1
  Y  Y5  1  0.367013  0.948136  0.245469  1
  Ni  Ni6  1  0.500000  0.000000  0.000000  1
  Cl  Cl7  1  0.742879  0.082437  0.456307  1
  Cl  Cl8  1  0.257121  0.917563  0.543693  1
  Cl  Cl9  1  0.951646  0.824594  0.077263  1
  Cl  Cl10  1  0.048354  0.175406  0.922737  1
  Cl  Cl11  1  0.287164  0.254479  0.345943  1
  Cl  Cl12  1  0.712836  0.745521  0.654057  1
  Cl  Cl13  1  0.590091  0.372750  0.835798  1
  Cl  Cl14  1  0.409909  0.627250  0.164202  1
  Cl  Cl15  1  0.851581  0.458342  0.277670  1
  Cl  Cl16  1  0.148419  0.541658  0.722330  1
