# generated using pymatgen
data_La10FeIrBr15
_symmetry_space_group_name_H-M   'P 1'
_cell_length_a   9.52598002
_cell_length_b   10.79722622
_cell_length_c   11.48395163
_cell_angle_alpha   92.00807272
_cell_angle_beta   113.62915073
_cell_angle_gamma   110.11674610
_symmetry_Int_Tables_number   1
_chemical_formula_structural   La10FeIrBr15
_chemical_formula_sum   'La10 Fe1 Ir1 Br15'
_cell_volume   995.39096763
_cell_formula_units_Z   1
loop_
 _symmetry_equiv_pos_site_id
 _symmetry_equiv_pos_as_xyz
  1  'x, y, z'
loop_
 _atom_site_type_symbol
 _atom_site_label
 _atom_site_symmetry_multiplicity
 _atom_site_fract_x
 _atom_site_fract_y
 _atom_site_fract_z
 _atom_site_occupancy
  La  La0  1  0.230590  0.581368  0.051341  1
  La  La1  1  0.769131  0.408537  0.941029  1
  La  La2  1  0.318445  0.919006  0.281223  1
  La  La3  1  0.688828  0.086725  0.724138  1
  La  La4  1  0.099683  0.545021  0.345526  1
  La  La5  1  0.901200  0.453440  0.655942  1
  La  La6  1  0.824372  0.750466  0.177280  1
  La  La7  1  0.158648  0.254798  0.827566  1
  La  La8  1  0.971805  0.800691  0.891010  1
  La  La9  1  0.028014  0.200115  0.106615  1
  Fe  Fe10  1  0.970914  0.316868  0.875180  1
  Ir  Ir11  1  0.035197  0.677375  0.121124  1
  Br  Br12  1  0.332263  0.441018  0.296520  1
  Br  Br13  1  0.669426  0.559005  0.704029  1
  Br  Br14  1  0.200946  0.728931  0.812850  1
  Br  Br15  1  0.800490  0.271926  0.186326  1
  Br  Br16  1  0.139330  0.387566  0.585765  1
  Br  Br17  1  0.858939  0.613968  0.412838  1
  Br  Br18  1  0.387631  0.803799  0.524254  1
  Br  Br19  1  0.613781  0.197358  0.475841  1
  Br  Br20  1  0.254970  0.083840  0.052660  1
  Br  Br21  1  0.744818  0.916300  0.949514  1
  Br  Br22  1  0.566882  0.844938  0.226740  1
  Br  Br23  1  0.433548  0.156880  0.774032  1
  Br  Br24  1  0.090532  0.030011  0.332888  1
  Br  Br25  1  0.907404  0.969285  0.667487  1
  Br  Br26  1  0.502214  0.500767  0.000284  1
