# generated using pymatgen
data_Ca4Pr15NdSn16
_symmetry_space_group_name_H-M   'P 1'
_cell_length_a   8.14776362
_cell_length_b   8.53594680
_cell_length_c   16.23799308
_cell_angle_alpha   90.04881929
_cell_angle_beta   89.47010498
_cell_angle_gamma   89.99181174
_symmetry_Int_Tables_number   1
_chemical_formula_structural   Ca4Pr15NdSn16
_chemical_formula_sum   'Ca4 Pr15 Nd1 Sn16'
_cell_volume   1129.28545981
_cell_formula_units_Z   1
loop_
 _symmetry_equiv_pos_site_id
 _symmetry_equiv_pos_as_xyz
  1  'x, y, z'
loop_
 _atom_site_type_symbol
 _atom_site_label
 _atom_site_symmetry_multiplicity
 _atom_site_fract_x
 _atom_site_fract_y
 _atom_site_fract_z
 _atom_site_occupancy
  Ca  Ca0  1  0.171125  0.497279  0.749660  1
  Ca  Ca1  1  0.670795  0.006005  0.749849  1
  Ca  Ca2  1  0.828951  0.504493  0.251031  1
  Ca  Ca3  1  0.328877  0.993571  0.250770  1
  Pr  Pr4  1  0.844721  0.670641  0.623667  1
  Pr  Pr5  1  0.654748  0.169640  0.375790  1
  Pr  Pr6  1  0.162034  0.326279  0.123889  1
  Pr  Pr7  1  0.663151  0.172313  0.124185  1
  Pr  Pr8  1  0.155684  0.329249  0.376283  1
  Pr  Pr9  1  0.346464  0.830058  0.624780  1
  Pr  Pr10  1  0.838327  0.674436  0.875436  1
  Pr  Pr11  1  0.493359  0.317572  0.903676  1
  Pr  Pr12  1  0.998161  0.183868  0.596049  1
  Pr  Pr13  1  0.504312  0.682320  0.404249  1
  Pr  Pr14  1  0.005789  0.815254  0.096197  1
  Pr  Pr15  1  0.504893  0.681401  0.095789  1
  Pr  Pr16  1  0.003438  0.817277  0.403873  1
  Pr  Pr17  1  0.496419  0.316581  0.596089  1
  Pr  Pr18  1  0.993474  0.183849  0.903269  1
  Nd  Nd19  1  0.335407  0.828601  0.875864  1
  Sn  Sn20  1  0.326094  0.034406  0.038163  1
  Sn  Sn21  1  0.815048  0.459977  0.463525  1
  Sn  Sn22  1  0.686727  0.962034  0.536748  1
  Sn  Sn23  1  0.174894  0.536029  0.961450  1
  Sn  Sn24  1  0.672473  0.963543  0.961888  1
  Sn  Sn25  1  0.187145  0.540263  0.536593  1
  Sn  Sn26  1  0.314436  0.038212  0.464013  1
  Sn  Sn27  1  0.824153  0.463504  0.037064  1
  Sn  Sn28  1  0.539083  0.604171  0.750436  1
  Sn  Sn29  1  0.039674  0.896579  0.749690  1
  Sn  Sn30  1  0.460511  0.395741  0.250074  1
  Sn  Sn31  1  0.960809  0.103576  0.250300  1
  Sn  Sn32  1  0.297888  0.142426  0.750640  1
  Sn  Sn33  1  0.799023  0.360875  0.750626  1
  Sn  Sn34  1  0.701236  0.858255  0.249143  1
  Sn  Sn35  1  0.200675  0.639722  0.249250  1
