# generated using pymatgen
data_Dy5HoAl24Ir5Ru3
_symmetry_space_group_name_H-M   'P 1'
_cell_length_a   8.82690856
_cell_length_b   8.78620611
_cell_length_c   9.53287100
_cell_angle_alpha   90.00191192
_cell_angle_beta   90.10364807
_cell_angle_gamma   119.85851453
_symmetry_Int_Tables_number   1
_chemical_formula_structural   Dy5HoAl24Ir5Ru3
_chemical_formula_sum   'Dy5 Ho1 Al24 Ir5 Ru3'
_cell_volume   641.18124538
_cell_formula_units_Z   1
loop_
 _symmetry_equiv_pos_site_id
 _symmetry_equiv_pos_as_xyz
  1  'x, y, z'
loop_
 _atom_site_type_symbol
 _atom_site_label
 _atom_site_symmetry_multiplicity
 _atom_site_fract_x
 _atom_site_fract_y
 _atom_site_fract_z
 _atom_site_occupancy
  Dy  Dy0  1  0.191510  0.385869  0.249652  1
  Dy  Dy1  1  0.614504  0.807290  0.249956  1
  Dy  Dy2  1  0.808471  0.194280  0.750342  1
  Dy  Dy3  1  0.808480  0.614295  0.750347  1
  Dy  Dy4  1  0.385406  0.192738  0.750048  1
  Ho  Ho5  1  0.191816  0.805206  0.249584  1
  Al  Al6  1  0.561760  0.436886  0.250269  1
  Al  Al7  1  0.561508  0.124709  0.250255  1
  Al  Al8  1  0.875997  0.438163  0.248698  1
  Al  Al9  1  0.438221  0.563135  0.749741  1
  Al  Al10  1  0.438182  0.875132  0.749730  1
  Al  Al11  1  0.124172  0.562153  0.751316  1
  Al  Al12  1  0.325553  0.162643  0.423166  1
  Al  Al13  1  0.835571  0.162555  0.423131  1
  Al  Al14  1  0.835753  0.673150  0.423054  1
  Al  Al15  1  0.674276  0.837141  0.576611  1
  Al  Al16  1  0.164408  0.837465  0.576531  1
  Al  Al17  1  0.164448  0.327020  0.576721  1
  Al  Al18  1  0.673477  0.836750  0.924232  1
  Al  Al19  1  0.162437  0.835423  0.923467  1
  Al  Al20  1  0.162486  0.327099  0.923306  1
  Al  Al21  1  0.326351  0.163055  0.076007  1
  Al  Al22  1  0.837536  0.164599  0.076854  1
  Al  Al23  1  0.837758  0.673085  0.076942  1
  Al  Al24  1  0.667232  0.333661  0.528285  1
  Al  Al25  1  0.332693  0.666414  0.471405  1
  Al  Al26  1  0.330534  0.665351  0.027719  1
  Al  Al27  1  0.669392  0.334754  0.972583  1
  Al  Al28  1  0.998625  0.998860  0.250040  1
  Al  Al29  1  0.001702  0.000885  0.749964  1
  Ir  Ir30  1  0.499971  0.500028  0.499990  1
  Ir  Ir31  1  0.499854  0.999929  0.499907  1
  Ir  Ir32  1  0.000063  0.500135  0.499910  1
  Ir  Ir33  1  0.499965  0.500037  0.000022  1
  Ir  Ir34  1  0.499847  0.999929  0.000093  1
  Ru  Ru35  1  0.999981  0.000014  0.499986  1
  Ru  Ru36  1  0.999983  0.000017  0.000011  1
  Ru  Ru37  1  0.000077  0.500144  0.000125  1
