# generated using pymatgen
data_La19Dy(Ga2Sn)4
_symmetry_space_group_name_H-M   'P 1'
_cell_length_a   8.18331900
_cell_length_b   8.18331900
_cell_length_c   14.91145300
_cell_angle_alpha   90.00000000
_cell_angle_beta   90.00000000
_cell_angle_gamma   90.00000000
_symmetry_Int_Tables_number   1
_chemical_formula_structural   La19Dy(Ga2Sn)4
_chemical_formula_sum   'La19 Dy1 Ga8 Sn4'
_cell_volume   998.57094658
_cell_formula_units_Z   1
loop_
 _symmetry_equiv_pos_site_id
 _symmetry_equiv_pos_as_xyz
  1  'x, y, z'
loop_
 _atom_site_type_symbol
 _atom_site_label
 _atom_site_symmetry_multiplicity
 _atom_site_fract_x
 _atom_site_fract_y
 _atom_site_fract_z
 _atom_site_occupancy
  La  La0  1  0.338672  0.320218  0.106229  1
  La  La1  1  0.837410  0.823174  0.893277  1
  La  La2  1  0.000000  0.500000  0.221694  1
  La  La3  1  0.837167  0.177358  0.393817  1
  La  La4  1  0.162590  0.176826  0.893277  1
  La  La5  1  0.661328  0.679782  0.106229  1
  La  La6  1  0.000000  0.500000  0.721625  1
  La  La7  1  0.825577  0.837308  0.607581  1
  La  La8  1  0.322642  0.337167  0.393817  1
  La  La9  1  0.179782  0.838672  0.106229  1
  La  La10  1  0.174423  0.162692  0.607581  1
  La  La11  1  0.820218  0.161328  0.106229  1
  La  La12  1  0.337308  0.674423  0.607581  1
  La  La13  1  0.500000  0.000000  0.283508  1
  La  La14  1  0.676826  0.337410  0.893277  1
  La  La15  1  0.662692  0.325577  0.607581  1
  La  La16  1  0.323174  0.662590  0.893277  1
  La  La17  1  0.162833  0.822642  0.393817  1
  La  La18  1  0.677358  0.662833  0.393817  1
  Dy  Dy19  1  0.500000  0.000000  0.767097  1
  Ga  Ga20  1  0.620553  0.379044  0.249804  1
  Ga  Ga21  1  0.872798  0.119874  0.751726  1
  Ga  Ga22  1  0.879044  0.879447  0.249804  1
  Ga  Ga23  1  0.127202  0.880126  0.751726  1
  Ga  Ga24  1  0.380126  0.372798  0.751726  1
  Ga  Ga25  1  0.120956  0.120553  0.249804  1
  Ga  Ga26  1  0.379447  0.620956  0.249804  1
  Ga  Ga27  1  0.619874  0.627202  0.751726  1
  Sn  Sn28  1  0.500000  0.000000  0.503495  1
  Sn  Sn29  1  0.000000  0.500000  0.002728  1
  Sn  Sn30  1  0.500000  0.000000  0.987875  1
  Sn  Sn31  1  0.000000  0.500000  0.502234  1
