# generated using pymatgen
data_Te11PtRhAuI6
_symmetry_space_group_name_H-M   'P 1'
_cell_length_a   10.47453142
_cell_length_b   9.78644414
_cell_length_c   9.88057302
_cell_angle_alpha   107.70370866
_cell_angle_beta   111.40087597
_cell_angle_gamma   108.49362205
_symmetry_Int_Tables_number   1
_chemical_formula_structural   Te11PtRhAuI6
_chemical_formula_sum   'Te11 Pt1 Rh1 Au1 I6'
_cell_volume   786.74540496
_cell_formula_units_Z   1
loop_
 _symmetry_equiv_pos_site_id
 _symmetry_equiv_pos_as_xyz
  1  'x, y, z'
loop_
 _atom_site_type_symbol
 _atom_site_label
 _atom_site_symmetry_multiplicity
 _atom_site_fract_x
 _atom_site_fract_y
 _atom_site_fract_z
 _atom_site_occupancy
  Te  Te0  1  0.169846  0.945167  0.161312  1
  Te  Te1  1  0.156587  0.177165  0.920740  1
  Te  Te2  1  0.667274  0.637953  0.421797  1
  Te  Te3  1  0.452941  0.690026  0.653881  1
  Te  Te4  1  0.669373  0.439657  0.690853  1
  Te  Te5  1  0.044691  0.822245  0.808196  1
  Te  Te6  1  0.821317  0.057121  0.815370  1
  Te  Te7  1  0.836892  0.854733  0.064337  1
  Te  Te8  1  0.329709  0.340771  0.550361  1
  Te  Te9  1  0.620314  0.321537  0.359077  1
  Te  Te10  1  0.340334  0.561870  0.301530  1
  Pt  Pt11  1  0.239066  0.250355  0.232304  1
  Rh  Rh12  1  0.747859  0.748070  0.738732  1
  Au  Au13  1  0.924344  0.167262  0.164695  1
  I  I14  1  0.000674  0.481318  0.294131  1
  I  I15  1  0.244143  0.989616  0.511773  1
  I  I16  1  0.499549  0.245777  0.994063  1
  I  I17  1  0.719046  0.022516  0.485328  1
  I  I18  1  0.494863  0.741391  0.001708  1
  I  I19  1  0.021176  0.505449  0.829813  1
