# generated using pymatgen
data_HoScMn2Fe10P7
_symmetry_space_group_name_H-M   'P 1'
_cell_length_a   8.94429076
_cell_length_b   8.95994523
_cell_length_c   3.60379800
_cell_angle_alpha   90.00000000
_cell_angle_beta   90.00000000
_cell_angle_gamma   119.92818772
_symmetry_Int_Tables_number   1
_chemical_formula_structural   HoScMn2Fe10P7
_chemical_formula_sum   'Ho1 Sc1 Mn2 Fe10 P7'
_cell_volume   250.29729072
_cell_formula_units_Z   1
loop_
 _symmetry_equiv_pos_site_id
 _symmetry_equiv_pos_as_xyz
  1  'x, y, z'
loop_
 _atom_site_type_symbol
 _atom_site_label
 _atom_site_symmetry_multiplicity
 _atom_site_fract_x
 _atom_site_fract_y
 _atom_site_fract_z
 _atom_site_occupancy
  Ho  Ho0  1  0.664817  0.333327  0.500000  1
  Sc  Sc1  1  0.002585  0.001309  0.000000  1
  Mn  Mn2  1  0.113726  0.562981  0.500000  1
  Mn  Mn3  1  0.453634  0.885350  0.500000  1
  Fe  Fe4  1  0.387901  0.297206  0.000000  1
  Fe  Fe5  1  0.906990  0.612492  0.000000  1
  Fe  Fe6  1  0.704549  0.091811  0.000000  1
  Fe  Fe7  1  0.608919  0.786860  0.000000  1
  Fe  Fe8  1  0.176922  0.390377  0.000000  1
  Fe  Fe9  1  0.213387  0.820404  0.000000  1
  Fe  Fe10  1  0.769064  0.718816  0.500000  1
  Fe  Fe11  1  0.950631  0.230203  0.500000  1
  Fe  Fe12  1  0.280327  0.051069  0.500000  1
  Fe  Fe13  1  0.429240  0.548137  0.500000  1
  P  P14  1  0.630402  0.553851  0.000000  1
  P  P15  1  0.918719  0.365865  0.000000  1
  P  P16  1  0.444846  0.079712  0.000000  1
  P  P17  1  0.747745  0.957229  0.500000  1
  P  P18  1  0.218486  0.261858  0.500000  1
  P  P19  1  0.042989  0.787653  0.500000  1
  P  P20  1  0.334123  0.663489  0.000000  1
