# generated using pymatgen
data_Ce4Tc5Os3
_symmetry_space_group_name_H-M   'P 1'
_cell_length_a   5.39381551
_cell_length_b   5.04959564
_cell_length_c   9.30988400
_cell_angle_alpha   90.00000000
_cell_angle_beta   90.00000000
_cell_angle_gamma   117.91046618
_symmetry_Int_Tables_number   1
_chemical_formula_structural   Ce4Tc5Os3
_chemical_formula_sum   'Ce4 Tc5 Os3'
_cell_volume   224.07430303
_cell_formula_units_Z   1
loop_
 _symmetry_equiv_pos_site_id
 _symmetry_equiv_pos_as_xyz
  1  'x, y, z'
loop_
 _atom_site_type_symbol
 _atom_site_label
 _atom_site_symmetry_multiplicity
 _atom_site_fract_x
 _atom_site_fract_y
 _atom_site_fract_z
 _atom_site_occupancy
  Ce  Ce0  1  0.330097  0.665049  0.436508  1
  Ce  Ce1  1  0.668451  0.334225  0.564791  1
  Ce  Ce2  1  0.668451  0.334225  0.935209  1
  Ce  Ce3  1  0.330097  0.665049  0.063492  1
  Tc  Tc4  1  0.832999  0.170280  0.250000  1
  Tc  Tc5  1  0.832999  0.662718  0.250000  1
  Tc  Tc6  1  0.342484  0.171242  0.250000  1
  Tc  Tc7  1  0.168782  0.830326  0.750000  1
  Tc  Tc8  1  0.168782  0.338455  0.750000  1
  Os  Os9  1  0.998538  0.999269  0.500978  1
  Os  Os10  1  0.998538  0.999269  0.999022  1
  Os  Os11  1  0.659784  0.829892  0.750000  1
