# generated using pymatgen
data_Hf5Co16(TcP4)3
_symmetry_space_group_name_H-M   'P 1'
_cell_length_a   11.81822300
_cell_length_b   11.81822418
_cell_length_c   3.63594400
_cell_angle_alpha   90.00000000
_cell_angle_beta   90.00000000
_cell_angle_gamma   119.99999389
_symmetry_Int_Tables_number   1
_chemical_formula_structural   Hf5Co16(TcP4)3
_chemical_formula_sum   'Hf5 Co16 Tc3 P12'
_cell_volume   439.79698584
_cell_formula_units_Z   1
loop_
 _symmetry_equiv_pos_site_id
 _symmetry_equiv_pos_as_xyz
  1  'x, y, z'
loop_
 _atom_site_type_symbol
 _atom_site_label
 _atom_site_symmetry_multiplicity
 _atom_site_fract_x
 _atom_site_fract_y
 _atom_site_fract_z
 _atom_site_occupancy
  Hf  Hf0  1  0.666667  0.333333  0.000000  1
  Hf  Hf1  1  0.333333  0.666667  0.000000  1
  Hf  Hf2  1  0.820338  0.820338  0.500000  1
  Hf  Hf3  1  0.179662  0.000000  0.500000  1
  Hf  Hf4  1  0.000000  0.179662  0.500000  1
  Co  Co5  1  0.194000  0.373477  0.000000  1
  Co  Co6  1  0.179477  0.806000  0.000000  1
  Co  Co7  1  0.820523  0.626523  0.000000  1
  Co  Co8  1  0.806000  0.179477  0.000000  1
  Co  Co9  1  0.373477  0.194000  0.000000  1
  Co  Co10  1  0.129204  0.484163  0.500000  1
  Co  Co11  1  0.354958  0.870796  0.500000  1
  Co  Co12  1  0.515837  0.645042  0.500000  1
  Co  Co13  1  0.645042  0.515837  0.500000  1
  Co  Co14  1  0.870796  0.354958  0.500000  1
  Co  Co15  1  0.484163  0.129204  0.500000  1
  Co  Co16  1  0.000000  0.000000  0.000000  1
  Co  Co17  1  0.719094  0.000000  0.500000  1
  Co  Co18  1  0.000000  0.719094  0.500000  1
  Co  Co19  1  0.626523  0.820523  0.000000  1
  Co  Co20  1  0.280906  0.280906  0.500000  1
  Tc  Tc21  1  0.447769  0.447769  0.000000  1
  Tc  Tc22  1  0.552231  0.000000  0.000000  1
  Tc  Tc23  1  0.000000  0.552231  0.000000  1
  P  P24  1  0.642343  0.642343  0.000000  1
  P  P25  1  0.357657  0.000000  0.000000  1
  P  P26  1  0.000000  0.357657  0.000000  1
  P  P27  1  0.482042  0.315129  0.500000  1
  P  P28  1  0.684871  0.166914  0.500000  1
  P  P29  1  0.833086  0.517958  0.500000  1
  P  P30  1  0.517958  0.833086  0.500000  1
  P  P31  1  0.166914  0.684871  0.500000  1
  P  P32  1  0.823976  0.000000  0.000000  1
  P  P33  1  0.000000  0.823976  0.000000  1
  P  P34  1  0.315129  0.482042  0.500000  1
  P  P35  1  0.176024  0.176024  0.000000  1
