# generated using pymatgen
data_Nd17Y(TmSn8)2
_symmetry_space_group_name_H-M   'P 1'
_cell_length_a   8.24508202
_cell_length_b   8.40558701
_cell_length_c   15.92333100
_cell_angle_alpha   90.00000000
_cell_angle_beta   90.00000000
_cell_angle_gamma   89.95618667
_symmetry_Int_Tables_number   1
_chemical_formula_structural   Nd17Y(TmSn8)2
_chemical_formula_sum   'Nd17 Y1 Tm2 Sn16'
_cell_volume   1103.56222100
_cell_formula_units_Z   1
loop_
 _symmetry_equiv_pos_site_id
 _symmetry_equiv_pos_as_xyz
  1  'x, y, z'
loop_
 _atom_site_type_symbol
 _atom_site_label
 _atom_site_symmetry_multiplicity
 _atom_site_fract_x
 _atom_site_fract_y
 _atom_site_fract_z
 _atom_site_occupancy
  Nd  Nd0  1  0.017802  0.180710  0.401516  1
  Nd  Nd1  1  0.366698  0.838351  0.120460  1
  Nd  Nd2  1  0.134260  0.336903  0.621011  1
  Nd  Nd3  1  0.481556  0.681741  0.902047  1
  Nd  Nd4  1  0.865657  0.662579  0.122122  1
  Nd  Nd5  1  0.134260  0.336903  0.878989  1
  Nd  Nd6  1  0.481556  0.681741  0.597953  1
  Nd  Nd7  1  0.632668  0.162134  0.619977  1
  Nd  Nd8  1  0.803881  0.498264  0.750000  1
  Nd  Nd9  1  0.865657  0.662579  0.377878  1
  Nd  Nd10  1  0.017802  0.180710  0.098484  1
  Nd  Nd11  1  0.982236  0.819641  0.901967  1
  Nd  Nd12  1  0.632668  0.162134  0.880023  1
  Nd  Nd13  1  0.518498  0.318830  0.099231  1
  Nd  Nd14  1  0.366698  0.838351  0.379540  1
  Nd  Nd15  1  0.982236  0.819641  0.598033  1
  Nd  Nd16  1  0.518498  0.318830  0.400769  1
  Y  Y17  1  0.197648  0.501731  0.250000  1
  Tm  Tm18  1  0.698697  0.997819  0.250000  1
  Tm  Tm19  1  0.301847  0.002984  0.750000  1
  Sn  Sn20  1  0.793131  0.463598  0.541409  1
  Sn  Sn21  1  0.707944  0.965133  0.455128  1
  Sn  Sn22  1  0.674413  0.857969  0.750000  1
  Sn  Sn23  1  0.207034  0.534610  0.455935  1
  Sn  Sn24  1  0.292315  0.034634  0.955483  1
  Sn  Sn25  1  0.824059  0.351393  0.250000  1
  Sn  Sn26  1  0.793131  0.463598  0.958591  1
  Sn  Sn27  1  0.562731  0.617637  0.250000  1
  Sn  Sn28  1  0.207034  0.534610  0.044065  1
  Sn  Sn29  1  0.433522  0.382138  0.750000  1
  Sn  Sn30  1  0.178360  0.649133  0.750000  1
  Sn  Sn31  1  0.937973  0.114279  0.750000  1
  Sn  Sn32  1  0.292315  0.034634  0.544517  1
  Sn  Sn33  1  0.707944  0.965133  0.044872  1
  Sn  Sn34  1  0.324153  0.145431  0.250000  1
  Sn  Sn35  1  0.063121  0.883497  0.250000  1
