# generated using pymatgen
data_Hf6TiNb3Ge6C
_symmetry_space_group_name_H-M   'P 1'
_cell_length_a   7.88240700
_cell_length_b   7.88240701
_cell_length_c   5.42006800
_cell_angle_alpha   90.00000000
_cell_angle_beta   90.00000000
_cell_angle_gamma   119.99999578
_symmetry_Int_Tables_number   1
_chemical_formula_structural   Hf6TiNb3Ge6C
_chemical_formula_sum   'Hf6 Ti1 Nb3 Ge6 C1'
_cell_volume   291.64403391
_cell_formula_units_Z   1
loop_
 _symmetry_equiv_pos_site_id
 _symmetry_equiv_pos_as_xyz
  1  'x, y, z'
loop_
 _atom_site_type_symbol
 _atom_site_label
 _atom_site_symmetry_multiplicity
 _atom_site_fract_x
 _atom_site_fract_y
 _atom_site_fract_z
 _atom_site_occupancy
  Hf  Hf0  1  0.998993  0.757781  0.255911  1
  Hf  Hf1  1  0.242219  0.241212  0.255911  1
  Hf  Hf2  1  0.758788  0.001007  0.255911  1
  Hf  Hf3  1  0.998993  0.241212  0.744089  1
  Hf  Hf4  1  0.758788  0.757781  0.744089  1
  Hf  Hf5  1  0.242219  0.001007  0.744089  1
  Ti  Ti6  1  0.333333  0.666667  0.000000  1
  Nb  Nb7  1  0.666667  0.333333  0.000000  1
  Nb  Nb8  1  0.666667  0.333333  0.500000  1
  Nb  Nb9  1  0.333333  0.666667  0.500000  1
  Ge  Ge10  1  0.002155  0.400603  0.243660  1
  Ge  Ge11  1  0.599397  0.601552  0.243660  1
  Ge  Ge12  1  0.398448  0.997845  0.243660  1
  Ge  Ge13  1  0.002155  0.601552  0.756340  1
  Ge  Ge14  1  0.398448  0.400603  0.756340  1
  Ge  Ge15  1  0.599397  0.997845  0.756340  1
  C  C16  1  0.000000  0.000000  0.500000  1
