# generated using pymatgen
data_K11Cd2Bi5
_symmetry_space_group_name_H-M   'P 1'
_cell_length_a   10.30062746
_cell_length_b   12.41083354
_cell_length_c   13.26473435
_cell_angle_alpha   103.58977303
_cell_angle_beta   97.02919677
_cell_angle_gamma   107.57885185
_symmetry_Int_Tables_number   1
_chemical_formula_structural   K11Cd2Bi5
_chemical_formula_sum   'K22 Cd4 Bi10'
_cell_volume   1536.72350442
_cell_formula_units_Z   2
loop_
 _symmetry_equiv_pos_site_id
 _symmetry_equiv_pos_as_xyz
  1  'x, y, z'
loop_
 _atom_site_type_symbol
 _atom_site_label
 _atom_site_symmetry_multiplicity
 _atom_site_fract_x
 _atom_site_fract_y
 _atom_site_fract_z
 _atom_site_occupancy
  K  K0  1  0.857773  0.574025  0.962822  1
  K  K1  1  0.142227  0.425975  0.037178  1
  K  K2  1  0.304808  0.893888  0.776318  1
  K  K3  1  0.695192  0.106112  0.223682  1
  K  K4  1  0.632998  0.166131  0.530745  1
  K  K5  1  0.367002  0.833869  0.469255  1
  K  K6  1  0.634828  0.673904  0.560567  1
  K  K7  1  0.365172  0.326096  0.439433  1
  K  K8  1  0.203355  0.557682  0.571359  1
  K  K9  1  0.796645  0.442318  0.428641  1
  K  K10  1  0.049684  0.705796  0.269076  1
  K  K11  1  0.950316  0.294204  0.730924  1
  K  K12  1  0.202604  0.079047  0.570573  1
  K  K13  1  0.797396  0.920953  0.429427  1
  K  K14  1  0.876338  0.094782  0.983019  1
  K  K15  1  0.123662  0.905218  0.016981  1
  K  K16  1  0.586695  0.227138  0.863928  1
  K  K17  1  0.413305  0.772862  0.136072  1
  K  K18  1  0.392488  0.247538  0.140774  1
  K  K19  1  0.607512  0.752462  0.859226  1
  K  K20  1  0.349660  0.411941  0.790208  1
  K  K21  1  0.650340  0.588059  0.209792  1
  Cd  Cd22  1  0.946160  0.958127  0.718443  1
  Cd  Cd23  1  0.053840  0.041873  0.281557  1
  Cd  Cd24  1  0.946214  0.624703  0.715105  1
  Cd  Cd25  1  0.053786  0.375297  0.284895  1
  Bi  Bi26  1  0.001628  0.764913  0.553184  1
  Bi  Bi27  1  0.998372  0.235087  0.446816  1
  Bi  Bi28  1  0.658604  0.454855  0.692153  1
  Bi  Bi29  1  0.341396  0.545145  0.307847  1
  Bi  Bi30  1  0.660649  0.973510  0.699952  1
  Bi  Bi31  1  0.339351  0.026490  0.300048  1
  Bi  Bi32  1  0.193918  0.149576  0.866946  1
  Bi  Bi33  1  0.806082  0.850424  0.133054  1
  Bi  Bi34  1  0.191774  0.631527  0.866461  1
  Bi  Bi35  1  0.808226  0.368473  0.133539  1
