# generated using pymatgen
data_Hf12Co6ReOs5
_symmetry_space_group_name_H-M   'P 1'
_cell_length_a   4.55900800
_cell_length_b   6.45420900
_cell_length_c   13.67333000
_cell_angle_alpha   90.00000000
_cell_angle_beta   90.00018016
_cell_angle_gamma   90.00000000
_symmetry_Int_Tables_number   1
_chemical_formula_structural   Hf12Co6ReOs5
_chemical_formula_sum   'Hf12 Co6 Re1 Os5'
_cell_volume   402.33487020
_cell_formula_units_Z   1
loop_
 _symmetry_equiv_pos_site_id
 _symmetry_equiv_pos_as_xyz
  1  'x, y, z'
loop_
 _atom_site_type_symbol
 _atom_site_label
 _atom_site_symmetry_multiplicity
 _atom_site_fract_x
 _atom_site_fract_y
 _atom_site_fract_z
 _atom_site_occupancy
  Hf  Hf0  1  0.500055  0.250632  0.999874  1
  Hf  Hf1  1  0.500055  0.749369  0.999874  1
  Hf  Hf2  1  0.999944  0.249467  0.166619  1
  Hf  Hf3  1  0.999944  0.750533  0.166619  1
  Hf  Hf4  1  0.499956  0.250620  0.333336  1
  Hf  Hf5  1  0.499956  0.749381  0.333336  1
  Hf  Hf6  1  0.999991  0.249622  0.500044  1
  Hf  Hf7  1  0.999991  0.750379  0.500044  1
  Hf  Hf8  1  0.500113  0.250371  0.666817  1
  Hf  Hf9  1  0.500113  0.749630  0.666817  1
  Hf  Hf10  1  0.000045  0.250011  0.833288  1
  Hf  Hf11  1  0.000045  0.749989  0.833288  1
  Co  Co12  1  0.000006  0.500000  0.000934  1
  Co  Co13  1  0.499922  0.000000  0.167376  1
  Co  Co14  1  0.999920  0.500000  0.333330  1
  Co  Co15  1  0.499990  0.000000  0.499283  1
  Co  Co16  1  0.000067  0.500000  0.665737  1
  Co  Co17  1  0.500088  0.000000  0.833344  1
  Re  Re18  1  0.499860  0.500000  0.833390  1
  Os  Os19  1  0.000000  0.000000  0.000771  1
  Os  Os20  1  0.499942  0.500000  0.167186  1
  Os  Os21  1  0.999937  0.000000  0.333355  1
  Os  Os22  1  0.499990  0.500000  0.499494  1
  Os  Os23  1  0.000062  0.000000  0.665845  1
