# generated using pymatgen
data_Er4Lu4Fe(B8W)3
_symmetry_space_group_name_H-M   'P 1'
_cell_length_a   3.53829100
_cell_length_b   9.18544419
_cell_length_c   11.58052530
_cell_angle_alpha   90.15293191
_cell_angle_beta   90.00000000
_cell_angle_gamma   90.00000000
_symmetry_Int_Tables_number   1
_chemical_formula_structural   Er4Lu4Fe(B8W)3
_chemical_formula_sum   'Er4 Lu4 Fe1 B24 W3'
_cell_volume   376.37470075
_cell_formula_units_Z   1
loop_
 _symmetry_equiv_pos_site_id
 _symmetry_equiv_pos_as_xyz
  1  'x, y, z'
loop_
 _atom_site_type_symbol
 _atom_site_label
 _atom_site_symmetry_multiplicity
 _atom_site_fract_x
 _atom_site_fract_y
 _atom_site_fract_z
 _atom_site_occupancy
  Er  Er0  1  0.000000  0.820478  0.086223  1
  Er  Er1  1  0.000000  0.178853  0.913847  1
  Er  Er2  1  0.000000  0.321363  0.416447  1
  Er  Er3  1  0.000000  0.676942  0.586793  1
  Lu  Lu4  1  0.000000  0.444120  0.126501  1
  Lu  Lu5  1  0.000000  0.552438  0.867734  1
  Lu  Lu6  1  0.000000  0.945718  0.373946  1
  Lu  Lu7  1  0.000000  0.062056  0.629635  1
  Fe  Fe8  1  0.000000  0.360215  0.680356  1
  B  B9  1  0.500000  0.051057  0.064659  1
  B  B10  1  0.500000  0.948162  0.934190  1
  B  B11  1  0.500000  0.549758  0.437619  1
  B  B12  1  0.500000  0.443358  0.569724  1
  B  B13  1  0.500000  0.252475  0.077180  1
  B  B14  1  0.500000  0.745776  0.920316  1
  B  B15  1  0.500000  0.754064  0.423188  1
  B  B16  1  0.500000  0.253138  0.583789  1
  B  B17  1  0.500000  0.296117  0.235810  1
  B  B18  1  0.500000  0.702460  0.761443  1
  B  B19  1  0.500000  0.795423  0.264359  1
  B  B20  1  0.500000  0.211248  0.734079  1
  B  B21  1  0.500000  0.132163  0.318558  1
  B  B22  1  0.500000  0.870045  0.680846  1
  B  B23  1  0.500000  0.630203  0.182565  1
  B  B24  1  0.500000  0.368776  0.812826  1
  B  B25  1  0.500000  0.477449  0.287138  1
  B  B26  1  0.500000  0.512713  0.711206  1
  B  B27  1  0.500000  0.977802  0.214029  1
  B  B28  1  0.500000  0.023860  0.786740  1
  B  B29  1  0.500000  0.103388  0.474202  1
  B  B30  1  0.500000  0.902734  0.528553  1
  B  B31  1  0.500000  0.599154  0.025932  1
  B  B32  1  0.500000  0.398504  0.969463  1
  W  W33  1  0.000000  0.139344  0.179963  1
  W  W34  1  0.000000  0.859862  0.818308  1
  W  W35  1  0.000000  0.638786  0.321836  1
