# generated using pymatgen
data_Gd4TiRe(B8Mo)2
_symmetry_space_group_name_H-M   'P 1'
_cell_length_a   3.63387700
_cell_length_b   6.04546995
_cell_length_c   11.69600638
_cell_angle_alpha   90.05871395
_cell_angle_beta   90.00000000
_cell_angle_gamma   90.00000000
_symmetry_Int_Tables_number   1
_chemical_formula_structural   Gd4TiRe(B8Mo)2
_chemical_formula_sum   'Gd4 Ti1 Re1 B16 Mo2'
_cell_volume   256.94351359
_cell_formula_units_Z   1
loop_
 _symmetry_equiv_pos_site_id
 _symmetry_equiv_pos_as_xyz
  1  'x, y, z'
loop_
 _atom_site_type_symbol
 _atom_site_label
 _atom_site_symmetry_multiplicity
 _atom_site_fract_x
 _atom_site_fract_y
 _atom_site_fract_z
 _atom_site_occupancy
  Gd  Gd0  1  0.000000  0.624732  0.351243  1
  Gd  Gd1  1  0.000000  0.374441  0.650627  1
  Gd  Gd2  1  0.000000  0.126558  0.150874  1
  Gd  Gd3  1  0.000000  0.873408  0.848055  1
  Ti  Ti4  1  0.000000  0.128800  0.416981  1
  Re  Re5  1  0.000000  0.870837  0.585263  1
  B  B6  1  0.500000  0.786497  0.186059  1
  B  B7  1  0.500000  0.213161  0.813747  1
  B  B8  1  0.500000  0.287627  0.313801  1
  B  B9  1  0.500000  0.715892  0.683699  1
  B  B10  1  0.500000  0.866324  0.032294  1
  B  B11  1  0.500000  0.133792  0.967793  1
  B  B12  1  0.500000  0.364782  0.467975  1
  B  B13  1  0.500000  0.637375  0.532339  1
  B  B14  1  0.500000  0.884898  0.454152  1
  B  B15  1  0.500000  0.111395  0.547955  1
  B  B16  1  0.500000  0.386040  0.047237  1
  B  B17  1  0.500000  0.613926  0.952543  1
  B  B18  1  0.500000  0.977102  0.307772  1
  B  B19  1  0.500000  0.021268  0.691240  1
  B  B20  1  0.500000  0.476867  0.193271  1
  B  B21  1  0.500000  0.523825  0.806729  1
  Mo  Mo22  1  0.000000  0.629586  0.082752  1
  Mo  Mo23  1  0.000000  0.370869  0.915599  1
