# generated using pymatgen
data_Ti3Ga3OsPt2
_symmetry_space_group_name_H-M   'P 1'
_cell_length_a   7.24067800
_cell_length_b   7.24067952
_cell_length_c   6.25856200
_cell_angle_alpha   90.00000000
_cell_angle_beta   90.00000000
_cell_angle_gamma   119.99998269
_symmetry_Int_Tables_number   1
_chemical_formula_structural   Ti3Ga3OsPt2
_chemical_formula_sum   'Ti6 Ga6 Os2 Pt4'
_cell_volume   284.16057731
_cell_formula_units_Z   2
loop_
 _symmetry_equiv_pos_site_id
 _symmetry_equiv_pos_as_xyz
  1  'x, y, z'
loop_
 _atom_site_type_symbol
 _atom_site_label
 _atom_site_symmetry_multiplicity
 _atom_site_fract_x
 _atom_site_fract_y
 _atom_site_fract_z
 _atom_site_occupancy
  Ti  Ti0  1  0.396430  0.380814  0.750000  1
  Ti  Ti1  1  0.984385  0.603570  0.750000  1
  Ti  Ti2  1  0.619186  0.015615  0.750000  1
  Ti  Ti3  1  0.620582  0.017203  0.250000  1
  Ti  Ti4  1  0.982797  0.603379  0.250000  1
  Ti  Ti5  1  0.396621  0.379418  0.250000  1
  Ga  Ga6  1  0.280409  0.995081  0.000020  1
  Ga  Ga7  1  0.714671  0.719591  0.000020  1
  Ga  Ga8  1  0.004919  0.285329  0.000020  1
  Ga  Ga9  1  0.714671  0.719591  0.499980  1
  Ga  Ga10  1  0.280409  0.995081  0.499980  1
  Ga  Ga11  1  0.004919  0.285329  0.499980  1
  Os  Os12  1  0.666667  0.333333  0.999612  1
  Os  Os13  1  0.666667  0.333333  0.500388  1
  Pt  Pt14  1  0.000000  0.000000  0.750000  1
  Pt  Pt15  1  0.333333  0.666667  0.498605  1
  Pt  Pt16  1  0.333333  0.666667  0.001395  1
  Pt  Pt17  1  0.000000  0.000000  0.250000  1
