# generated using pymatgen
data_VCo3Ni5Mo15C4
_symmetry_space_group_name_H-M   'P 1'
_cell_length_a   7.96877188
_cell_length_b   7.96295766
_cell_length_c   7.96877224
_cell_angle_alpha   60.23293024
_cell_angle_beta   60.25437398
_cell_angle_gamma   60.23293051
_symmetry_Int_Tables_number   1
_chemical_formula_structural   VCo3Ni5Mo15C4
_chemical_formula_sum   'V1 Co3 Ni5 Mo15 C4'
_cell_volume   359.49770493
_cell_formula_units_Z   1
loop_
 _symmetry_equiv_pos_site_id
 _symmetry_equiv_pos_as_xyz
  1  'x, y, z'
loop_
 _atom_site_type_symbol
 _atom_site_label
 _atom_site_symmetry_multiplicity
 _atom_site_fract_x
 _atom_site_fract_y
 _atom_site_fract_z
 _atom_site_occupancy
  V  V0  1  0.125649  0.119870  0.125649  1
  Co  Co1  1  0.922617  0.923856  0.240077  1
  Co  Co2  1  0.330101  0.329242  0.330101  1
  Co  Co3  1  0.240077  0.923856  0.922617  1
  Ni  Ni4  1  0.328346  0.004344  0.328346  1
  Ni  Ni5  1  0.002661  0.328357  0.328780  1
  Ni  Ni6  1  0.328780  0.328357  0.002661  1
  Ni  Ni7  1  0.917203  0.917815  0.917203  1
  Ni  Ni8  1  0.921058  0.246874  0.921058  1
  Mo  Mo9  1  0.683984  0.313505  0.313331  1
  Mo  Mo10  1  0.937342  0.937802  0.559977  1
  Mo  Mo11  1  0.689060  0.690425  0.310149  1
  Mo  Mo12  1  0.691157  0.308846  0.691157  1
  Mo  Mo13  1  0.314376  0.683667  0.314376  1
  Mo  Mo14  1  0.564975  0.935244  0.564975  1
  Mo  Mo15  1  0.559977  0.937802  0.937342  1
  Mo  Mo16  1  0.937336  0.564218  0.560470  1
  Mo  Mo17  1  0.939178  0.560771  0.939178  1
  Mo  Mo18  1  0.313331  0.313505  0.683984  1
  Mo  Mo19  1  0.560470  0.564218  0.937336  1
  Mo  Mo20  1  0.624841  0.125500  0.129127  1
  Mo  Mo21  1  0.129127  0.125500  0.624841  1
  Mo  Mo22  1  0.127543  0.625677  0.127543  1
  Mo  Mo23  1  0.310149  0.690425  0.689060  1
  C  C24  1  0.624580  0.623595  0.624580  1
  C  C25  1  0.625982  0.625260  0.124627  1
  C  C26  1  0.124627  0.625260  0.625982  1
  C  C27  1  0.625474  0.126208  0.625474  1
