# generated using pymatgen
data_Ho4TmZr3Pt4
_symmetry_space_group_name_H-M   'P 1'
_cell_length_a   4.72296800
_cell_length_b   7.08384004
_cell_length_c   8.34156668
_cell_angle_alpha   89.26273481
_cell_angle_beta   90.00000000
_cell_angle_gamma   90.00000000
_symmetry_Int_Tables_number   1
_chemical_formula_structural   Ho4TmZr3Pt4
_chemical_formula_sum   'Ho4 Tm1 Zr3 Pt4'
_cell_volume   279.05860514
_cell_formula_units_Z   1
loop_
 _symmetry_equiv_pos_site_id
 _symmetry_equiv_pos_as_xyz
  1  'x, y, z'
loop_
 _atom_site_type_symbol
 _atom_site_label
 _atom_site_symmetry_multiplicity
 _atom_site_fract_x
 _atom_site_fract_y
 _atom_site_fract_z
 _atom_site_occupancy
  Ho  Ho0  1  0.250000  0.988891  0.325631  1
  Ho  Ho1  1  0.250000  0.481594  0.171114  1
  Ho  Ho2  1  0.750000  0.017655  0.680944  1
  Ho  Ho3  1  0.750000  0.514674  0.821189  1
  Tm  Tm4  1  0.750000  0.647005  0.417857  1
  Zr  Zr5  1  0.250000  0.855594  0.922296  1
  Zr  Zr6  1  0.250000  0.353843  0.579154  1
  Zr  Zr7  1  0.750000  0.147876  0.080514  1
  Pt  Pt8  1  0.250000  0.232147  0.906552  1
  Pt  Pt9  1  0.250000  0.736608  0.603106  1
  Pt  Pt10  1  0.750000  0.768868  0.083310  1
  Pt  Pt11  1  0.750000  0.255247  0.408333  1
