# generated using pymatgen
data_La5Yb(HfBi5)2
_symmetry_space_group_name_H-M   'P 1'
_cell_length_a   9.87403000
_cell_length_b   9.89561069
_cell_length_c   6.47726300
_cell_angle_alpha   90.00000000
_cell_angle_beta   90.00000000
_cell_angle_gamma   119.92788476
_symmetry_Int_Tables_number   1
_chemical_formula_structural   La5Yb(HfBi5)2
_chemical_formula_sum   'La5 Yb1 Hf2 Bi10'
_cell_volume   548.49710733
_cell_formula_units_Z   1
loop_
 _symmetry_equiv_pos_site_id
 _symmetry_equiv_pos_as_xyz
  1  'x, y, z'
loop_
 _atom_site_type_symbol
 _atom_site_label
 _atom_site_symmetry_multiplicity
 _atom_site_fract_x
 _atom_site_fract_y
 _atom_site_fract_z
 _atom_site_occupancy
  La  La0  1  0.385321  0.000000  0.750000  1
  La  La1  1  0.998544  0.618700  0.250000  1
  La  La2  1  0.999699  0.379430  0.750000  1
  La  La3  1  0.379844  0.381300  0.250000  1
  La  La4  1  0.620269  0.620570  0.750000  1
  Yb  Yb5  1  0.621407  0.000000  0.250000  1
  Hf  Hf6  1  0.998774  0.000000  0.001902  1
  Hf  Hf7  1  0.998774  0.000000  0.498098  1
  Bi  Bi8  1  0.261253  0.000000  0.250000  1
  Bi  Bi9  1  0.740573  0.000000  0.750000  1
  Bi  Bi10  1  0.997300  0.259373  0.250000  1
  Bi  Bi11  1  0.001643  0.740727  0.750000  1
  Bi  Bi12  1  0.737928  0.740627  0.250000  1
  Bi  Bi13  1  0.260916  0.259273  0.750000  1
  Bi  Bi14  1  0.333563  0.668248  0.001101  1
  Bi  Bi15  1  0.665316  0.331752  0.001101  1
  Bi  Bi16  1  0.665316  0.331752  0.498899  1
  Bi  Bi17  1  0.333563  0.668248  0.498899  1
