# generated using pymatgen
data_Tb3Ho3Th2(CdIr)2
_symmetry_space_group_name_H-M   'P 1'
_cell_length_a   9.73523540
_cell_length_b   9.73523620
_cell_length_c   9.73523600
_cell_angle_alpha   60.00000068
_cell_angle_beta   59.99999798
_cell_angle_gamma   59.99999743
_symmetry_Int_Tables_number   1
_chemical_formula_structural   Tb3Ho3Th2(CdIr)2
_chemical_formula_sum   'Tb6 Ho6 Th4 Cd4 Ir4'
_cell_volume   652.41573070
_cell_formula_units_Z   2
loop_
 _symmetry_equiv_pos_site_id
 _symmetry_equiv_pos_as_xyz
  1  'x, y, z'
loop_
 _atom_site_type_symbol
 _atom_site_label
 _atom_site_symmetry_multiplicity
 _atom_site_fract_x
 _atom_site_fract_y
 _atom_site_fract_z
 _atom_site_occupancy
  Tb  Tb0  1  0.186296  0.813704  0.813704  1
  Tb  Tb1  1  0.813704  0.186296  0.186296  1
  Tb  Tb2  1  0.813704  0.186296  0.813704  1
  Tb  Tb3  1  0.186296  0.813704  0.186296  1
  Tb  Tb4  1  0.813704  0.813704  0.186296  1
  Tb  Tb5  1  0.186296  0.186296  0.813704  1
  Ho  Ho6  1  0.063030  0.436970  0.436970  1
  Ho  Ho7  1  0.436970  0.063030  0.063030  1
  Ho  Ho8  1  0.436970  0.063030  0.436970  1
  Ho  Ho9  1  0.063030  0.436970  0.063030  1
  Ho  Ho10  1  0.436970  0.436970  0.063030  1
  Ho  Ho11  1  0.063030  0.063030  0.436970  1
  Th  Th12  1  0.599873  0.599873  0.599873  1
  Th  Th13  1  0.599873  0.599873  0.200381  1
  Th  Th14  1  0.599873  0.200381  0.599873  1
  Th  Th15  1  0.200381  0.599873  0.599873  1
  Cd  Cd16  1  0.832201  0.832201  0.832201  1
  Cd  Cd17  1  0.832201  0.832201  0.503397  1
  Cd  Cd18  1  0.832201  0.503397  0.832201  1
  Cd  Cd19  1  0.503397  0.832201  0.832201  1
  Ir  Ir20  1  0.393240  0.393240  0.393240  1
  Ir  Ir21  1  0.393240  0.393240  0.820280  1
  Ir  Ir22  1  0.393240  0.820280  0.393240  1
  Ir  Ir23  1  0.820280  0.393240  0.393240  1
