# generated using pymatgen
data_K4Zr3Sc5Se16
_symmetry_space_group_name_H-M   'P 1'
_cell_length_a   6.68916340
_cell_length_b   7.69518336
_cell_length_c   16.37055130
_cell_angle_alpha   90.01138731
_cell_angle_beta   90.02002373
_cell_angle_gamma   89.96672823
_symmetry_Int_Tables_number   1
_chemical_formula_structural   K4Zr3Sc5Se16
_chemical_formula_sum   'K4 Zr3 Sc5 Se16'
_cell_volume   842.66309520
_cell_formula_units_Z   1
loop_
 _symmetry_equiv_pos_site_id
 _symmetry_equiv_pos_as_xyz
  1  'x, y, z'
loop_
 _atom_site_type_symbol
 _atom_site_label
 _atom_site_symmetry_multiplicity
 _atom_site_fract_x
 _atom_site_fract_y
 _atom_site_fract_z
 _atom_site_occupancy
  K  K0  1  0.342086  0.000992  0.002138  1
  K  K1  1  0.657914  0.499008  0.497862  1
  K  K2  1  0.022638  0.000974  0.498048  1
  K  K3  1  0.977362  0.499026  0.001952  1
  Zr  Zr4  1  0.500000  0.750000  0.750000  1
  Zr  Zr5  1  0.500000  0.750000  0.250000  1
  Zr  Zr6  1  0.500000  0.250000  0.750000  1
  Sc  Sc7  1  0.000767  0.003838  0.247969  1
  Sc  Sc8  1  0.001053  0.999917  0.751780  1
  Sc  Sc9  1  0.999233  0.496162  0.252031  1
  Sc  Sc10  1  0.998947  0.500083  0.748220  1
  Sc  Sc11  1  0.500000  0.250000  0.250000  1
  Se  Se12  1  0.833084  0.248011  0.345813  1
  Se  Se13  1  0.831847  0.751467  0.655085  1
  Se  Se14  1  0.167795  0.748703  0.154435  1
  Se  Se15  1  0.168177  0.251463  0.844853  1
  Se  Se16  1  0.166916  0.251989  0.154187  1
  Se  Se17  1  0.168153  0.748533  0.844915  1
  Se  Se18  1  0.832205  0.751297  0.345565  1
  Se  Se19  1  0.831823  0.248537  0.655147  1
  Se  Se20  1  0.668614  0.998334  0.154092  1
  Se  Se21  1  0.667190  0.999975  0.845830  1
  Se  Se22  1  0.331386  0.501666  0.345908  1
  Se  Se23  1  0.332810  0.500025  0.654170  1
  Se  Se24  1  0.335471  0.998548  0.344783  1
  Se  Se25  1  0.335938  0.000010  0.654951  1
  Se  Se26  1  0.664529  0.501452  0.155217  1
  Se  Se27  1  0.664062  0.499990  0.845049  1
