# generated using pymatgen
data_Tb2UAl2GaIr3
_symmetry_space_group_name_H-M   'P 1'
_cell_length_a   7.07154056
_cell_length_b   7.30708700
_cell_length_c   3.92652100
_cell_angle_alpha   90.00000000
_cell_angle_beta   90.00000000
_cell_angle_gamma   121.10813123
_symmetry_Int_Tables_number   1
_chemical_formula_structural   Tb2UAl2GaIr3
_chemical_formula_sum   'Tb2 U1 Al2 Ga1 Ir3'
_cell_volume   173.71539325
_cell_formula_units_Z   1
loop_
 _symmetry_equiv_pos_site_id
 _symmetry_equiv_pos_as_xyz
  1  'x, y, z'
loop_
 _atom_site_type_symbol
 _atom_site_label
 _atom_site_symmetry_multiplicity
 _atom_site_fract_x
 _atom_site_fract_y
 _atom_site_fract_z
 _atom_site_occupancy
  Tb  Tb0  1  0.407398  0.412295  0.500000  1
  Tb  Tb1  1  0.592602  0.004898  0.500000  1
  U  U2  1  0.000000  0.580710  0.500000  1
  Al  Al3  1  0.751185  0.754765  0.000000  1
  Al  Al4  1  0.248815  0.003580  0.000000  1
  Ga  Ga5  1  0.000000  0.234793  0.000000  1
  Ir  Ir6  1  0.696944  0.364982  0.000000  1
  Ir  Ir7  1  0.303056  0.668040  0.000000  1
  Ir  Ir8  1  0.000000  0.975936  0.500000  1
