# generated using pymatgen
data_Tm4OsI4
_symmetry_space_group_name_H-M   'P 1'
_cell_length_a   11.24101174
_cell_length_b   11.24101323
_cell_length_c   6.11973929
_cell_angle_alpha   89.22936758
_cell_angle_beta   89.22937416
_cell_angle_gamma   88.66643127
_symmetry_Int_Tables_number   1
_chemical_formula_structural   Tm4OsI4
_chemical_formula_sum   'Tm8 Os2 I8'
_cell_volume   772.94634412
_cell_formula_units_Z   2
loop_
 _symmetry_equiv_pos_site_id
 _symmetry_equiv_pos_as_xyz
  1  'x, y, z'
loop_
 _atom_site_type_symbol
 _atom_site_label
 _atom_site_symmetry_multiplicity
 _atom_site_fract_x
 _atom_site_fract_y
 _atom_site_fract_z
 _atom_site_occupancy
  Tm  Tm0  1  0.196299  0.917187  0.995803  1
  Tm  Tm1  1  0.803701  0.082813  0.004197  1
  Tm  Tm2  1  0.082813  0.803701  0.504197  1
  Tm  Tm3  1  0.917187  0.196299  0.495803  1
  Tm  Tm4  1  0.805455  0.922127  0.507342  1
  Tm  Tm5  1  0.194545  0.077873  0.492658  1
  Tm  Tm6  1  0.077873  0.194545  0.992658  1
  Tm  Tm7  1  0.922127  0.805455  0.007342  1
  Os  Os8  1  0.000226  0.999774  0.250000  1
  Os  Os9  1  0.999774  0.000226  0.750000  1
  I  I10  1  0.357147  0.848293  0.513303  1
  I  I11  1  0.642853  0.151707  0.486697  1
  I  I12  1  0.151707  0.642853  0.986697  1
  I  I13  1  0.848293  0.357147  0.013303  1
  I  I14  1  0.351896  0.145384  0.995512  1
  I  I15  1  0.648104  0.854616  0.004488  1
  I  I16  1  0.854616  0.648104  0.504488  1
  I  I17  1  0.145384  0.351896  0.495512  1
