# generated using pymatgen
data_Rb3Ba3InP4
_symmetry_space_group_name_H-M   'P 1'
_cell_length_a   10.68108700
_cell_length_b   10.68108703
_cell_length_c   7.83261900
_cell_angle_alpha   90.00000000
_cell_angle_beta   90.00000000
_cell_angle_gamma   119.99999682
_symmetry_Int_Tables_number   1
_chemical_formula_structural   Rb3Ba3InP4
_chemical_formula_sum   'Rb6 Ba6 In2 P8'
_cell_volume   773.87096650
_cell_formula_units_Z   2
loop_
 _symmetry_equiv_pos_site_id
 _symmetry_equiv_pos_as_xyz
  1  'x, y, z'
loop_
 _atom_site_type_symbol
 _atom_site_label
 _atom_site_symmetry_multiplicity
 _atom_site_fract_x
 _atom_site_fract_y
 _atom_site_fract_z
 _atom_site_occupancy
  Rb  Rb0  1  0.136976  0.863024  0.174008  1
  Rb  Rb1  1  0.273952  0.136976  0.674008  1
  Rb  Rb2  1  0.863024  0.726048  0.674008  1
  Rb  Rb3  1  0.726048  0.863024  0.174008  1
  Rb  Rb4  1  0.863024  0.136976  0.674008  1
  Rb  Rb5  1  0.136976  0.273952  0.174008  1
  Ba  Ba6  1  0.942507  0.471253  0.002175  1
  Ba  Ba7  1  0.528747  0.057493  0.002175  1
  Ba  Ba8  1  0.471253  0.942507  0.502175  1
  Ba  Ba9  1  0.057493  0.528747  0.502175  1
  Ba  Ba10  1  0.528747  0.471253  0.002175  1
  Ba  Ba11  1  0.471253  0.528747  0.502175  1
  In  In12  1  0.666667  0.333333  0.380575  1
  In  In13  1  0.333333  0.666667  0.880575  1
  P  P14  1  0.800133  0.199867  0.265725  1
  P  P15  1  0.199867  0.399734  0.765725  1
  P  P16  1  0.800133  0.600266  0.265725  1
  P  P17  1  0.666667  0.333333  0.724798  1
  P  P18  1  0.600266  0.800133  0.765725  1
  P  P19  1  0.333333  0.666667  0.224798  1
  P  P20  1  0.199867  0.800133  0.765725  1
  P  P21  1  0.399734  0.199867  0.265725  1
