# generated using pymatgen
data_Tb4TmLu3Au4
_symmetry_space_group_name_H-M   'P 1'
_cell_length_a   4.89504500
_cell_length_b   7.12982787
_cell_length_c   8.88094644
_cell_angle_alpha   90.06944595
_cell_angle_beta   90.00000000
_cell_angle_gamma   90.00000000
_symmetry_Int_Tables_number   1
_chemical_formula_structural   Tb4TmLu3Au4
_chemical_formula_sum   'Tb4 Tm1 Lu3 Au4'
_cell_volume   309.95215863
_cell_formula_units_Z   1
loop_
 _symmetry_equiv_pos_site_id
 _symmetry_equiv_pos_as_xyz
  1  'x, y, z'
loop_
 _atom_site_type_symbol
 _atom_site_label
 _atom_site_symmetry_multiplicity
 _atom_site_fract_x
 _atom_site_fract_y
 _atom_site_fract_z
 _atom_site_occupancy
  Tb  Tb0  1  0.250000  0.484335  0.176827  1
  Tb  Tb1  1  0.250000  0.986822  0.323434  1
  Tb  Tb2  1  0.750000  0.515038  0.822737  1
  Tb  Tb3  1  0.750000  0.015498  0.677978  1
  Tm  Tm4  1  0.750000  0.647565  0.419599  1
  Lu  Lu5  1  0.250000  0.852628  0.921609  1
  Lu  Lu6  1  0.250000  0.353036  0.580264  1
  Lu  Lu7  1  0.750000  0.147745  0.078285  1
  Au  Au8  1  0.250000  0.251350  0.899457  1
  Au  Au9  1  0.250000  0.752463  0.603031  1
  Au  Au10  1  0.750000  0.748696  0.097267  1
  Au  Au11  1  0.750000  0.244826  0.399511  1
