# generated using pymatgen
data_Tm8VRe(B12Ir)2
_symmetry_space_group_name_H-M   'P 1'
_cell_length_a   3.60492700
_cell_length_b   9.10603309
_cell_length_c   11.48872964
_cell_angle_alpha   90.26010178
_cell_angle_beta   90.00000000
_cell_angle_gamma   90.00000000
_symmetry_Int_Tables_number   1
_chemical_formula_structural   Tm8VRe(B12Ir)2
_chemical_formula_sum   'Tm8 V1 Re1 B24 Ir2'
_cell_volume   377.13186868
_cell_formula_units_Z   1
loop_
 _symmetry_equiv_pos_site_id
 _symmetry_equiv_pos_as_xyz
  1  'x, y, z'
loop_
 _atom_site_type_symbol
 _atom_site_label
 _atom_site_symmetry_multiplicity
 _atom_site_fract_x
 _atom_site_fract_y
 _atom_site_fract_z
 _atom_site_occupancy
  Tm  Tm0  1  0.000000  0.316381  0.410467  1
  Tm  Tm1  1  0.000000  0.683625  0.589547  1
  Tm  Tm2  1  0.000000  0.825745  0.082929  1
  Tm  Tm3  1  0.000000  0.173634  0.917900  1
  Tm  Tm4  1  0.000000  0.946416  0.371798  1
  Tm  Tm5  1  0.000000  0.054240  0.628057  1
  Tm  Tm6  1  0.000000  0.441768  0.125911  1
  Tm  Tm7  1  0.000000  0.558516  0.874079  1
  V  V8  1  0.000000  0.138432  0.180290  1
  Re  Re9  1  0.000000  0.860987  0.819131  1
  B  B10  1  0.500000  0.553675  0.434348  1
  B  B11  1  0.500000  0.446441  0.565395  1
  B  B12  1  0.500000  0.051706  0.066043  1
  B  B13  1  0.500000  0.947484  0.933055  1
  B  B14  1  0.500000  0.750153  0.420908  1
  B  B15  1  0.500000  0.250231  0.578498  1
  B  B16  1  0.500000  0.248753  0.079673  1
  B  B17  1  0.500000  0.751881  0.919585  1
  B  B18  1  0.500000  0.791998  0.265654  1
  B  B19  1  0.500000  0.208467  0.734298  1
  B  B20  1  0.500000  0.294187  0.235311  1
  B  B21  1  0.500000  0.706957  0.765300  1
  B  B22  1  0.500000  0.631193  0.184236  1
  B  B23  1  0.500000  0.368407  0.816355  1
  B  B24  1  0.500000  0.131926  0.316041  1
  B  B25  1  0.500000  0.868416  0.684652  1
  B  B26  1  0.500000  0.979895  0.212780  1
  B  B27  1  0.500000  0.018236  0.787106  1
  B  B28  1  0.500000  0.481354  0.287299  1
  B  B29  1  0.500000  0.518328  0.712490  1
  B  B30  1  0.500000  0.605913  0.029758  1
  B  B31  1  0.500000  0.394157  0.970085  1
  B  B32  1  0.500000  0.106862  0.471341  1
  B  B33  1  0.500000  0.893503  0.528835  1
  Ir  Ir34  1  0.000000  0.637247  0.322679  1
  Ir  Ir35  1  0.000000  0.362886  0.678165  1
