# generated using pymatgen
data_Lu6CoNi
_symmetry_space_group_name_H-M   'P 1'
_cell_length_a   6.14917400
_cell_length_b   6.74786300
_cell_length_c   9.24575500
_cell_angle_alpha   90.00000000
_cell_angle_beta   90.00000000
_cell_angle_gamma   90.00000000
_symmetry_Int_Tables_number   1
_chemical_formula_structural   Lu6CoNi
_chemical_formula_sum   'Lu12 Co2 Ni2'
_cell_volume   383.64135825
_cell_formula_units_Z   2
loop_
 _symmetry_equiv_pos_site_id
 _symmetry_equiv_pos_as_xyz
  1  'x, y, z'
loop_
 _atom_site_type_symbol
 _atom_site_label
 _atom_site_symmetry_multiplicity
 _atom_site_fract_x
 _atom_site_fract_y
 _atom_site_fract_z
 _atom_site_occupancy
  Lu  Lu0  1  0.319620  0.678557  0.068297  1
  Lu  Lu1  1  0.180380  0.178557  0.431703  1
  Lu  Lu2  1  0.676423  0.319354  0.563343  1
  Lu  Lu3  1  0.823577  0.819354  0.936657  1
  Lu  Lu4  1  0.676423  0.319354  0.936657  1
  Lu  Lu5  1  0.823577  0.819354  0.563343  1
  Lu  Lu6  1  0.319620  0.678557  0.431703  1
  Lu  Lu7  1  0.180380  0.178557  0.068297  1
  Lu  Lu8  1  0.864670  0.541562  0.250000  1
  Lu  Lu9  1  0.635330  0.041562  0.250000  1
  Lu  Lu10  1  0.137020  0.463509  0.750000  1
  Lu  Lu11  1  0.362980  0.963509  0.750000  1
  Co  Co12  1  0.039670  0.891365  0.250000  1
  Co  Co13  1  0.460330  0.391365  0.250000  1
  Ni  Ni14  1  0.946315  0.107743  0.750000  1
  Ni  Ni15  1  0.553685  0.607743  0.750000  1
