# generated using pymatgen
data_Ta6Zn5InRh12
_symmetry_space_group_name_H-M   'P 1'
_cell_length_a   4.11095900
_cell_length_b   7.19539100
_cell_length_c   12.34730700
_cell_angle_alpha   90.00000000
_cell_angle_beta   89.99991178
_cell_angle_gamma   90.00000000
_symmetry_Int_Tables_number   1
_chemical_formula_structural   Ta6Zn5InRh12
_chemical_formula_sum   'Ta6 Zn5 In1 Rh12'
_cell_volume   365.23281494
_cell_formula_units_Z   1
loop_
 _symmetry_equiv_pos_site_id
 _symmetry_equiv_pos_as_xyz
  1  'x, y, z'
loop_
 _atom_site_type_symbol
 _atom_site_label
 _atom_site_symmetry_multiplicity
 _atom_site_fract_x
 _atom_site_fract_y
 _atom_site_fract_z
 _atom_site_occupancy
  Ta  Ta0  1  0.000001  0.500000  0.000029  1
  Ta  Ta1  1  0.500000  0.000000  0.174290  1
  Ta  Ta2  1  0.000000  0.500000  0.335557  1
  Ta  Ta3  1  0.499999  0.000000  0.500012  1
  Ta  Ta4  1  0.999998  0.500000  0.664432  1
  Ta  Ta5  1  0.499997  0.000000  0.825645  1
  Zn  Zn6  1  0.500002  0.500000  0.168241  1
  Zn  Zn7  1  0.000001  0.000000  0.334466  1
  Zn  Zn8  1  0.499999  0.500000  0.499989  1
  Zn  Zn9  1  0.999998  0.000000  0.665541  1
  Zn  Zn10  1  0.499998  0.500000  0.831809  1
  In  In11  1  0.000013  0.000000  0.999951  1
  Rh  Rh12  1  0.499999  0.259203  0.000067  1
  Rh  Rh13  1  0.499999  0.740798  0.000067  1
  Rh  Rh14  1  0.000001  0.255376  0.170369  1
  Rh  Rh15  1  0.000001  0.744623  0.170369  1
  Rh  Rh16  1  0.500001  0.251320  0.335032  1
  Rh  Rh17  1  0.500001  0.748680  0.335032  1
  Rh  Rh18  1  0.999999  0.248188  0.499955  1
  Rh  Rh19  1  0.999999  0.751812  0.499955  1
  Rh  Rh20  1  0.499999  0.251354  0.664927  1
  Rh  Rh21  1  0.499999  0.748646  0.664927  1
  Rh  Rh22  1  0.999999  0.255454  0.829667  1
  Rh  Rh23  1  0.999999  0.744545  0.829667  1
