# generated using pymatgen
data_Ce2TaReH18
_symmetry_space_group_name_H-M   'P 1'
_cell_length_a   4.86427300
_cell_length_b   4.86427276
_cell_length_c   9.08019900
_cell_angle_alpha   90.00000000
_cell_angle_beta   90.00000000
_cell_angle_gamma   119.99999483
_symmetry_Int_Tables_number   1
_chemical_formula_structural   Ce2TaReH18
_chemical_formula_sum   'Ce2 Ta1 Re1 H18'
_cell_volume   186.06379793
_cell_formula_units_Z   1
loop_
 _symmetry_equiv_pos_site_id
 _symmetry_equiv_pos_as_xyz
  1  'x, y, z'
loop_
 _atom_site_type_symbol
 _atom_site_label
 _atom_site_symmetry_multiplicity
 _atom_site_fract_x
 _atom_site_fract_y
 _atom_site_fract_z
 _atom_site_occupancy
  Ce  Ce0  1  0.000000  0.000000  0.023006  1
  Ce  Ce1  1  0.000000  0.000000  0.476994  1
  Ta  Ta2  1  0.333333  0.666667  0.250000  1
  Re  Re3  1  0.666667  0.333333  0.750000  1
  H  H4  1  0.486625  0.513375  0.398896  1
  H  H5  1  0.486625  0.973250  0.398896  1
  H  H6  1  0.026750  0.513375  0.398896  1
  H  H7  1  0.953244  0.476622  0.883949  1
  H  H8  1  0.121066  0.242132  0.250000  1
  H  H9  1  0.865298  0.134702  0.750000  1
  H  H10  1  0.269403  0.134702  0.750000  1
  H  H11  1  0.757868  0.878934  0.250000  1
  H  H12  1  0.121066  0.878934  0.250000  1
  H  H13  1  0.865298  0.730597  0.750000  1
  H  H14  1  0.486625  0.973250  0.101104  1
  H  H15  1  0.523378  0.476622  0.616051  1
  H  H16  1  0.953244  0.476622  0.616051  1
  H  H17  1  0.026750  0.513375  0.101104  1
  H  H18  1  0.486625  0.513375  0.101104  1
  H  H19  1  0.523378  0.046756  0.883949  1
  H  H20  1  0.523378  0.476622  0.883949  1
  H  H21  1  0.523378  0.046756  0.616051  1
