# generated using pymatgen
data_NdSn3BRh6
_symmetry_space_group_name_H-M   'P 1'
_cell_length_a   5.79448500
_cell_length_b   5.79448507
_cell_length_c   13.66027400
_cell_angle_alpha   90.00000000
_cell_angle_beta   90.00000000
_cell_angle_gamma   120.00000533
_symmetry_Int_Tables_number   1
_chemical_formula_structural   NdSn3BRh6
_chemical_formula_sum   'Nd2 Sn6 B2 Rh12'
_cell_volume   397.20957587
_cell_formula_units_Z   2
loop_
 _symmetry_equiv_pos_site_id
 _symmetry_equiv_pos_as_xyz
  1  'x, y, z'
loop_
 _atom_site_type_symbol
 _atom_site_label
 _atom_site_symmetry_multiplicity
 _atom_site_fract_x
 _atom_site_fract_y
 _atom_site_fract_z
 _atom_site_occupancy
  Nd  Nd0  1  0.333333  0.666667  0.396539  1
  Nd  Nd1  1  0.666667  0.333333  0.896539  1
  Sn  Sn2  1  0.000000  0.000000  0.752007  1
  Sn  Sn3  1  0.000000  0.000000  0.252007  1
  Sn  Sn4  1  0.333333  0.666667  0.754472  1
  Sn  Sn5  1  0.666667  0.333333  0.254472  1
  Sn  Sn6  1  0.666667  0.333333  0.575407  1
  Sn  Sn7  1  0.333333  0.666667  0.075407  1
  B  B8  1  0.000000  0.000000  0.504016  1
  B  B9  1  0.000000  0.000000  0.004016  1
  Rh  Rh10  1  0.335143  0.167572  0.411105  1
  Rh  Rh11  1  0.832428  0.167572  0.411105  1
  Rh  Rh12  1  0.832428  0.664857  0.411105  1
  Rh  Rh13  1  0.167572  0.335143  0.911105  1
  Rh  Rh14  1  0.660519  0.830259  0.594749  1
  Rh  Rh15  1  0.664857  0.832428  0.911105  1
  Rh  Rh16  1  0.339481  0.169741  0.094749  1
  Rh  Rh17  1  0.169741  0.339481  0.594749  1
  Rh  Rh18  1  0.169741  0.830259  0.594749  1
  Rh  Rh19  1  0.830259  0.169741  0.094749  1
  Rh  Rh20  1  0.830259  0.660519  0.094749  1
  Rh  Rh21  1  0.167572  0.832428  0.911105  1
