# generated using pymatgen
data_Ba2NaGaP3
_symmetry_space_group_name_H-M   'P 1'
_cell_length_a   8.42274901
_cell_length_b   8.42274945
_cell_length_c   12.18829281
_cell_angle_alpha   76.57337675
_cell_angle_beta   76.57337773
_cell_angle_gamma   67.33095394
_symmetry_Int_Tables_number   1
_chemical_formula_structural   Ba2NaGaP3
_chemical_formula_sum   'Ba8 Na4 Ga4 P12'
_cell_volume   766.19136420
_cell_formula_units_Z   4
loop_
 _symmetry_equiv_pos_site_id
 _symmetry_equiv_pos_as_xyz
  1  'x, y, z'
loop_
 _atom_site_type_symbol
 _atom_site_label
 _atom_site_symmetry_multiplicity
 _atom_site_fract_x
 _atom_site_fract_y
 _atom_site_fract_z
 _atom_site_occupancy
  Ba  Ba0  1  0.745026  0.194683  0.686524  1
  Ba  Ba1  1  0.254974  0.805317  0.313476  1
  Ba  Ba2  1  0.194683  0.745026  0.686524  1
  Ba  Ba3  1  0.500000  0.000000  0.500000  1
  Ba  Ba4  1  0.805317  0.254974  0.313476  1
  Ba  Ba5  1  0.000000  0.500000  0.000000  1
  Ba  Ba6  1  0.500000  0.000000  0.000000  1
  Ba  Ba7  1  0.000000  0.500000  0.500000  1
  Na  Na8  1  0.298977  0.701023  0.000000  1
  Na  Na9  1  0.357833  0.357833  0.230013  1
  Na  Na10  1  0.642167  0.642167  0.769987  1
  Na  Na11  1  0.701023  0.298977  0.000000  1
  Ga  Ga12  1  0.696815  0.696815  0.263774  1
  Ga  Ga13  1  0.091003  0.091003  0.883091  1
  Ga  Ga14  1  0.908997  0.908997  0.116909  1
  Ga  Ga15  1  0.303185  0.303185  0.736226  1
  P  P16  1  0.015125  0.618659  0.228559  1
  P  P17  1  0.588110  0.588110  0.136817  1
  P  P18  1  0.984875  0.381341  0.771441  1
  P  P19  1  0.082524  0.082524  0.488634  1
  P  P20  1  0.582549  0.582549  0.487139  1
  P  P21  1  0.915032  0.915032  0.911679  1
  P  P22  1  0.084968  0.084968  0.088321  1
  P  P23  1  0.411890  0.411890  0.863183  1
  P  P24  1  0.618659  0.015125  0.228559  1
  P  P25  1  0.917476  0.917476  0.511366  1
  P  P26  1  0.381341  0.984875  0.771441  1
  P  P27  1  0.417451  0.417451  0.512861  1
