# generated using pymatgen
data_TbNdGa5Ni3
_symmetry_space_group_name_H-M   'P 1'
_cell_length_a   8.38299433
_cell_length_b   8.37791217
_cell_length_c   8.37791322
_cell_angle_alpha   140.75919276
_cell_angle_beta   107.36551326
_cell_angle_gamma   85.80809954
_symmetry_Int_Tables_number   1
_chemical_formula_structural   TbNdGa5Ni3
_chemical_formula_sum   'Tb2 Nd2 Ga10 Ni6'
_cell_volume   342.85343679
_cell_formula_units_Z   2
loop_
 _symmetry_equiv_pos_site_id
 _symmetry_equiv_pos_as_xyz
  1  'x, y, z'
loop_
 _atom_site_type_symbol
 _atom_site_label
 _atom_site_symmetry_multiplicity
 _atom_site_fract_x
 _atom_site_fract_y
 _atom_site_fract_z
 _atom_site_occupancy
  Tb  Tb0  1  0.635510  0.859260  0.776251  1
  Tb  Tb1  1  0.364490  0.140740  0.223749  1
  Nd  Nd2  1  0.084853  0.359899  0.724954  1
  Nd  Nd3  1  0.915147  0.640101  0.275046  1
  Ga  Ga4  1  0.290179  0.036256  0.751062  1
  Ga  Ga5  1  0.709821  0.963744  0.248938  1
  Ga  Ga6  1  0.709821  0.460883  0.746077  1
  Ga  Ga7  1  0.290179  0.539117  0.253923  1
  Ga  Ga8  1  0.423786  0.592598  0.831187  1
  Ga  Ga9  1  0.576214  0.407402  0.168813  1
  Ga  Ga10  1  0.758241  0.090236  0.668006  1
  Ga  Ga11  1  0.241759  0.909764  0.331994  1
  Ga  Ga12  1  0.000000  0.750991  0.750991  1
  Ga  Ga13  1  0.000000  0.249009  0.249009  1
  Ni  Ni14  1  0.240063  0.642926  0.597138  1
  Ni  Ni15  1  0.759937  0.357074  0.402862  1
  Ni  Ni16  1  0.050020  0.143462  0.906558  1
  Ni  Ni17  1  0.949980  0.856538  0.093442  1
  Ni  Ni18  1  0.500000  0.749527  0.249527  1
  Ni  Ni19  1  0.500000  0.250473  0.750473  1
