# generated using pymatgen
data_YNbCoB6
_symmetry_space_group_name_H-M   'P 1'
_cell_length_a   3.36663700
_cell_length_b   8.93727200
_cell_length_c   11.29274600
_cell_angle_alpha   90.00000000
_cell_angle_beta   90.00000000
_cell_angle_gamma   90.00000000
_symmetry_Int_Tables_number   1
_chemical_formula_structural   YNbCoB6
_chemical_formula_sum   'Y4 Nb4 Co4 B24'
_cell_volume   339.78235937
_cell_formula_units_Z   4
loop_
 _symmetry_equiv_pos_site_id
 _symmetry_equiv_pos_as_xyz
  1  'x, y, z'
loop_
 _atom_site_type_symbol
 _atom_site_label
 _atom_site_symmetry_multiplicity
 _atom_site_fract_x
 _atom_site_fract_y
 _atom_site_fract_z
 _atom_site_occupancy
  Y  Y0  1  0.000000  0.822042  0.086847  1
  Y  Y1  1  0.000000  0.177958  0.913153  1
  Y  Y2  1  0.000000  0.322042  0.413153  1
  Y  Y3  1  0.000000  0.677958  0.586847  1
  Nb  Nb4  1  0.000000  0.445006  0.128297  1
  Nb  Nb5  1  0.000000  0.554994  0.871703  1
  Nb  Nb6  1  0.000000  0.945006  0.371703  1
  Nb  Nb7  1  0.000000  0.054994  0.628297  1
  Co  Co8  1  0.000000  0.142781  0.181854  1
  Co  Co9  1  0.000000  0.857219  0.818146  1
  Co  Co10  1  0.000000  0.642781  0.318146  1
  Co  Co11  1  0.000000  0.357219  0.681854  1
  B  B12  1  0.500000  0.054722  0.067239  1
  B  B13  1  0.500000  0.945278  0.932761  1
  B  B14  1  0.500000  0.554722  0.432761  1
  B  B15  1  0.500000  0.445278  0.567239  1
  B  B16  1  0.500000  0.252083  0.082772  1
  B  B17  1  0.500000  0.747917  0.917228  1
  B  B18  1  0.500000  0.752083  0.417228  1
  B  B19  1  0.500000  0.247917  0.582772  1
  B  B20  1  0.500000  0.296947  0.235975  1
  B  B21  1  0.500000  0.703053  0.764025  1
  B  B22  1  0.500000  0.796947  0.264025  1
  B  B23  1  0.500000  0.203053  0.735975  1
  B  B24  1  0.500000  0.129940  0.317469  1
  B  B25  1  0.500000  0.870060  0.682531  1
  B  B26  1  0.500000  0.629940  0.182531  1
  B  B27  1  0.500000  0.370060  0.817469  1
  B  B28  1  0.500000  0.482807  0.286404  1
  B  B29  1  0.500000  0.517193  0.713596  1
  B  B30  1  0.500000  0.982807  0.213596  1
  B  B31  1  0.500000  0.017193  0.786404  1
  B  B32  1  0.500000  0.099637  0.473696  1
  B  B33  1  0.500000  0.900363  0.526304  1
  B  B34  1  0.500000  0.599637  0.026304  1
  B  B35  1  0.500000  0.400363  0.973696  1
