# generated using pymatgen
data_Pr4TiAl19Pt12
_symmetry_space_group_name_H-M   'P 1'
_cell_length_a   4.17681500
_cell_length_b   7.38385507
_cell_length_c   20.76744622
_cell_angle_alpha   89.66773481
_cell_angle_beta   90.00000000
_cell_angle_gamma   90.00000000
_symmetry_Int_Tables_number   1
_chemical_formula_structural   Pr4TiAl19Pt12
_chemical_formula_sum   'Pr4 Ti1 Al19 Pt12'
_cell_volume   640.47796869
_cell_formula_units_Z   1
loop_
 _symmetry_equiv_pos_site_id
 _symmetry_equiv_pos_as_xyz
  1  'x, y, z'
loop_
 _atom_site_type_symbol
 _atom_site_label
 _atom_site_symmetry_multiplicity
 _atom_site_fract_x
 _atom_site_fract_y
 _atom_site_fract_z
 _atom_site_occupancy
  Pr  Pr0  1  0.250000  0.115805  0.640809  1
  Pr  Pr1  1  0.750000  0.878722  0.359441  1
  Pr  Pr2  1  0.250000  0.383320  0.139481  1
  Pr  Pr3  1  0.750000  0.618209  0.859917  1
  Ti  Ti4  1  0.750000  0.363892  0.383118  1
  Al  Al5  1  0.750000  0.886747  0.982618  1
  Al  Al6  1  0.750000  0.685457  0.200735  1
  Al  Al7  1  0.250000  0.870882  0.491798  1
  Al  Al8  1  0.250000  0.631171  0.991697  1
  Al  Al9  1  0.250000  0.311217  0.799256  1
  Al  Al10  1  0.750000  0.075035  0.208703  1
  Al  Al11  1  0.250000  0.643357  0.616137  1
  Al  Al12  1  0.250000  0.571980  0.292808  1
  Al  Al13  1  0.250000  0.186033  0.298976  1
  Al  Al14  1  0.750000  0.145964  0.884046  1
  Al  Al15  1  0.250000  0.922840  0.791727  1
  Al  Al16  1  0.750000  0.369377  0.008180  1
  Al  Al17  1  0.750000  0.619479  0.484225  1
  Al  Al18  1  0.750000  0.131590  0.507408  1
  Al  Al19  1  0.250000  0.113935  0.017515  1
  Al  Al20  1  0.250000  0.852735  0.116008  1
  Al  Al21  1  0.250000  0.385751  0.516395  1
  Al  Al22  1  0.750000  0.423871  0.708117  1
  Al  Al23  1  0.750000  0.812342  0.701497  1
  Pt  Pt24  1  0.750000  0.380543  0.261479  1
  Pt  Pt25  1  0.250000  0.881538  0.236952  1
  Pt  Pt26  1  0.250000  0.616093  0.736805  1
  Pt  Pt27  1  0.750000  0.116560  0.763745  1
  Pt  Pt28  1  0.250000  0.165215  0.426276  1
  Pt  Pt29  1  0.750000  0.420941  0.583895  1
  Pt  Pt30  1  0.750000  0.077498  0.084434  1
  Pt  Pt31  1  0.250000  0.922797  0.916231  1
  Pt  Pt32  1  0.750000  0.838026  0.573784  1
  Pt  Pt33  1  0.250000  0.336379  0.927821  1
  Pt  Pt34  1  0.750000  0.664112  0.072131  1
  Pt  Pt35  1  0.250000  0.580588  0.415837  1
