# generated using pymatgen
data_RbCeY2F10
_symmetry_space_group_name_H-M   'P 1'
_cell_length_a   8.52085179
_cell_length_b   8.52074501
_cell_length_c   8.34719600
_cell_angle_alpha   60.67115854
_cell_angle_beta   60.67107602
_cell_angle_gamma   58.65436108
_symmetry_Int_Tables_number   1
_chemical_formula_structural   RbCeY2F10
_chemical_formula_sum   'Rb2 Ce2 Y4 F20'
_cell_volume   428.17460780
_cell_formula_units_Z   2
loop_
 _symmetry_equiv_pos_site_id
 _symmetry_equiv_pos_as_xyz
  1  'x, y, z'
loop_
 _atom_site_type_symbol
 _atom_site_label
 _atom_site_symmetry_multiplicity
 _atom_site_fract_x
 _atom_site_fract_y
 _atom_site_fract_z
 _atom_site_occupancy
  Rb  Rb0  1  0.250913  0.249260  0.249755  1
  Rb  Rb1  1  0.749569  0.750507  0.749284  1
  Ce  Ce2  1  0.242414  0.243270  0.756866  1
  Ce  Ce3  1  0.758359  0.756425  0.241707  1
  Y  Y4  1  0.760947  0.239200  0.239135  1
  Y  Y5  1  0.239735  0.760926  0.760243  1
  Y  Y6  1  0.239068  0.760743  0.239430  1
  Y  Y7  1  0.760412  0.239247  0.760898  1
  F  F8  1  0.831207  0.491184  0.509642  1
  F  F9  1  0.165631  0.509440  0.490548  1
  F  F10  1  0.490131  0.832102  0.168658  1
  F  F11  1  0.510146  0.165344  0.834466  1
  F  F12  1  0.489892  0.833831  0.509888  1
  F  F13  1  0.168196  0.509302  0.832146  1
  F  F14  1  0.509697  0.167650  0.490959  1
  F  F15  1  0.834062  0.490510  0.165754  1
  F  F16  1  0.499858  0.499848  0.821255  1
  F  F17  1  0.499990  0.499981  0.179655  1
  F  F18  1  0.178686  0.820535  0.500291  1
  F  F19  1  0.820702  0.179639  0.499790  1
  F  F20  1  0.105860  0.105998  0.120169  1
  F  F21  1  0.894196  0.894223  0.879923  1
  F  F22  1  0.105734  0.106034  0.667893  1
  F  F23  1  0.120278  0.667993  0.105969  1
  F  F24  1  0.894249  0.894348  0.331374  1
  F  F25  1  0.879906  0.332245  0.894087  1
  F  F26  1  0.668814  0.119988  0.105793  1
  F  F27  1  0.331348  0.880223  0.894419  1
