# generated using pymatgen
data_Li4La3(GePb)2
_symmetry_space_group_name_H-M   'P 1'
_cell_length_a   4.65270226
_cell_length_b   6.99641688
_cell_length_c   8.80564800
_cell_angle_alpha   113.40754738
_cell_angle_beta   105.31877173
_cell_angle_gamma   89.99998788
_symmetry_Int_Tables_number   1
_chemical_formula_structural   Li4La3(GePb)2
_chemical_formula_sum   'Li4 La3 Ge2 Pb2'
_cell_volume   251.91744951
_cell_formula_units_Z   1
loop_
 _symmetry_equiv_pos_site_id
 _symmetry_equiv_pos_as_xyz
  1  'x, y, z'
loop_
 _atom_site_type_symbol
 _atom_site_label
 _atom_site_symmetry_multiplicity
 _atom_site_fract_x
 _atom_site_fract_y
 _atom_site_fract_z
 _atom_site_occupancy
  Li  Li0  1  0.664927  0.970772  0.329853  1
  Li  Li1  1  0.335073  0.029228  0.670147  1
  Li  Li2  1  0.335073  0.640920  0.670147  1
  Li  Li3  1  0.664927  0.359080  0.329853  1
  La  La4  1  0.000000  0.000000  0.000000  1
  La  La5  1  0.124539  0.624539  0.249078  1
  La  La6  1  0.875461  0.375461  0.750922  1
  Ge  Ge7  1  0.500000  0.683013  0.000000  1
  Ge  Ge8  1  0.500000  0.316987  0.000000  1
  Pb  Pb9  1  0.786631  0.786631  0.573260  1
  Pb  Pb10  1  0.213369  0.213369  0.426740  1
