# generated using pymatgen
data_Pr3Al4Cl
_symmetry_space_group_name_H-M   'P 1'
_cell_length_a   8.15604324
_cell_length_b   8.15604341
_cell_length_c   8.15604317
_cell_angle_alpha   119.11249960
_cell_angle_beta   119.11250362
_cell_angle_gamma   91.54419071
_symmetry_Int_Tables_number   1
_chemical_formula_structural   Pr3Al4Cl
_chemical_formula_sum   'Pr6 Al8 Cl2'
_cell_volume   388.63332537
_cell_formula_units_Z   2
loop_
 _symmetry_equiv_pos_site_id
 _symmetry_equiv_pos_as_xyz
  1  'x, y, z'
loop_
 _atom_site_type_symbol
 _atom_site_label
 _atom_site_symmetry_multiplicity
 _atom_site_fract_x
 _atom_site_fract_y
 _atom_site_fract_z
 _atom_site_occupancy
  Pr  Pr0  1  0.659626  0.159626  0.819252  1
  Pr  Pr1  1  0.159626  0.340374  0.500000  1
  Pr  Pr2  1  0.840374  0.659626  0.500000  1
  Pr  Pr3  1  0.750000  0.750000  0.000000  1
  Pr  Pr4  1  0.340374  0.840374  0.180748  1
  Pr  Pr5  1  0.250000  0.250000  0.000000  1
  Al  Al6  1  0.945324  0.445324  0.787349  1
  Al  Al7  1  0.842025  0.054676  0.500000  1
  Al  Al8  1  0.342025  0.842025  0.787349  1
  Al  Al9  1  0.445324  0.657975  0.500000  1
  Al  Al10  1  0.554676  0.342025  0.500000  1
  Al  Al11  1  0.054676  0.554676  0.212651  1
  Al  Al12  1  0.157975  0.945324  0.500000  1
  Al  Al13  1  0.657975  0.157975  0.212651  1
  Cl  Cl14  1  0.500000  0.500000  0.000000  1
  Cl  Cl15  1  0.000000  0.000000  0.000000  1
