# generated using pymatgen
data_Tb7Nd2Tm11Pt16
_symmetry_space_group_name_H-M   'P 1'
_cell_length_a   7.45322803
_cell_length_b   7.52568784
_cell_length_c   14.64932600
_cell_angle_alpha   89.96227579
_cell_angle_beta   90.00499680
_cell_angle_gamma   90.01357791
_symmetry_Int_Tables_number   1
_chemical_formula_structural   Tb7Nd2Tm11Pt16
_chemical_formula_sum   'Tb7 Nd2 Tm11 Pt16'
_cell_volume   821.69027035
_cell_formula_units_Z   1
loop_
 _symmetry_equiv_pos_site_id
 _symmetry_equiv_pos_as_xyz
  1  'x, y, z'
loop_
 _atom_site_type_symbol
 _atom_site_label
 _atom_site_symmetry_multiplicity
 _atom_site_fract_x
 _atom_site_fract_y
 _atom_site_fract_z
 _atom_site_occupancy
  Tb  Tb0  1  0.655959  0.831752  0.877831  1
  Tb  Tb1  1  0.998838  0.822174  0.406539  1
  Tb  Tb2  1  0.498370  0.677288  0.094544  1
  Tb  Tb3  1  0.501397  0.320394  0.593385  1
  Tb  Tb4  1  0.002106  0.181028  0.906277  1
  Tb  Tb5  1  0.000835  0.178354  0.593081  1
  Tb  Tb6  1  0.500682  0.321542  0.906614  1
  Nd  Nd7  1  0.499907  0.677773  0.407159  1
  Nd  Nd8  1  0.000178  0.822036  0.092880  1
  Tm  Tm9  1  0.680436  0.991139  0.250304  1
  Tm  Tm10  1  0.180409  0.508983  0.250115  1
  Tm  Tm11  1  0.819845  0.489742  0.749220  1
  Tm  Tm12  1  0.318910  0.010333  0.749430  1
  Tm  Tm13  1  0.656967  0.833137  0.622918  1
  Tm  Tm14  1  0.157172  0.666778  0.876514  1
  Tm  Tm15  1  0.844898  0.332098  0.377423  1
  Tm  Tm16  1  0.344472  0.168316  0.123026  1
  Tm  Tm17  1  0.343656  0.167566  0.377563  1
  Tm  Tm18  1  0.844220  0.332712  0.123154  1
  Tm  Tm19  1  0.155936  0.667707  0.622415  1
  Pt  Pt20  1  0.816328  0.640324  0.251094  1
  Pt  Pt21  1  0.315849  0.859820  0.249317  1
  Pt  Pt22  1  0.683374  0.143069  0.748784  1
  Pt  Pt23  1  0.182426  0.357399  0.749645  1
  Pt  Pt24  1  0.546283  0.380796  0.249447  1
  Pt  Pt25  1  0.046375  0.119242  0.251107  1
  Pt  Pt26  1  0.955133  0.883739  0.748872  1
  Pt  Pt27  1  0.452867  0.615217  0.748782  1
  Pt  Pt28  1  0.819060  0.533147  0.543019  1
  Pt  Pt29  1  0.316410  0.967840  0.957523  1
  Pt  Pt30  1  0.683431  0.037254  0.458728  1
  Pt  Pt31  1  0.184293  0.463176  0.041356  1
  Pt  Pt32  1  0.178438  0.463001  0.458491  1
  Pt  Pt33  1  0.678020  0.038328  0.043187  1
  Pt  Pt34  1  0.317205  0.967823  0.542830  1
  Pt  Pt35  1  0.819309  0.528971  0.957423  1
