# generated using pymatgen
data_Yb2CuPd3
_symmetry_space_group_name_H-M   'P 1'
_cell_length_a   5.21743475
_cell_length_b   5.21743548
_cell_length_c   5.21743597
_cell_angle_alpha   63.44978810
_cell_angle_beta   63.44977795
_cell_angle_gamma   63.44977865
_symmetry_Int_Tables_number   1
_chemical_formula_structural   Yb2CuPd3
_chemical_formula_sum   'Yb2 Cu1 Pd3'
_cell_volume   108.09269653
_cell_formula_units_Z   1
loop_
 _symmetry_equiv_pos_site_id
 _symmetry_equiv_pos_as_xyz
  1  'x, y, z'
loop_
 _atom_site_type_symbol
 _atom_site_label
 _atom_site_symmetry_multiplicity
 _atom_site_fract_x
 _atom_site_fract_y
 _atom_site_fract_z
 _atom_site_occupancy
  Yb  Yb0  1  0.626701  0.626701  0.626701  1
  Yb  Yb1  1  0.373299  0.373299  0.373299  1
  Cu  Cu2  1  0.000000  0.000000  0.000000  1
  Pd  Pd3  1  0.000000  0.500000  0.000000  1
  Pd  Pd4  1  0.500000  0.000000  0.000000  1
  Pd  Pd5  1  0.000000  0.000000  0.500000  1
