# generated using pymatgen
data_ErLu3(B4W)4
_symmetry_space_group_name_H-M   'P 1'
_cell_length_a   3.59973200
_cell_length_b   5.99200650
_cell_length_c   11.57825397
_cell_angle_alpha   90.04695081
_cell_angle_beta   90.00000000
_cell_angle_gamma   90.00000000
_symmetry_Int_Tables_number   1
_chemical_formula_structural   ErLu3(B4W)4
_chemical_formula_sum   'Er1 Lu3 B16 W4'
_cell_volume   249.73842625
_cell_formula_units_Z   1
loop_
 _symmetry_equiv_pos_site_id
 _symmetry_equiv_pos_as_xyz
  1  'x, y, z'
loop_
 _atom_site_type_symbol
 _atom_site_label
 _atom_site_symmetry_multiplicity
 _atom_site_fract_x
 _atom_site_fract_y
 _atom_site_fract_z
 _atom_site_occupancy
  Er  Er0  1  0.000000  0.872678  0.850488  1
  Lu  Lu1  1  0.000000  0.627232  0.350907  1
  Lu  Lu2  1  0.000000  0.372704  0.649018  1
  Lu  Lu3  1  0.000000  0.127291  0.149239  1
  B  B4  1  0.500000  0.788662  0.187272  1
  B  B5  1  0.500000  0.212424  0.812803  1
  B  B6  1  0.500000  0.288700  0.313029  1
  B  B7  1  0.500000  0.711070  0.686347  1
  B  B8  1  0.500000  0.867587  0.032609  1
  B  B9  1  0.500000  0.132620  0.968578  1
  B  B10  1  0.500000  0.367776  0.467888  1
  B  B11  1  0.500000  0.632094  0.531699  1
  B  B12  1  0.500000  0.885015  0.451778  1
  B  B13  1  0.500000  0.115191  0.547736  1
  B  B14  1  0.500000  0.384720  0.048471  1
  B  B15  1  0.500000  0.613886  0.952633  1
  B  B16  1  0.500000  0.977040  0.305580  1
  B  B17  1  0.500000  0.023817  0.693575  1
  B  B18  1  0.500000  0.476950  0.194657  1
  B  B19  1  0.500000  0.522506  0.805663  1
  W  W20  1  0.000000  0.631460  0.085612  1
  W  W21  1  0.000000  0.368382  0.915148  1
  W  W22  1  0.000000  0.131825  0.414679  1
  W  W23  1  0.000000  0.868369  0.584592  1
