# generated using pymatgen
data_CeTh2(GaRh)3
_symmetry_space_group_name_H-M   'P 1'
_cell_length_a   7.31510564
_cell_length_b   7.30661730
_cell_length_c   3.97949500
_cell_angle_alpha   90.00000000
_cell_angle_beta   90.00000000
_cell_angle_gamma   119.96162375
_symmetry_Int_Tables_number   1
_chemical_formula_structural   CeTh2(GaRh)3
_chemical_formula_sum   'Ce1 Th2 Ga3 Rh3'
_cell_volume   184.27370688
_cell_formula_units_Z   1
loop_
 _symmetry_equiv_pos_site_id
 _symmetry_equiv_pos_as_xyz
  1  'x, y, z'
loop_
 _atom_site_type_symbol
 _atom_site_label
 _atom_site_symmetry_multiplicity
 _atom_site_fract_x
 _atom_site_fract_y
 _atom_site_fract_z
 _atom_site_occupancy
  Ce  Ce0  1  0.000000  0.411024  0.500000  1
  Th  Th1  1  0.587233  0.586196  0.500000  1
  Th  Th2  1  0.412767  0.998963  0.500000  1
  Ga  Ga3  1  0.000000  0.754236  0.000000  1
  Ga  Ga4  1  0.238039  0.243060  0.000000  1
  Ga  Ga5  1  0.761961  0.005021  0.000000  1
  Rh  Rh6  1  0.333576  0.668333  0.000000  1
  Rh  Rh7  1  0.666424  0.334756  0.000000  1
  Rh  Rh8  1  0.000000  0.998410  0.500000  1
