# generated using pymatgen
data_Sr4YSc(RhO6)2
_symmetry_space_group_name_H-M   'P 1'
_cell_length_a   5.77300604
_cell_length_b   5.77406151
_cell_length_c   10.01966482
_cell_angle_alpha   54.49095164
_cell_angle_beta   90.21094424
_cell_angle_gamma   90.00944880
_symmetry_Int_Tables_number   1
_chemical_formula_structural   Sr4YSc(RhO6)2
_chemical_formula_sum   'Sr4 Y1 Sc1 Rh2 O12'
_cell_volume   271.87513840
_cell_formula_units_Z   1
loop_
 _symmetry_equiv_pos_site_id
 _symmetry_equiv_pos_as_xyz
  1  'x, y, z'
loop_
 _atom_site_type_symbol
 _atom_site_label
 _atom_site_symmetry_multiplicity
 _atom_site_fract_x
 _atom_site_fract_y
 _atom_site_fract_z
 _atom_site_occupancy
  Sr  Sr0  1  0.474893  0.744823  0.260180  1
  Sr  Sr1  1  0.525107  0.255177  0.739820  1
  Sr  Sr2  1  0.970285  0.236023  0.257524  1
  Sr  Sr3  1  0.029715  0.763977  0.742476  1
  Y  Y4  1  0.000000  0.000000  0.000000  1
  Sc  Sc5  1  0.500000  0.000000  0.500000  1
  Rh  Rh6  1  0.000000  0.500000  0.500000  1
  Rh  Rh7  1  0.500000  0.500000  0.000000  1
  O  O8  1  0.696632  0.188251  0.038448  1
  O  O9  1  0.303368  0.811749  0.961552  1
  O  O10  1  0.224410  0.795775  0.467933  1
  O  O11  1  0.775590  0.204225  0.532067  1
  O  O12  1  0.011087  0.668123  0.265273  1
  O  O13  1  0.988913  0.331877  0.734727  1
  O  O14  1  0.512890  0.323743  0.242755  1
  O  O15  1  0.487110  0.676257  0.757245  1
  O  O16  1  0.224218  0.269940  0.037153  1
  O  O17  1  0.775782  0.730060  0.962847  1
  O  O18  1  0.734108  0.755918  0.466566  1
  O  O19  1  0.265892  0.244082  0.533434  1
