# generated using pymatgen
data_Rb9InBi4
_symmetry_space_group_name_H-M   'P 1'
_cell_length_a   11.39975000
_cell_length_b   11.39972564
_cell_length_c   11.85210200
_cell_angle_alpha   90.00000000
_cell_angle_beta   90.00000000
_cell_angle_gamma   119.99803981
_symmetry_Int_Tables_number   1
_chemical_formula_structural   Rb9InBi4
_chemical_formula_sum   'Rb18 In2 Bi8'
_cell_volume   1333.90320617
_cell_formula_units_Z   2
loop_
 _symmetry_equiv_pos_site_id
 _symmetry_equiv_pos_as_xyz
  1  'x, y, z'
loop_
 _atom_site_type_symbol
 _atom_site_label
 _atom_site_symmetry_multiplicity
 _atom_site_fract_x
 _atom_site_fract_y
 _atom_site_fract_z
 _atom_site_occupancy
  Rb  Rb0  1  0.208108  0.416218  0.542798  1
  Rb  Rb1  1  0.791889  0.208108  0.042800  1
  Rb  Rb2  1  0.416221  0.208114  0.042797  1
  Rb  Rb3  1  0.583779  0.791886  0.542797  1
  Rb  Rb4  1  0.208111  0.791892  0.542800  1
  Rb  Rb5  1  0.791892  0.583782  0.457202  1
  Rb  Rb6  1  0.791889  0.208108  0.457200  1
  Rb  Rb7  1  0.791892  0.583782  0.042798  1
  Rb  Rb8  1  0.416221  0.208114  0.457203  1
  Rb  Rb9  1  0.583779  0.791886  0.957203  1
  Rb  Rb10  1  0.208108  0.416218  0.957202  1
  Rb  Rb11  1  0.208111  0.791892  0.957200  1
  Rb  Rb12  1  0.120231  0.240457  0.250000  1
  Rb  Rb13  1  0.879758  0.120225  0.750000  1
  Rb  Rb14  1  0.240461  0.120232  0.750000  1
  Rb  Rb15  1  0.759539  0.879768  0.250000  1
  Rb  Rb16  1  0.120242  0.879775  0.250000  1
  Rb  Rb17  1  0.879769  0.759543  0.750000  1
  In  In18  1  0.333337  0.666662  0.250000  1
  In  In19  1  0.666663  0.333338  0.750000  1
  Bi  Bi20  1  0.483197  0.516803  0.250000  1
  Bi  Bi21  1  0.966394  0.483195  0.750000  1
  Bi  Bi22  1  0.516806  0.033606  0.750000  1
  Bi  Bi23  1  0.483194  0.966394  0.250000  1
  Bi  Bi24  1  0.033606  0.516805  0.250000  1
  Bi  Bi25  1  0.516803  0.483197  0.750000  1
  Bi  Bi26  1  0.000000  0.000000  0.000000  1
  Bi  Bi27  1  0.000000  0.000000  0.500000  1
