# generated using pymatgen
data_Tb3Zn2Cd3Ir
_symmetry_space_group_name_H-M   'P 1'
_cell_length_a   7.85045400
_cell_length_b   7.85045385
_cell_length_c   3.78068600
_cell_angle_alpha   90.00000000
_cell_angle_beta   90.00000000
_cell_angle_gamma   119.99999220
_symmetry_Int_Tables_number   1
_chemical_formula_structural   Tb3Zn2Cd3Ir
_chemical_formula_sum   'Tb3 Zn2 Cd3 Ir1'
_cell_volume   201.78589852
_cell_formula_units_Z   1
loop_
 _symmetry_equiv_pos_site_id
 _symmetry_equiv_pos_as_xyz
  1  'x, y, z'
loop_
 _atom_site_type_symbol
 _atom_site_label
 _atom_site_symmetry_multiplicity
 _atom_site_fract_x
 _atom_site_fract_y
 _atom_site_fract_z
 _atom_site_occupancy
  Tb  Tb0  1  0.576098  0.971165  0.000000  1
  Tb  Tb1  1  0.028835  0.604933  0.000000  1
  Tb  Tb2  1  0.395067  0.423902  0.000000  1
  Zn  Zn3  1  0.666667  0.333333  0.500000  1
  Zn  Zn4  1  0.000000  0.000000  0.000000  1
  Cd  Cd5  1  0.266728  0.011128  0.500000  1
  Cd  Cd6  1  0.988872  0.255599  0.500000  1
  Cd  Cd7  1  0.744401  0.733272  0.500000  1
  Ir  Ir8  1  0.333333  0.666667  0.500000  1
