# generated using pymatgen
data_Nd4Mg(Sb4Au)2
_symmetry_space_group_name_H-M   'P 1'
_cell_length_a   11.55641121
_cell_length_b   11.55641145
_cell_length_c   11.55641218
_cell_angle_alpha   148.93087740
_cell_angle_beta   148.93087149
_cell_angle_gamma   44.51306726
_symmetry_Int_Tables_number   1
_chemical_formula_structural   Nd4Mg(Sb4Au)2
_chemical_formula_sum   'Nd4 Mg1 Sb8 Au2'
_cell_volume   409.81603679
_cell_formula_units_Z   1
loop_
 _symmetry_equiv_pos_site_id
 _symmetry_equiv_pos_as_xyz
  1  'x, y, z'
loop_
 _atom_site_type_symbol
 _atom_site_label
 _atom_site_symmetry_multiplicity
 _atom_site_fract_x
 _atom_site_fract_y
 _atom_site_fract_z
 _atom_site_occupancy
  Nd  Nd0  1  0.623927  0.623927  0.505680  1
  Nd  Nd1  1  0.118246  0.118246  0.494320  1
  Nd  Nd2  1  0.376073  0.881754  0.000000  1
  Nd  Nd3  1  0.881754  0.376073  0.000000  1
  Mg  Mg4  1  0.000000  0.000000  0.000000  1
  Sb  Sb5  1  0.342365  0.342365  0.514854  1
  Sb  Sb6  1  0.827511  0.827511  0.485146  1
  Sb  Sb7  1  0.657635  0.172489  0.000000  1
  Sb  Sb8  1  0.172489  0.657635  0.000000  1
  Sb  Sb9  1  0.250318  0.250318  0.000000  1
  Sb  Sb10  1  0.749682  0.749682  0.000000  1
  Sb  Sb11  1  0.750000  0.250000  0.500000  1
  Sb  Sb12  1  0.250000  0.750000  0.500000  1
  Au  Au13  1  0.000000  0.500000  0.500000  1
  Au  Au14  1  0.500000  0.000000  0.500000  1
