# generated using pymatgen
data_Yb2ErU(B4Ru)4
_symmetry_space_group_name_H-M   'P 1'
_cell_length_a   3.54494600
_cell_length_b   5.94117254
_cell_length_c   11.48295175
_cell_angle_alpha   89.95472412
_cell_angle_beta   90.00000000
_cell_angle_gamma   90.00000000
_symmetry_Int_Tables_number   1
_chemical_formula_structural   Yb2ErU(B4Ru)4
_chemical_formula_sum   'Yb2 Er1 U1 B16 Ru4'
_cell_volume   241.84393128
_cell_formula_units_Z   1
loop_
 _symmetry_equiv_pos_site_id
 _symmetry_equiv_pos_as_xyz
  1  'x, y, z'
loop_
 _atom_site_type_symbol
 _atom_site_label
 _atom_site_symmetry_multiplicity
 _atom_site_fract_x
 _atom_site_fract_y
 _atom_site_fract_z
 _atom_site_occupancy
  Yb  Yb0  1  0.500000  0.127841  0.353213  1
  Yb  Yb1  1  0.500000  0.871282  0.649140  1
  Er  Er2  1  0.500000  0.370792  0.847323  1
  U  U3  1  0.500000  0.628765  0.152200  1
  B  B4  1  0.000000  0.974111  0.191787  1
  B  B5  1  0.000000  0.024658  0.807949  1
  B  B6  1  0.000000  0.477419  0.307866  1
  B  B7  1  0.000000  0.524031  0.691401  1
  B  B8  1  0.000000  0.787885  0.313754  1
  B  B9  1  0.000000  0.211445  0.684516  1
  B  B10  1  0.000000  0.290875  0.185763  1
  B  B11  1  0.000000  0.713650  0.813220  1
  B  B12  1  0.000000  0.862806  0.469151  1
  B  B13  1  0.000000  0.135913  0.530084  1
  B  B14  1  0.000000  0.366783  0.031342  1
  B  B15  1  0.000000  0.634765  0.969376  1
  B  B16  1  0.000000  0.886926  0.047167  1
  B  B17  1  0.000000  0.111975  0.952193  1
  B  B18  1  0.000000  0.385890  0.453800  1
  B  B19  1  0.000000  0.612620  0.546176  1
  Ru  Ru20  1  0.500000  0.637338  0.406194  1
  Ru  Ru21  1  0.500000  0.362489  0.591163  1
  Ru  Ru22  1  0.500000  0.142344  0.094233  1
  Ru  Ru23  1  0.500000  0.857400  0.910990  1
