# generated using pymatgen
data_Na2ReF6
_symmetry_space_group_name_H-M   'P 1'
_cell_length_a   5.11744000
_cell_length_b   5.11744000
_cell_length_c   10.30481400
_cell_angle_alpha   90.00000000
_cell_angle_beta   90.00000000
_cell_angle_gamma   90.00000000
_symmetry_Int_Tables_number   1
_chemical_formula_structural   Na2ReF6
_chemical_formula_sum   'Na4 Re2 F12'
_cell_volume   269.86444914
_cell_formula_units_Z   2
loop_
 _symmetry_equiv_pos_site_id
 _symmetry_equiv_pos_as_xyz
  1  'x, y, z'
loop_
 _atom_site_type_symbol
 _atom_site_label
 _atom_site_symmetry_multiplicity
 _atom_site_fract_x
 _atom_site_fract_y
 _atom_site_fract_z
 _atom_site_occupancy
  Na  Na0  1  0.000000  0.000000  0.336423  1
  Na  Na1  1  0.500000  0.500000  0.836423  1
  Na  Na2  1  0.000000  0.000000  0.663577  1
  Na  Na3  1  0.500000  0.500000  0.163577  1
  Re  Re4  1  0.000000  0.000000  0.000000  1
  Re  Re5  1  0.500000  0.500000  0.500000  1
  F  F6  1  0.683119  0.683119  0.644276  1
  F  F7  1  0.316881  0.316881  0.644276  1
  F  F8  1  0.683119  0.683119  0.355724  1
  F  F9  1  0.183119  0.816881  0.144276  1
  F  F10  1  0.816881  0.183119  0.144276  1
  F  F11  1  0.816881  0.183119  0.855724  1
  F  F12  1  0.274921  0.274921  0.000000  1
  F  F13  1  0.225079  0.774921  0.500000  1
  F  F14  1  0.774921  0.225079  0.500000  1
  F  F15  1  0.725079  0.725079  0.000000  1
  F  F16  1  0.316881  0.316881  0.355724  1
  F  F17  1  0.183119  0.816881  0.855724  1
