# generated using pymatgen
data_Zr12AlNi3(Ir2N)4
_symmetry_space_group_name_H-M   'P 1'
_cell_length_a   8.57258732
_cell_length_b   8.50431934
_cell_length_c   8.57289200
_cell_angle_alpha   59.73359774
_cell_angle_beta   59.99953354
_cell_angle_gamma   59.73251528
_symmetry_Int_Tables_number   1
_chemical_formula_structural   Zr12AlNi3(Ir2N)4
_chemical_formula_sum   'Zr12 Al1 Ni3 Ir8 N4'
_cell_volume   440.14742516
_cell_formula_units_Z   1
loop_
 _symmetry_equiv_pos_site_id
 _symmetry_equiv_pos_as_xyz
  1  'x, y, z'
loop_
 _atom_site_type_symbol
 _atom_site_label
 _atom_site_symmetry_multiplicity
 _atom_site_fract_x
 _atom_site_fract_y
 _atom_site_fract_z
 _atom_site_occupancy
  Zr  Zr0  1  0.804381  0.803903  0.195860  1
  Zr  Zr1  1  0.191072  0.195366  0.806781  1
  Zr  Zr2  1  0.806780  0.195366  0.806781  1
  Zr  Zr3  1  0.195854  0.803904  0.195857  1
  Zr  Zr4  1  0.195856  0.803905  0.804384  1
  Zr  Zr5  1  0.806780  0.195364  0.191074  1
  Zr  Zr6  1  0.445619  0.446097  0.054140  1
  Zr  Zr7  1  0.058928  0.054634  0.443219  1
  Zr  Zr8  1  0.443220  0.054634  0.443219  1
  Zr  Zr9  1  0.054146  0.446096  0.054143  1
  Zr  Zr10  1  0.054144  0.446095  0.445616  1
  Zr  Zr11  1  0.443220  0.054636  0.058926  1
  Al  Al12  1  0.625000  0.125000  0.625000  1
  Ni  Ni13  1  0.125000  0.625000  0.625000  1
  Ni  Ni14  1  0.625000  0.625000  0.125000  1
  Ni  Ni15  1  0.625000  0.625000  0.625000  1
  Ir  Ir16  1  0.748116  0.416986  0.417449  1
  Ir  Ir17  1  0.417178  0.748514  0.417153  1
  Ir  Ir18  1  0.417462  0.416976  0.748120  1
  Ir  Ir19  1  0.417464  0.416975  0.417443  1
  Ir  Ir20  1  0.501884  0.833014  0.832551  1
  Ir  Ir21  1  0.832822  0.501486  0.832847  1
  Ir  Ir22  1  0.832538  0.833024  0.501880  1
  Ir  Ir23  1  0.832536  0.833025  0.832557  1
  N  N24  1  0.625000  0.125000  0.125000  1
  N  N25  1  0.125000  0.625000  0.125000  1
  N  N26  1  0.125000  0.125000  0.625000  1
  N  N27  1  0.125000  0.125000  0.125000  1
