# generated using pymatgen
data_Nd3Mg3Ga2Hg
_symmetry_space_group_name_H-M   'P 1'
_cell_length_a   7.57182400
_cell_length_b   7.57182455
_cell_length_c   4.53123300
_cell_angle_alpha   90.00000000
_cell_angle_beta   90.00000000
_cell_angle_gamma   120.00000631
_symmetry_Int_Tables_number   1
_chemical_formula_structural   Nd3Mg3Ga2Hg
_chemical_formula_sum   'Nd3 Mg3 Ga2 Hg1'
_cell_volume   224.98214430
_cell_formula_units_Z   1
loop_
 _symmetry_equiv_pos_site_id
 _symmetry_equiv_pos_as_xyz
  1  'x, y, z'
loop_
 _atom_site_type_symbol
 _atom_site_label
 _atom_site_symmetry_multiplicity
 _atom_site_fract_x
 _atom_site_fract_y
 _atom_site_fract_z
 _atom_site_occupancy
  Nd  Nd0  1  0.000000  0.425170  0.000000  1
  Nd  Nd1  1  0.574830  0.574830  0.000000  1
  Nd  Nd2  1  0.425170  0.000000  0.000000  1
  Mg  Mg3  1  0.000000  0.753639  0.500000  1
  Mg  Mg4  1  0.246361  0.246361  0.500000  1
  Mg  Mg5  1  0.753639  0.000000  0.500000  1
  Ga  Ga6  1  0.666667  0.333333  0.500000  1
  Ga  Ga7  1  0.333333  0.666667  0.500000  1
  Hg  Hg8  1  0.000000  0.000000  0.000000  1
