# generated using pymatgen
data_Ti5Ga2Te
_symmetry_space_group_name_H-M   'P 1'
_cell_length_a   5.14681915
_cell_length_b   7.69679233
_cell_length_c   7.74423314
_cell_angle_alpha   83.62104406
_cell_angle_beta   70.59156787
_cell_angle_gamma   70.46709305
_symmetry_Int_Tables_number   1
_chemical_formula_structural   Ti5Ga2Te
_chemical_formula_sum   'Ti10 Ga4 Te2'
_cell_volume   272.69485945
_cell_formula_units_Z   2
loop_
 _symmetry_equiv_pos_site_id
 _symmetry_equiv_pos_as_xyz
  1  'x, y, z'
loop_
 _atom_site_type_symbol
 _atom_site_label
 _atom_site_symmetry_multiplicity
 _atom_site_fract_x
 _atom_site_fract_y
 _atom_site_fract_z
 _atom_site_occupancy
  Ti  Ti0  1  0.717318  0.866264  0.699101  1
  Ti  Ti1  1  0.282682  0.133736  0.300899  1
  Ti  Ti2  1  0.777682  0.292753  0.151883  1
  Ti  Ti3  1  0.222318  0.707247  0.848117  1
  Ti  Ti4  1  0.570434  0.707247  0.151883  1
  Ti  Ti5  1  0.429566  0.292753  0.848117  1
  Ti  Ti6  1  0.083581  0.133736  0.699101  1
  Ti  Ti7  1  0.916419  0.866264  0.300899  1
  Ti  Ti8  1  0.737925  0.500000  0.500000  1
  Ti  Ti9  1  0.262075  0.500000  0.500000  1
  Ga  Ga10  1  0.337493  0.825014  0.500000  1
  Ga  Ga11  1  0.662507  0.174986  0.500000  1
  Ga  Ga12  1  0.250000  0.000000  0.000000  1
  Ga  Ga13  1  0.750000  0.000000  0.000000  1
  Te  Te14  1  0.163611  0.500000  0.172778  1
  Te  Te15  1  0.836389  0.500000  0.827222  1
