# generated using pymatgen
data_Y6Lu14Cd6FeRu
_symmetry_space_group_name_H-M   'P 1'
_cell_length_a   9.44521000
_cell_length_b   9.44521017
_cell_length_c   9.66091900
_cell_angle_alpha   90.00000000
_cell_angle_beta   90.00000000
_cell_angle_gamma   119.99999941
_symmetry_Int_Tables_number   1
_chemical_formula_structural   Y6Lu14Cd6FeRu
_chemical_formula_sum   'Y6 Lu14 Cd6 Fe1 Ru1'
_cell_volume   746.40118368
_cell_formula_units_Z   1
loop_
 _symmetry_equiv_pos_site_id
 _symmetry_equiv_pos_as_xyz
  1  'x, y, z'
loop_
 _atom_site_type_symbol
 _atom_site_label
 _atom_site_symmetry_multiplicity
 _atom_site_fract_x
 _atom_site_fract_y
 _atom_site_fract_z
 _atom_site_occupancy
  Y  Y0  1  0.539155  0.460845  0.250000  1
  Y  Y1  1  0.539155  0.078311  0.250000  1
  Y  Y2  1  0.921689  0.460845  0.250000  1
  Y  Y3  1  0.459793  0.540207  0.750000  1
  Y  Y4  1  0.459793  0.919586  0.750000  1
  Y  Y5  1  0.080414  0.540207  0.750000  1
  Lu  Lu6  1  0.000000  0.000000  0.499874  1
  Lu  Lu7  1  0.000000  0.000000  0.000126  1
  Lu  Lu8  1  0.212352  0.787648  0.436391  1
  Lu  Lu9  1  0.212352  0.424706  0.436391  1
  Lu  Lu10  1  0.575294  0.787648  0.436391  1
  Lu  Lu11  1  0.790155  0.209845  0.559326  1
  Lu  Lu12  1  0.790155  0.580309  0.559326  1
  Lu  Lu13  1  0.419691  0.209845  0.559326  1
  Lu  Lu14  1  0.790155  0.209845  0.940674  1
  Lu  Lu15  1  0.790155  0.580309  0.940674  1
  Lu  Lu16  1  0.419691  0.209845  0.940674  1
  Lu  Lu17  1  0.212352  0.787648  0.063609  1
  Lu  Lu18  1  0.212352  0.424706  0.063609  1
  Lu  Lu19  1  0.575294  0.787648  0.063609  1
  Cd  Cd20  1  0.886502  0.113498  0.250000  1
  Cd  Cd21  1  0.886502  0.773004  0.250000  1
  Cd  Cd22  1  0.226996  0.113498  0.250000  1
  Cd  Cd23  1  0.113490  0.886510  0.750000  1
  Cd  Cd24  1  0.113490  0.226980  0.750000  1
  Cd  Cd25  1  0.773020  0.886510  0.750000  1
  Fe  Fe26  1  0.333333  0.666667  0.250000  1
  Ru  Ru27  1  0.666667  0.333333  0.750000  1
