# generated using pymatgen
data_Tb2Yb2DyIr2
_symmetry_space_group_name_H-M   'P 1'
_cell_length_a   6.54140883
_cell_length_b   7.28352594
_cell_length_c   8.53469901
_cell_angle_alpha   97.05634844
_cell_angle_beta   112.53355128
_cell_angle_gamma   89.99999606
_symmetry_Int_Tables_number   1
_chemical_formula_structural   Tb2Yb2DyIr2
_chemical_formula_sum   'Tb4 Yb4 Dy2 Ir4'
_cell_volume   372.25080351
_cell_formula_units_Z   2
loop_
 _symmetry_equiv_pos_site_id
 _symmetry_equiv_pos_as_xyz
  1  'x, y, z'
loop_
 _atom_site_type_symbol
 _atom_site_label
 _atom_site_symmetry_multiplicity
 _atom_site_fract_x
 _atom_site_fract_y
 _atom_site_fract_z
 _atom_site_occupancy
  Tb  Tb0  1  0.209551  0.183930  0.561372  1
  Tb  Tb1  1  0.648179  0.316070  0.438628  1
  Tb  Tb2  1  0.790449  0.816070  0.438628  1
  Tb  Tb3  1  0.351821  0.683930  0.561372  1
  Yb  Yb4  1  0.793118  0.080678  0.816035  1
  Yb  Yb5  1  0.977084  0.419322  0.183965  1
  Yb  Yb6  1  0.206882  0.919322  0.183965  1
  Yb  Yb7  1  0.022916  0.580678  0.816035  1
  Dy  Dy8  1  0.432024  0.250000  0.000000  1
  Dy  Dy9  1  0.567976  0.750000  0.000000  1
  Ir  Ir10  1  0.588981  0.427895  0.773437  1
  Ir  Ir11  1  0.815544  0.072105  0.226563  1
  Ir  Ir12  1  0.411019  0.572105  0.226563  1
  Ir  Ir13  1  0.184456  0.927895  0.773437  1
