# generated using pymatgen
data_Ca2Nd8Si5Pd
_symmetry_space_group_name_H-M   'P 1'
_cell_length_a   8.97734698
_cell_length_b   8.97734666
_cell_length_c   8.88743315
_cell_angle_alpha   128.13034877
_cell_angle_beta   128.13034545
_cell_angle_gamma   77.14190597
_symmetry_Int_Tables_number   1
_chemical_formula_structural   Ca2Nd8Si5Pd
_chemical_formula_sum   'Ca2 Nd8 Si5 Pd1'
_cell_volume   428.36185295
_cell_formula_units_Z   1
loop_
 _symmetry_equiv_pos_site_id
 _symmetry_equiv_pos_as_xyz
  1  'x, y, z'
loop_
 _atom_site_type_symbol
 _atom_site_label
 _atom_site_symmetry_multiplicity
 _atom_site_fract_x
 _atom_site_fract_y
 _atom_site_fract_z
 _atom_site_occupancy
  Ca  Ca0  1  0.502609  0.503148  0.005757  1
  Ca  Ca1  1  0.996852  0.997391  0.994243  1
  Nd  Nd2  1  0.684999  0.179933  0.156821  1
  Nd  Nd3  1  0.523960  0.682414  0.500000  1
  Nd  Nd4  1  0.028178  0.523112  0.843179  1
  Nd  Nd5  1  0.817586  0.976040  0.500000  1
  Nd  Nd6  1  0.320067  0.815001  0.843179  1
  Nd  Nd7  1  0.179226  0.030248  0.500000  1
  Nd  Nd8  1  0.469752  0.320774  0.500000  1
  Nd  Nd9  1  0.976888  0.471822  0.156821  1
  Si  Si10  1  0.611577  0.116519  0.728096  1
  Si  Si11  1  0.383481  0.888423  0.271904  1
  Si  Si12  1  0.120899  0.379101  0.500000  1
  Si  Si13  1  0.748893  0.751107  0.000000  1
  Si  Si14  1  0.248893  0.251107  0.000000  1
  Pd  Pd15  1  0.886139  0.613861  0.500000  1
