# generated using pymatgen
data_La3Nd7C4I15
_symmetry_space_group_name_H-M   'P 1'
_cell_length_a   9.82821945
_cell_length_b   10.72489720
_cell_length_c   11.84428050
_cell_angle_alpha   93.73009682
_cell_angle_beta   114.35720072
_cell_angle_gamma   109.34511558
_symmetry_Int_Tables_number   1
_chemical_formula_structural   La3Nd7C4I15
_chemical_formula_sum   'La3 Nd7 C4 I15'
_cell_volume   1043.17275656
_cell_formula_units_Z   1
loop_
 _symmetry_equiv_pos_site_id
 _symmetry_equiv_pos_as_xyz
  1  'x, y, z'
loop_
 _atom_site_type_symbol
 _atom_site_label
 _atom_site_symmetry_multiplicity
 _atom_site_fract_x
 _atom_site_fract_y
 _atom_site_fract_z
 _atom_site_occupancy
  La  La0  1  0.706657  0.568869  0.045322  1
  La  La1  1  0.292761  0.432240  0.955515  1
  La  La2  1  0.659310  0.252440  0.834016  1
  Nd  Nd3  1  0.596596  0.543259  0.341242  1
  Nd  Nd4  1  0.346616  0.747288  0.165803  1
  Nd  Nd5  1  0.775979  0.883297  0.257979  1
  Nd  Nd6  1  0.526733  0.185540  0.100603  1
  Nd  Nd7  1  0.225025  0.116320  0.743150  1
  Nd  Nd8  1  0.401952  0.457239  0.658548  1
  Nd  Nd9  1  0.471640  0.814531  0.899082  1
  C  C10  1  0.482439  0.299586  0.937094  1
  C  C11  1  0.517976  0.700775  0.062695  1
  C  C12  1  0.453153  0.361343  0.833885  1
  C  C13  1  0.546907  0.638556  0.165581  1
  I  I14  1  0.208831  0.906822  0.937957  1
  I  I15  1  0.106202  0.188713  0.470313  1
  I  I16  1  0.154321  0.558549  0.701648  1
  I  I17  1  0.400951  0.965566  0.646788  1
  I  I18  1  0.708551  0.734621  0.818020  1
  I  I19  1  0.290413  0.265386  0.181978  1
  I  I20  1  0.844518  0.441300  0.298200  1
  I  I21  1  0.893969  0.811196  0.530566  1
  I  I22  1  0.359475  0.630218  0.411536  1
  I  I23  1  0.054875  0.836729  0.222462  1
  I  I24  1  0.791119  0.091505  0.064945  1
  I  I25  1  0.639242  0.371806  0.585061  1
  I  I26  1  0.944765  0.162447  0.777137  1
  I  I27  1  0.594469  0.030003  0.350595  1
  I  I28  1  0.004554  0.503854  0.002278  1
