# generated using pymatgen
data_Dy5Ho7CoTc3
_symmetry_space_group_name_H-M   'P 1'
_cell_length_a   6.26925568
_cell_length_b   7.29661060
_cell_length_c   9.13736134
_cell_angle_alpha   89.98782879
_cell_angle_beta   89.97143283
_cell_angle_gamma   90.06690515
_symmetry_Int_Tables_number   1
_chemical_formula_structural   Dy5Ho7CoTc3
_chemical_formula_sum   'Dy5 Ho7 Co1 Tc3'
_cell_volume   417.98201100
_cell_formula_units_Z   1
loop_
 _symmetry_equiv_pos_site_id
 _symmetry_equiv_pos_as_xyz
  1  'x, y, z'
loop_
 _atom_site_type_symbol
 _atom_site_label
 _atom_site_symmetry_multiplicity
 _atom_site_fract_x
 _atom_site_fract_y
 _atom_site_fract_z
 _atom_site_occupancy
  Dy  Dy0  1  0.663447  0.175939  0.061726  1
  Dy  Dy1  1  0.371580  0.540965  0.250118  1
  Dy  Dy2  1  0.127065  0.041209  0.250159  1
  Dy  Dy3  1  0.874366  0.951211  0.749857  1
  Dy  Dy4  1  0.641493  0.457702  0.749886  1
  Ho  Ho5  1  0.830500  0.677814  0.435475  1
  Ho  Ho6  1  0.332027  0.821505  0.936145  1
  Ho  Ho7  1  0.165238  0.326838  0.565180  1
  Ho  Ho8  1  0.663404  0.175764  0.438465  1
  Ho  Ho9  1  0.165285  0.326929  0.934709  1
  Ho  Ho10  1  0.332237  0.821701  0.563768  1
  Ho  Ho11  1  0.830644  0.677751  0.064550  1
  Co  Co12  1  0.039922  0.615708  0.750033  1
  Tc  Tc13  1  0.959959  0.389231  0.250152  1
  Tc  Tc14  1  0.463186  0.112858  0.749731  1
  Tc  Tc15  1  0.539647  0.886876  0.250045  1
