# generated using pymatgen
data_Sc2Fe10P7W2
_symmetry_space_group_name_H-M   'P 1'
_cell_length_a   8.94510332
_cell_length_b   9.00849399
_cell_length_c   3.61501200
_cell_angle_alpha   90.00000000
_cell_angle_beta   90.00000000
_cell_angle_gamma   119.44982332
_symmetry_Int_Tables_number   1
_chemical_formula_structural   Sc2Fe10P7W2
_chemical_formula_sum   'Sc2 Fe10 P7 W2'
_cell_volume   253.66411632
_cell_formula_units_Z   1
loop_
 _symmetry_equiv_pos_site_id
 _symmetry_equiv_pos_as_xyz
  1  'x, y, z'
loop_
 _atom_site_type_symbol
 _atom_site_label
 _atom_site_symmetry_multiplicity
 _atom_site_fract_x
 _atom_site_fract_y
 _atom_site_fract_z
 _atom_site_occupancy
  Sc  Sc0  1  0.008596  0.007009  0.000000  1
  Sc  Sc1  1  0.661752  0.327774  0.500000  1
  Fe  Fe2  1  0.389884  0.299109  0.000000  1
  Fe  Fe3  1  0.899801  0.610777  0.000000  1
  Fe  Fe4  1  0.707599  0.095054  0.000000  1
  Fe  Fe5  1  0.616384  0.783355  0.000000  1
  Fe  Fe6  1  0.175379  0.388878  0.000000  1
  Fe  Fe7  1  0.216183  0.824972  0.000000  1
  Fe  Fe8  1  0.767101  0.709598  0.500000  1
  Fe  Fe9  1  0.947226  0.229255  0.500000  1
  Fe  Fe10  1  0.282316  0.057437  0.500000  1
  Fe  Fe11  1  0.423679  0.544436  0.500000  1
  P  P12  1  0.622647  0.541322  0.000000  1
  P  P13  1  0.911315  0.362033  0.000000  1
  P  P14  1  0.446419  0.087678  0.000000  1
  P  P15  1  0.754520  0.956608  0.500000  1
  P  P16  1  0.216199  0.262386  0.500000  1
  P  P17  1  0.048352  0.799072  0.500000  1
  P  P18  1  0.338555  0.660328  0.000000  1
  W  W19  1  0.110009  0.564328  0.500000  1
  W  W20  1  0.456086  0.888588  0.500000  1
