# generated using pymatgen
data_Tm5Tl3Ir
_symmetry_space_group_name_H-M   'P 1'
_cell_length_a   9.01873900
_cell_length_b   9.01873781
_cell_length_c   6.85528900
_cell_angle_alpha   90.00000000
_cell_angle_beta   90.00000000
_cell_angle_gamma   120.00000069
_symmetry_Int_Tables_number   1
_chemical_formula_structural   Tm5Tl3Ir
_chemical_formula_sum   'Tm10 Tl6 Ir2'
_cell_volume   482.88973894
_cell_formula_units_Z   2
loop_
 _symmetry_equiv_pos_site_id
 _symmetry_equiv_pos_as_xyz
  1  'x, y, z'
loop_
 _atom_site_type_symbol
 _atom_site_label
 _atom_site_symmetry_multiplicity
 _atom_site_fract_x
 _atom_site_fract_y
 _atom_site_fract_z
 _atom_site_occupancy
  Tm  Tm0  1  0.762610  0.762610  0.250000  1
  Tm  Tm1  1  0.000000  0.762610  0.750000  1
  Tm  Tm2  1  0.333333  0.666667  0.500000  1
  Tm  Tm3  1  0.237390  0.000000  0.250000  1
  Tm  Tm4  1  0.237390  0.237390  0.750000  1
  Tm  Tm5  1  0.000000  0.237390  0.250000  1
  Tm  Tm6  1  0.666667  0.333333  0.500000  1
  Tm  Tm7  1  0.762610  0.000000  0.750000  1
  Tm  Tm8  1  0.333333  0.666667  0.000000  1
  Tm  Tm9  1  0.666667  0.333333  0.000000  1
  Tl  Tl10  1  0.406680  0.000000  0.750000  1
  Tl  Tl11  1  0.593320  0.000000  0.250000  1
  Tl  Tl12  1  0.406680  0.406680  0.250000  1
  Tl  Tl13  1  0.000000  0.593320  0.250000  1
  Tl  Tl14  1  0.000000  0.406680  0.750000  1
  Tl  Tl15  1  0.593320  0.593320  0.750000  1
  Ir  Ir16  1  0.000000  0.000000  0.000000  1
  Ir  Ir17  1  0.000000  0.000000  0.500000  1
