# generated using pymatgen
data_Ho3Lu13(ScSb3)4
_symmetry_space_group_name_H-M   'P 1'
_cell_length_a   7.87548201
_cell_length_b   9.08973600
_cell_length_c   11.57388201
_cell_angle_alpha   90.00000000
_cell_angle_beta   90.00436571
_cell_angle_gamma   90.00000000
_symmetry_Int_Tables_number   1
_chemical_formula_structural   Ho3Lu13(ScSb3)4
_chemical_formula_sum   'Ho3 Lu13 Sc4 Sb12'
_cell_volume   828.52852042
_cell_formula_units_Z   1
loop_
 _symmetry_equiv_pos_site_id
 _symmetry_equiv_pos_as_xyz
  1  'x, y, z'
loop_
 _atom_site_type_symbol
 _atom_site_label
 _atom_site_symmetry_multiplicity
 _atom_site_fract_x
 _atom_site_fract_y
 _atom_site_fract_z
 _atom_site_occupancy
  Ho  Ho0  1  0.184904  0.750000  0.720766  1
  Ho  Ho1  1  0.684921  0.750000  0.779164  1
  Ho  Ho2  1  0.815006  0.250000  0.279252  1
  Lu  Lu3  1  0.196881  0.562725  0.439640  1
  Lu  Lu4  1  0.696990  0.937263  0.060263  1
  Lu  Lu5  1  0.803158  0.062737  0.560232  1
  Lu  Lu6  1  0.303088  0.437281  0.939797  1
  Lu  Lu7  1  0.803158  0.437263  0.560232  1
  Lu  Lu8  1  0.303088  0.062719  0.939797  1
  Lu  Lu9  1  0.196881  0.937275  0.439640  1
  Lu  Lu10  1  0.696990  0.562737  0.060263  1
  Lu  Lu11  1  0.314749  0.250000  0.220440  1
  Lu  Lu12  1  0.855332  0.750000  0.284499  1
  Lu  Lu13  1  0.355370  0.750000  0.215473  1
  Lu  Lu14  1  0.144718  0.250000  0.715418  1
  Lu  Lu15  1  0.644605  0.250000  0.784561  1
  Sc  Sc16  1  0.027939  0.750000  0.989019  1
  Sc  Sc17  1  0.527828  0.750000  0.510962  1
  Sc  Sc18  1  0.972215  0.250000  0.011120  1
  Sc  Sc19  1  0.472003  0.250000  0.488871  1
  Sb  Sb20  1  0.933200  0.495271  0.831071  1
  Sb  Sb21  1  0.433308  0.004727  0.669023  1
  Sb  Sb22  1  0.067578  0.996079  0.169199  1
  Sb  Sb23  1  0.566186  0.504229  0.330753  1
  Sb  Sb24  1  0.067578  0.503921  0.169199  1
  Sb  Sb25  1  0.566186  0.995771  0.330753  1
  Sb  Sb26  1  0.933200  0.004729  0.831071  1
  Sb  Sb27  1  0.433308  0.495273  0.669023  1
  Sb  Sb28  1  0.906411  0.750000  0.539977  1
  Sb  Sb29  1  0.406521  0.750000  0.960075  1
  Sb  Sb30  1  0.094118  0.250000  0.459676  1
  Sb  Sb31  1  0.592582  0.250000  0.040771  1
