# generated using pymatgen
data_TaV4SbO12
_symmetry_space_group_name_H-M   'P 1'
_cell_length_a   4.64289801
_cell_length_b   4.64288366
_cell_length_c   9.26649505
_cell_angle_alpha   89.99504057
_cell_angle_beta   90.00401657
_cell_angle_gamma   89.95748526
_symmetry_Int_Tables_number   1
_chemical_formula_structural   TaV4SbO12
_chemical_formula_sum   'Ta1 V4 Sb1 O12'
_cell_volume   199.75254502
_cell_formula_units_Z   1
loop_
 _symmetry_equiv_pos_site_id
 _symmetry_equiv_pos_as_xyz
  1  'x, y, z'
loop_
 _atom_site_type_symbol
 _atom_site_label
 _atom_site_symmetry_multiplicity
 _atom_site_fract_x
 _atom_site_fract_y
 _atom_site_fract_z
 _atom_site_occupancy
  Ta  Ta0  1  0.499967  0.500033  0.499558  1
  V  V1  1  0.499999  0.500000  0.167259  1
  V  V2  1  0.000008  0.999983  0.334253  1
  V  V3  1  0.999998  0.000003  0.665297  1
  V  V4  1  0.500050  0.499946  0.833226  1
  Sb  Sb5  1  0.999994  0.000006  0.999885  1
  O  O6  1  0.306275  0.306288  0.995946  1
  O  O7  1  0.196537  0.803462  0.495528  1
  O  O8  1  0.803520  0.196480  0.495562  1
  O  O9  1  0.693708  0.693721  0.995949  1
  O  O10  1  0.692914  0.692910  0.666309  1
  O  O11  1  0.307091  0.307084  0.666309  1
  O  O12  1  0.706100  0.706094  0.338841  1
  O  O13  1  0.193877  0.806122  0.168890  1
  O  O14  1  0.806125  0.193877  0.168887  1
  O  O15  1  0.797114  0.202886  0.834743  1
  O  O16  1  0.202807  0.797192  0.834717  1
  O  O17  1  0.293912  0.293905  0.338838  1
