# generated using pymatgen
data_NaLaPr5PtBr12
_symmetry_space_group_name_H-M   'P 1'
_cell_length_a   9.72037312
_cell_length_b   9.60806963
_cell_length_c   9.73285051
_cell_angle_alpha   107.23779425
_cell_angle_beta   107.26811552
_cell_angle_gamma   107.57369981
_symmetry_Int_Tables_number   1
_chemical_formula_structural   NaLaPr5PtBr12
_chemical_formula_sum   'Na1 La1 Pr5 Pt1 Br12'
_cell_volume   749.45385554
_cell_formula_units_Z   1
loop_
 _symmetry_equiv_pos_site_id
 _symmetry_equiv_pos_as_xyz
  1  'x, y, z'
loop_
 _atom_site_type_symbol
 _atom_site_label
 _atom_site_symmetry_multiplicity
 _atom_site_fract_x
 _atom_site_fract_y
 _atom_site_fract_z
 _atom_site_occupancy
  Na  Na0  1  0.500229  0.500022  0.500349  1
  La  La1  1  0.113370  0.318431  0.030297  1
  Pr  Pr2  1  0.328568  0.031698  0.117937  1
  Pr  Pr3  1  0.031402  0.116600  0.327307  1
  Pr  Pr4  1  0.968032  0.881657  0.671994  1
  Pr  Pr5  1  0.671348  0.968101  0.882154  1
  Pr  Pr6  1  0.887323  0.684563  0.969792  1
  Pt  Pt7  1  0.000772  0.002358  0.999823  1
  Br  Br8  1  0.213545  0.683905  0.072124  1
  Br  Br9  1  0.457392  0.372769  0.159694  1
  Br  Br10  1  0.685837  0.072430  0.214180  1
  Br  Br11  1  0.926345  0.782823  0.313293  1
  Br  Br12  1  0.159398  0.456646  0.373810  1
  Br  Br13  1  0.371086  0.157751  0.454147  1
  Br  Br14  1  0.628876  0.842083  0.545701  1
  Br  Br15  1  0.840776  0.542995  0.628772  1
  Br  Br16  1  0.072744  0.214796  0.683961  1
  Br  Br17  1  0.314095  0.927454  0.785870  1
  Br  Br18  1  0.545093  0.626720  0.841652  1
  Br  Br19  1  0.783772  0.316201  0.927148  1
