# generated using pymatgen
data_Ca4YSn3F
_symmetry_space_group_name_H-M   'P 1'
_cell_length_a   9.47273007
_cell_length_b   9.46169064
_cell_length_c   9.46446383
_cell_angle_alpha   129.34027929
_cell_angle_beta   129.29095819
_cell_angle_gamma   74.42340953
_symmetry_Int_Tables_number   1
_chemical_formula_structural   Ca4YSn3F
_chemical_formula_sum   'Ca8 Y2 Sn6 F2'
_cell_volume   495.07224829
_cell_formula_units_Z   2
loop_
 _symmetry_equiv_pos_site_id
 _symmetry_equiv_pos_as_xyz
  1  'x, y, z'
loop_
 _atom_site_type_symbol
 _atom_site_label
 _atom_site_symmetry_multiplicity
 _atom_site_fract_x
 _atom_site_fract_y
 _atom_site_fract_z
 _atom_site_occupancy
  Ca  Ca0  1  0.001762  0.998303  0.000804  1
  Ca  Ca1  1  0.185966  0.687300  0.175502  1
  Ca  Ca2  1  0.006655  0.186157  0.497139  1
  Ca  Ca3  1  0.688415  0.508498  0.500687  1
  Ca  Ca4  1  0.490298  0.991495  0.180466  1
  Ca  Ca5  1  0.811566  0.310667  0.820564  1
  Ca  Ca6  1  0.990187  0.811869  0.500572  1
  Ca  Ca7  1  0.311507  0.489315  0.498903  1
  Y  Y8  1  0.498063  0.502709  0.000458  1
  Y  Y9  1  0.514968  0.015747  0.825632  1
  Sn  Sn10  1  0.260102  0.248397  0.995582  1
  Sn  Sn11  1  0.741227  0.751291  0.995899  1
  Sn  Sn12  1  0.863149  0.370869  0.234418  1
  Sn  Sn13  1  0.131075  0.622331  0.755017  1
  Sn  Sn14  1  0.373739  0.132858  0.511505  1
  Sn  Sn15  1  0.624948  0.866114  0.497079  1
  F  F16  1  0.256199  0.755994  0.506899  1
  F  F17  1  0.750173  0.250085  0.502872  1
