# generated using pymatgen
data_MnFe3(NO3)8
_symmetry_space_group_name_H-M   'P 1'
_cell_length_a   7.76508412
_cell_length_b   7.76508412
_cell_length_c   7.76508412
_cell_angle_alpha   89.78965642
_cell_angle_beta   89.78965642
_cell_angle_gamma   89.78965642
_symmetry_Int_Tables_number   1
_chemical_formula_structural   MnFe3(NO3)8
_chemical_formula_sum   'Mn1 Fe3 N8 O24'
_cell_volume   468.19819528
_cell_formula_units_Z   1
loop_
 _symmetry_equiv_pos_site_id
 _symmetry_equiv_pos_as_xyz
  1  'x, y, z'
loop_
 _atom_site_type_symbol
 _atom_site_label
 _atom_site_symmetry_multiplicity
 _atom_site_fract_x
 _atom_site_fract_y
 _atom_site_fract_z
 _atom_site_occupancy
  Mn  Mn0  1  0.000000  0.000000  0.000000  1
  Fe  Fe1  1  0.500000  0.500000  0.000000  1
  Fe  Fe2  1  0.000000  0.500000  0.500000  1
  Fe  Fe3  1  0.500000  0.000000  0.500000  1
  N  N4  1  0.333102  0.172825  0.828197  1
  N  N5  1  0.828197  0.333102  0.172825  1
  N  N6  1  0.172825  0.828197  0.333102  1
  N  N7  1  0.670279  0.670279  0.670279  1
  N  N8  1  0.666898  0.827175  0.171803  1
  N  N9  1  0.171803  0.666898  0.827175  1
  N  N10  1  0.827175  0.171803  0.666898  1
  N  N11  1  0.329721  0.329721  0.329721  1
  O  O12  1  0.450705  0.284630  0.823831  1
  O  O13  1  0.823831  0.450705  0.284630  1
  O  O14  1  0.284630  0.823831  0.450705  1
  O  O15  1  0.220377  0.176515  0.945802  1
  O  O16  1  0.327991  0.055834  0.714605  1
  O  O17  1  0.714605  0.327991  0.055834  1
  O  O18  1  0.671719  0.553642  0.784280  1
  O  O19  1  0.176515  0.945802  0.220377  1
  O  O20  1  0.784280  0.671719  0.553642  1
  O  O21  1  0.945802  0.220377  0.176515  1
  O  O22  1  0.553642  0.784280  0.671719  1
  O  O23  1  0.055834  0.714605  0.327991  1
  O  O24  1  0.549295  0.715370  0.176169  1
  O  O25  1  0.176169  0.549295  0.715370  1
  O  O26  1  0.715370  0.176169  0.549295  1
  O  O27  1  0.779623  0.823485  0.054198  1
  O  O28  1  0.672009  0.944166  0.285395  1
  O  O29  1  0.285395  0.672009  0.944166  1
  O  O30  1  0.328281  0.446358  0.215720  1
  O  O31  1  0.823485  0.054198  0.779623  1
  O  O32  1  0.215720  0.328281  0.446358  1
  O  O33  1  0.054198  0.779623  0.823485  1
  O  O34  1  0.446358  0.215720  0.328281  1
  O  O35  1  0.944166  0.285395  0.672009  1
