# generated using pymatgen
data_Tb3Ho3NiBr10
_symmetry_space_group_name_H-M   'P 1'
_cell_length_a   7.33432058
_cell_length_b   9.14679514
_cell_length_c   9.18469020
_cell_angle_alpha   107.68047486
_cell_angle_beta   97.03145207
_cell_angle_gamma   105.00139514
_symmetry_Int_Tables_number   1
_chemical_formula_structural   Tb3Ho3NiBr10
_chemical_formula_sum   'Tb3 Ho3 Ni1 Br10'
_cell_volume   553.35468193
_cell_formula_units_Z   1
loop_
 _symmetry_equiv_pos_site_id
 _symmetry_equiv_pos_as_xyz
  1  'x, y, z'
loop_
 _atom_site_type_symbol
 _atom_site_label
 _atom_site_symmetry_multiplicity
 _atom_site_fract_x
 _atom_site_fract_y
 _atom_site_fract_z
 _atom_site_occupancy
  Tb  Tb0  1  0.032073  0.706540  0.908470  1
  Tb  Tb1  1  0.352915  0.130773  0.175984  1
  Tb  Tb2  1  0.647202  0.870197  0.824331  1
  Ho  Ho3  1  0.122488  0.045995  0.758761  1
  Ho  Ho4  1  0.877897  0.954280  0.241372  1
  Ho  Ho5  1  0.968572  0.291589  0.090980  1
  Ni  Ni6  1  0.000145  0.000156  0.000098  1
  Br  Br7  1  0.545952  0.180812  0.914601  1
  Br  Br8  1  0.455273  0.820360  0.086390  1
  Br  Br9  1  0.347643  0.452627  0.271071  1
  Br  Br10  1  0.648986  0.547352  0.728194  1
  Br  Br11  1  0.249054  0.083249  0.459882  1
  Br  Br12  1  0.751266  0.917417  0.540322  1
  Br  Br13  1  0.781941  0.254308  0.344966  1
  Br  Br14  1  0.219538  0.746346  0.653970  1
  Br  Br15  1  0.084765  0.369764  0.826083  1
  Br  Br16  1  0.914293  0.628235  0.174525  1
