# generated using pymatgen
data_NdDy6Co2Sn23Rh4
_symmetry_space_group_name_H-M   'P 1'
_cell_length_a   9.82239179
_cell_length_b   9.82603868
_cell_length_c   10.07695703
_cell_angle_alpha   89.99999949
_cell_angle_beta   90.01570701
_cell_angle_gamma   120.01227826
_symmetry_Int_Tables_number   1
_chemical_formula_structural   NdDy6Co2Sn23Rh4
_chemical_formula_sum   'Nd1 Dy6 Co2 Sn23 Rh4'
_cell_volume   842.17431699
_cell_formula_units_Z   1
loop_
 _symmetry_equiv_pos_site_id
 _symmetry_equiv_pos_as_xyz
  1  'x, y, z'
loop_
 _atom_site_type_symbol
 _atom_site_label
 _atom_site_symmetry_multiplicity
 _atom_site_fract_x
 _atom_site_fract_y
 _atom_site_fract_z
 _atom_site_occupancy
  Nd  Nd0  1  0.000000  0.000000  0.000000  1
  Dy  Dy1  1  0.478965  0.521127  0.307394  1
  Dy  Dy2  1  0.521035  0.478873  0.692606  1
  Dy  Dy3  1  0.478965  0.957838  0.307394  1
  Dy  Dy4  1  0.521035  0.042162  0.692606  1
  Dy  Dy5  1  0.041877  0.520939  0.306885  1
  Dy  Dy6  1  0.958123  0.479061  0.693115  1
  Co  Co7  1  0.338217  0.169107  0.198984  1
  Co  Co8  1  0.661783  0.830893  0.801016  1
  Sn  Sn9  1  0.351769  0.004674  0.004869  1
  Sn  Sn10  1  0.648231  0.995326  0.995131  1
  Sn  Sn11  1  0.000000  0.351494  0.000000  1
  Sn  Sn12  1  0.000000  0.648506  0.000000  1
  Sn  Sn13  1  0.648231  0.652906  0.995131  1
  Sn  Sn14  1  0.351769  0.347094  0.004869  1
  Sn  Sn15  1  0.338864  0.669432  0.819069  1
  Sn  Sn16  1  0.661136  0.330568  0.180931  1
  Sn  Sn17  1  0.000000  0.000000  0.500000  1
  Sn  Sn18  1  0.778490  0.221381  0.455790  1
  Sn  Sn19  1  0.221510  0.778619  0.544210  1
  Sn  Sn20  1  0.778490  0.557108  0.455790  1
  Sn  Sn21  1  0.221510  0.442892  0.544210  1
  Sn  Sn22  1  0.439144  0.219571  0.450072  1
  Sn  Sn23  1  0.560856  0.780429  0.549928  1
  Sn  Sn24  1  0.332968  0.666484  0.119238  1
  Sn  Sn25  1  0.667032  0.333516  0.880762  1
  Sn  Sn26  1  0.123784  0.886490  0.277785  1
  Sn  Sn27  1  0.876216  0.113510  0.722215  1
  Sn  Sn28  1  0.123784  0.237293  0.277785  1
  Sn  Sn29  1  0.876216  0.762707  0.722215  1
  Sn  Sn30  1  0.759014  0.879507  0.282688  1
  Sn  Sn31  1  0.240986  0.120493  0.717312  1
  Rh  Rh32  1  0.830179  0.167888  0.198162  1
  Rh  Rh33  1  0.169821  0.832112  0.801838  1
  Rh  Rh34  1  0.830179  0.662291  0.198162  1
  Rh  Rh35  1  0.169821  0.337709  0.801838  1
