# generated using pymatgen
data_Er3Lu5Ta5Ti7Si16
_symmetry_space_group_name_H-M   'P 1'
_cell_length_a   6.99889877
_cell_length_b   6.99179700
_cell_length_c   12.86581373
_cell_angle_alpha   90.04579235
_cell_angle_beta   90.05478442
_cell_angle_gamma   89.95328463
_symmetry_Int_Tables_number   1
_chemical_formula_structural   Er3Lu5Ta5Ti7Si16
_chemical_formula_sum   'Er3 Lu5 Ta5 Ti7 Si16'
_cell_volume   629.58634564
_cell_formula_units_Z   1
loop_
 _symmetry_equiv_pos_site_id
 _symmetry_equiv_pos_as_xyz
  1  'x, y, z'
loop_
 _atom_site_type_symbol
 _atom_site_label
 _atom_site_symmetry_multiplicity
 _atom_site_fract_x
 _atom_site_fract_y
 _atom_site_fract_z
 _atom_site_occupancy
  Er  Er0  1  0.657881  0.997504  0.966994  1
  Er  Er1  1  0.002016  0.341109  0.532696  1
  Er  Er2  1  0.998287  0.659881  0.033133  1
  Lu  Lu3  1  0.341806  0.001095  0.466694  1
  Lu  Lu4  1  0.498551  0.841053  0.717215  1
  Lu  Lu5  1  0.501094  0.158895  0.217463  1
  Lu  Lu6  1  0.841013  0.498808  0.283058  1
  Lu  Lu7  1  0.159351  0.501951  0.782435  1
  Ta  Ta8  1  0.326223  0.325811  0.999783  1
  Ta  Ta9  1  0.172011  0.827779  0.250589  1
  Ta  Ta10  1  0.828436  0.171906  0.750025  1
  Ta  Ta11  1  0.672473  0.672947  0.499754  1
  Ta  Ta12  1  0.152645  0.007797  0.874581  1
  Ti  Ti13  1  0.491835  0.651547  0.124502  1
  Ti  Ti14  1  0.507597  0.348458  0.624729  1
  Ti  Ti15  1  0.651879  0.491544  0.874871  1
  Ti  Ti16  1  0.348836  0.508322  0.375454  1
  Ti  Ti17  1  0.848137  0.992593  0.374875  1
  Ti  Ti18  1  0.007391  0.151729  0.125360  1
  Ti  Ti19  1  0.992615  0.847634  0.625334  1
  Si  Si20  1  0.205285  0.132350  0.681764  1
  Si  Si21  1  0.368434  0.702160  0.932127  1
  Si  Si22  1  0.631750  0.296034  0.432056  1
  Si  Si23  1  0.702776  0.367449  0.068283  1
  Si  Si24  1  0.297228  0.633339  0.567462  1
  Si  Si25  1  0.796056  0.868908  0.183827  1
  Si  Si26  1  0.132523  0.203474  0.317278  1
  Si  Si27  1  0.865233  0.794540  0.816712  1
  Si  Si28  1  0.294693  0.953535  0.065794  1
  Si  Si29  1  0.545965  0.793825  0.313807  1
  Si  Si30  1  0.454976  0.207681  0.812734  1
  Si  Si31  1  0.794476  0.545629  0.685788  1
  Si  Si32  1  0.206278  0.453232  0.186612  1
  Si  Si33  1  0.705644  0.045503  0.564072  1
  Si  Si34  1  0.952423  0.296469  0.936177  1
  Si  Si35  1  0.046185  0.707506  0.435960  1
