# generated using pymatgen
data_Y3Ho(Co5P3)4
_symmetry_space_group_name_H-M   'P 1'
_cell_length_a   3.64480800
_cell_length_b   10.27792806
_cell_length_c   11.71755713
_cell_angle_alpha   90.01491369
_cell_angle_beta   90.00000000
_cell_angle_gamma   90.00000000
_symmetry_Int_Tables_number   1
_chemical_formula_structural   Y3Ho(Co5P3)4
_chemical_formula_sum   'Y3 Ho1 Co20 P12'
_cell_volume   438.95226494
_cell_formula_units_Z   1
loop_
 _symmetry_equiv_pos_site_id
 _symmetry_equiv_pos_as_xyz
  1  'x, y, z'
loop_
 _atom_site_type_symbol
 _atom_site_label
 _atom_site_symmetry_multiplicity
 _atom_site_fract_x
 _atom_site_fract_y
 _atom_site_fract_z
 _atom_site_occupancy
  Y  Y0  1  0.750000  0.082861  0.797382  1
  Y  Y1  1  0.750000  0.416985  0.297421  1
  Y  Y2  1  0.250000  0.583063  0.702623  1
  Ho  Ho3  1  0.250000  0.917188  0.202301  1
  Co  Co4  1  0.250000  0.783646  0.491784  1
  Co  Co5  1  0.750000  0.216342  0.507919  1
  Co  Co6  1  0.750000  0.283500  0.008425  1
  Co  Co7  1  0.250000  0.716643  0.992171  1
  Co  Co8  1  0.250000  0.092951  0.988700  1
  Co  Co9  1  0.750000  0.906703  0.012341  1
  Co  Co10  1  0.750000  0.593272  0.511509  1
  Co  Co11  1  0.250000  0.406773  0.488475  1
  Co  Co12  1  0.250000  0.278484  0.676554  1
  Co  Co13  1  0.750000  0.721709  0.323319  1
  Co  Co14  1  0.750000  0.778797  0.823617  1
  Co  Co15  1  0.250000  0.221270  0.176606  1
  Co  Co16  1  0.250000  0.617755  0.198760  1
  Co  Co17  1  0.750000  0.382645  0.801438  1
  Co  Co18  1  0.750000  0.116749  0.300948  1
  Co  Co19  1  0.250000  0.882674  0.698502  1
  Co  Co20  1  0.250000  0.031689  0.431086  1
  Co  Co21  1  0.750000  0.967752  0.567831  1
  Co  Co22  1  0.750000  0.532477  0.068485  1
  Co  Co23  1  0.250000  0.468037  0.931825  1
  P  P24  1  0.250000  0.081463  0.611570  1
  P  P25  1  0.750000  0.918455  0.387300  1
  P  P26  1  0.750000  0.581664  0.888221  1
  P  P27  1  0.250000  0.418557  0.111992  1
  P  P28  1  0.250000  0.228947  0.370493  1
  P  P29  1  0.750000  0.770999  0.629519  1
  P  P30  1  0.750000  0.729675  0.129935  1
  P  P31  1  0.250000  0.270867  0.870629  1
  P  P32  1  0.250000  0.897805  0.891542  1
  P  P33  1  0.750000  0.101660  0.108734  1
  P  P34  1  0.750000  0.397753  0.608543  1
  P  P35  1  0.250000  0.602192  0.391501  1
