# generated using pymatgen
data_Ac2GaRu2
_symmetry_space_group_name_H-M   'P 1'
_cell_length_a   6.05789765
_cell_length_b   6.05789895
_cell_length_c   7.35766600
_cell_angle_alpha   90.00000000
_cell_angle_beta   90.00000000
_cell_angle_gamma   117.70193102
_symmetry_Int_Tables_number   1
_chemical_formula_structural   Ac2GaRu2
_chemical_formula_sum   'Ac4 Ga2 Ru4'
_cell_volume   239.06320168
_cell_formula_units_Z   2
loop_
 _symmetry_equiv_pos_site_id
 _symmetry_equiv_pos_as_xyz
  1  'x, y, z'
loop_
 _atom_site_type_symbol
 _atom_site_label
 _atom_site_symmetry_multiplicity
 _atom_site_fract_x
 _atom_site_fract_y
 _atom_site_fract_z
 _atom_site_occupancy
  Ac  Ac0  1  0.339342  0.660658  0.090512  1
  Ac  Ac1  1  0.660658  0.339342  0.909488  1
  Ac  Ac2  1  0.160658  0.839342  0.590512  1
  Ac  Ac3  1  0.839342  0.160658  0.409488  1
  Ga  Ga4  1  0.000000  0.000000  0.000000  1
  Ga  Ga5  1  0.500000  0.500000  0.500000  1
  Ru  Ru6  1  0.840322  0.659678  0.250000  1
  Ru  Ru7  1  0.659678  0.840322  0.750000  1
  Ru  Ru8  1  0.159678  0.340322  0.750000  1
  Ru  Ru9  1  0.340322  0.159678  0.250000  1
