# generated using pymatgen
data_DySc5Al16(SiOs)8
_symmetry_space_group_name_H-M   'P 1'
_cell_length_a   8.59213118
_cell_length_b   8.59213049
_cell_length_c   9.31777300
_cell_angle_alpha   90.00000000
_cell_angle_beta   90.00000000
_cell_angle_gamma   120.08632067
_symmetry_Int_Tables_number   1
_chemical_formula_structural   DySc5Al16(SiOs)8
_chemical_formula_sum   'Dy1 Sc5 Al16 Si8 Os8'
_cell_volume   595.20435938
_cell_formula_units_Z   1
loop_
 _symmetry_equiv_pos_site_id
 _symmetry_equiv_pos_as_xyz
  1  'x, y, z'
loop_
 _atom_site_type_symbol
 _atom_site_label
 _atom_site_symmetry_multiplicity
 _atom_site_fract_x
 _atom_site_fract_y
 _atom_site_fract_z
 _atom_site_occupancy
  Dy  Dy0  1  0.807308  0.192692  0.750000  1
  Sc  Sc1  1  0.193728  0.391433  0.250000  1
  Sc  Sc2  1  0.806611  0.609163  0.750000  1
  Sc  Sc3  1  0.608567  0.806272  0.250000  1
  Sc  Sc4  1  0.390837  0.193389  0.750000  1
  Sc  Sc5  1  0.196689  0.803311  0.250000  1
  Al  Al6  1  0.167093  0.330171  0.576714  1
  Al  Al7  1  0.835005  0.671771  0.419867  1
  Al  Al8  1  0.669829  0.832907  0.576714  1
  Al  Al9  1  0.835005  0.671771  0.080133  1
  Al  Al10  1  0.328229  0.164995  0.419867  1
  Al  Al11  1  0.167093  0.330171  0.923286  1
  Al  Al12  1  0.164168  0.835832  0.576761  1
  Al  Al13  1  0.328229  0.164995  0.080133  1
  Al  Al14  1  0.835281  0.164719  0.417335  1
  Al  Al15  1  0.669829  0.832907  0.923286  1
  Al  Al16  1  0.835281  0.164719  0.082665  1
  Al  Al17  1  0.164168  0.835832  0.923239  1
  Al  Al18  1  0.563405  0.436595  0.250000  1
  Al  Al19  1  0.437795  0.562205  0.750000  1
  Al  Al20  1  0.000357  0.999643  0.250000  1
  Al  Al21  1  0.004869  0.995131  0.750000  1
  Si  Si22  1  0.334625  0.665375  0.049348  1
  Si  Si23  1  0.663503  0.336497  0.954592  1
  Si  Si24  1  0.663503  0.336497  0.545408  1
  Si  Si25  1  0.334625  0.665375  0.450652  1
  Si  Si26  1  0.560727  0.121033  0.250000  1
  Si  Si27  1  0.433393  0.875324  0.750000  1
  Si  Si28  1  0.878967  0.439273  0.250000  1
  Si  Si29  1  0.124676  0.566607  0.750000  1
  Os  Os30  1  0.498835  0.999567  0.001042  1
  Os  Os31  1  0.000433  0.501165  0.001042  1
  Os  Os32  1  0.498835  0.999567  0.498958  1
  Os  Os33  1  0.499683  0.500317  0.000639  1
  Os  Os34  1  0.000433  0.501165  0.498958  1
  Os  Os35  1  0.499683  0.500317  0.499361  1
  Os  Os36  1  0.999351  0.000649  0.999697  1
  Os  Os37  1  0.999351  0.000649  0.500303  1
