# generated using pymatgen
data_Nd2B2Pt5Rh2Au
_symmetry_space_group_name_H-M   'P 1'
_cell_length_a   5.49288500
_cell_length_b   5.52702519
_cell_length_c   7.66002000
_cell_angle_alpha   90.00000000
_cell_angle_beta   90.00000000
_cell_angle_gamma   119.79585954
_symmetry_Int_Tables_number   1
_chemical_formula_structural   Nd2B2Pt5Rh2Au
_chemical_formula_sum   'Nd2 B2 Pt5 Rh2 Au1'
_cell_volume   201.80976778
_cell_formula_units_Z   1
loop_
 _symmetry_equiv_pos_site_id
 _symmetry_equiv_pos_as_xyz
  1  'x, y, z'
loop_
 _atom_site_type_symbol
 _atom_site_label
 _atom_site_symmetry_multiplicity
 _atom_site_fract_x
 _atom_site_fract_y
 _atom_site_fract_z
 _atom_site_occupancy
  Nd  Nd0  1  0.001149  0.002298  0.500000  1
  Nd  Nd1  1  0.999847  0.999693  0.000000  1
  B  B2  1  0.336827  0.673656  0.000000  1
  B  B3  1  0.663406  0.326811  0.000000  1
  Pt  Pt4  1  0.658466  0.316932  0.500000  1
  Pt  Pt5  1  0.998717  0.499316  0.198324  1
  Pt  Pt6  1  0.998717  0.499316  0.801676  1
  Pt  Pt7  1  0.500600  0.499316  0.198324  1
  Pt  Pt8  1  0.500600  0.499316  0.801676  1
  Rh  Rh9  1  0.501404  0.002808  0.190475  1
  Rh  Rh10  1  0.501404  0.002808  0.809525  1
  Au  Au11  1  0.338864  0.677728  0.500000  1
