# generated using pymatgen
data_La2ZnSnI2
_symmetry_space_group_name_H-M   'P 1'
_cell_length_a   4.52531700
_cell_length_b   4.52531583
_cell_length_c   12.47546000
_cell_angle_alpha   90.00000000
_cell_angle_beta   90.00000000
_cell_angle_gamma   119.99998661
_symmetry_Int_Tables_number   1
_chemical_formula_structural   La2ZnSnI2
_chemical_formula_sum   'La2 Zn1 Sn1 I2'
_cell_volume   221.25095834
_cell_formula_units_Z   1
loop_
 _symmetry_equiv_pos_site_id
 _symmetry_equiv_pos_as_xyz
  1  'x, y, z'
loop_
 _atom_site_type_symbol
 _atom_site_label
 _atom_site_symmetry_multiplicity
 _atom_site_fract_x
 _atom_site_fract_y
 _atom_site_fract_z
 _atom_site_occupancy
  La  La0  1  0.000000  0.000000  0.171540  1
  La  La1  1  0.000000  0.000000  0.819884  1
  Zn  Zn2  1  0.333333  0.666667  0.038980  1
  Sn  Sn3  1  0.666667  0.333333  0.977493  1
  I  I4  1  0.333333  0.666667  0.657137  1
  I  I5  1  0.666667  0.333333  0.334966  1
