# generated using pymatgen
data_Dy4Er8Ga2Ni3Ru
_symmetry_space_group_name_H-M   'P 1'
_cell_length_a   8.27642025
_cell_length_b   8.27640375
_cell_length_c   8.27642823
_cell_angle_alpha   112.86680215
_cell_angle_beta   109.59721504
_cell_angle_gamma   106.02225187
_symmetry_Int_Tables_number   1
_chemical_formula_structural   Dy4Er8Ga2Ni3Ru
_chemical_formula_sum   'Dy4 Er8 Ga2 Ni3 Ru1'
_cell_volume   434.86328362
_cell_formula_units_Z   1
loop_
 _symmetry_equiv_pos_site_id
 _symmetry_equiv_pos_as_xyz
  1  'x, y, z'
loop_
 _atom_site_type_symbol
 _atom_site_label
 _atom_site_symmetry_multiplicity
 _atom_site_fract_x
 _atom_site_fract_y
 _atom_site_fract_z
 _atom_site_occupancy
  Dy  Dy0  1  0.052852  0.746664  0.306194  1
  Dy  Dy1  1  0.959375  0.264922  0.694460  1
  Dy  Dy2  1  0.559514  0.253333  0.306184  1
  Dy  Dy3  1  0.429527  0.735070  0.694453  1
  Er  Er4  1  0.674026  0.863010  0.191547  1
  Er  Er5  1  0.328613  0.517663  0.191589  1
  Er  Er6  1  0.328615  0.137025  0.810957  1
  Er  Er7  1  0.674019  0.482470  0.811011  1
  Er  Er8  1  0.175276  0.221745  0.397088  1
  Er  Er9  1  0.816909  0.220866  0.037841  1
  Er  Er10  1  0.175277  0.778185  0.953530  1
  Er  Er11  1  0.816916  0.779075  0.596051  1
  Ga  Ga12  1  0.989271  0.499999  0.489269  1
  Ga  Ga13  1  0.502702  0.000001  0.502702  1
  Ni  Ni14  1  0.346999  0.499995  0.847000  1
  Ni  Ni15  1  0.881956  0.881143  0.000810  1
  Ni  Ni16  1  0.119657  0.118837  0.000816  1
  Ru  Ru17  1  0.668493  0.499997  0.168497  1
