# generated using pymatgen
data_LiAc3SnSe7
_symmetry_space_group_name_H-M   'P 1'
_cell_length_a   11.22787601
_cell_length_b   11.22799585
_cell_length_c   6.49131300
_cell_angle_alpha   90.00081647
_cell_angle_beta   90.00284747
_cell_angle_gamma   119.99974109
_symmetry_Int_Tables_number   1
_chemical_formula_structural   LiAc3SnSe7
_chemical_formula_sum   'Li2 Ac6 Sn2 Se14'
_cell_volume   708.70282846
_cell_formula_units_Z   2
loop_
 _symmetry_equiv_pos_site_id
 _symmetry_equiv_pos_as_xyz
  1  'x, y, z'
loop_
 _atom_site_type_symbol
 _atom_site_label
 _atom_site_symmetry_multiplicity
 _atom_site_fract_x
 _atom_site_fract_y
 _atom_site_fract_z
 _atom_site_occupancy
  Li  Li0  1  0.999359  0.999421  0.480349  1
  Li  Li1  1  0.000498  0.000626  0.980450  1
  Ac  Ac2  1  0.131752  0.356095  0.235558  1
  Ac  Ac3  1  0.644028  0.775680  0.235189  1
  Ac  Ac4  1  0.224253  0.868149  0.235421  1
  Ac  Ac5  1  0.775791  0.131917  0.735364  1
  Ac  Ac6  1  0.355959  0.224280  0.735047  1
  Ac  Ac7  1  0.868241  0.643951  0.735604  1
  Sn  Sn8  1  0.666645  0.333377  0.154886  1
  Sn  Sn9  1  0.333402  0.666652  0.655150  1
  Se  Se10  1  0.515267  0.094417  0.991021  1
  Se  Se11  1  0.578874  0.484686  0.990750  1
  Se  Se12  1  0.905849  0.421063  0.991040  1
  Se  Se13  1  0.333411  0.666588  0.045499  1
  Se  Se14  1  0.908622  0.756646  0.269977  1
  Se  Se15  1  0.848178  0.091254  0.269524  1
  Se  Se16  1  0.242478  0.151391  0.269538  1
  Se  Se17  1  0.484632  0.905545  0.491078  1
  Se  Se18  1  0.421140  0.515351  0.490959  1
  Se  Se19  1  0.094358  0.578945  0.491144  1
  Se  Se20  1  0.666662  0.333431  0.545206  1
  Se  Se21  1  0.091359  0.243269  0.769892  1
  Se  Se22  1  0.757418  0.848572  0.769605  1
  Se  Se23  1  0.151829  0.908688  0.769749  1
