# generated using pymatgen
data_Tb4Dy5Ho3ZnCo4Bi
_symmetry_space_group_name_H-M   'P 1'
_cell_length_a   8.35209433
_cell_length_b   8.35209411
_cell_length_c   8.35620007
_cell_angle_alpha   112.18041630
_cell_angle_beta   108.76367803
_cell_angle_gamma   107.48563019
_symmetry_Int_Tables_number   1
_chemical_formula_structural   Tb4Dy5Ho3ZnCo4Bi
_chemical_formula_sum   'Tb4 Dy5 Ho3 Zn1 Co4 Bi1'
_cell_volume   448.02467240
_cell_formula_units_Z   1
loop_
 _symmetry_equiv_pos_site_id
 _symmetry_equiv_pos_as_xyz
  1  'x, y, z'
loop_
 _atom_site_type_symbol
 _atom_site_label
 _atom_site_symmetry_multiplicity
 _atom_site_fract_x
 _atom_site_fract_y
 _atom_site_fract_z
 _atom_site_occupancy
  Tb  Tb0  1  0.570227  0.773050  0.796986  1
  Tb  Tb1  1  0.427263  0.225798  0.202119  1
  Tb  Tb2  1  0.976321  0.774857  0.202119  1
  Tb  Tb3  1  0.023936  0.226758  0.796986  1
  Dy  Dy4  1  0.821428  0.282524  0.103953  1
  Dy  Dy5  1  0.677112  0.363414  0.685168  1
  Dy  Dy6  1  0.322789  0.637226  0.314535  1
  Dy  Dy7  1  0.677309  0.991745  0.314535  1
  Dy  Dy8  1  0.321755  0.008058  0.685168  1
  Ho  Ho9  1  0.821641  0.717768  0.539409  1
  Ho  Ho10  1  0.178508  0.282148  0.460656  1
  Ho  Ho11  1  0.178506  0.717849  0.896356  1
  Zn  Zn12  1  0.998587  0.998948  0.997535  1
  Co  Co13  1  0.656077  0.998924  0.655002  1
  Co  Co14  1  0.345029  0.999873  0.344902  1
  Co  Co15  1  0.115542  0.614591  0.502090  1
  Co  Co16  1  0.887499  0.386548  0.502090  1
  Bi  Bi17  1  0.500473  0.499918  0.000390  1
