# generated using pymatgen
data_Ho5Er7Co4SnRh
_symmetry_space_group_name_H-M   'P 1'
_cell_length_a   8.24521268
_cell_length_b   8.24521514
_cell_length_c   8.24559885
_cell_angle_alpha   110.92911923
_cell_angle_beta   110.76419017
_cell_angle_gamma   106.75209429
_symmetry_Int_Tables_number   1
_chemical_formula_structural   Ho5Er7Co4SnRh
_chemical_formula_sum   'Ho5 Er7 Co4 Sn1 Rh1'
_cell_volume   430.80888109
_cell_formula_units_Z   1
loop_
 _symmetry_equiv_pos_site_id
 _symmetry_equiv_pos_as_xyz
  1  'x, y, z'
loop_
 _atom_site_type_symbol
 _atom_site_label
 _atom_site_symmetry_multiplicity
 _atom_site_fract_x
 _atom_site_fract_y
 _atom_site_fract_z
 _atom_site_occupancy
  Ho  Ho0  1  0.813321  0.291494  0.104818  1
  Ho  Ho1  1  0.312997  0.618057  0.305257  1
  Ho  Ho2  1  0.687171  0.382398  0.694872  1
  Ho  Ho3  1  0.312473  0.007700  0.694872  1
  Ho  Ho4  1  0.687199  0.992261  0.305257  1
  Er  Er5  1  0.407623  0.211908  0.196038  1
  Er  Er6  1  0.591552  0.787537  0.803830  1
  Er  Er7  1  0.016293  0.212278  0.803830  1
  Er  Er8  1  0.984130  0.788415  0.196038  1
  Er  Er9  1  0.186989  0.291344  0.478333  1
  Er  Er10  1  0.813279  0.709038  0.522318  1
  Er  Er11  1  0.186473  0.708954  0.895426  1
  Co  Co12  1  0.378024  0.000158  0.378184  1
  Co  Co13  1  0.622203  0.999807  0.622011  1
  Co  Co14  1  0.112391  0.612215  0.500706  1
  Co  Co15  1  0.888491  0.388316  0.500706  1
  Sn  Sn16  1  0.499765  0.500106  0.999870  1
  Rh  Rh17  1  0.999625  0.998012  0.997637  1
