# generated using pymatgen
data_CsRb7Ba4(ZrAs4)2
_symmetry_space_group_name_H-M   'P 1'
_cell_length_a   10.93831354
_cell_length_b   10.93573886
_cell_length_c   8.26534148
_cell_angle_alpha   88.57274495
_cell_angle_beta   88.15933150
_cell_angle_gamma   119.07908301
_symmetry_Int_Tables_number   1
_chemical_formula_structural   CsRb7Ba4(ZrAs4)2
_chemical_formula_sum   'Cs1 Rb7 Ba4 Zr2 As8'
_cell_volume   862.68818783
_cell_formula_units_Z   1
loop_
 _symmetry_equiv_pos_site_id
 _symmetry_equiv_pos_as_xyz
  1  'x, y, z'
loop_
 _atom_site_type_symbol
 _atom_site_label
 _atom_site_symmetry_multiplicity
 _atom_site_fract_x
 _atom_site_fract_y
 _atom_site_fract_z
 _atom_site_occupancy
  Cs  Cs0  1  0.135157  0.859227  0.696123  1
  Rb  Rb1  1  0.474077  0.941189  0.384857  1
  Rb  Rb2  1  0.941222  0.472624  0.884682  1
  Rb  Rb3  1  0.865010  0.721498  0.176148  1
  Rb  Rb4  1  0.269684  0.129317  0.233427  1
  Rb  Rb5  1  0.856812  0.139198  0.200953  1
  Rb  Rb6  1  0.128864  0.269738  0.733377  1
  Rb  Rb7  1  0.721219  0.864950  0.675254  1
  Ba  Ba8  1  0.068369  0.533149  0.393869  1
  Ba  Ba9  1  0.474881  0.532995  0.379214  1
  Ba  Ba10  1  0.534984  0.068411  0.892492  1
  Ba  Ba11  1  0.533904  0.474900  0.877978  1
  Zr  Zr12  1  0.664807  0.333261  0.487104  1
  Zr  Zr13  1  0.334546  0.664379  0.990909  1
  As  As14  1  0.645130  0.328912  0.164887  1
  As  As15  1  0.330065  0.644816  0.668698  1
  As  As16  1  0.212074  0.407404  0.124845  1
  As  As17  1  0.598874  0.794169  0.076284  1
  As  As18  1  0.208919  0.800033  0.100335  1
  As  As19  1  0.789728  0.595813  0.574076  1
  As  As20  1  0.409983  0.215755  0.623587  1
  As  As21  1  0.801499  0.208068  0.596239  1
