# generated using pymatgen
data_Li3La3CdAu2
_symmetry_space_group_name_H-M   'P 1'
_cell_length_a   7.64691900
_cell_length_b   7.64691915
_cell_length_c   4.44432200
_cell_angle_alpha   90.00000000
_cell_angle_beta   90.00000000
_cell_angle_gamma   120.00000367
_symmetry_Int_Tables_number   1
_chemical_formula_structural   Li3La3CdAu2
_chemical_formula_sum   'Li3 La3 Cd1 Au2'
_cell_volume   225.06560019
_cell_formula_units_Z   1
loop_
 _symmetry_equiv_pos_site_id
 _symmetry_equiv_pos_as_xyz
  1  'x, y, z'
loop_
 _atom_site_type_symbol
 _atom_site_label
 _atom_site_symmetry_multiplicity
 _atom_site_fract_x
 _atom_site_fract_y
 _atom_site_fract_z
 _atom_site_occupancy
  Li  Li0  1  0.764178  0.764178  0.500000  1
  Li  Li1  1  0.235822  0.000000  0.500000  1
  Li  Li2  1  0.000000  0.235822  0.500000  1
  La  La3  1  0.000000  0.569249  0.000000  1
  La  La4  1  0.430751  0.430751  0.000000  1
  La  La5  1  0.569249  0.000000  0.000000  1
  Cd  Cd6  1  0.000000  0.000000  0.000000  1
  Au  Au7  1  0.333333  0.666667  0.500000  1
  Au  Au8  1  0.666667  0.333333  0.500000  1
