# generated using pymatgen
data_Cs3AgF7
_symmetry_space_group_name_H-M   'P 1'
_cell_length_a   8.60866000
_cell_length_b   8.60866000
_cell_length_c   6.55561600
_cell_angle_alpha   90.00000000
_cell_angle_beta   90.00000000
_cell_angle_gamma   90.00000000
_symmetry_Int_Tables_number   1
_chemical_formula_structural   Cs3AgF7
_chemical_formula_sum   'Cs6 Ag2 F14'
_cell_volume   485.83032312
_cell_formula_units_Z   2
loop_
 _symmetry_equiv_pos_site_id
 _symmetry_equiv_pos_as_xyz
  1  'x, y, z'
loop_
 _atom_site_type_symbol
 _atom_site_label
 _atom_site_symmetry_multiplicity
 _atom_site_fract_x
 _atom_site_fract_y
 _atom_site_fract_z
 _atom_site_occupancy
  Cs  Cs0  1  0.188331  0.688331  0.500000  1
  Cs  Cs1  1  0.688331  0.811669  0.500000  1
  Cs  Cs2  1  0.311669  0.188331  0.500000  1
  Cs  Cs3  1  0.811669  0.311669  0.500000  1
  Cs  Cs4  1  0.500000  0.500000  0.000000  1
  Cs  Cs5  1  0.000000  0.000000  0.000000  1
  Ag  Ag6  1  0.000000  0.500000  0.000000  1
  Ag  Ag7  1  0.500000  0.000000  0.000000  1
  F  F8  1  0.382465  0.882465  0.770309  1
  F  F9  1  0.617535  0.117535  0.770309  1
  F  F10  1  0.117535  0.382465  0.770309  1
  F  F11  1  0.882465  0.617535  0.770309  1
  F  F12  1  0.382465  0.882465  0.229691  1
  F  F13  1  0.882465  0.617535  0.229691  1
  F  F14  1  0.117535  0.382465  0.229691  1
  F  F15  1  0.617535  0.117535  0.229691  1
  F  F16  1  0.000000  0.000000  0.500000  1
  F  F17  1  0.500000  0.500000  0.500000  1
  F  F18  1  0.838865  0.338865  0.000000  1
  F  F19  1  0.338865  0.161135  0.000000  1
  F  F20  1  0.661135  0.838865  0.000000  1
  F  F21  1  0.161135  0.661135  0.000000  1
