# generated using pymatgen
data_Y2Lu4NiRh17
_symmetry_space_group_name_H-M   'P 1'
_cell_length_a   5.23602900
_cell_length_b   5.23602950
_cell_length_c   17.32924900
_cell_angle_alpha   90.00000000
_cell_angle_beta   90.00000000
_cell_angle_gamma   119.99999050
_symmetry_Int_Tables_number   1
_chemical_formula_structural   Y2Lu4NiRh17
_chemical_formula_sum   'Y2 Lu4 Ni1 Rh17'
_cell_volume   411.44760972
_cell_formula_units_Z   1
loop_
 _symmetry_equiv_pos_site_id
 _symmetry_equiv_pos_as_xyz
  1  'x, y, z'
loop_
 _atom_site_type_symbol
 _atom_site_label
 _atom_site_symmetry_multiplicity
 _atom_site_fract_x
 _atom_site_fract_y
 _atom_site_fract_z
 _atom_site_occupancy
  Y  Y0  1  0.333333  0.666667  0.750000  1
  Y  Y1  1  0.666667  0.333333  0.250000  1
  Lu  Lu2  1  0.333333  0.666667  0.958494  1
  Lu  Lu3  1  0.666667  0.333333  0.041064  1
  Lu  Lu4  1  0.666667  0.333333  0.458936  1
  Lu  Lu5  1  0.333333  0.666667  0.541506  1
  Ni  Ni6  1  0.333333  0.666667  0.250000  1
  Rh  Rh7  1  0.169008  0.830992  0.373443  1
  Rh  Rh8  1  0.169008  0.338017  0.373443  1
  Rh  Rh9  1  0.661983  0.830992  0.373443  1
  Rh  Rh10  1  0.832544  0.167456  0.623852  1
  Rh  Rh11  1  0.832544  0.665088  0.623852  1
  Rh  Rh12  1  0.334912  0.167456  0.623852  1
  Rh  Rh13  1  0.832544  0.167456  0.876148  1
  Rh  Rh14  1  0.832544  0.665088  0.876148  1
  Rh  Rh15  1  0.334912  0.167456  0.876148  1
  Rh  Rh16  1  0.169008  0.830992  0.126557  1
  Rh  Rh17  1  0.169008  0.338017  0.126557  1
  Rh  Rh18  1  0.661983  0.830992  0.126557  1
  Rh  Rh19  1  0.666667  0.333333  0.750000  1
  Rh  Rh20  1  0.000000  0.000000  0.250000  1
  Rh  Rh21  1  0.000000  0.000000  0.750000  1
  Rh  Rh22  1  0.000000  0.000000  0.497826  1
  Rh  Rh23  1  0.000000  0.000000  0.002174  1
