# generated using pymatgen
data_CaRh2PbO7
_symmetry_space_group_name_H-M   'P 1'
_cell_length_a   7.26552426
_cell_length_b   7.26552301
_cell_length_c   7.26552385
_cell_angle_alpha   119.80932988
_cell_angle_beta   120.24252786
_cell_angle_gamma   89.95550240
_symmetry_Int_Tables_number   1
_chemical_formula_structural   CaRh2PbO7
_chemical_formula_sum   'Ca2 Rh4 Pb2 O14'
_cell_volume   271.08634294
_cell_formula_units_Z   2
loop_
 _symmetry_equiv_pos_site_id
 _symmetry_equiv_pos_as_xyz
  1  'x, y, z'
loop_
 _atom_site_type_symbol
 _atom_site_label
 _atom_site_symmetry_multiplicity
 _atom_site_fract_x
 _atom_site_fract_y
 _atom_site_fract_z
 _atom_site_occupancy
  Ca  Ca0  1  0.500000  0.500000  0.500000  1
  Ca  Ca1  1  0.500000  0.000000  0.000000  1
  Rh  Rh2  1  0.000000  0.000000  0.500000  1
  Rh  Rh3  1  0.000000  0.500000  0.000000  1
  Rh  Rh4  1  0.000000  0.000000  0.000000  1
  Rh  Rh5  1  0.500000  0.000000  0.500000  1
  Pb  Pb6  1  0.500000  0.500000  0.000000  1
  Pb  Pb7  1  0.000000  0.500000  0.500000  1
  O  O8  1  0.371465  0.621465  0.750000  1
  O  O9  1  0.628535  0.378535  0.250000  1
  O  O10  1  0.328187  0.078187  0.250000  1
  O  O11  1  0.917587  0.667587  0.250000  1
  O  O12  1  0.327673  0.669527  0.239108  1
  O  O13  1  0.930418  0.088565  0.260892  1
  O  O14  1  0.327673  0.088565  0.658148  1
  O  O15  1  0.930418  0.669527  0.841852  1
  O  O16  1  0.671813  0.921813  0.750000  1
  O  O17  1  0.082413  0.332413  0.750000  1
  O  O18  1  0.672327  0.330473  0.760892  1
  O  O19  1  0.069582  0.911435  0.739108  1
  O  O20  1  0.672327  0.911435  0.341852  1
  O  O21  1  0.069582  0.330473  0.158148  1
