# generated using pymatgen
data_Zr5In2GaSn
_symmetry_space_group_name_H-M   'P 1'
_cell_length_a   8.76324000
_cell_length_b   8.76938564
_cell_length_c   5.91024400
_cell_angle_alpha   90.00000000
_cell_angle_beta   90.00000000
_cell_angle_gamma   119.97682024
_symmetry_Int_Tables_number   1
_chemical_formula_structural   Zr5In2GaSn
_chemical_formula_sum   'Zr10 In4 Ga2 Sn2'
_cell_volume   393.43347603
_cell_formula_units_Z   2
loop_
 _symmetry_equiv_pos_site_id
 _symmetry_equiv_pos_as_xyz
  1  'x, y, z'
loop_
 _atom_site_type_symbol
 _atom_site_label
 _atom_site_symmetry_multiplicity
 _atom_site_fract_x
 _atom_site_fract_y
 _atom_site_fract_z
 _atom_site_occupancy
  Zr  Zr0  1  0.999758  0.264422  0.250000  1
  Zr  Zr1  1  0.737434  0.000000  0.750000  1
  Zr  Zr2  1  0.735336  0.735578  0.250000  1
  Zr  Zr3  1  0.667431  0.334333  0.500181  1
  Zr  Zr4  1  0.997356  0.733937  0.750000  1
  Zr  Zr5  1  0.263419  0.266063  0.750000  1
  Zr  Zr6  1  0.333097  0.665667  0.999819  1
  Zr  Zr7  1  0.667431  0.334333  0.999819  1
  Zr  Zr8  1  0.333097  0.665667  0.500181  1
  Zr  Zr9  1  0.265529  0.000000  0.250000  1
  In  In10  1  0.614072  0.000000  0.250000  1
  In  In11  1  0.385473  0.000000  0.750000  1
  In  In12  1  0.384788  0.384407  0.250000  1
  In  In13  1  0.000381  0.615593  0.250000  1
  Ga  Ga14  1  0.001659  0.000000  0.001864  1
  Ga  Ga15  1  0.001659  0.000000  0.498136  1
  Sn  Sn16  1  0.999142  0.386206  0.750000  1
  Sn  Sn17  1  0.612936  0.613794  0.750000  1
