# generated using pymatgen
data_Ca5Nd9(Y3Sn8)2
_symmetry_space_group_name_H-M   'P 1'
_cell_length_a   8.05030536
_cell_length_b   8.44476185
_cell_length_c   15.93800600
_cell_angle_alpha   90.05684961
_cell_angle_beta   89.64175249
_cell_angle_gamma   90.02361998
_symmetry_Int_Tables_number   1
_chemical_formula_structural   Ca5Nd9(Y3Sn8)2
_chemical_formula_sum   'Ca5 Nd9 Y6 Sn16'
_cell_volume   1083.49025097
_cell_formula_units_Z   1
loop_
 _symmetry_equiv_pos_site_id
 _symmetry_equiv_pos_as_xyz
  1  'x, y, z'
loop_
 _atom_site_type_symbol
 _atom_site_label
 _atom_site_symmetry_multiplicity
 _atom_site_fract_x
 _atom_site_fract_y
 _atom_site_fract_z
 _atom_site_occupancy
  Ca  Ca0  1  0.334262  0.830479  0.876855  1
  Ca  Ca1  1  0.170935  0.499343  0.749343  1
  Ca  Ca2  1  0.670024  0.003416  0.749418  1
  Ca  Ca3  1  0.828593  0.502487  0.251488  1
  Ca  Ca4  1  0.328528  0.995941  0.251050  1
  Nd  Nd5  1  0.837741  0.674584  0.875988  1
  Nd  Nd6  1  0.494295  0.317868  0.904375  1
  Nd  Nd7  1  0.998684  0.182523  0.593995  1
  Nd  Nd8  1  0.504039  0.681034  0.404485  1
  Nd  Nd9  1  0.005459  0.817867  0.097175  1
  Nd  Nd10  1  0.503867  0.679572  0.096747  1
  Nd  Nd11  1  0.003202  0.819148  0.403934  1
  Nd  Nd12  1  0.496402  0.317384  0.594024  1
  Nd  Nd13  1  0.995256  0.182727  0.903563  1
  Y  Y14  1  0.841130  0.671559  0.622436  1
  Y  Y15  1  0.658921  0.170359  0.375648  1
  Y  Y16  1  0.163359  0.327247  0.126026  1
  Y  Y17  1  0.662687  0.170862  0.126438  1
  Y  Y18  1  0.159255  0.328815  0.375811  1
  Y  Y19  1  0.343103  0.828830  0.622922  1
  Sn  Sn20  1  0.327544  0.039091  0.041068  1
  Sn  Sn21  1  0.820483  0.459213  0.463163  1
  Sn  Sn22  1  0.680976  0.960915  0.536307  1
  Sn  Sn23  1  0.174742  0.533206  0.964034  1
  Sn  Sn24  1  0.674485  0.965402  0.965024  1
  Sn  Sn25  1  0.180203  0.540748  0.535850  1
  Sn  Sn26  1  0.319709  0.039872  0.463188  1
  Sn  Sn27  1  0.825497  0.458354  0.039888  1
  Sn  Sn28  1  0.538483  0.609627  0.746460  1
  Sn  Sn29  1  0.038996  0.890262  0.745655  1
  Sn  Sn30  1  0.461481  0.384525  0.250513  1
  Sn  Sn31  1  0.961703  0.114569  0.250894  1
  Sn  Sn32  1  0.297465  0.140165  0.747821  1
  Sn  Sn33  1  0.796952  0.363584  0.747889  1
  Sn  Sn34  1  0.700868  0.863203  0.250102  1
  Sn  Sn35  1  0.200672  0.635226  0.250425  1
