# generated using pymatgen
data_CaDy3YRh5
_symmetry_space_group_name_H-M   'P 1'
_cell_length_a   3.42656700
_cell_length_b   3.42656700
_cell_length_c   17.25454900
_cell_angle_alpha   90.00000000
_cell_angle_beta   90.00000000
_cell_angle_gamma   90.00000000
_symmetry_Int_Tables_number   1
_chemical_formula_structural   CaDy3YRh5
_chemical_formula_sum   'Ca1 Dy3 Y1 Rh5'
_cell_volume   202.59189570
_cell_formula_units_Z   1
loop_
 _symmetry_equiv_pos_site_id
 _symmetry_equiv_pos_as_xyz
  1  'x, y, z'
loop_
 _atom_site_type_symbol
 _atom_site_label
 _atom_site_symmetry_multiplicity
 _atom_site_fract_x
 _atom_site_fract_y
 _atom_site_fract_z
 _atom_site_occupancy
  Ca  Ca0  1  0.000000  0.000000  0.000034  1
  Dy  Dy1  1  0.000000  0.000000  0.197800  1
  Dy  Dy2  1  0.000000  0.000000  0.399528  1
  Dy  Dy3  1  0.000000  0.000000  0.600459  1
  Y  Y4  1  0.000000  0.000000  0.802072  1
  Rh  Rh5  1  0.500000  0.500000  0.107190  1
  Rh  Rh6  1  0.500000  0.500000  0.300294  1
  Rh  Rh7  1  0.500000  0.500000  0.499992  1
  Rh  Rh8  1  0.500000  0.500000  0.698860  1
  Rh  Rh9  1  0.500000  0.500000  0.893771  1
