# generated using pymatgen
data_Tb7Ho13Si15Os
_symmetry_space_group_name_H-M   'P 1'
_cell_length_a   7.37169097
_cell_length_b   7.73910864
_cell_length_c   14.54710726
_cell_angle_alpha   89.98322729
_cell_angle_beta   89.98637781
_cell_angle_gamma   90.00393643
_symmetry_Int_Tables_number   1
_chemical_formula_structural   Tb7Ho13Si15Os
_chemical_formula_sum   'Tb7 Ho13 Si15 Os1'
_cell_volume   829.91702440
_cell_formula_units_Z   1
loop_
 _symmetry_equiv_pos_site_id
 _symmetry_equiv_pos_as_xyz
  1  'x, y, z'
loop_
 _atom_site_type_symbol
 _atom_site_label
 _atom_site_symmetry_multiplicity
 _atom_site_fract_x
 _atom_site_fract_y
 _atom_site_fract_z
 _atom_site_occupancy
  Tb  Tb0  1  0.025370  0.818000  0.903347  1
  Tb  Tb1  1  0.474072  0.316063  0.097241  1
  Tb  Tb2  1  0.974232  0.182540  0.403001  1
  Tb  Tb3  1  0.474260  0.316258  0.403107  1
  Tb  Tb4  1  0.974530  0.182470  0.097109  1
  Tb  Tb5  1  0.521813  0.672713  0.903392  1
  Tb  Tb6  1  0.025519  0.817880  0.596443  1
  Ho  Ho7  1  0.671298  0.185686  0.625479  1
  Ho  Ho8  1  0.191397  0.324795  0.873359  1
  Ho  Ho9  1  0.318881  0.819453  0.123914  1
  Ho  Ho10  1  0.817201  0.677533  0.376555  1
  Ho  Ho11  1  0.319111  0.819304  0.376249  1
  Ho  Ho12  1  0.817300  0.677737  0.123517  1
  Ho  Ho13  1  0.671158  0.185610  0.874321  1
  Ho  Ho14  1  0.191836  0.325113  0.626321  1
  Ho  Ho15  1  0.522389  0.672774  0.597157  1
  Ho  Ho16  1  0.840746  0.511928  0.749897  1
  Ho  Ho17  1  0.354669  0.987577  0.749842  1
  Ho  Ho18  1  0.150658  0.485305  0.250060  1
  Ho  Ho19  1  0.650130  0.013133  0.250062  1
  Si  Si20  1  0.646883  0.969664  0.461038  1
  Si  Si21  1  0.149326  0.529330  0.039429  1
  Si  Si22  1  0.348400  0.025744  0.961222  1
  Si  Si23  1  0.855281  0.471400  0.539214  1
  Si  Si24  1  0.348913  0.024627  0.539175  1
  Si  Si25  1  0.856098  0.470772  0.960906  1
  Si  Si26  1  0.646828  0.970370  0.039159  1
  Si  Si27  1  0.148880  0.529225  0.460431  1
  Si  Si28  1  0.979546  0.102443  0.749805  1
  Si  Si29  1  0.523332  0.605334  0.250088  1
  Si  Si30  1  0.020584  0.892629  0.250057  1
  Si  Si31  1  0.740138  0.876731  0.749795  1
  Si  Si32  1  0.230341  0.633613  0.749651  1
  Si  Si33  1  0.268004  0.127812  0.250140  1
  Si  Si34  1  0.770096  0.371717  0.250054  1
  Os  Os35  1  0.480779  0.406713  0.749463  1
