# generated using pymatgen
data_Dy2Lu3ZrFeTe2
_symmetry_space_group_name_H-M   'P 1'
_cell_length_a   8.14911204
_cell_length_b   8.21860436
_cell_length_c   3.91142900
_cell_angle_alpha   90.00000000
_cell_angle_beta   90.00000000
_cell_angle_gamma   120.72000680
_symmetry_Int_Tables_number   1
_chemical_formula_structural   Dy2Lu3ZrFeTe2
_chemical_formula_sum   'Dy2 Lu3 Zr1 Fe1 Te2'
_cell_volume   225.20476709
_cell_formula_units_Z   1
loop_
 _symmetry_equiv_pos_site_id
 _symmetry_equiv_pos_as_xyz
  1  'x, y, z'
loop_
 _atom_site_type_symbol
 _atom_site_label
 _atom_site_symmetry_multiplicity
 _atom_site_fract_x
 _atom_site_fract_y
 _atom_site_fract_z
 _atom_site_occupancy
  Dy  Dy0  1  0.999653  0.590417  0.000000  1
  Dy  Dy1  1  0.615007  0.002059  0.000000  1
  Lu  Lu2  1  0.772412  0.767634  0.500000  1
  Lu  Lu3  1  0.226552  0.993873  0.500000  1
  Lu  Lu4  1  0.378232  0.381739  0.000000  1
  Zr  Zr5  1  0.000641  0.232061  0.500000  1
  Fe  Fe6  1  0.010273  0.039865  0.000000  1
  Te  Te7  1  0.663201  0.330003  0.500000  1
  Te  Te8  1  0.334029  0.662351  0.500000  1
