# generated using pymatgen
data_Zr4FeAgN
_symmetry_space_group_name_H-M   'P 1'
_cell_length_a   8.81080975
_cell_length_b   8.81080958
_cell_length_c   8.81080900
_cell_angle_alpha   59.99999844
_cell_angle_beta   59.99999906
_cell_angle_gamma   60.00000308
_symmetry_Int_Tables_number   1
_chemical_formula_structural   Zr4FeAgN
_chemical_formula_sum   'Zr16 Fe4 Ag4 N4'
_cell_volume   483.65137868
_cell_formula_units_Z   4
loop_
 _symmetry_equiv_pos_site_id
 _symmetry_equiv_pos_as_xyz
  1  'x, y, z'
loop_
 _atom_site_type_symbol
 _atom_site_label
 _atom_site_symmetry_multiplicity
 _atom_site_fract_x
 _atom_site_fract_y
 _atom_site_fract_z
 _atom_site_occupancy
  Zr  Zr0  1  0.062731  0.645756  0.645756  1
  Zr  Zr1  1  0.645756  0.062731  0.645756  1
  Zr  Zr2  1  0.645756  0.645756  0.062731  1
  Zr  Zr3  1  0.645756  0.645756  0.645756  1
  Zr  Zr4  1  0.818755  0.818755  0.181245  1
  Zr  Zr5  1  0.181245  0.181245  0.818755  1
  Zr  Zr6  1  0.818755  0.181245  0.818755  1
  Zr  Zr7  1  0.181245  0.818755  0.181245  1
  Zr  Zr8  1  0.181245  0.818755  0.818755  1
  Zr  Zr9  1  0.818755  0.181245  0.181245  1
  Zr  Zr10  1  0.433186  0.433186  0.066814  1
  Zr  Zr11  1  0.066814  0.066814  0.433186  1
  Zr  Zr12  1  0.433186  0.066814  0.433186  1
  Zr  Zr13  1  0.066814  0.433186  0.066814  1
  Zr  Zr14  1  0.066814  0.433186  0.433186  1
  Zr  Zr15  1  0.433186  0.066814  0.066814  1
  Fe  Fe16  1  0.439667  0.853445  0.853445  1
  Fe  Fe17  1  0.853445  0.439667  0.853445  1
  Fe  Fe18  1  0.853445  0.853445  0.439667  1
  Fe  Fe19  1  0.853445  0.853445  0.853445  1
  Ag  Ag20  1  0.747009  0.417663  0.417663  1
  Ag  Ag21  1  0.417663  0.747009  0.417663  1
  Ag  Ag22  1  0.417663  0.417663  0.747009  1
  Ag  Ag23  1  0.417663  0.417663  0.417663  1
  N  N24  1  0.621817  0.126061  0.126061  1
  N  N25  1  0.126061  0.621817  0.126061  1
  N  N26  1  0.126061  0.126061  0.621817  1
  N  N27  1  0.126061  0.126061  0.126061  1
