# generated using pymatgen
data_Ho2Tm2Fe13Co
_symmetry_space_group_name_H-M   'P 1'
_cell_length_a   5.02794798
_cell_length_b   5.02794912
_cell_length_c   12.30978709
_cell_angle_alpha   78.21583247
_cell_angle_beta   78.21582859
_cell_angle_gamma   59.99999629
_symmetry_Int_Tables_number   1
_chemical_formula_structural   Ho2Tm2Fe13Co
_chemical_formula_sum   'Ho2 Tm2 Fe13 Co1'
_cell_volume   261.90169910
_cell_formula_units_Z   1
loop_
 _symmetry_equiv_pos_site_id
 _symmetry_equiv_pos_as_xyz
  1  'x, y, z'
loop_
 _atom_site_type_symbol
 _atom_site_label
 _atom_site_symmetry_multiplicity
 _atom_site_fract_x
 _atom_site_fract_y
 _atom_site_fract_z
 _atom_site_occupancy
  Ho  Ho0  1  0.947483  0.947483  0.157551  1
  Ho  Ho1  1  0.052517  0.052517  0.842449  1
  Tm  Tm2  1  0.850357  0.850357  0.448928  1
  Tm  Tm3  1  0.149643  0.149643  0.551072  1
  Fe  Fe4  1  0.721167  0.721167  0.836501  1
  Fe  Fe5  1  0.278833  0.278833  0.163499  1
  Fe  Fe6  1  0.612496  0.612496  0.162511  1
  Fe  Fe7  1  0.387504  0.387504  0.837489  1
  Fe  Fe8  1  0.000000  0.500000  0.000000  1
  Fe  Fe9  1  0.500000  0.000000  0.000000  1
  Fe  Fe10  1  0.500000  0.500000  0.000000  1
  Fe  Fe11  1  0.389937  0.389937  0.328728  1
  Fe  Fe12  1  0.891399  0.389937  0.328728  1
  Fe  Fe13  1  0.389937  0.891399  0.328728  1
  Fe  Fe14  1  0.610063  0.610063  0.671272  1
  Fe  Fe15  1  0.108601  0.610063  0.671272  1
  Fe  Fe16  1  0.610063  0.108601  0.671272  1
  Co  Co17  1  0.500000  0.500000  0.500000  1
