# generated using pymatgen
data_CeNd3(AgAs2)4
_symmetry_space_group_name_H-M   'P 1'
_cell_length_a   4.07814000
_cell_length_b   4.08929012
_cell_length_c   20.98208246
_cell_angle_alpha   89.57563044
_cell_angle_beta   90.00000000
_cell_angle_gamma   90.00000000
_symmetry_Int_Tables_number   1
_chemical_formula_structural   CeNd3(AgAs2)4
_chemical_formula_sum   'Ce1 Nd3 Ag4 As8'
_cell_volume   349.90224695
_cell_formula_units_Z   1
loop_
 _symmetry_equiv_pos_site_id
 _symmetry_equiv_pos_as_xyz
  1  'x, y, z'
loop_
 _atom_site_type_symbol
 _atom_site_label
 _atom_site_symmetry_multiplicity
 _atom_site_fract_x
 _atom_site_fract_y
 _atom_site_fract_z
 _atom_site_occupancy
  Ce  Ce0  1  0.250000  0.733126  0.112734  1
  Nd  Nd1  1  0.750000  0.231576  0.384940  1
  Nd  Nd2  1  0.250000  0.768958  0.615581  1
  Nd  Nd3  1  0.750000  0.266703  0.887678  1
  Ag  Ag4  1  0.750000  0.728055  0.248305  1
  Ag  Ag5  1  0.250000  0.228695  0.248436  1
  Ag  Ag6  1  0.750000  0.771574  0.750858  1
  Ag  Ag7  1  0.250000  0.272272  0.751073  1
  As  As8  1  0.750000  0.232048  0.155441  1
  As  As9  1  0.250000  0.729775  0.337581  1
  As  As10  1  0.750000  0.270158  0.660466  1
  As  As11  1  0.250000  0.768985  0.841607  1
  As  As12  1  0.250000  0.237288  0.003131  1
  As  As13  1  0.750000  0.721347  0.499029  1
  As  As14  1  0.250000  0.279156  0.500271  1
  As  As15  1  0.750000  0.760284  0.002869  1
