# generated using pymatgen
data_Lu12Mn(Si4Ru)3
_symmetry_space_group_name_H-M   'P 1'
_cell_length_a   4.11098000
_cell_length_b   10.56586371
_cell_length_c   12.12752640
_cell_angle_alpha   89.96669157
_cell_angle_beta   90.00000000
_cell_angle_gamma   90.00000000
_symmetry_Int_Tables_number   1
_chemical_formula_structural   Lu12Mn(Si4Ru)3
_chemical_formula_sum   'Lu12 Mn1 Si12 Ru3'
_cell_volume   526.77180755
_cell_formula_units_Z   1
loop_
 _symmetry_equiv_pos_site_id
 _symmetry_equiv_pos_as_xyz
  1  'x, y, z'
loop_
 _atom_site_type_symbol
 _atom_site_label
 _atom_site_symmetry_multiplicity
 _atom_site_fract_x
 _atom_site_fract_y
 _atom_site_fract_z
 _atom_site_occupancy
  Lu  Lu0  1  0.250000  0.880101  0.020687  1
  Lu  Lu1  1  0.250000  0.620508  0.521305  1
  Lu  Lu2  1  0.750000  0.120693  0.980135  1
  Lu  Lu3  1  0.750000  0.379197  0.478179  1
  Lu  Lu4  1  0.250000  0.921790  0.604002  1
  Lu  Lu5  1  0.250000  0.578373  0.103999  1
  Lu  Lu6  1  0.750000  0.077503  0.394800  1
  Lu  Lu7  1  0.750000  0.422146  0.896523  1
  Lu  Lu8  1  0.250000  0.662011  0.800289  1
  Lu  Lu9  1  0.250000  0.837098  0.299688  1
  Lu  Lu10  1  0.750000  0.337595  0.200322  1
  Lu  Lu11  1  0.750000  0.161844  0.700765  1
  Mn  Mn12  1  0.250000  0.387636  0.680157  1
  Si  Si13  1  0.250000  0.012950  0.821908  1
  Si  Si14  1  0.250000  0.487345  0.322214  1
  Si  Si15  1  0.750000  0.985797  0.178323  1
  Si  Si16  1  0.750000  0.515383  0.676818  1
  Si  Si17  1  0.250000  0.250270  0.843101  1
  Si  Si18  1  0.250000  0.249900  0.342305  1
  Si  Si19  1  0.750000  0.750165  0.157334  1
  Si  Si20  1  0.750000  0.751153  0.658219  1
  Si  Si21  1  0.250000  0.196289  0.542676  1
  Si  Si22  1  0.250000  0.302074  0.043377  1
  Si  Si23  1  0.750000  0.801120  0.456699  1
  Si  Si24  1  0.750000  0.700407  0.956865  1
  Ru  Ru25  1  0.250000  0.110240  0.179629  1
  Ru  Ru26  1  0.750000  0.610034  0.319462  1
  Ru  Ru27  1  0.750000  0.890381  0.820218  1
