# generated using pymatgen
data_Dy16Hf4IrRh11
_symmetry_space_group_name_H-M   'P 1'
_cell_length_a   10.86127992
_cell_length_b   10.86127992
_cell_length_c   6.20268205
_cell_angle_alpha   90.09244032
_cell_angle_beta   90.09244032
_cell_angle_gamma   90.03083350
_symmetry_Int_Tables_number   1
_chemical_formula_structural   Dy16Hf4IrRh11
_chemical_formula_sum   'Dy16 Hf4 Ir1 Rh11'
_cell_volume   731.71227188
_cell_formula_units_Z   1
loop_
 _symmetry_equiv_pos_site_id
 _symmetry_equiv_pos_as_xyz
  1  'x, y, z'
loop_
 _atom_site_type_symbol
 _atom_site_label
 _atom_site_symmetry_multiplicity
 _atom_site_fract_x
 _atom_site_fract_y
 _atom_site_fract_z
 _atom_site_occupancy
  Dy  Dy0  1  0.288159  0.086006  0.375345  1
  Dy  Dy1  1  0.288580  0.912555  0.874999  1
  Dy  Dy2  1  0.711801  0.085970  0.875344  1
  Dy  Dy3  1  0.711801  0.913829  0.375281  1
  Dy  Dy4  1  0.584811  0.787825  0.875257  1
  Dy  Dy5  1  0.585989  0.211922  0.375837  1
  Dy  Dy6  1  0.413783  0.787773  0.376015  1
  Dy  Dy7  1  0.413826  0.211647  0.875238  1
  Dy  Dy8  1  0.212175  0.415189  0.624743  1
  Dy  Dy9  1  0.212227  0.586217  0.123985  1
  Dy  Dy10  1  0.788078  0.414011  0.124163  1
  Dy  Dy11  1  0.788353  0.586174  0.624762  1
  Dy  Dy12  1  0.913994  0.711841  0.124655  1
  Dy  Dy13  1  0.914030  0.288199  0.624656  1
  Dy  Dy14  1  0.087445  0.711420  0.625001  1
  Dy  Dy15  1  0.086171  0.288199  0.124719  1
  Hf  Hf16  1  0.000080  0.000010  0.500147  1
  Hf  Hf17  1  0.999990  0.999920  0.999853  1
  Hf  Hf18  1  0.499565  0.500379  0.999750  1
  Hf  Hf19  1  0.499621  0.500435  0.500250  1
  Ir  Ir20  1  0.356872  0.643128  0.750000  1
  Rh  Rh21  1  0.857052  0.142948  0.250000  1
  Rh  Rh22  1  0.857068  0.857254  0.749959  1
  Rh  Rh23  1  0.142746  0.142932  0.750041  1
  Rh  Rh24  1  0.142567  0.857433  0.250000  1
  Rh  Rh25  1  0.642970  0.357030  0.750000  1
  Rh  Rh26  1  0.643904  0.642963  0.250294  1
  Rh  Rh27  1  0.357037  0.356096  0.249706  1
  Rh  Rh28  1  0.500187  0.000402  0.120394  1
  Rh  Rh29  1  0.500265  0.000742  0.619748  1
  Rh  Rh30  1  0.999258  0.499735  0.880252  1
  Rh  Rh31  1  0.999598  0.499813  0.379606  1
