# generated using pymatgen
data_ZnGaGeMo9
_symmetry_space_group_name_H-M   'P 1'
_cell_length_a   4.97341000
_cell_length_b   4.97209300
_cell_length_c   14.84924700
_cell_angle_alpha   90.00000000
_cell_angle_beta   90.00000000
_cell_angle_gamma   90.00000000
_symmetry_Int_Tables_number   1
_chemical_formula_structural   ZnGaGeMo9
_chemical_formula_sum   'Zn2 Ga2 Ge2 Mo18'
_cell_volume   367.19599677
_cell_formula_units_Z   2
loop_
 _symmetry_equiv_pos_site_id
 _symmetry_equiv_pos_as_xyz
  1  'x, y, z'
loop_
 _atom_site_type_symbol
 _atom_site_label
 _atom_site_symmetry_multiplicity
 _atom_site_fract_x
 _atom_site_fract_y
 _atom_site_fract_z
 _atom_site_occupancy
  Zn  Zn0  1  0.500000  0.500000  0.166264  1
  Zn  Zn1  1  0.000000  0.000000  0.000225  1
  Ga  Ga2  1  0.500000  0.500000  0.834673  1
  Ga  Ga3  1  0.500000  0.500000  0.499142  1
  Ge  Ge4  1  0.000000  0.000000  0.667986  1
  Ge  Ge5  1  0.000000  0.000000  0.331655  1
  Mo  Mo6  1  0.500000  0.000000  0.750309  1
  Mo  Mo7  1  0.500000  0.000000  0.416307  1
  Mo  Mo8  1  0.500000  0.000000  0.083143  1
  Mo  Mo9  1  0.250071  0.500000  0.000236  1
  Mo  Mo10  1  0.250603  0.500000  0.666388  1
  Mo  Mo11  1  0.250324  0.500000  0.333217  1
  Mo  Mo12  1  0.000000  0.750537  0.833487  1
  Mo  Mo13  1  0.000000  0.751217  0.500124  1
  Mo  Mo14  1  0.000000  0.750550  0.166452  1
  Mo  Mo15  1  0.500000  0.000000  0.917217  1
  Mo  Mo16  1  0.500000  0.000000  0.583642  1
  Mo  Mo17  1  0.500000  0.000000  0.249626  1
  Mo  Mo18  1  0.749929  0.500000  0.000236  1
  Mo  Mo19  1  0.749397  0.500000  0.666388  1
  Mo  Mo20  1  0.749676  0.500000  0.333217  1
  Mo  Mo21  1  0.000000  0.249463  0.833487  1
  Mo  Mo22  1  0.000000  0.248783  0.500124  1
  Mo  Mo23  1  0.000000  0.249450  0.166452  1
