# generated using pymatgen
data_Tm4Lu4Cd2NiIr
_symmetry_space_group_name_H-M   'P 1'
_cell_length_a   9.42007796
_cell_length_b   9.42008009
_cell_length_c   9.41998602
_cell_angle_alpha   59.99932646
_cell_angle_beta   59.99933604
_cell_angle_gamma   60.40023455
_symmetry_Int_Tables_number   1
_chemical_formula_structural   Tm4Lu4Cd2NiIr
_chemical_formula_sum   'Tm8 Lu8 Cd4 Ni2 Ir2'
_cell_volume   592.83847347
_cell_formula_units_Z   2
loop_
 _symmetry_equiv_pos_site_id
 _symmetry_equiv_pos_as_xyz
  1  'x, y, z'
loop_
 _atom_site_type_symbol
 _atom_site_label
 _atom_site_symmetry_multiplicity
 _atom_site_fract_x
 _atom_site_fract_y
 _atom_site_fract_z
 _atom_site_occupancy
  Tm  Tm0  1  0.438661  0.438661  0.061340  1
  Tm  Tm1  1  0.061716  0.061716  0.438288  1
  Tm  Tm2  1  0.187671  0.814191  0.811002  1
  Tm  Tm3  1  0.814202  0.187670  0.187130  1
  Tm  Tm4  1  0.814191  0.187671  0.811002  1
  Tm  Tm5  1  0.187670  0.814202  0.187131  1
  Tm  Tm6  1  0.811002  0.811002  0.188996  1
  Tm  Tm7  1  0.186265  0.186265  0.813739  1
  Lu  Lu8  1  0.596236  0.596236  0.602353  1
  Lu  Lu9  1  0.596245  0.596245  0.205172  1
  Lu  Lu10  1  0.596569  0.204514  0.599459  1
  Lu  Lu11  1  0.204514  0.596569  0.599459  1
  Lu  Lu12  1  0.063075  0.439616  0.438629  1
  Lu  Lu13  1  0.439604  0.063094  0.058676  1
  Lu  Lu14  1  0.439615  0.063075  0.438629  1
  Lu  Lu15  1  0.063094  0.439604  0.058676  1
  Cd  Cd16  1  0.831377  0.831377  0.830157  1
  Cd  Cd17  1  0.831379  0.831379  0.507091  1
  Cd  Cd18  1  0.831774  0.506538  0.830850  1
  Cd  Cd19  1  0.506538  0.831774  0.830850  1
  Ni  Ni20  1  0.390866  0.390865  0.393368  1
  Ni  Ni21  1  0.390884  0.390885  0.824856  1
  Ir  Ir22  1  0.393395  0.823453  0.391574  1
  Ir  Ir23  1  0.823453  0.393395  0.391574  1
