# generated using pymatgen
data_CsMg2CoH8
_symmetry_space_group_name_H-M   'P 1'
_cell_length_a   4.46005100
_cell_length_b   4.46005034
_cell_length_c   8.54975600
_cell_angle_alpha   90.00000000
_cell_angle_beta   90.00000000
_cell_angle_gamma   119.99999744
_symmetry_Int_Tables_number   1
_chemical_formula_structural   CsMg2CoH8
_chemical_formula_sum   'Cs1 Mg2 Co1 H8'
_cell_volume   147.28684162
_cell_formula_units_Z   1
loop_
 _symmetry_equiv_pos_site_id
 _symmetry_equiv_pos_as_xyz
  1  'x, y, z'
loop_
 _atom_site_type_symbol
 _atom_site_label
 _atom_site_symmetry_multiplicity
 _atom_site_fract_x
 _atom_site_fract_y
 _atom_site_fract_z
 _atom_site_occupancy
  Cs  Cs0  1  0.000000  0.000000  0.500000  1
  Mg  Mg1  1  0.666667  0.333333  0.884966  1
  Mg  Mg2  1  0.333333  0.666667  0.115034  1
  Co  Co3  1  0.000000  0.000000  0.000000  1
  H  H4  1  0.313224  0.156612  0.108503  1
  H  H5  1  0.843388  0.686776  0.108503  1
  H  H6  1  0.843388  0.156612  0.108503  1
  H  H7  1  0.686776  0.843388  0.891497  1
  H  H8  1  0.156612  0.313224  0.891497  1
  H  H9  1  0.156612  0.843388  0.891497  1
  H  H10  1  0.666667  0.333333  0.674765  1
  H  H11  1  0.333333  0.666667  0.325235  1
