# generated using pymatgen
data_TbY4Lu7Co5Sb
_symmetry_space_group_name_H-M   'P 1'
_cell_length_a   8.18304843
_cell_length_b   8.18824119
_cell_length_c   8.18824212
_cell_angle_alpha   110.65625616
_cell_angle_beta   110.88667071
_cell_angle_gamma   106.92559568
_symmetry_Int_Tables_number   1
_chemical_formula_structural   TbY4Lu7Co5Sb
_chemical_formula_sum   'Tb1 Y4 Lu7 Co5 Sb1'
_cell_volume   421.59414827
_cell_formula_units_Z   1
loop_
 _symmetry_equiv_pos_site_id
 _symmetry_equiv_pos_as_xyz
  1  'x, y, z'
loop_
 _atom_site_type_symbol
 _atom_site_label
 _atom_site_symmetry_multiplicity
 _atom_site_fract_x
 _atom_site_fract_y
 _atom_site_fract_z
 _atom_site_occupancy
  Tb  Tb0  1  0.017889  0.209763  0.808126  1
  Y  Y1  1  0.811125  0.709669  0.522551  1
  Y  Y2  1  0.186691  0.286744  0.472114  1
  Y  Y3  1  0.186691  0.714577  0.899947  1
  Y  Y4  1  0.811125  0.288574  0.101455  1
  Lu  Lu5  1  0.685840  0.377041  0.689054  1
  Lu  Lu6  1  0.314751  0.625113  0.312362  1
  Lu  Lu7  1  0.685840  0.996787  0.308798  1
  Lu  Lu8  1  0.314751  0.002389  0.689639  1
  Lu  Lu9  1  0.596897  0.789512  0.807386  1
  Lu  Lu10  1  0.405648  0.210624  0.195024  1
  Lu  Lu11  1  0.983324  0.789486  0.193837  1
  Co  Co12  1  0.623671  0.999024  0.624646  1
  Co  Co13  1  0.373550  0.000834  0.372715  1
  Co  Co14  1  0.114473  0.613765  0.500707  1
  Co  Co15  1  0.884111  0.387280  0.496832  1
  Co  Co16  1  0.001459  0.997624  0.003834  1
  Sb  Sb17  1  0.502163  0.501192  0.000971  1
