# generated using pymatgen
data_Li4Yb15CeRu4
_symmetry_space_group_name_H-M   'P 1'
_cell_length_a   9.98990491
_cell_length_b   10.00827483
_cell_length_c   9.98990451
_cell_angle_alpha   59.93915322
_cell_angle_beta   58.72021403
_cell_angle_gamma   59.93915424
_symmetry_Int_Tables_number   1
_chemical_formula_structural   Li4Yb15CeRu4
_chemical_formula_sum   'Li4 Yb15 Ce1 Ru4'
_cell_volume   698.54946687
_cell_formula_units_Z   1
loop_
 _symmetry_equiv_pos_site_id
 _symmetry_equiv_pos_as_xyz
  1  'x, y, z'
loop_
 _atom_site_type_symbol
 _atom_site_label
 _atom_site_symmetry_multiplicity
 _atom_site_fract_x
 _atom_site_fract_y
 _atom_site_fract_z
 _atom_site_occupancy
  Li  Li0  1  0.573964  0.275593  0.573964  1
  Li  Li1  1  0.571649  0.577732  0.272885  1
  Li  Li2  1  0.272885  0.577732  0.571649  1
  Li  Li3  1  0.573964  0.576477  0.573964  1
  Yb  Yb4  1  0.340304  0.338077  0.340304  1
  Yb  Yb5  1  0.953633  0.547206  0.541193  1
  Yb  Yb6  1  0.541193  0.547206  0.953633  1
  Yb  Yb7  1  0.556909  0.943091  0.556909  1
  Yb  Yb8  1  0.816242  0.187875  0.191683  1
  Yb  Yb9  1  0.191683  0.187875  0.816242  1
  Yb  Yb10  1  0.187588  0.812412  0.187588  1
  Yb  Yb11  1  0.953633  0.957967  0.541193  1
  Yb  Yb12  1  0.541193  0.957967  0.953633  1
  Yb  Yb13  1  0.955348  0.544652  0.955348  1
  Yb  Yb14  1  0.338191  0.343625  0.974560  1
  Yb  Yb15  1  0.974560  0.343625  0.338191  1
  Yb  Yb16  1  0.340304  0.981316  0.340304  1
  Yb  Yb17  1  0.816242  0.804201  0.191683  1
  Yb  Yb18  1  0.191683  0.804201  0.816242  1
  Ce  Ce19  1  0.815992  0.184008  0.815992  1
  Ru  Ru20  1  0.143212  0.125624  0.143212  1
  Ru  Ru21  1  0.143212  0.587953  0.143212  1
  Ru  Ru22  1  0.624125  0.146792  0.082291  1
  Ru  Ru23  1  0.082291  0.146792  0.624125  1
