# generated using pymatgen
data_Er8Nb12Si15Ge
_symmetry_space_group_name_H-M   'P 1'
_cell_length_a   6.85836465
_cell_length_b   7.05724493
_cell_length_c   13.41000700
_cell_angle_alpha   90.04995642
_cell_angle_beta   89.92676951
_cell_angle_gamma   90.03079838
_symmetry_Int_Tables_number   1
_chemical_formula_structural   Er8Nb12Si15Ge
_chemical_formula_sum   'Er8 Nb12 Si15 Ge1'
_cell_volume   649.05901271
_cell_formula_units_Z   1
loop_
 _symmetry_equiv_pos_site_id
 _symmetry_equiv_pos_as_xyz
  1  'x, y, z'
loop_
 _atom_site_type_symbol
 _atom_site_label
 _atom_site_symmetry_multiplicity
 _atom_site_fract_x
 _atom_site_fract_y
 _atom_site_fract_z
 _atom_site_occupancy
  Er  Er0  1  0.503785  0.328290  0.095657  1
  Er  Er1  1  0.002890  0.171458  0.403786  1
  Er  Er2  1  0.499479  0.674048  0.596516  1
  Er  Er3  1  0.996054  0.827884  0.904824  1
  Er  Er4  1  0.495914  0.671620  0.904619  1
  Er  Er5  1  0.995907  0.828879  0.596014  1
  Er  Er6  1  0.504397  0.326750  0.403315  1
  Er  Er7  1  0.003846  0.172343  0.095417  1
  Nb  Nb8  1  0.662975  0.007427  0.750177  1
  Nb  Nb9  1  0.162927  0.491333  0.751965  1
  Nb  Nb10  1  0.336708  0.992472  0.249710  1
  Nb  Nb11  1  0.836936  0.508105  0.249833  1
  Nb  Nb12  1  0.834945  0.324300  0.625500  1
  Nb  Nb13  1  0.336427  0.175270  0.875175  1
  Nb  Nb14  1  0.163478  0.675335  0.124931  1
  Nb  Nb15  1  0.663278  0.825240  0.374515  1
  Nb  Nb16  1  0.161579  0.677789  0.373092  1
  Nb  Nb17  1  0.662656  0.824441  0.124912  1
  Nb  Nb18  1  0.836385  0.324391  0.875141  1
  Nb  Nb19  1  0.339043  0.171355  0.626462  1
  Si  Si20  1  0.795291  0.627086  0.750351  1
  Si  Si21  1  0.294102  0.871478  0.750678  1
  Si  Si22  1  0.205100  0.372969  0.249616  1
  Si  Si23  1  0.705350  0.127392  0.249485  1
  Si  Si24  1  0.540906  0.377254  0.750374  1
  Si  Si25  1  0.040770  0.122563  0.750166  1
  Si  Si26  1  0.458703  0.622854  0.249894  1
  Si  Si27  1  0.958149  0.878095  0.248881  1
  Si  Si28  1  0.663948  0.036651  0.539961  1
  Si  Si29  1  0.162884  0.463883  0.959681  1
  Si  Si30  1  0.336517  0.964210  0.040415  1
  Si  Si31  1  0.832827  0.536894  0.458947  1
  Si  Si32  1  0.336419  0.963494  0.459649  1
  Si  Si33  1  0.836984  0.535987  0.040633  1
  Si  Si34  1  0.662973  0.035907  0.959651  1
  Ge  Ge35  1  0.169469  0.464556  0.540061  1
