# generated using pymatgen
data_Hf18FeRe5BMo3
_symmetry_space_group_name_H-M   'P 1'
_cell_length_a   8.49024100
_cell_length_b   8.55867365
_cell_length_c   8.55278831
_cell_angle_alpha   120.02301594
_cell_angle_beta   90.00000000
_cell_angle_gamma   90.00000000
_symmetry_Int_Tables_number   1
_chemical_formula_structural   Hf18FeRe5BMo3
_chemical_formula_sum   'Hf18 Fe1 Re5 B1 Mo3'
_cell_volume   538.10133484
_cell_formula_units_Z   1
loop_
 _symmetry_equiv_pos_site_id
 _symmetry_equiv_pos_as_xyz
  1  'x, y, z'
loop_
 _atom_site_type_symbol
 _atom_site_label
 _atom_site_symmetry_multiplicity
 _atom_site_fract_x
 _atom_site_fract_y
 _atom_site_fract_z
 _atom_site_occupancy
  Hf  Hf0  1  0.556239  0.798398  0.596787  1
  Hf  Hf1  1  0.555113  0.797222  0.201851  1
  Hf  Hf2  1  0.555109  0.404613  0.201837  1
  Hf  Hf3  1  0.440907  0.202039  0.404076  1
  Hf  Hf4  1  0.441936  0.201767  0.797920  1
  Hf  Hf5  1  0.441942  0.596166  0.797924  1
  Hf  Hf6  1  0.059093  0.202039  0.404076  1
  Hf  Hf7  1  0.058064  0.201767  0.797920  1
  Hf  Hf8  1  0.058058  0.596166  0.797924  1
  Hf  Hf9  1  0.943761  0.798398  0.596787  1
  Hf  Hf10  1  0.944887  0.797222  0.201851  1
  Hf  Hf11  1  0.944891  0.404613  0.201837  1
  Hf  Hf12  1  0.750000  0.459768  0.919551  1
  Hf  Hf13  1  0.750000  0.461264  0.540601  1
  Hf  Hf14  1  0.750000  0.079344  0.540613  1
  Hf  Hf15  1  0.250000  0.541111  0.082220  1
  Hf  Hf16  1  0.250000  0.541824  0.459046  1
  Hf  Hf17  1  0.250000  0.917225  0.459047  1
  Fe  Fe18  1  0.250000  0.334081  0.668137  1
  Re  Re19  1  0.750000  0.111174  0.887309  1
  Re  Re20  1  0.750000  0.776108  0.887275  1
  Re  Re21  1  0.250000  0.888621  0.777232  1
  Re  Re22  1  0.250000  0.887921  0.111905  1
  Re  Re23  1  0.250000  0.223986  0.111897  1
  B  B24  1  0.750000  0.667015  0.334062  1
  Mo  Mo25  1  0.750000  0.110426  0.220869  1
  Mo  Mo26  1  0.500720  0.999858  0.999722  1
  Mo  Mo27  1  0.999280  0.999858  0.999722  1
