# generated using pymatgen
data_La4B4I4Cl
_symmetry_space_group_name_H-M   'P 1'
_cell_length_a   9.92744379
_cell_length_b   9.92744376
_cell_length_c   10.37398550
_cell_angle_alpha   72.58916657
_cell_angle_beta   72.58916793
_cell_angle_gamma   25.38277101
_symmetry_Int_Tables_number   1
_chemical_formula_structural   La4B4I4Cl
_chemical_formula_sum   'La4 B4 I4 Cl1'
_cell_volume   417.14143874
_cell_formula_units_Z   1
loop_
 _symmetry_equiv_pos_site_id
 _symmetry_equiv_pos_as_xyz
  1  'x, y, z'
loop_
 _atom_site_type_symbol
 _atom_site_label
 _atom_site_symmetry_multiplicity
 _atom_site_fract_x
 _atom_site_fract_y
 _atom_site_fract_z
 _atom_site_occupancy
  La  La0  1  0.513826  0.513826  0.746262  1
  La  La1  1  0.492381  0.492381  0.248808  1
  La  La2  1  0.137106  0.137106  0.925308  1
  La  La3  1  0.865385  0.865385  0.063308  1
  B  B4  1  0.316017  0.685284  0.998566  1
  B  B5  1  0.685284  0.316017  0.998566  1
  B  B6  1  0.998921  0.998921  0.090264  1
  B  B7  1  0.003819  0.003819  0.905337  1
  I  I8  1  0.316818  0.316818  0.319333  1
  I  I9  1  0.333050  0.333050  0.840584  1
  I  I10  1  0.672077  0.672077  0.141818  1
  I  I11  1  0.010767  0.010767  0.493023  1
  Cl  Cl12  1  0.668850  0.668850  0.719024  1
