# generated using pymatgen
data_La6YIr2Rh
_symmetry_space_group_name_H-M   'P 1'
_cell_length_a   10.26823700
_cell_length_b   10.26977706
_cell_length_c   6.43688781
_cell_angle_alpha   89.92571516
_cell_angle_beta   90.00000000
_cell_angle_gamma   119.99504915
_symmetry_Int_Tables_number   1
_chemical_formula_structural   La6YIr2Rh
_chemical_formula_sum   'La12 Y2 Ir4 Rh2'
_cell_volume   587.87453503
_cell_formula_units_Z   2
loop_
 _symmetry_equiv_pos_site_id
 _symmetry_equiv_pos_as_xyz
  1  'x, y, z'
loop_
 _atom_site_type_symbol
 _atom_site_label
 _atom_site_symmetry_multiplicity
 _atom_site_fract_x
 _atom_site_fract_y
 _atom_site_fract_z
 _atom_site_occupancy
  La  La0  1  0.872888  0.745774  0.766680  1
  La  La1  1  0.253747  0.126812  0.767474  1
  La  La2  1  0.873066  0.126812  0.767474  1
  La  La3  1  0.127457  0.254915  0.266020  1
  La  La4  1  0.745816  0.871982  0.266279  1
  La  La5  1  0.126165  0.871982  0.266279  1
  La  La6  1  0.457669  0.915339  0.596976  1
  La  La7  1  0.084197  0.542679  0.596433  1
  La  La8  1  0.458480  0.542679  0.596433  1
  La  La9  1  0.542314  0.084626  0.094946  1
  La  La10  1  0.915430  0.458270  0.095476  1
  La  La11  1  0.542841  0.458270  0.095476  1
  Y  Y12  1  0.667340  0.334679  0.566786  1
  Y  Y13  1  0.333301  0.666602  0.064047  1
  Ir  Ir14  1  0.189190  0.378380  0.852791  1
  Ir  Ir15  1  0.620817  0.810926  0.852473  1
  Ir  Ir16  1  0.190110  0.810926  0.852473  1
  Ir  Ir17  1  0.809631  0.619264  0.350870  1
  Rh  Rh18  1  0.379994  0.189542  0.349829  1
  Rh  Rh19  1  0.809547  0.189542  0.349829  1
