# generated using pymatgen
data_TmMn5Fe(Sn2Ge)2
_symmetry_space_group_name_H-M   'P 1'
_cell_length_a   5.30842412
_cell_length_b   5.30764806
_cell_length_c   8.66254900
_cell_angle_alpha   90.00014893
_cell_angle_beta   90.00049366
_cell_angle_gamma   119.65237388
_symmetry_Int_Tables_number   1
_chemical_formula_structural   TmMn5Fe(Sn2Ge)2
_chemical_formula_sum   'Tm1 Mn5 Fe1 Sn4 Ge2'
_cell_volume   212.10686719
_cell_formula_units_Z   1
loop_
 _symmetry_equiv_pos_site_id
 _symmetry_equiv_pos_as_xyz
  1  'x, y, z'
loop_
 _atom_site_type_symbol
 _atom_site_label
 _atom_site_symmetry_multiplicity
 _atom_site_fract_x
 _atom_site_fract_y
 _atom_site_fract_z
 _atom_site_occupancy
  Tm  Tm0  1  0.000021  0.000021  0.999502  1
  Mn  Mn1  1  0.499998  0.999998  0.232300  1
  Mn  Mn2  1  0.000007  0.500005  0.232307  1
  Mn  Mn3  1  0.500006  0.500005  0.766937  1
  Mn  Mn4  1  0.500007  0.000021  0.768791  1
  Mn  Mn5  1  0.000009  0.500000  0.768803  1
  Fe  Fe6  1  0.500006  0.500007  0.232182  1
  Sn  Sn7  1  0.000002  0.000000  0.334281  1
  Sn  Sn8  1  0.666816  0.333256  0.500351  1
  Sn  Sn9  1  0.333256  0.666818  0.500356  1
  Sn  Sn10  1  0.000002  0.000002  0.665723  1
  Ge  Ge11  1  0.665303  0.334708  0.999234  1
  Ge  Ge12  1  0.334719  0.665316  0.999234  1
