# generated using pymatgen
data_LiTb2(TmSn2)2
_symmetry_space_group_name_H-M   'P 1'
_cell_length_a   7.54515800
_cell_length_b   8.16404900
_cell_length_c   15.45658200
_cell_angle_alpha   90.00000000
_cell_angle_beta   90.00000000
_cell_angle_gamma   90.00000000
_symmetry_Int_Tables_number   1
_chemical_formula_structural   LiTb2(TmSn2)2
_chemical_formula_sum   'Li4 Tb8 Tm8 Sn16'
_cell_volume   952.11060708
_cell_formula_units_Z   4
loop_
 _symmetry_equiv_pos_site_id
 _symmetry_equiv_pos_as_xyz
  1  'x, y, z'
loop_
 _atom_site_type_symbol
 _atom_site_label
 _atom_site_symmetry_multiplicity
 _atom_site_fract_x
 _atom_site_fract_y
 _atom_site_fract_z
 _atom_site_occupancy
  Li  Li0  1  0.172233  0.488980  0.750000  1
  Li  Li1  1  0.672233  0.011020  0.750000  1
  Li  Li2  1  0.827767  0.511020  0.250000  1
  Li  Li3  1  0.327767  0.988980  0.250000  1
  Tb  Tb4  1  0.503995  0.314956  0.906370  1
  Tb  Tb5  1  0.003995  0.185044  0.593630  1
  Tb  Tb6  1  0.496005  0.685044  0.406370  1
  Tb  Tb7  1  0.996005  0.814956  0.093630  1
  Tb  Tb8  1  0.496005  0.685044  0.093630  1
  Tb  Tb9  1  0.996005  0.814956  0.406370  1
  Tb  Tb10  1  0.503995  0.314956  0.593630  1
  Tb  Tb11  1  0.003995  0.185044  0.906370  1
  Tm  Tm12  1  0.340352  0.831923  0.872019  1
  Tm  Tm13  1  0.840352  0.668077  0.627981  1
  Tm  Tm14  1  0.659648  0.168077  0.372019  1
  Tm  Tm15  1  0.159648  0.331923  0.127981  1
  Tm  Tm16  1  0.659648  0.168077  0.127981  1
  Tm  Tm17  1  0.159648  0.331923  0.372019  1
  Tm  Tm18  1  0.340352  0.831923  0.627981  1
  Tm  Tm19  1  0.840352  0.668077  0.872019  1
  Sn  Sn20  1  0.316842  0.038750  0.038831  1
  Sn  Sn21  1  0.816842  0.461250  0.461169  1
  Sn  Sn22  1  0.683158  0.961250  0.538831  1
  Sn  Sn23  1  0.183158  0.538750  0.961169  1
  Sn  Sn24  1  0.683158  0.961250  0.961169  1
  Sn  Sn25  1  0.183158  0.538750  0.538831  1
  Sn  Sn26  1  0.316842  0.038750  0.461169  1
  Sn  Sn27  1  0.816842  0.461250  0.038831  1
  Sn  Sn28  1  0.526599  0.597067  0.750000  1
  Sn  Sn29  1  0.026599  0.902933  0.750000  1
  Sn  Sn30  1  0.473401  0.402933  0.250000  1
  Sn  Sn31  1  0.973401  0.097067  0.250000  1
  Sn  Sn32  1  0.308615  0.146494  0.750000  1
  Sn  Sn33  1  0.808615  0.353506  0.750000  1
  Sn  Sn34  1  0.691385  0.853506  0.250000  1
  Sn  Sn35  1  0.191385  0.646494  0.250000  1
