# generated using pymatgen
data_Tm4Cd2Si3Ge
_symmetry_space_group_name_H-M   'P 1'
_cell_length_a   7.13237302
_cell_length_b   7.13237302
_cell_length_c   4.14924100
_cell_angle_alpha   90.00000000
_cell_angle_beta   90.00000000
_cell_angle_gamma   90.14893557
_symmetry_Int_Tables_number   1
_chemical_formula_structural   Tm4Cd2Si3Ge
_chemical_formula_sum   'Tm4 Cd2 Si3 Ge1'
_cell_volume   211.07426756
_cell_formula_units_Z   1
loop_
 _symmetry_equiv_pos_site_id
 _symmetry_equiv_pos_as_xyz
  1  'x, y, z'
loop_
 _atom_site_type_symbol
 _atom_site_label
 _atom_site_symmetry_multiplicity
 _atom_site_fract_x
 _atom_site_fract_y
 _atom_site_fract_z
 _atom_site_occupancy
  Tm  Tm0  1  0.679165  0.176971  0.500000  1
  Tm  Tm1  1  0.323029  0.820835  0.500000  1
  Tm  Tm2  1  0.175197  0.324803  0.500000  1
  Tm  Tm3  1  0.823242  0.676758  0.500000  1
  Cd  Cd4  1  0.500849  0.502421  0.000000  1
  Cd  Cd5  1  0.997579  0.999151  0.000000  1
  Si  Si6  1  0.117990  0.618060  0.000000  1
  Si  Si7  1  0.881940  0.382010  0.000000  1
  Si  Si8  1  0.620886  0.879114  0.000000  1
  Ge  Ge9  1  0.380122  0.119878  0.000000  1
