# generated using pymatgen
data_Pr2Zn5Si
_symmetry_space_group_name_H-M   'P 1'
_cell_length_a   8.40498871
_cell_length_b   8.40498974
_cell_length_c   8.85483800
_cell_angle_alpha   90.00000000
_cell_angle_beta   90.00000000
_cell_angle_gamma   149.26766548
_symmetry_Int_Tables_number   1
_chemical_formula_structural   Pr2Zn5Si
_chemical_formula_sum   'Pr4 Zn10 Si2'
_cell_volume   319.66840532
_cell_formula_units_Z   2
loop_
 _symmetry_equiv_pos_site_id
 _symmetry_equiv_pos_as_xyz
  1  'x, y, z'
loop_
 _atom_site_type_symbol
 _atom_site_label
 _atom_site_symmetry_multiplicity
 _atom_site_fract_x
 _atom_site_fract_y
 _atom_site_fract_z
 _atom_site_occupancy
  Pr  Pr0  1  0.204657  0.795343  0.250000  1
  Pr  Pr1  1  0.795343  0.204657  0.750000  1
  Pr  Pr2  1  0.000000  0.000000  0.500000  1
  Pr  Pr3  1  0.000000  0.000000  0.000000  1
  Zn  Zn4  1  0.814444  0.185556  0.393460  1
  Zn  Zn5  1  0.185556  0.814444  0.606540  1
  Zn  Zn6  1  0.814444  0.185556  0.106540  1
  Zn  Zn7  1  0.185556  0.814444  0.893460  1
  Zn  Zn8  1  0.648704  0.351296  0.476985  1
  Zn  Zn9  1  0.351296  0.648704  0.523015  1
  Zn  Zn10  1  0.648704  0.351296  0.023015  1
  Zn  Zn11  1  0.351296  0.648704  0.976985  1
  Zn  Zn12  1  0.406867  0.593133  0.250000  1
  Zn  Zn13  1  0.593133  0.406867  0.750000  1
  Si  Si14  1  0.558229  0.441771  0.250000  1
  Si  Si15  1  0.441771  0.558229  0.750000  1
