# generated using pymatgen
data_La6CoOsBr6
_symmetry_space_group_name_H-M   'P 1'
_cell_length_a   10.60123630
_cell_length_b   10.60025679
_cell_length_c   10.55659700
_cell_angle_alpha   109.45401146
_cell_angle_beta   109.47722590
_cell_angle_gamma   109.64679341
_symmetry_Int_Tables_number   1
_chemical_formula_structural   La6CoOsBr6
_chemical_formula_sum   'La12 Co2 Os2 Br12'
_cell_volume   911.35952284
_cell_formula_units_Z   2
loop_
 _symmetry_equiv_pos_site_id
 _symmetry_equiv_pos_as_xyz
  1  'x, y, z'
loop_
 _atom_site_type_symbol
 _atom_site_label
 _atom_site_symmetry_multiplicity
 _atom_site_fract_x
 _atom_site_fract_y
 _atom_site_fract_z
 _atom_site_occupancy
  La  La0  1  0.390478  0.609916  0.000223  1
  La  La1  1  0.609748  0.390351  0.999964  1
  La  La2  1  0.646225  0.146293  0.292431  1
  La  La3  1  0.853598  0.353425  0.707280  1
  La  La4  1  0.409888  0.392492  0.267570  1
  La  La5  1  0.125298  0.142721  0.732606  1
  La  La6  1  0.124162  0.356567  0.514057  1
  La  La7  1  0.842693  0.610419  0.485875  1
  La  La8  1  0.607120  0.589969  0.732439  1
  La  La9  1  0.857584  0.875110  0.267660  1
  La  La10  1  0.643503  0.875679  0.486000  1
  La  La11  1  0.389455  0.156962  0.513847  1
  Co  Co12  1  0.873615  0.126430  0.499950  1
  Co  Co13  1  0.625748  0.373322  0.499650  1
  Os  Os14  1  0.626837  0.626846  0.253497  1
  Os  Os15  1  0.373227  0.373265  0.746562  1
  Br  Br16  1  0.368759  0.631295  0.500005  1
  Br  Br17  1  0.131219  0.868714  0.500238  1
  Br  Br18  1  0.118747  0.118812  0.237564  1
  Br  Br19  1  0.881508  0.881126  0.762423  1
  Br  Br20  1  0.885606  0.628327  0.003400  1
  Br  Br21  1  0.625055  0.882207  0.996607  1
  Br  Br22  1  0.624304  0.119262  0.753141  1
  Br  Br23  1  0.366201  0.870990  0.246996  1
  Br  Br24  1  0.371684  0.114449  0.996420  1
  Br  Br25  1  0.117961  0.375206  0.003434  1
  Br  Br26  1  0.880953  0.376128  0.247140  1
  Br  Br27  1  0.128821  0.633718  0.753019  1
