# generated using pymatgen
data_Lu5ThTcIr
_symmetry_space_group_name_H-M   'P 1'
_cell_length_a   6.28655900
_cell_length_b   7.26576800
_cell_length_c   9.23110500
_cell_angle_alpha   90.00000000
_cell_angle_beta   90.00000000
_cell_angle_gamma   90.00000000
_symmetry_Int_Tables_number   1
_chemical_formula_structural   Lu5ThTcIr
_chemical_formula_sum   'Lu10 Th2 Tc2 Ir2'
_cell_volume   421.64622186
_cell_formula_units_Z   2
loop_
 _symmetry_equiv_pos_site_id
 _symmetry_equiv_pos_as_xyz
  1  'x, y, z'
loop_
 _atom_site_type_symbol
 _atom_site_label
 _atom_site_symmetry_multiplicity
 _atom_site_fract_x
 _atom_site_fract_y
 _atom_site_fract_z
 _atom_site_occupancy
  Lu  Lu0  1  0.333504  0.676191  0.061848  1
  Lu  Lu1  1  0.166496  0.176191  0.438152  1
  Lu  Lu2  1  0.668770  0.323769  0.567280  1
  Lu  Lu3  1  0.831230  0.823769  0.932720  1
  Lu  Lu4  1  0.668770  0.323769  0.932720  1
  Lu  Lu5  1  0.831230  0.823769  0.567280  1
  Lu  Lu6  1  0.333504  0.676191  0.438152  1
  Lu  Lu7  1  0.166496  0.176191  0.061848  1
  Lu  Lu8  1  0.133616  0.462006  0.750000  1
  Lu  Lu9  1  0.366384  0.962006  0.750000  1
  Th  Th10  1  0.867024  0.546334  0.250000  1
  Th  Th11  1  0.632976  0.046334  0.250000  1
  Tc  Tc12  1  0.023695  0.872749  0.250000  1
  Tc  Tc13  1  0.476305  0.372749  0.250000  1
  Ir  Ir14  1  0.958175  0.118991  0.750000  1
  Ir  Ir15  1  0.541825  0.618991  0.750000  1
