# generated using pymatgen
data_Na2MgCd(H6Rh)2
_symmetry_space_group_name_H-M   'P 1'
_cell_length_a   6.99192600
_cell_length_b   6.99192600
_cell_length_c   6.96471800
_cell_angle_alpha   90.00000000
_cell_angle_beta   90.00000000
_cell_angle_gamma   90.00000000
_symmetry_Int_Tables_number   1
_chemical_formula_structural   Na2MgCd(H6Rh)2
_chemical_formula_sum   'Na4 Mg2 Cd2 H24 Rh4'
_cell_volume   340.48437216
_cell_formula_units_Z   2
loop_
 _symmetry_equiv_pos_site_id
 _symmetry_equiv_pos_as_xyz
  1  'x, y, z'
loop_
 _atom_site_type_symbol
 _atom_site_label
 _atom_site_symmetry_multiplicity
 _atom_site_fract_x
 _atom_site_fract_y
 _atom_site_fract_z
 _atom_site_occupancy
  Na  Na0  1  0.000000  0.000000  0.500000  1
  Na  Na1  1  0.000000  0.500000  0.000000  1
  Na  Na2  1  0.500000  0.000000  0.000000  1
  Na  Na3  1  0.000000  0.000000  0.000000  1
  Mg  Mg4  1  0.500000  0.500000  0.500000  1
  Mg  Mg5  1  0.500000  0.500000  0.000000  1
  Cd  Cd6  1  0.000000  0.500000  0.500000  1
  Cd  Cd7  1  0.500000  0.000000  0.500000  1
  H  H8  1  0.736970  0.736970  0.501643  1
  H  H9  1  0.263030  0.263030  0.501643  1
  H  H10  1  0.030507  0.739745  0.740047  1
  H  H11  1  0.260255  0.969493  0.740047  1
  H  H12  1  0.739745  0.030507  0.740047  1
  H  H13  1  0.969493  0.260255  0.740047  1
  H  H14  1  0.731774  0.504095  0.745076  1
  H  H15  1  0.504095  0.731774  0.745076  1
  H  H16  1  0.495905  0.268226  0.745076  1
  H  H17  1  0.268226  0.495905  0.745076  1
  H  H18  1  0.266380  0.733620  0.974043  1
  H  H19  1  0.733620  0.266380  0.974043  1
  H  H20  1  0.733620  0.733620  0.025957  1
  H  H21  1  0.266380  0.266380  0.025957  1
  H  H22  1  0.268226  0.504095  0.254924  1
  H  H23  1  0.495905  0.731774  0.254924  1
  H  H24  1  0.504095  0.268226  0.254924  1
  H  H25  1  0.731774  0.495905  0.254924  1
  H  H26  1  0.969493  0.739745  0.259953  1
  H  H27  1  0.739745  0.969493  0.259953  1
  H  H28  1  0.260255  0.030507  0.259953  1
  H  H29  1  0.030507  0.260255  0.259953  1
  H  H30  1  0.263030  0.736970  0.498357  1
  H  H31  1  0.736970  0.263030  0.498357  1
  Rh  Rh32  1  0.269101  0.730899  0.734596  1
  Rh  Rh33  1  0.730899  0.269101  0.734596  1
  Rh  Rh34  1  0.730899  0.730899  0.265404  1
  Rh  Rh35  1  0.269101  0.269101  0.265404  1
