# generated using pymatgen
data_Sr21MgAlGa7Sn6
_symmetry_space_group_name_H-M   'P 1'
_cell_length_a   12.16917278
_cell_length_b   12.18126559
_cell_length_c   12.16917300
_cell_angle_alpha   60.03283622
_cell_angle_beta   60.00000213
_cell_angle_gamma   60.03283394
_symmetry_Int_Tables_number   1
_chemical_formula_structural   Sr21MgAlGa7Sn6
_chemical_formula_sum   'Sr21 Mg1 Al1 Ga7 Sn6'
_cell_volume   1276.18873672
_cell_formula_units_Z   1
loop_
 _symmetry_equiv_pos_site_id
 _symmetry_equiv_pos_as_xyz
  1  'x, y, z'
loop_
 _atom_site_type_symbol
 _atom_site_label
 _atom_site_symmetry_multiplicity
 _atom_site_fract_x
 _atom_site_fract_y
 _atom_site_fract_z
 _atom_site_occupancy
  Sr  Sr0  1  0.869967  0.869075  0.390990  1
  Sr  Sr1  1  0.607566  0.130878  0.130778  1
  Sr  Sr2  1  0.869184  0.392447  0.869184  1
  Sr  Sr3  1  0.130778  0.130878  0.130778  1
  Sr  Sr4  1  0.390990  0.869075  0.869967  1
  Sr  Sr5  1  0.869967  0.869075  0.869967  1
  Sr  Sr6  1  0.171435  0.828072  0.500247  1
  Sr  Sr7  1  0.827670  0.499970  0.500095  1
  Sr  Sr8  1  0.130778  0.130878  0.607566  1
  Sr  Sr9  1  0.828327  0.173428  0.499122  1
  Sr  Sr10  1  0.172264  0.499970  0.500095  1
  Sr  Sr11  1  0.130856  0.607433  0.130856  1
  Sr  Sr12  1  0.500095  0.499970  0.172264  1
  Sr  Sr13  1  0.499122  0.173428  0.828327  1
  Sr  Sr14  1  0.500247  0.828072  0.171435  1
  Sr  Sr15  1  0.500095  0.499970  0.827670  1
  Sr  Sr16  1  0.499122  0.173428  0.499122  1
  Sr  Sr17  1  0.172264  0.499970  0.827670  1
  Sr  Sr18  1  0.999937  0.000190  0.999937  1
  Sr  Sr19  1  0.500247  0.828072  0.500247  1
  Sr  Sr20  1  0.827670  0.499970  0.172264  1
  Mg  Mg21  1  0.499965  0.500105  0.499965  1
  Al  Al22  1  0.695075  0.914775  0.695075  1
  Ga  Ga23  1  0.693053  0.693634  0.920260  1
  Ga  Ga24  1  0.693053  0.693634  0.693053  1
  Ga  Ga25  1  0.306571  0.080286  0.306571  1
  Ga  Ga26  1  0.920260  0.693634  0.693053  1
  Ga  Ga27  1  0.306444  0.306615  0.080497  1
  Ga  Ga28  1  0.080497  0.306615  0.306444  1
  Ga  Ga29  1  0.306444  0.306615  0.306444  1
  Sn  Sn30  1  0.784721  0.215295  0.784721  1
  Sn  Sn31  1  0.784721  0.215295  0.215263  1
  Sn  Sn32  1  0.215350  0.784651  0.215350  1
  Sn  Sn33  1  0.215350  0.784651  0.784649  1
  Sn  Sn34  1  0.784649  0.784651  0.215350  1
  Sn  Sn35  1  0.215263  0.215295  0.784721  1
