# generated using pymatgen
data_TbEr7Cd2NiRu
_symmetry_space_group_name_H-M   'P 1'
_cell_length_a   9.51183137
_cell_length_b   9.51183033
_cell_length_c   9.55994500
_cell_angle_alpha   59.83252433
_cell_angle_beta   59.83252799
_cell_angle_gamma   59.65666531
_symmetry_Int_Tables_number   1
_chemical_formula_structural   TbEr7Cd2NiRu
_chemical_formula_sum   'Tb2 Er14 Cd4 Ni2 Ru2'
_cell_volume   608.45821323
_cell_formula_units_Z   2
loop_
 _symmetry_equiv_pos_site_id
 _symmetry_equiv_pos_as_xyz
  1  'x, y, z'
loop_
 _atom_site_type_symbol
 _atom_site_label
 _atom_site_symmetry_multiplicity
 _atom_site_fract_x
 _atom_site_fract_y
 _atom_site_fract_z
 _atom_site_occupancy
  Tb  Tb0  1  0.565429  0.565429  0.934571  1
  Tb  Tb1  1  0.939666  0.939666  0.560334  1
  Er  Er2  1  0.349111  0.349111  0.344133  1
  Er  Er3  1  0.349111  0.349111  0.957645  1
  Er  Er4  1  0.351260  0.955648  0.346546  1
  Er  Er5  1  0.955648  0.351260  0.346546  1
  Er  Er6  1  0.811443  0.186904  0.189280  1
  Er  Er7  1  0.186904  0.811443  0.812373  1
  Er  Er8  1  0.186904  0.811443  0.189280  1
  Er  Er9  1  0.811443  0.186904  0.812373  1
  Er  Er10  1  0.188119  0.188119  0.811881  1
  Er  Er11  1  0.810632  0.810632  0.189368  1
  Er  Er12  1  0.938261  0.558702  0.565820  1
  Er  Er13  1  0.558702  0.938261  0.937216  1
  Er  Er14  1  0.558702  0.938261  0.565820  1
  Er  Er15  1  0.938261  0.558702  0.937216  1
  Cd  Cd16  1  0.579677  0.579677  0.582030  1
  Cd  Cd17  1  0.579677  0.579677  0.258616  1
  Cd  Cd18  1  0.580260  0.256558  0.581590  1
  Cd  Cd19  1  0.256558  0.580260  0.581590  1
  Ni  Ni20  1  0.142060  0.575476  0.141232  1
  Ni  Ni21  1  0.575476  0.142060  0.141232  1
  Ru  Ru22  1  0.143345  0.143345  0.138689  1
  Ru  Ru23  1  0.143345  0.143345  0.574619  1
