# generated using pymatgen
data_TaTcNiB2
_symmetry_space_group_name_H-M   'P 1'
_cell_length_a   4.59118052
_cell_length_b   4.59117864
_cell_length_c   4.59118023
_cell_angle_alpha   140.01288052
_cell_angle_beta   119.63173741
_cell_angle_gamma   74.89360424
_symmetry_Int_Tables_number   1
_chemical_formula_structural   TaTcNiB2
_chemical_formula_sum   'Ta1 Tc1 Ni1 B2'
_cell_volume   52.83292759
_cell_formula_units_Z   1
loop_
 _symmetry_equiv_pos_site_id
 _symmetry_equiv_pos_as_xyz
  1  'x, y, z'
loop_
 _atom_site_type_symbol
 _atom_site_label
 _atom_site_symmetry_multiplicity
 _atom_site_fract_x
 _atom_site_fract_y
 _atom_site_fract_z
 _atom_site_occupancy
  Ta  Ta0  1  0.702804  0.202804  0.500000  1
  Tc  Tc1  1  0.304787  0.804787  0.500000  1
  Ni  Ni2  1  0.002149  0.002149  0.000000  1
  B  B3  1  0.692091  0.495130  0.196962  1
  B  B4  1  0.298167  0.495130  0.803038  1
