# generated using pymatgen
data_Er5Sc3(Co4As3)4
_symmetry_space_group_name_H-M   'P 1'
_cell_length_a   12.60727300
_cell_length_b   12.60727315
_cell_length_c   3.81858100
_cell_angle_alpha   90.00000000
_cell_angle_beta   90.00000000
_cell_angle_gamma   120.00000747
_symmetry_Int_Tables_number   1
_chemical_formula_structural   Er5Sc3(Co4As3)4
_chemical_formula_sum   'Er5 Sc3 Co16 As12'
_cell_volume   525.62368423
_cell_formula_units_Z   1
loop_
 _symmetry_equiv_pos_site_id
 _symmetry_equiv_pos_as_xyz
  1  'x, y, z'
loop_
 _atom_site_type_symbol
 _atom_site_label
 _atom_site_symmetry_multiplicity
 _atom_site_fract_x
 _atom_site_fract_y
 _atom_site_fract_z
 _atom_site_occupancy
  Er  Er0  1  0.184394  0.184394  0.500000  1
  Er  Er1  1  0.815606  0.000000  0.500000  1
  Er  Er2  1  0.000000  0.815606  0.500000  1
  Er  Er3  1  0.333333  0.666667  0.000000  1
  Er  Er4  1  0.666667  0.333333  0.000000  1
  Sc  Sc5  1  0.561368  0.561368  0.000000  1
  Sc  Sc6  1  0.438632  0.000000  0.000000  1
  Sc  Sc7  1  0.000000  0.438632  0.000000  1
  Co  Co8  1  0.719947  0.719947  0.500000  1
  Co  Co9  1  0.280053  0.000000  0.500000  1
  Co  Co10  1  0.000000  0.280053  0.500000  1
  Co  Co11  1  0.178270  0.374349  0.000000  1
  Co  Co12  1  0.625651  0.803921  0.000000  1
  Co  Co13  1  0.196079  0.821730  0.000000  1
  Co  Co14  1  0.803921  0.625651  0.000000  1
  Co  Co15  1  0.821730  0.196079  0.000000  1
  Co  Co16  1  0.374349  0.178270  0.000000  1
  Co  Co17  1  0.355505  0.478948  0.500000  1
  Co  Co18  1  0.521052  0.876558  0.500000  1
  Co  Co19  1  0.123442  0.644495  0.500000  1
  Co  Co20  1  0.876558  0.521052  0.500000  1
  Co  Co21  1  0.644495  0.123442  0.500000  1
  Co  Co22  1  0.478948  0.355505  0.500000  1
  Co  Co23  1  0.000000  0.000000  0.000000  1
  As  As24  1  0.822170  0.822170  0.000000  1
  As  As25  1  0.177830  0.000000  0.000000  1
  As  As26  1  0.000000  0.177830  0.000000  1
  As  As27  1  0.171708  0.482514  0.500000  1
  As  As28  1  0.517486  0.689194  0.500000  1
  As  As29  1  0.310806  0.828292  0.500000  1
  As  As30  1  0.689194  0.517486  0.500000  1
  As  As31  1  0.828292  0.310806  0.500000  1
  As  As32  1  0.482514  0.171708  0.500000  1
  As  As33  1  0.354524  0.354524  0.000000  1
  As  As34  1  0.645476  0.000000  0.000000  1
  As  As35  1  0.000000  0.645476  0.000000  1
