# generated using pymatgen
data_K4NdUTe6
_symmetry_space_group_name_H-M   'P 1'
_cell_length_a   8.14675753
_cell_length_b   8.14675733
_cell_length_c   8.64015085
_cell_angle_alpha   80.81287641
_cell_angle_beta   80.81287794
_cell_angle_gamma   120.05572540
_symmetry_Int_Tables_number   1
_chemical_formula_structural   K4NdUTe6
_chemical_formula_sum   'K4 Nd1 U1 Te6'
_cell_volume   470.30821613
_cell_formula_units_Z   1
loop_
 _symmetry_equiv_pos_site_id
 _symmetry_equiv_pos_as_xyz
  1  'x, y, z'
loop_
 _atom_site_type_symbol
 _atom_site_label
 _atom_site_symmetry_multiplicity
 _atom_site_fract_x
 _atom_site_fract_y
 _atom_site_fract_z
 _atom_site_occupancy
  K  K0  1  0.344557  0.655443  0.500000  1
  K  K1  1  0.655126  0.344874  0.500000  1
  K  K2  1  0.000097  0.999903  0.500000  1
  K  K3  1  0.499976  0.500024  0.000000  1
  Nd  Nd4  1  0.167894  0.832106  0.000000  1
  U  U5  1  0.832285  0.167715  0.000000  1
  Te  Te6  1  0.788887  0.804745  0.211145  1
  Te  Te7  1  0.443343  0.065576  0.214537  1
  Te  Te8  1  0.048357  0.410202  0.213442  1
  Te  Te9  1  0.589798  0.951643  0.786558  1
  Te  Te10  1  0.934424  0.556657  0.785463  1
  Te  Te11  1  0.195255  0.211113  0.788855  1
