# generated using pymatgen
data_MnCrCd(P2O7)2
_symmetry_space_group_name_H-M   'P 1'
_cell_length_a   4.88857876
_cell_length_b   7.09073824
_cell_length_c   7.97372436
_cell_angle_alpha   87.34790538
_cell_angle_beta   85.57743237
_cell_angle_gamma   71.96225659
_symmetry_Int_Tables_number   1
_chemical_formula_structural   MnCrCd(P2O7)2
_chemical_formula_sum   'Mn1 Cr1 Cd1 P4 O14'
_cell_volume   261.95837837
_cell_formula_units_Z   1
loop_
 _symmetry_equiv_pos_site_id
 _symmetry_equiv_pos_as_xyz
  1  'x, y, z'
loop_
 _atom_site_type_symbol
 _atom_site_label
 _atom_site_symmetry_multiplicity
 _atom_site_fract_x
 _atom_site_fract_y
 _atom_site_fract_z
 _atom_site_occupancy
  Mn  Mn0  1  0.000052  0.999910  0.500057  1
  Cr  Cr1  1  0.499906  0.500104  0.000045  1
  Cd  Cd2  1  0.999787  0.000170  0.000004  1
  P  P3  1  0.980296  0.617870  0.752657  1
  P  P4  1  0.019778  0.382082  0.247306  1
  P  P5  1  0.399726  0.214251  0.725601  1
  P  P6  1  0.600405  0.785712  0.274419  1
  O  O7  1  0.214723  0.433618  0.665026  1
  O  O8  1  0.785305  0.566299  0.334920  1
  O  O9  1  0.118697  0.667112  0.908098  1
  O  O10  1  0.881202  0.333008  0.091868  1
  O  O11  1  0.518385  0.234838  0.897146  1
  O  O12  1  0.481532  0.765369  0.102881  1
  O  O13  1  0.707983  0.562910  0.797100  1
  O  O14  1  0.372329  0.838356  0.419387  1
  O  O15  1  0.627878  0.161443  0.580690  1
  O  O16  1  0.201733  0.082075  0.746365  1
  O  O17  1  0.292118  0.437030  0.202866  1
  O  O18  1  0.077489  0.214470  0.376747  1
  O  O19  1  0.922347  0.785441  0.623152  1
  O  O20  1  0.798331  0.917931  0.253662  1
