# generated using pymatgen
data_Ho8Re3RuC8
_symmetry_space_group_name_H-M   'P 1'
_cell_length_a   5.08574700
_cell_length_b   6.54150311
_cell_length_c   9.80756466
_cell_angle_alpha   90.11169861
_cell_angle_beta   90.00000000
_cell_angle_gamma   90.00000000
_symmetry_Int_Tables_number   1
_chemical_formula_structural   Ho8Re3RuC8
_chemical_formula_sum   'Ho8 Re3 Ru1 C8'
_cell_volume   326.28165640
_cell_formula_units_Z   1
loop_
 _symmetry_equiv_pos_site_id
 _symmetry_equiv_pos_as_xyz
  1  'x, y, z'
loop_
 _atom_site_type_symbol
 _atom_site_label
 _atom_site_symmetry_multiplicity
 _atom_site_fract_x
 _atom_site_fract_y
 _atom_site_fract_z
 _atom_site_occupancy
  Ho  Ho0  1  0.250000  0.467345  0.783892  1
  Ho  Ho1  1  0.750000  0.033568  0.284064  1
  Ho  Ho2  1  0.250000  0.968168  0.717204  1
  Ho  Ho3  1  0.750000  0.531662  0.214281  1
  Ho  Ho4  1  0.250000  0.825420  0.055194  1
  Ho  Ho5  1  0.750000  0.679038  0.556720  1
  Ho  Ho6  1  0.250000  0.320159  0.442819  1
  Ho  Ho7  1  0.750000  0.179193  0.942857  1
  Re  Re8  1  0.750000  0.219947  0.632334  1
  Re  Re9  1  0.250000  0.780648  0.366194  1
  Re  Re10  1  0.750000  0.720360  0.867214  1
  Ru  Ru11  1  0.250000  0.280026  0.133656  1
  C  C12  1  0.250000  0.173292  0.949576  1
  C  C13  1  0.750000  0.822865  0.052891  1
  C  C14  1  0.250000  0.675540  0.551186  1
  C  C15  1  0.750000  0.323164  0.447372  1
  C  C16  1  0.250000  0.045348  0.259646  1
  C  C17  1  0.750000  0.453501  0.759019  1
  C  C18  1  0.250000  0.547808  0.243224  1
  C  C19  1  0.750000  0.952948  0.740657  1
