# generated using pymatgen
data_Ca2Dy3Tm(Si3Os)8
_symmetry_space_group_name_H-M   'P 1'
_cell_length_a   10.14765016
_cell_length_b   10.14728518
_cell_length_c   8.16952207
_cell_angle_alpha   89.97034924
_cell_angle_beta   90.02813622
_cell_angle_gamma   132.49134287
_symmetry_Int_Tables_number   1
_chemical_formula_structural   Ca2Dy3Tm(Si3Os)8
_chemical_formula_sum   'Ca2 Dy3 Tm1 Si24 Os8'
_cell_volume   620.30165736
_cell_formula_units_Z   1
loop_
 _symmetry_equiv_pos_site_id
 _symmetry_equiv_pos_as_xyz
  1  'x, y, z'
loop_
 _atom_site_type_symbol
 _atom_site_label
 _atom_site_symmetry_multiplicity
 _atom_site_fract_x
 _atom_site_fract_y
 _atom_site_fract_z
 _atom_site_occupancy
  Ca  Ca0  1  0.500271  0.000234  0.750205  1
  Ca  Ca1  1  0.000280  0.000307  0.000001  1
  Dy  Dy2  1  0.001481  0.501488  0.249524  1
  Dy  Dy3  1  0.497360  0.997336  0.249432  1
  Dy  Dy4  1  0.002726  0.502666  0.750670  1
  Tm  Tm5  1  0.500421  0.500411  0.500243  1
  Si  Si6  1  0.795218  0.203291  0.500854  1
  Si  Si7  1  0.702393  0.295567  0.998953  1
  Si  Si8  1  0.206087  0.796766  0.501779  1
  Si  Si9  1  0.297623  0.705586  0.998127  1
  Si  Si10  1  0.664643  0.673451  0.165930  1
  Si  Si11  1  0.170435  0.162918  0.331575  1
  Si  Si12  1  0.837294  0.831174  0.668857  1
  Si  Si13  1  0.328085  0.335245  0.833659  1
  Si  Si14  1  0.845727  0.614350  0.991738  1
  Si  Si15  1  0.112403  0.344350  0.507661  1
  Si  Si16  1  0.653293  0.886793  0.492147  1
  Si  Si17  1  0.384727  0.151746  0.008674  1
  Si  Si18  1  0.154017  0.386794  0.004236  1
  Si  Si19  1  0.888820  0.655371  0.495731  1
  Si  Si20  1  0.120951  0.886764  0.730284  1
  Si  Si21  1  0.386854  0.620974  0.770957  1
  Si  Si22  1  0.377830  0.611131  0.227388  1
  Si  Si23  1  0.111260  0.878064  0.271370  1
  Si  Si24  1  0.875652  0.108139  0.270684  1
  Si  Si25  1  0.607809  0.374921  0.228373  1
  Si  Si26  1  0.625867  0.392324  0.770035  1
  Si  Si27  1  0.891777  0.124973  0.730866  1
  Si  Si28  1  0.613787  0.847185  0.997265  1
  Si  Si29  1  0.345769  0.111740  0.502804  1
  Os  Os30  1  0.624865  0.624928  0.870548  1
  Os  Os31  1  0.129198  0.128598  0.625368  1
  Os  Os32  1  0.375656  0.374951  0.128568  1
  Os  Os33  1  0.871172  0.871462  0.375325  1
  Os  Os34  1  0.167715  0.826986  0.002544  1
  Os  Os35  1  0.328664  0.666348  0.497578  1
  Os  Os36  1  0.830063  0.173297  0.002341  1
  Os  Os37  1  0.671811  0.331371  0.497710  1
