# generated using pymatgen
data_TlCr4Tc2Se7
_symmetry_space_group_name_H-M   'P 1'
_cell_length_a   9.56723898
_cell_length_b   9.60446744
_cell_length_c   9.56008900
_cell_angle_alpha   61.27517278
_cell_angle_beta   61.58063916
_cell_angle_gamma   61.57048578
_symmetry_Int_Tables_number   1
_chemical_formula_structural   TlCr4Tc2Se7
_chemical_formula_sum   'Tl2 Cr8 Tc4 Se14'
_cell_volume   641.72989159
_cell_formula_units_Z   2
loop_
 _symmetry_equiv_pos_site_id
 _symmetry_equiv_pos_as_xyz
  1  'x, y, z'
loop_
 _atom_site_type_symbol
 _atom_site_label
 _atom_site_symmetry_multiplicity
 _atom_site_fract_x
 _atom_site_fract_y
 _atom_site_fract_z
 _atom_site_occupancy
  Tl  Tl0  1  0.376781  0.378213  0.382542  1
  Tl  Tl1  1  0.620011  0.618860  0.621713  1
  Cr  Cr2  1  0.289480  0.123296  0.996894  1
  Cr  Cr3  1  0.186946  0.897003  0.056488  1
  Cr  Cr4  1  0.893699  0.057381  0.189232  1
  Cr  Cr5  1  0.942879  0.811987  0.106033  1
  Cr  Cr6  1  0.808361  0.105939  0.943493  1
  Cr  Cr7  1  0.103776  0.944738  0.811270  1
  Cr  Cr8  1  0.998548  0.289073  0.122742  1
  Cr  Cr9  1  0.876667  0.003220  0.710519  1
  Tc  Tc10  1  0.123820  0.995196  0.292847  1
  Tc  Tc11  1  0.008227  0.705312  0.876501  1
  Tc  Tc12  1  0.704783  0.875194  0.007232  1
  Tc  Tc13  1  0.054918  0.194095  0.888928  1
  Se  Se14  1  0.968095  0.237396  0.648315  1
  Se  Se15  1  0.240367  0.655365  0.975736  1
  Se  Se16  1  0.652478  0.973848  0.240959  1
  Se  Se17  1  0.023736  0.761094  0.347770  1
  Se  Se18  1  0.757360  0.348656  0.030192  1
  Se  Se19  1  0.350603  0.024343  0.762003  1
  Se  Se20  1  0.172021  0.413706  0.820747  1
  Se  Se21  1  0.413530  0.815953  0.162501  1
  Se  Se22  1  0.820120  0.164744  0.413493  1
  Se  Se23  1  0.840278  0.580268  0.185283  1
  Se  Se24  1  0.585860  0.177801  0.834616  1
  Se  Se25  1  0.183282  0.840136  0.585821  1
  Se  Se26  1  0.778987  0.781276  0.771062  1
  Se  Se27  1  0.224389  0.225906  0.215070  1
