# generated using pymatgen
data_NaNd2Ge3P3Pd20
_symmetry_space_group_name_H-M   'P 1'
_cell_length_a   8.75017609
_cell_length_b   8.80259907
_cell_length_c   8.83213242
_cell_angle_alpha   59.49620668
_cell_angle_beta   60.08399991
_cell_angle_gamma   60.41979010
_symmetry_Int_Tables_number   1
_chemical_formula_structural   NaNd2Ge3P3Pd20
_chemical_formula_sum   'Na1 Nd2 Ge3 P3 Pd20'
_cell_volume   480.97287987
_cell_formula_units_Z   1
loop_
 _symmetry_equiv_pos_site_id
 _symmetry_equiv_pos_as_xyz
  1  'x, y, z'
loop_
 _atom_site_type_symbol
 _atom_site_label
 _atom_site_symmetry_multiplicity
 _atom_site_fract_x
 _atom_site_fract_y
 _atom_site_fract_z
 _atom_site_occupancy
  Na  Na0  1  0.000545  0.999455  0.000545  1
  Nd  Nd1  1  0.249084  0.250916  0.249084  1
  Nd  Nd2  1  0.749084  0.750916  0.749084  1
  Ge  Ge3  1  0.736990  0.263010  0.259859  1
  Ge  Ge4  1  0.259859  0.740141  0.736990  1
  Ge  Ge5  1  0.262035  0.737965  0.262035  1
  P  P6  1  0.737237  0.262763  0.737237  1
  P  P7  1  0.261385  0.264053  0.735947  1
  P  P8  1  0.735947  0.738615  0.261385  1
  Pd  Pd9  1  0.382207  0.381807  0.391835  1
  Pd  Pd10  1  0.620053  0.610035  0.612282  1
  Pd  Pd11  1  0.389965  0.379947  0.842371  1
  Pd  Pd12  1  0.391835  0.844153  0.382207  1
  Pd  Pd13  1  0.618193  0.617793  0.155847  1
  Pd  Pd14  1  0.612282  0.157629  0.620053  1
  Pd  Pd15  1  0.842371  0.387718  0.389965  1
  Pd  Pd16  1  0.155847  0.608165  0.618193  1
  Pd  Pd17  1  0.348163  0.008726  0.991274  1
  Pd  Pd18  1  0.656242  0.999245  0.000755  1
  Pd  Pd19  1  0.000755  0.343758  0.656242  1
  Pd  Pd20  1  0.991274  0.651837  0.348163  1
  Pd  Pd21  1  0.010243  0.347361  0.990495  1
  Pd  Pd22  1  0.652639  0.989757  0.348100  1
  Pd  Pd23  1  0.990495  0.651900  0.010243  1
  Pd  Pd24  1  0.348100  0.009505  0.652639  1
  Pd  Pd25  1  0.000847  0.999153  0.352267  1
  Pd  Pd26  1  0.990011  0.009989  0.654039  1
  Pd  Pd27  1  0.654039  0.345961  0.990011  1
  Pd  Pd28  1  0.352267  0.647733  0.000847  1
