# generated using pymatgen
data_Ho5ZrCo5
_symmetry_space_group_name_H-M   'P 1'
_cell_length_a   5.69795051
_cell_length_b   5.69795114
_cell_length_c   20.91874100
_cell_angle_alpha   90.00000000
_cell_angle_beta   90.00000000
_cell_angle_gamma   139.83719391
_symmetry_Int_Tables_number   1
_chemical_formula_structural   Ho5ZrCo5
_chemical_formula_sum   'Ho10 Zr2 Co10'
_cell_volume   438.03305189
_cell_formula_units_Z   2
loop_
 _symmetry_equiv_pos_site_id
 _symmetry_equiv_pos_as_xyz
  1  'x, y, z'
loop_
 _atom_site_type_symbol
 _atom_site_label
 _atom_site_symmetry_multiplicity
 _atom_site_fract_x
 _atom_site_fract_y
 _atom_site_fract_z
 _atom_site_occupancy
  Ho  Ho0  1  0.284169  0.715831  0.250000  1
  Ho  Ho1  1  0.288152  0.711848  0.070272  1
  Ho  Ho2  1  0.995869  0.004131  0.838172  1
  Ho  Ho3  1  0.715831  0.284169  0.750000  1
  Ho  Ho4  1  0.711848  0.288152  0.570272  1
  Ho  Ho5  1  0.004131  0.995869  0.338172  1
  Ho  Ho6  1  0.995869  0.004131  0.661828  1
  Ho  Ho7  1  0.711848  0.288152  0.929728  1
  Ho  Ho8  1  0.004131  0.995869  0.161828  1
  Ho  Ho9  1  0.288152  0.711848  0.429728  1
  Zr  Zr10  1  0.000000  0.000000  0.500000  1
  Zr  Zr11  1  0.000000  0.000000  0.000000  1
  Co  Co12  1  0.296216  0.703784  0.655689  1
  Co  Co13  1  0.583722  0.416278  0.436218  1
  Co  Co14  1  0.412541  0.587459  0.750000  1
  Co  Co15  1  0.416278  0.583722  0.936218  1
  Co  Co16  1  0.587459  0.412541  0.250000  1
  Co  Co17  1  0.416278  0.583722  0.563782  1
  Co  Co18  1  0.703784  0.296216  0.344311  1
  Co  Co19  1  0.703784  0.296216  0.155689  1
  Co  Co20  1  0.583722  0.416278  0.063782  1
  Co  Co21  1  0.296216  0.703784  0.844311  1
