# generated using pymatgen
data_Ho12Co4IrPb
_symmetry_space_group_name_H-M   'P 1'
_cell_length_a   8.28641797
_cell_length_b   8.28628161
_cell_length_c   8.28641820
_cell_angle_alpha   111.08538263
_cell_angle_beta   110.48349402
_cell_angle_gamma   106.87676822
_symmetry_Int_Tables_number   1
_chemical_formula_structural   Ho12Co4IrPb
_chemical_formula_sum   'Ho12 Co4 Ir1 Pb1'
_cell_volume   437.31138889
_cell_formula_units_Z   1
loop_
 _symmetry_equiv_pos_site_id
 _symmetry_equiv_pos_as_xyz
  1  'x, y, z'
loop_
 _atom_site_type_symbol
 _atom_site_label
 _atom_site_symmetry_multiplicity
 _atom_site_fract_x
 _atom_site_fract_y
 _atom_site_fract_z
 _atom_site_occupancy
  Ho  Ho0  1  0.314190  0.621485  0.307295  1
  Ho  Ho1  1  0.685810  0.378515  0.692705  1
  Ho  Ho2  1  0.314179  0.006902  0.692725  1
  Ho  Ho3  1  0.685821  0.993098  0.307275  1
  Ho  Ho4  1  0.182303  0.285915  0.468220  1
  Ho  Ho5  1  0.817697  0.714085  0.531780  1
  Ho  Ho6  1  0.182305  0.714085  0.896388  1
  Ho  Ho7  1  0.817695  0.285915  0.103612  1
  Ho  Ho8  1  0.410533  0.214104  0.196408  1
  Ho  Ho9  1  0.589467  0.785896  0.803592  1
  Ho  Ho10  1  0.017696  0.214104  0.803571  1
  Ho  Ho11  1  0.982304  0.785896  0.196429  1
  Co  Co12  1  0.111359  0.611361  0.500002  1
  Co  Co13  1  0.888641  0.388639  0.499998  1
  Co  Co14  1  0.377014  0.000000  0.377014  1
  Co  Co15  1  0.622986  0.000000  0.622986  1
  Ir  Ir16  1  0.000000  0.000000  0.000000  1
  Pb  Pb17  1  0.500000  0.500000  0.000000  1
