# generated using pymatgen
data_Dy6ErTm(OsC2)4
_symmetry_space_group_name_H-M   'P 1'
_cell_length_a   5.12446100
_cell_length_b   6.43945969
_cell_length_c   9.76643627
_cell_angle_alpha   90.26627098
_cell_angle_beta   90.00000000
_cell_angle_gamma   90.00000000
_symmetry_Int_Tables_number   1
_chemical_formula_structural   Dy6ErTm(OsC2)4
_chemical_formula_sum   'Dy6 Er1 Tm1 Os4 C8'
_cell_volume   322.27680675
_cell_formula_units_Z   1
loop_
 _symmetry_equiv_pos_site_id
 _symmetry_equiv_pos_as_xyz
  1  'x, y, z'
loop_
 _atom_site_type_symbol
 _atom_site_label
 _atom_site_symmetry_multiplicity
 _atom_site_fract_x
 _atom_site_fract_y
 _atom_site_fract_z
 _atom_site_occupancy
  Dy  Dy0  1  0.750000  0.814921  0.052482  1
  Dy  Dy1  1  0.250000  0.185106  0.947575  1
  Dy  Dy2  1  0.250000  0.525694  0.220380  1
  Dy  Dy3  1  0.750000  0.474145  0.779551  1
  Dy  Dy4  1  0.750000  0.974561  0.717079  1
  Dy  Dy5  1  0.250000  0.025553  0.282930  1
  Er  Er6  1  0.250000  0.681235  0.552692  1
  Tm  Tm7  1  0.750000  0.319405  0.446949  1
  Os  Os8  1  0.250000  0.726254  0.864099  1
  Os  Os9  1  0.750000  0.273731  0.136062  1
  Os  Os10  1  0.750000  0.774607  0.366935  1
  Os  Os11  1  0.250000  0.225273  0.632921  1
  C  C12  1  0.250000  0.461749  0.756752  1
  C  C13  1  0.750000  0.538065  0.243437  1
  C  C14  1  0.750000  0.038859  0.259991  1
  C  C15  1  0.250000  0.961282  0.740265  1
  C  C16  1  0.250000  0.824477  0.052713  1
  C  C17  1  0.750000  0.175525  0.947298  1
  C  C18  1  0.750000  0.671041  0.554024  1
  C  C19  1  0.250000  0.328517  0.445865  1
