# generated using pymatgen
data_Y20Cd6ReRh
_symmetry_space_group_name_H-M   'P 1'
_cell_length_a   9.66896700
_cell_length_b   9.66896671
_cell_length_c   9.88827300
_cell_angle_alpha   90.00000000
_cell_angle_beta   90.00000000
_cell_angle_gamma   119.99999758
_symmetry_Int_Tables_number   1
_chemical_formula_structural   Y20Cd6ReRh
_chemical_formula_sum   'Y20 Cd6 Re1 Rh1'
_cell_volume   800.59197628
_cell_formula_units_Z   1
loop_
 _symmetry_equiv_pos_site_id
 _symmetry_equiv_pos_as_xyz
  1  'x, y, z'
loop_
 _atom_site_type_symbol
 _atom_site_label
 _atom_site_symmetry_multiplicity
 _atom_site_fract_x
 _atom_site_fract_y
 _atom_site_fract_z
 _atom_site_occupancy
  Y  Y0  1  0.000000  0.000000  0.500235  1
  Y  Y1  1  0.000000  0.000000  0.999765  1
  Y  Y2  1  0.209466  0.790534  0.441530  1
  Y  Y3  1  0.209466  0.418933  0.441530  1
  Y  Y4  1  0.581067  0.790534  0.441530  1
  Y  Y5  1  0.790555  0.209445  0.559109  1
  Y  Y6  1  0.790555  0.581109  0.559109  1
  Y  Y7  1  0.418891  0.209445  0.559109  1
  Y  Y8  1  0.790555  0.209445  0.940891  1
  Y  Y9  1  0.790555  0.581109  0.940891  1
  Y  Y10  1  0.418891  0.209445  0.940891  1
  Y  Y11  1  0.209466  0.790534  0.058470  1
  Y  Y12  1  0.209466  0.418933  0.058470  1
  Y  Y13  1  0.581067  0.790534  0.058470  1
  Y  Y14  1  0.538831  0.461169  0.250000  1
  Y  Y15  1  0.538831  0.077662  0.250000  1
  Y  Y16  1  0.922338  0.461169  0.250000  1
  Y  Y17  1  0.457831  0.542169  0.750000  1
  Y  Y18  1  0.457831  0.915662  0.750000  1
  Y  Y19  1  0.084338  0.542169  0.750000  1
  Cd  Cd20  1  0.885268  0.114732  0.250000  1
  Cd  Cd21  1  0.885268  0.770536  0.250000  1
  Cd  Cd22  1  0.229464  0.114732  0.250000  1
  Cd  Cd23  1  0.114364  0.885636  0.750000  1
  Cd  Cd24  1  0.114364  0.228727  0.750000  1
  Cd  Cd25  1  0.771273  0.885636  0.750000  1
  Re  Re26  1  0.333333  0.666667  0.250000  1
  Rh  Rh27  1  0.666667  0.333333  0.750000  1
