# generated using pymatgen
data_Nd20Pt5Rh7
_symmetry_space_group_name_H-M   'P 1'
_cell_length_a   11.39079712
_cell_length_b   11.39079690
_cell_length_c   6.54927709
_cell_angle_alpha   89.97328731
_cell_angle_beta   89.97329230
_cell_angle_gamma   90.10627716
_symmetry_Int_Tables_number   1
_chemical_formula_structural   Nd20Pt5Rh7
_chemical_formula_sum   'Nd20 Pt5 Rh7'
_cell_volume   849.76873620
_cell_formula_units_Z   1
loop_
 _symmetry_equiv_pos_site_id
 _symmetry_equiv_pos_as_xyz
  1  'x, y, z'
loop_
 _atom_site_type_symbol
 _atom_site_label
 _atom_site_symmetry_multiplicity
 _atom_site_fract_x
 _atom_site_fract_y
 _atom_site_fract_z
 _atom_site_occupancy
  Nd  Nd0  1  0.092749  0.295505  0.122074  1
  Nd  Nd1  1  0.794906  0.411505  0.122327  1
  Nd  Nd2  1  0.205430  0.591125  0.122106  1
  Nd  Nd3  1  0.909080  0.706762  0.122334  1
  Nd  Nd4  1  0.408875  0.794570  0.377894  1
  Nd  Nd5  1  0.588495  0.205094  0.377673  1
  Nd  Nd6  1  0.293238  0.090920  0.377666  1
  Nd  Nd7  1  0.704495  0.907251  0.377926  1
  Nd  Nd8  1  0.408826  0.208613  0.881917  1
  Nd  Nd9  1  0.706280  0.088509  0.876689  1
  Nd  Nd10  1  0.292649  0.909632  0.881043  1
  Nd  Nd11  1  0.590231  0.791076  0.882322  1
  Nd  Nd12  1  0.090368  0.707351  0.618957  1
  Nd  Nd13  1  0.911491  0.293720  0.623311  1
  Nd  Nd14  1  0.208924  0.409769  0.617678  1
  Nd  Nd15  1  0.791387  0.591174  0.618083  1
  Nd  Nd16  1  0.001922  0.999304  0.001803  1
  Nd  Nd17  1  0.499710  0.499611  0.001742  1
  Nd  Nd18  1  0.500389  0.500290  0.498258  1
  Nd  Nd19  1  0.000696  0.998078  0.498197  1
  Pt  Pt20  1  0.845392  0.154608  0.250000  1
  Pt  Pt21  1  0.344458  0.655542  0.750000  1
  Pt  Pt22  1  0.154454  0.155148  0.749785  1
  Pt  Pt23  1  0.844852  0.845546  0.750215  1
  Pt  Pt24  1  0.655779  0.344221  0.750000  1
  Rh  Rh25  1  0.154190  0.845810  0.250000  1
  Rh  Rh26  1  0.347823  0.346394  0.250990  1
  Rh  Rh27  1  0.653606  0.652177  0.249010  1
  Rh  Rh28  1  0.999898  0.499695  0.382970  1
  Rh  Rh29  1  0.500305  0.000102  0.117030  1
  Rh  Rh30  1  0.499768  0.000665  0.622834  1
  Rh  Rh31  1  0.999335  0.500232  0.877166  1
