# generated using pymatgen
data_BaNaSb2Pt
_symmetry_space_group_name_H-M   'P 1'
_cell_length_a   4.92076800
_cell_length_b   4.92076800
_cell_length_c   11.97361400
_cell_angle_alpha   90.00000000
_cell_angle_beta   90.00000000
_cell_angle_gamma   90.00000000
_symmetry_Int_Tables_number   1
_chemical_formula_structural   BaNaSb2Pt
_chemical_formula_sum   'Ba2 Na2 Sb4 Pt2'
_cell_volume   289.92858303
_cell_formula_units_Z   2
loop_
 _symmetry_equiv_pos_site_id
 _symmetry_equiv_pos_as_xyz
  1  'x, y, z'
loop_
 _atom_site_type_symbol
 _atom_site_label
 _atom_site_symmetry_multiplicity
 _atom_site_fract_x
 _atom_site_fract_y
 _atom_site_fract_z
 _atom_site_occupancy
  Ba  Ba0  1  0.500000  0.000000  0.723971  1
  Ba  Ba1  1  0.000000  0.500000  0.276029  1
  Na  Na2  1  0.000000  0.000000  0.000000  1
  Na  Na3  1  0.500000  0.500000  0.000000  1
  Sb  Sb4  1  0.000000  0.000000  0.500000  1
  Sb  Sb5  1  0.500000  0.500000  0.500000  1
  Sb  Sb6  1  0.500000  0.000000  0.173534  1
  Sb  Sb7  1  0.000000  0.500000  0.826466  1
  Pt  Pt8  1  0.500000  0.000000  0.399831  1
  Pt  Pt9  1  0.000000  0.500000  0.600169  1
