# generated using pymatgen
data_S3Br4
_symmetry_space_group_name_H-M   'P 1'
_cell_length_a   6.26306264
_cell_length_b   4.44442683
_cell_length_c   14.69092009
_cell_angle_alpha   86.50462083
_cell_angle_beta   133.01111499
_cell_angle_gamma   103.60157569
_symmetry_Int_Tables_number   1
_chemical_formula_structural   S3Br4
_chemical_formula_sum   'S3 Br4'
_cell_volume   287.77452570
_cell_formula_units_Z   1
loop_
 _symmetry_equiv_pos_site_id
 _symmetry_equiv_pos_as_xyz
  1  'x, y, z'
loop_
 _atom_site_type_symbol
 _atom_site_label
 _atom_site_symmetry_multiplicity
 _atom_site_fract_x
 _atom_site_fract_y
 _atom_site_fract_z
 _atom_site_occupancy
  S  S0  1  0.234165  0.590376  0.405021  1
  S  S1  1  0.479641  0.996391  0.415005  1
  S  S2  1  0.185073  0.273632  0.284872  1
  Br  Br3  1  0.653228  0.787788  0.794588  1
  Br  Br4  1  0.203938  0.905166  0.602226  1
  Br  Br5  1  0.115831  0.571812  0.004162  1
  Br  Br6  1  0.638106  0.919783  0.144065  1
