# generated using pymatgen
data_Zr4TaNb3SiP3
_symmetry_space_group_name_H-M   'P 1'
_cell_length_a   3.58217300
_cell_length_b   6.96605070
_cell_length_c   8.41177103
_cell_angle_alpha   89.79672417
_cell_angle_beta   90.00000000
_cell_angle_gamma   90.00000000
_symmetry_Int_Tables_number   1
_chemical_formula_structural   Zr4TaNb3SiP3
_chemical_formula_sum   'Zr4 Ta1 Nb3 Si1 P3'
_cell_volume   209.90263802
_cell_formula_units_Z   1
loop_
 _symmetry_equiv_pos_site_id
 _symmetry_equiv_pos_as_xyz
  1  'x, y, z'
loop_
 _atom_site_type_symbol
 _atom_site_label
 _atom_site_symmetry_multiplicity
 _atom_site_fract_x
 _atom_site_fract_y
 _atom_site_fract_z
 _atom_site_occupancy
  Zr  Zr0  1  0.250000  0.533447  0.834368  1
  Zr  Zr1  1  0.750000  0.963864  0.331302  1
  Zr  Zr2  1  0.250000  0.039441  0.669000  1
  Zr  Zr3  1  0.750000  0.465742  0.169791  1
  Ta  Ta4  1  0.750000  0.864292  0.941966  1
  Nb  Nb5  1  0.250000  0.140136  0.060736  1
  Nb  Nb6  1  0.250000  0.634335  0.436264  1
  Nb  Nb7  1  0.750000  0.360437  0.559525  1
  Si  Si8  1  0.750000  0.740170  0.640524  1
  P  P9  1  0.250000  0.761729  0.140310  1
  P  P10  1  0.750000  0.238076  0.857866  1
  P  P11  1  0.250000  0.258331  0.358348  1
