# generated using pymatgen
data_LiEu(CO3)2
_symmetry_space_group_name_H-M   'P 1'
_cell_length_a   6.19387589
_cell_length_b   6.19150540
_cell_length_c   6.19760213
_cell_angle_alpha   46.87326400
_cell_angle_beta   46.83937600
_cell_angle_gamma   46.91101895
_symmetry_Int_Tables_number   1
_chemical_formula_structural   LiEu(CO3)2
_chemical_formula_sum   'Li1 Eu1 C2 O6'
_cell_volume   115.70130154
_cell_formula_units_Z   1
loop_
 _symmetry_equiv_pos_site_id
 _symmetry_equiv_pos_as_xyz
  1  'x, y, z'
loop_
 _atom_site_type_symbol
 _atom_site_label
 _atom_site_symmetry_multiplicity
 _atom_site_fract_x
 _atom_site_fract_y
 _atom_site_fract_z
 _atom_site_occupancy
  Li  Li0  1  0.500000  0.500000  0.500000  1
  Eu  Eu1  1  0.000000  0.000000  0.000000  1
  C  C2  1  0.245982  0.245446  0.245578  1
  C  C3  1  0.754018  0.754554  0.754422  1
  O  O4  1  0.723404  0.506534  0.029978  1
  O  O5  1  0.494063  0.970228  0.276112  1
  O  O6  1  0.970591  0.275922  0.493911  1
  O  O7  1  0.029409  0.724078  0.506089  1
  O  O8  1  0.505937  0.029772  0.723888  1
  O  O9  1  0.276596  0.493466  0.970023  1
