# generated using pymatgen
data_LaDyRh2O7
_symmetry_space_group_name_H-M   'P 1'
_cell_length_a   7.34709910
_cell_length_b   7.38748161
_cell_length_c   7.34709956
_cell_angle_alpha   59.81802977
_cell_angle_beta   59.59202482
_cell_angle_gamma   59.81801674
_symmetry_Int_Tables_number   1
_chemical_formula_structural   LaDyRh2O7
_chemical_formula_sum   'La2 Dy2 Rh4 O14'
_cell_volume   280.32613109
_cell_formula_units_Z   2
loop_
 _symmetry_equiv_pos_site_id
 _symmetry_equiv_pos_as_xyz
  1  'x, y, z'
loop_
 _atom_site_type_symbol
 _atom_site_label
 _atom_site_symmetry_multiplicity
 _atom_site_fract_x
 _atom_site_fract_y
 _atom_site_fract_z
 _atom_site_occupancy
  La  La0  1  0.125000  0.625000  0.125000  1
  La  La1  1  0.125000  0.125000  0.125000  1
  Dy  Dy2  1  0.625000  0.125000  0.125000  1
  Dy  Dy3  1  0.125000  0.125000  0.625000  1
  Rh  Rh4  1  0.125000  0.625000  0.625000  1
  Rh  Rh5  1  0.625000  0.125000  0.625000  1
  Rh  Rh6  1  0.625000  0.625000  0.125000  1
  Rh  Rh7  1  0.625000  0.625000  0.625000  1
  O  O8  1  0.698889  0.718890  0.291886  1
  O  O9  1  0.291886  0.290335  0.698889  1
  O  O10  1  0.707373  0.292627  0.707373  1
  O  O11  1  0.293604  0.706396  0.293604  1
  O  O12  1  0.291886  0.718890  0.698889  1
  O  O13  1  0.698889  0.290335  0.291886  1
  O  O14  1  0.551111  0.531110  0.958114  1
  O  O15  1  0.958114  0.959665  0.551111  1
  O  O16  1  0.542627  0.957373  0.542627  1
  O  O17  1  0.956396  0.543604  0.956396  1
  O  O18  1  0.958114  0.531110  0.551111  1
  O  O19  1  0.551111  0.959665  0.958114  1
  O  O20  1  0.258731  0.241269  0.258731  1
  O  O21  1  0.991269  0.008731  0.991269  1
