# generated using pymatgen
data_NdBe(GaNi2)4
_symmetry_space_group_name_H-M   'P 1'
_cell_length_a   8.08284450
_cell_length_b   8.08284476
_cell_length_c   8.08284426
_cell_angle_alpha   121.03242169
_cell_angle_beta   121.03242267
_cell_angle_gamma   88.22090785
_symmetry_Int_Tables_number   1
_chemical_formula_structural   NdBe(GaNi2)4
_chemical_formula_sum   'Nd2 Be2 Ga8 Ni16'
_cell_volume   367.38364981
_cell_formula_units_Z   2
loop_
 _symmetry_equiv_pos_site_id
 _symmetry_equiv_pos_as_xyz
  1  'x, y, z'
loop_
 _atom_site_type_symbol
 _atom_site_label
 _atom_site_symmetry_multiplicity
 _atom_site_fract_x
 _atom_site_fract_y
 _atom_site_fract_z
 _atom_site_occupancy
  Nd  Nd0  1  0.750000  0.750000  0.000000  1
  Nd  Nd1  1  0.250000  0.250000  0.000000  1
  Be  Be2  1  0.499999  0.000000  0.499999  1
  Be  Be3  1  0.000000  0.499999  0.499999  1
  Ga  Ga4  1  0.805848  0.305847  0.865354  1
  Ga  Ga5  1  0.440493  0.940494  0.134647  1
  Ga  Ga6  1  0.694154  0.559507  0.500000  1
  Ga  Ga7  1  0.059506  0.194153  0.500000  1
  Ga  Ga8  1  0.194154  0.694154  0.134647  1
  Ga  Ga9  1  0.559506  0.059506  0.865354  1
  Ga  Ga10  1  0.940494  0.805847  0.500000  1
  Ga  Ga11  1  0.305847  0.440494  0.500000  1
  Ni  Ni12  1  0.211149  0.058085  0.269233  1
  Ni  Ni13  1  0.788849  0.941916  0.730768  1
  Ni  Ni14  1  0.288850  0.558084  0.846934  1
  Ni  Ni15  1  0.711148  0.441915  0.153065  1
  Ni  Ni16  1  0.441917  0.288850  0.730768  1
  Ni  Ni17  1  0.558084  0.711148  0.269233  1
  Ni  Ni18  1  0.941916  0.211149  0.153067  1
  Ni  Ni19  1  0.058085  0.788850  0.846935  1
  Ni  Ni20  1  0.286423  0.786422  0.723031  1
  Ni  Ni21  1  0.063391  0.563392  0.276970  1
  Ni  Ni22  1  0.213578  0.936609  0.499999  1
  Ni  Ni23  1  0.436610  0.713579  0.500002  1
  Ni  Ni24  1  0.713579  0.213578  0.276970  1
  Ni  Ni25  1  0.936609  0.436610  0.723031  1
  Ni  Ni26  1  0.563392  0.286423  0.500002  1
  Ni  Ni27  1  0.786422  0.063391  0.499999  1
