# generated using pymatgen
data_Gd5Th3(Si3Pd)4
_symmetry_space_group_name_H-M   'P 1'
_cell_length_a   8.22663700
_cell_length_b   8.21879573
_cell_length_c   8.45867200
_cell_angle_alpha   90.00000000
_cell_angle_beta   90.00000000
_cell_angle_gamma   120.03157735
_symmetry_Int_Tables_number   1
_chemical_formula_structural   Gd5Th3(Si3Pd)4
_chemical_formula_sum   'Gd5 Th3 Si12 Pd4'
_cell_volume   495.13663339
_cell_formula_units_Z   1
loop_
 _symmetry_equiv_pos_site_id
 _symmetry_equiv_pos_as_xyz
  1  'x, y, z'
loop_
 _atom_site_type_symbol
 _atom_site_label
 _atom_site_symmetry_multiplicity
 _atom_site_fract_x
 _atom_site_fract_y
 _atom_site_fract_z
 _atom_site_occupancy
  Gd  Gd0  1  0.499239  0.500752  0.750000  1
  Gd  Gd1  1  0.500672  0.499356  0.250000  1
  Gd  Gd2  1  0.001513  0.500752  0.750000  1
  Gd  Gd3  1  0.998686  0.499357  0.250000  1
  Gd  Gd4  1  0.499239  0.998480  0.750000  1
  Th  Th5  1  0.500674  0.001347  0.250000  1
  Th  Th6  1  0.999972  0.999943  0.750000  1
  Th  Th7  1  0.000033  0.000067  0.250000  1
  Si  Si8  1  0.834218  0.166403  0.998576  1
  Si  Si9  1  0.165784  0.833615  0.000056  1
  Si  Si10  1  0.332185  0.166403  0.998576  1
  Si  Si11  1  0.165784  0.833615  0.499944  1
  Si  Si12  1  0.667831  0.833615  0.000056  1
  Si  Si13  1  0.834218  0.166403  0.501424  1
  Si  Si14  1  0.833615  0.667230  0.999403  1
  Si  Si15  1  0.667831  0.833615  0.499944  1
  Si  Si16  1  0.166369  0.332739  0.000812  1
  Si  Si17  1  0.332185  0.166403  0.501424  1
  Si  Si18  1  0.166369  0.332739  0.499188  1
  Si  Si19  1  0.833615  0.667230  0.500597  1
  Pd  Pd20  1  0.666719  0.333437  0.997281  1
  Pd  Pd21  1  0.333263  0.666527  0.001071  1
  Pd  Pd22  1  0.333263  0.666527  0.498929  1
  Pd  Pd23  1  0.666719  0.333437  0.502719  1
