# generated using pymatgen
data_Yb4Mg2CuNi13B4
_symmetry_space_group_name_H-M   'P 1'
_cell_length_a   5.01346300
_cell_length_b   5.01346247
_cell_length_c   13.86168400
_cell_angle_alpha   90.00000000
_cell_angle_beta   90.00000000
_cell_angle_gamma   119.99999687
_symmetry_Int_Tables_number   1
_chemical_formula_structural   Yb4Mg2CuNi13B4
_chemical_formula_sum   'Yb4 Mg2 Cu1 Ni13 B4'
_cell_volume   301.73259110
_cell_formula_units_Z   1
loop_
 _symmetry_equiv_pos_site_id
 _symmetry_equiv_pos_as_xyz
  1  'x, y, z'
loop_
 _atom_site_type_symbol
 _atom_site_label
 _atom_site_symmetry_multiplicity
 _atom_site_fract_x
 _atom_site_fract_y
 _atom_site_fract_z
 _atom_site_occupancy
  Yb  Yb0  1  0.333333  0.666667  0.036493  1
  Yb  Yb1  1  0.666667  0.333333  0.744900  1
  Yb  Yb2  1  0.666667  0.333333  0.963507  1
  Yb  Yb3  1  0.333333  0.666667  0.255100  1
  Mg  Mg4  1  0.666667  0.333333  0.527118  1
  Mg  Mg5  1  0.333333  0.666667  0.472882  1
  Cu  Cu6  1  0.000000  0.000000  0.500000  1
  Ni  Ni7  1  0.167458  0.334916  0.646808  1
  Ni  Ni8  1  0.334916  0.167458  0.353192  1
  Ni  Ni9  1  0.331527  0.165763  0.151548  1
  Ni  Ni10  1  0.165763  0.834237  0.848452  1
  Ni  Ni11  1  0.832542  0.665084  0.353192  1
  Ni  Ni12  1  0.834237  0.165763  0.151548  1
  Ni  Ni13  1  0.665084  0.832542  0.646808  1
  Ni  Ni14  1  0.668473  0.834237  0.848452  1
  Ni  Ni15  1  0.167458  0.832542  0.646808  1
  Ni  Ni16  1  0.834237  0.668473  0.151548  1
  Ni  Ni17  1  0.000000  0.000000  0.000000  1
  Ni  Ni18  1  0.165763  0.331527  0.848452  1
  Ni  Ni19  1  0.832542  0.167458  0.353192  1
  B  B20  1  0.666667  0.333333  0.251711  1
  B  B21  1  0.000000  0.000000  0.746659  1
  B  B22  1  0.333333  0.666667  0.748289  1
  B  B23  1  0.000000  0.000000  0.253341  1
