# generated using pymatgen
data_NaSrMoF6
_symmetry_space_group_name_H-M   'P 1'
_cell_length_a   5.57906500
_cell_length_b   9.81568600
_cell_length_c   10.72759800
_cell_angle_alpha   90.00000000
_cell_angle_beta   90.00000000
_cell_angle_gamma   90.00000000
_symmetry_Int_Tables_number   1
_chemical_formula_structural   NaSrMoF6
_chemical_formula_sum   'Na4 Sr4 Mo4 F24'
_cell_volume   587.46847863
_cell_formula_units_Z   4
loop_
 _symmetry_equiv_pos_site_id
 _symmetry_equiv_pos_as_xyz
  1  'x, y, z'
loop_
 _atom_site_type_symbol
 _atom_site_label
 _atom_site_symmetry_multiplicity
 _atom_site_fract_x
 _atom_site_fract_y
 _atom_site_fract_z
 _atom_site_occupancy
  Na  Na0  1  0.042665  0.649930  0.087761  1
  Na  Na1  1  0.457335  0.350070  0.587760  1
  Na  Na2  1  0.957335  0.149930  0.412240  1
  Na  Na3  1  0.542665  0.850070  0.912240  1
  Sr  Sr4  1  0.506100  0.316878  0.172495  1
  Sr  Sr5  1  0.993900  0.683122  0.672495  1
  Sr  Sr6  1  0.493900  0.816878  0.327505  1
  Sr  Sr7  1  0.006100  0.183122  0.827505  1
  Mo  Mo8  1  0.035418  0.999861  0.126654  1
  Mo  Mo9  1  0.464582  0.000139  0.626654  1
  Mo  Mo10  1  0.964582  0.499861  0.373346  1
  Mo  Mo11  1  0.535418  0.500139  0.873346  1
  F  F12  1  0.202415  0.149712  0.583926  1
  F  F13  1  0.297585  0.850288  0.083926  1
  F  F14  1  0.797585  0.649712  0.916074  1
  F  F15  1  0.702415  0.350288  0.416074  1
  F  F16  1  0.220138  0.631830  0.296330  1
  F  F17  1  0.279862  0.368170  0.796330  1
  F  F18  1  0.779862  0.131830  0.203670  1
  F  F19  1  0.720138  0.868170  0.703670  1
  F  F20  1  0.225023  0.166836  0.047759  1
  F  F21  1  0.274977  0.833164  0.547759  1
  F  F22  1  0.774977  0.666836  0.452241  1
  F  F23  1  0.725023  0.333164  0.952241  1
  F  F24  1  0.166068  0.331763  0.312330  1
  F  F25  1  0.333932  0.668237  0.812330  1
  F  F26  1  0.833932  0.831763  0.187670  1
  F  F27  1  0.666068  0.168237  0.687670  1
  F  F28  1  0.343330  0.501884  0.041640  1
  F  F29  1  0.156670  0.498116  0.541640  1
  F  F30  1  0.656670  0.001884  0.458360  1
  F  F31  1  0.843330  0.998116  0.958360  1
  F  F32  1  0.221179  0.013300  0.296179  1
  F  F33  1  0.278821  0.986700  0.796179  1
  F  F34  1  0.778821  0.513300  0.203821  1
  F  F35  1  0.721179  0.486700  0.703821  1
