# generated using pymatgen
data_Sm8Pd5Pt19Pb
_symmetry_space_group_name_H-M   'P 1'
_cell_length_a   8.51252700
_cell_length_b   8.52250100
_cell_length_c   8.55025100
_cell_angle_alpha   90.00000000
_cell_angle_beta   90.00000000
_cell_angle_gamma   90.00000000
_symmetry_Int_Tables_number   1
_chemical_formula_structural   Sm8Pd5Pt19Pb
_chemical_formula_sum   'Sm8 Pd5 Pt19 Pb1'
_cell_volume   620.30377944
_cell_formula_units_Z   1
loop_
 _symmetry_equiv_pos_site_id
 _symmetry_equiv_pos_as_xyz
  1  'x, y, z'
loop_
 _atom_site_type_symbol
 _atom_site_label
 _atom_site_symmetry_multiplicity
 _atom_site_fract_x
 _atom_site_fract_y
 _atom_site_fract_z
 _atom_site_occupancy
  Sm  Sm0  1  0.251562  0.252086  0.252250  1
  Sm  Sm1  1  0.747760  0.747822  0.747117  1
  Sm  Sm2  1  0.747760  0.747822  0.252883  1
  Sm  Sm3  1  0.748438  0.252086  0.747750  1
  Sm  Sm4  1  0.251562  0.252086  0.747750  1
  Sm  Sm5  1  0.252240  0.747822  0.252883  1
  Sm  Sm6  1  0.252240  0.747822  0.747117  1
  Sm  Sm7  1  0.748438  0.252086  0.252250  1
  Pd  Pd8  1  0.500000  0.500043  0.255619  1
  Pd  Pd9  1  0.500000  0.500043  0.744381  1
  Pd  Pd10  1  0.000000  0.680770  0.000000  1
  Pd  Pd11  1  0.000000  0.999681  0.319625  1
  Pd  Pd12  1  0.000000  0.999681  0.680375  1
  Pt  Pt13  1  0.268441  0.499829  0.000000  1
  Pt  Pt14  1  0.731559  0.499829  0.000000  1
  Pt  Pt15  1  0.000000  0.267279  0.500000  1
  Pt  Pt16  1  0.500000  0.268587  0.000000  1
  Pt  Pt17  1  0.000000  0.732107  0.500000  1
  Pt  Pt18  1  0.500000  0.730657  0.000000  1
  Pt  Pt19  1  0.500000  0.999951  0.268040  1
  Pt  Pt20  1  0.267759  0.999997  0.500000  1
  Pt  Pt21  1  0.500000  0.999951  0.731960  1
  Pt  Pt22  1  0.732241  0.999997  0.500000  1
  Pt  Pt23  1  0.000000  0.499908  0.267441  1
  Pt  Pt24  1  0.000000  0.499908  0.732559  1
  Pt  Pt25  1  0.255291  0.500054  0.500000  1
  Pt  Pt26  1  0.744709  0.500054  0.500000  1
  Pt  Pt27  1  0.500000  0.255487  0.500000  1
  Pt  Pt28  1  0.500000  0.744703  0.500000  1
  Pt  Pt29  1  0.320790  0.999541  0.000000  1
  Pt  Pt30  1  0.679210  0.999541  0.000000  1
  Pt  Pt31  1  0.000000  0.321930  0.000000  1
  Pb  Pb32  1  0.000000  0.000842  0.000000  1
