# generated using pymatgen
data_CdSn3Pt2
_symmetry_space_group_name_H-M   'P 1'
_cell_length_a   8.00865161
_cell_length_b   8.00864986
_cell_length_c   8.00865174
_cell_angle_alpha   33.23625669
_cell_angle_beta   33.23626525
_cell_angle_gamma   33.23626257
_symmetry_Int_Tables_number   1
_chemical_formula_structural   CdSn3Pt2
_chemical_formula_sum   'Cd1 Sn3 Pt2'
_cell_volume   137.37280836
_cell_formula_units_Z   1
loop_
 _symmetry_equiv_pos_site_id
 _symmetry_equiv_pos_as_xyz
  1  'x, y, z'
loop_
 _atom_site_type_symbol
 _atom_site_label
 _atom_site_symmetry_multiplicity
 _atom_site_fract_x
 _atom_site_fract_y
 _atom_site_fract_z
 _atom_site_occupancy
  Cd  Cd0  1  0.376923  0.376923  0.376923  1
  Sn  Sn1  1  0.120846  0.120846  0.120846  1
  Sn  Sn2  1  0.628766  0.628766  0.628766  1
  Sn  Sn3  1  0.873989  0.873989  0.873989  1
  Pt  Pt4  1  0.995974  0.995974  0.995974  1
  Pt  Pt5  1  0.503503  0.503503  0.503503  1
