# generated using pymatgen
data_La7Yb(Mo2C3)4
_symmetry_space_group_name_H-M   'P 1'
_cell_length_a   6.76001517
_cell_length_b   6.00921993
_cell_length_c   12.10966713
_cell_angle_alpha   68.15523159
_cell_angle_beta   90.03195504
_cell_angle_gamma   89.98629115
_symmetry_Int_Tables_number   1
_chemical_formula_structural   La7Yb(Mo2C3)4
_chemical_formula_sum   'La7 Yb1 Mo8 C12'
_cell_volume   456.60141828
_cell_formula_units_Z   1
loop_
 _symmetry_equiv_pos_site_id
 _symmetry_equiv_pos_as_xyz
  1  'x, y, z'
loop_
 _atom_site_type_symbol
 _atom_site_label
 _atom_site_symmetry_multiplicity
 _atom_site_fract_x
 _atom_site_fract_y
 _atom_site_fract_z
 _atom_site_occupancy
  La  La0  1  0.280634  0.318050  0.591833  1
  La  La1  1  0.215288  0.323999  0.089121  1
  La  La2  1  0.718578  0.681190  0.408556  1
  La  La3  1  0.993977  0.724489  0.638271  1
  La  La4  1  0.500238  0.274213  0.865920  1
  La  La5  1  0.001612  0.273463  0.364784  1
  La  La6  1  0.506054  0.725477  0.133495  1
  Yb  Yb7  1  0.792895  0.695000  0.908804  1
  Mo  Mo8  1  0.993938  0.821687  0.119099  1
  Mo  Mo9  1  0.493223  0.178533  0.380537  1
  Mo  Mo10  1  0.004717  0.177928  0.880311  1
  Mo  Mo11  1  0.504743  0.820520  0.619795  1
  Mo  Mo12  1  0.751196  0.173785  0.661268  1
  Mo  Mo13  1  0.247476  0.824662  0.339711  1
  Mo  Mo14  1  0.748166  0.179950  0.158164  1
  Mo  Mo15  1  0.253173  0.822414  0.839917  1
  C  C16  1  0.625938  0.503466  0.642369  1
  C  C17  1  0.129279  0.493566  0.856705  1
  C  C18  1  0.370800  0.494984  0.357102  1
  C  C19  1  0.870812  0.508044  0.141262  1
  C  C20  1  0.212342  0.927949  0.987677  1
  C  C21  1  0.712506  0.065690  0.512262  1
  C  C22  1  0.786556  0.064310  0.011937  1
  C  C23  1  0.284012  0.933528  0.488651  1
  C  C24  1  0.487941  0.034564  0.245200  1
  C  C25  1  0.010304  0.030105  0.748215  1
  C  C26  1  0.987971  0.969867  0.252277  1
  C  C27  1  0.515633  0.958569  0.756757  1
