# generated using pymatgen
data_TmLu3BBr6
_symmetry_space_group_name_H-M   'P 1'
_cell_length_a   3.88127800
_cell_length_b   12.94879050
_cell_length_c   13.40898674
_cell_angle_alpha   90.11487471
_cell_angle_beta   90.00000000
_cell_angle_gamma   90.00000000
_symmetry_Int_Tables_number   1
_chemical_formula_structural   TmLu3BBr6
_chemical_formula_sum   'Tm2 Lu6 B2 Br12'
_cell_volume   673.90556632
_cell_formula_units_Z   2
loop_
 _symmetry_equiv_pos_site_id
 _symmetry_equiv_pos_as_xyz
  1  'x, y, z'
loop_
 _atom_site_type_symbol
 _atom_site_label
 _atom_site_symmetry_multiplicity
 _atom_site_fract_x
 _atom_site_fract_y
 _atom_site_fract_z
 _atom_site_occupancy
  Tm  Tm0  1  0.500000  0.121881  0.856767  1
  Tm  Tm1  1  0.500000  0.878119  0.143233  1
  Lu  Lu2  1  0.000000  0.099691  0.079240  1
  Lu  Lu3  1  0.000000  0.900309  0.920760  1
  Lu  Lu4  1  0.000000  0.599607  0.420887  1
  Lu  Lu5  1  0.000000  0.400393  0.579113  1
  Lu  Lu6  1  0.500000  0.621223  0.642469  1
  Lu  Lu7  1  0.500000  0.378777  0.357531  1
  B  B8  1  0.500000  0.000000  0.000000  1
  B  B9  1  0.500000  0.500000  0.500000  1
  Br  Br10  1  0.500000  0.268893  0.681282  1
  Br  Br11  1  0.500000  0.731107  0.318718  1
  Br  Br12  1  0.500000  0.768139  0.817841  1
  Br  Br13  1  0.500000  0.231861  0.182159  1
  Br  Br14  1  0.000000  0.261540  0.931784  1
  Br  Br15  1  0.000000  0.738460  0.068216  1
  Br  Br16  1  0.000000  0.479858  0.239863  1
  Br  Br17  1  0.000000  0.520142  0.760137  1
  Br  Br18  1  0.000000  0.981237  0.261119  1
  Br  Br19  1  0.000000  0.018763  0.738881  1
  Br  Br20  1  0.000000  0.239662  0.430656  1
  Br  Br21  1  0.000000  0.760338  0.569344  1
