# generated using pymatgen
data_TbHo3Al17NiPd6
_symmetry_space_group_name_H-M   'P 1'
_cell_length_a   7.59802500
_cell_length_b   7.59831346
_cell_length_c   9.39283100
_cell_angle_alpha   90.00000000
_cell_angle_beta   90.00000000
_cell_angle_gamma   118.58642197
_symmetry_Int_Tables_number   1
_chemical_formula_structural   TbHo3Al17NiPd6
_chemical_formula_sum   'Tb1 Ho3 Al17 Ni1 Pd6'
_cell_volume   476.16407387
_cell_formula_units_Z   1
loop_
 _symmetry_equiv_pos_site_id
 _symmetry_equiv_pos_as_xyz
  1  'x, y, z'
loop_
 _atom_site_type_symbol
 _atom_site_label
 _atom_site_symmetry_multiplicity
 _atom_site_fract_x
 _atom_site_fract_y
 _atom_site_fract_z
 _atom_site_occupancy
  Tb  Tb0  1  0.007370  0.323925  0.750000  1
  Ho  Ho1  1  0.989123  0.676325  0.250000  1
  Ho  Ho2  1  0.676319  0.989118  0.250000  1
  Ho  Ho3  1  0.323900  0.007338  0.750000  1
  Al  Al4  1  0.863404  0.863378  0.750000  1
  Al  Al5  1  0.005071  0.327086  0.089509  1
  Al  Al6  1  0.999649  0.660776  0.921277  1
  Al  Al7  1  0.999649  0.660776  0.578723  1
  Al  Al8  1  0.327082  0.005064  0.410519  1
  Al  Al9  1  0.005071  0.327086  0.410491  1
  Al  Al10  1  0.660683  0.999607  0.578729  1
  Al  Al11  1  0.660683  0.999607  0.921271  1
  Al  Al12  1  0.327082  0.005064  0.089481  1
  Al  Al13  1  0.329364  0.329331  0.534232  1
  Al  Al14  1  0.666953  0.666955  0.447874  1
  Al  Al15  1  0.666953  0.666955  0.052126  1
  Al  Al16  1  0.329364  0.329331  0.965768  1
  Al  Al17  1  0.340345  0.545780  0.250000  1
  Al  Al18  1  0.654213  0.446633  0.750000  1
  Al  Al19  1  0.545780  0.340342  0.250000  1
  Al  Al20  1  0.446668  0.654277  0.750000  1
  Ni  Ni21  1  0.175647  0.175644  0.250000  1
  Pd  Pd22  1  0.677947  0.327582  0.000510  1
  Pd  Pd23  1  0.327596  0.677979  0.000503  1
  Pd  Pd24  1  0.327596  0.677979  0.499497  1
  Pd  Pd25  1  0.677947  0.327582  0.499490  1
  Pd  Pd26  1  0.994270  0.994242  0.995043  1
  Pd  Pd27  1  0.994270  0.994242  0.504957  1
