# generated using pymatgen
data_W(BrCl)2
_symmetry_space_group_name_H-M   'P 1'
_cell_length_a   7.52562424
_cell_length_b   7.52562415
_cell_length_c   7.52562378
_cell_angle_alpha   126.38905244
_cell_angle_beta   109.72892140
_cell_angle_gamma   93.96599172
_symmetry_Int_Tables_number   1
_chemical_formula_structural   W(BrCl)2
_chemical_formula_sum   'W2 Br4 Cl4'
_cell_volume   301.85935382
_cell_formula_units_Z   2
loop_
 _symmetry_equiv_pos_site_id
 _symmetry_equiv_pos_as_xyz
  1  'x, y, z'
loop_
 _atom_site_type_symbol
 _atom_site_label
 _atom_site_symmetry_multiplicity
 _atom_site_fract_x
 _atom_site_fract_y
 _atom_site_fract_z
 _atom_site_occupancy
  W  W0  1  0.000000  0.301338  0.301338  1
  W  W1  1  0.000000  0.698662  0.698662  1
  Br  Br2  1  0.829612  0.829612  0.000000  1
  Br  Br3  1  0.170388  0.170388  0.000000  1
  Br  Br4  1  0.792395  0.292395  0.500000  1
  Br  Br5  1  0.207605  0.707605  0.500000  1
  Cl  Cl6  1  0.735027  0.266402  0.001428  1
  Cl  Cl7  1  0.264973  0.266402  0.531375  1
  Cl  Cl8  1  0.735027  0.733598  0.468625  1
  Cl  Cl9  1  0.264973  0.733598  0.998572  1
