# generated using pymatgen
data_CsPuUS4
_symmetry_space_group_name_H-M   'P 1'
_cell_length_a   8.80148296
_cell_length_b   8.80148089
_cell_length_c   6.85413000
_cell_angle_alpha   73.44858147
_cell_angle_beta   73.44858549
_cell_angle_gamma   26.67473256
_symmetry_Int_Tables_number   1
_chemical_formula_structural   CsPuUS4
_chemical_formula_sum   'Cs1 Pu1 U1 S4'
_cell_volume   227.91787362
_cell_formula_units_Z   1
loop_
 _symmetry_equiv_pos_site_id
 _symmetry_equiv_pos_as_xyz
  1  'x, y, z'
loop_
 _atom_site_type_symbol
 _atom_site_label
 _atom_site_symmetry_multiplicity
 _atom_site_fract_x
 _atom_site_fract_y
 _atom_site_fract_z
 _atom_site_occupancy
  Cs  Cs0  1  0.498729  0.498729  0.499973  1
  Pu  Pu1  1  0.242044  0.242044  0.759938  1
  U  U2  1  0.757368  0.757368  0.239122  1
  S  S3  1  0.342556  0.342556  0.017675  1
  S  S4  1  0.658853  0.658853  0.004748  1
  S  S5  1  0.833739  0.833739  0.522614  1
  S  S6  1  0.166713  0.166713  0.455929  1
