# generated using pymatgen
data_Ho11Lu9(Bi2Rh)4
_symmetry_space_group_name_H-M   'P 1'
_cell_length_a   7.86168200
_cell_length_b   8.98767000
_cell_length_c   12.40069154
_cell_angle_alpha   90.00000000
_cell_angle_beta   89.94263458
_cell_angle_gamma   90.00000000
_symmetry_Int_Tables_number   1
_chemical_formula_structural   Ho11Lu9(Bi2Rh)4
_chemical_formula_sum   'Ho11 Lu9 Bi8 Rh4'
_cell_volume   876.21014605
_cell_formula_units_Z   1
loop_
 _symmetry_equiv_pos_site_id
 _symmetry_equiv_pos_as_xyz
  1  'x, y, z'
loop_
 _atom_site_type_symbol
 _atom_site_label
 _atom_site_symmetry_multiplicity
 _atom_site_fract_x
 _atom_site_fract_y
 _atom_site_fract_z
 _atom_site_occupancy
  Ho  Ho0  1  0.158844  0.250000  0.207547  1
  Ho  Ho1  1  0.340812  0.250000  0.707671  1
  Ho  Ho2  1  0.659194  0.750000  0.292243  1
  Ho  Ho3  1  0.374319  0.750000  0.690554  1
  Ho  Ho4  1  0.626290  0.250000  0.309525  1
  Ho  Ho5  1  0.873582  0.250000  0.809504  1
  Ho  Ho6  1  0.126550  0.750000  0.190562  1
  Ho  Ho7  1  0.949676  0.750000  0.502345  1
  Ho  Ho8  1  0.049935  0.250000  0.498318  1
  Ho  Ho9  1  0.450324  0.250000  0.997790  1
  Ho  Ho10  1  0.550974  0.750000  0.001521  1
  Lu  Lu11  1  0.841638  0.750000  0.793803  1
  Lu  Lu12  1  0.673557  0.042989  0.566160  1
  Lu  Lu13  1  0.326385  0.956424  0.434037  1
  Lu  Lu14  1  0.173201  0.955868  0.933431  1
  Lu  Lu15  1  0.326385  0.543576  0.434037  1
  Lu  Lu16  1  0.826485  0.043138  0.065863  1
  Lu  Lu17  1  0.673557  0.457011  0.566160  1
  Lu  Lu18  1  0.826485  0.456862  0.065863  1
  Lu  Lu19  1  0.173201  0.544132  0.933431  1
  Bi  Bi20  1  0.566129  0.493064  0.826442  1
  Bi  Bi21  1  0.434751  0.507621  0.173040  1
  Bi  Bi22  1  0.063882  0.508538  0.673883  1
  Bi  Bi23  1  0.434751  0.992379  0.173040  1
  Bi  Bi24  1  0.934862  0.492523  0.326948  1
  Bi  Bi25  1  0.566129  0.006936  0.826442  1
  Bi  Bi26  1  0.934862  0.007477  0.326948  1
  Bi  Bi27  1  0.063882  0.991462  0.673883  1
  Rh  Rh28  1  0.571695  0.750000  0.508734  1
  Rh  Rh29  1  0.428081  0.250000  0.491228  1
  Rh  Rh30  1  0.071832  0.250000  0.991110  1
  Rh  Rh31  1  0.927747  0.750000  0.007937  1
