# generated using pymatgen
data_YHo4In2Bi
_symmetry_space_group_name_H-M   'P 1'
_cell_length_a   9.02064507
_cell_length_b   9.02077048
_cell_length_c   6.61126900
_cell_angle_alpha   90.00000000
_cell_angle_beta   90.00000000
_cell_angle_gamma   120.00046181
_symmetry_Int_Tables_number   1
_chemical_formula_structural   YHo4In2Bi
_chemical_formula_sum   'Y2 Ho8 In4 Bi2'
_cell_volume   465.90209878
_cell_formula_units_Z   2
loop_
 _symmetry_equiv_pos_site_id
 _symmetry_equiv_pos_as_xyz
  1  'x, y, z'
loop_
 _atom_site_type_symbol
 _atom_site_label
 _atom_site_symmetry_multiplicity
 _atom_site_fract_x
 _atom_site_fract_y
 _atom_site_fract_z
 _atom_site_occupancy
  Y  Y0  1  0.768450  0.760501  0.750000  1
  Y  Y1  1  0.231550  0.992052  0.750000  1
  Ho  Ho2  1  0.670827  0.337896  0.006558  1
  Ho  Ho3  1  0.329173  0.667071  0.006558  1
  Ho  Ho4  1  0.329173  0.667071  0.493442  1
  Ho  Ho5  1  0.670827  0.337896  0.493442  1
  Ho  Ho6  1  0.000000  0.243070  0.750000  1
  Ho  Ho7  1  0.237674  0.238061  0.250000  1
  Ho  Ho8  1  0.762326  0.000387  0.250000  1
  Ho  Ho9  1  0.000000  0.760278  0.250000  1
  In  In10  1  0.000000  0.598326  0.750000  1
  In  In11  1  0.604644  0.606526  0.250000  1
  In  In12  1  0.395356  0.001882  0.250000  1
  In  In13  1  0.000000  0.395415  0.250000  1
  Bi  Bi14  1  0.394775  0.394173  0.750000  1
  Bi  Bi15  1  0.605225  0.999397  0.750000  1
