# generated using pymatgen
data_Y2Er2Al17GaIr6
_symmetry_space_group_name_H-M   'P 1'
_cell_length_a   7.54188400
_cell_length_b   7.54188543
_cell_length_c   9.48289100
_cell_angle_alpha   90.00000000
_cell_angle_beta   90.00000000
_cell_angle_gamma   119.41218662
_symmetry_Int_Tables_number   1
_chemical_formula_structural   Y2Er2Al17GaIr6
_chemical_formula_sum   'Y2 Er2 Al17 Ga1 Ir6'
_cell_volume   469.86514183
_cell_formula_units_Z   1
loop_
 _symmetry_equiv_pos_site_id
 _symmetry_equiv_pos_as_xyz
  1  'x, y, z'
loop_
 _atom_site_type_symbol
 _atom_site_label
 _atom_site_symmetry_multiplicity
 _atom_site_fract_x
 _atom_site_fract_y
 _atom_site_fract_z
 _atom_site_occupancy
  Y  Y0  1  0.993705  0.674624  0.250000  1
  Y  Y1  1  0.674624  0.993709  0.250000  1
  Er  Er2  1  0.005113  0.328021  0.750000  1
  Er  Er3  1  0.328020  0.005120  0.750000  1
  Al  Al4  1  0.870232  0.870231  0.750000  1
  Al  Al5  1  0.001378  0.335843  0.072615  1
  Al  Al6  1  0.999052  0.664274  0.924909  1
  Al  Al7  1  0.999052  0.664274  0.575091  1
  Al  Al8  1  0.335843  0.001377  0.427386  1
  Al  Al9  1  0.001378  0.335843  0.427385  1
  Al  Al10  1  0.664274  0.999049  0.575091  1
  Al  Al11  1  0.664274  0.999049  0.924909  1
  Al  Al12  1  0.335843  0.001377  0.072614  1
  Al  Al13  1  0.332761  0.332761  0.554365  1
  Al  Al14  1  0.665616  0.665616  0.450230  1
  Al  Al15  1  0.665616  0.665616  0.049770  1
  Al  Al16  1  0.332761  0.332761  0.945635  1
  Al  Al17  1  0.338708  0.549498  0.250000  1
  Al  Al18  1  0.660517  0.450554  0.750000  1
  Al  Al19  1  0.549499  0.338707  0.250000  1
  Al  Al20  1  0.450554  0.660516  0.750000  1
  Ga  Ga21  1  0.134995  0.134995  0.250000  1
  Ir  Ir22  1  0.671080  0.327391  0.999720  1
  Ir  Ir23  1  0.327391  0.671078  0.999720  1
  Ir  Ir24  1  0.327391  0.671078  0.500280  1
  Ir  Ir25  1  0.671080  0.327391  0.500280  1
  Ir  Ir26  1  0.999624  0.999624  0.997177  1
  Ir  Ir27  1  0.999624  0.999624  0.502823  1
