# generated using pymatgen
data_Hf4BeSe
_symmetry_space_group_name_H-M   'P 1'
_cell_length_a   5.29161384
_cell_length_b   5.29161427
_cell_length_c   5.29161456
_cell_angle_alpha   103.77595719
_cell_angle_beta   103.77594369
_cell_angle_gamma   121.58404259
_symmetry_Int_Tables_number   1
_chemical_formula_structural   Hf4BeSe
_chemical_formula_sum   'Hf4 Be1 Se1'
_cell_volume   110.17444858
_cell_formula_units_Z   1
loop_
 _symmetry_equiv_pos_site_id
 _symmetry_equiv_pos_as_xyz
  1  'x, y, z'
loop_
 _atom_site_type_symbol
 _atom_site_label
 _atom_site_symmetry_multiplicity
 _atom_site_fract_x
 _atom_site_fract_y
 _atom_site_fract_z
 _atom_site_occupancy
  Hf  Hf0  1  0.655587  0.155587  0.811173  1
  Hf  Hf1  1  0.844413  0.655587  0.500000  1
  Hf  Hf2  1  0.155587  0.344413  0.500000  1
  Hf  Hf3  1  0.344413  0.844413  0.188827  1
  Be  Be4  1  0.250000  0.250000  0.000000  1
  Se  Se5  1  0.750000  0.750000  0.000000  1
