# generated using pymatgen
data_Ba6S5Cl
_symmetry_space_group_name_H-M   'P 1'
_cell_length_a   12.02384291
_cell_length_b   12.02384284
_cell_length_c   7.88072713
_cell_angle_alpha   71.02586782
_cell_angle_beta   71.02586902
_cell_angle_gamma   21.91528237
_symmetry_Int_Tables_number   1
_chemical_formula_structural   Ba6S5Cl
_chemical_formula_sum   'Ba6 S5 Cl1'
_cell_volume   401.24409933
_cell_formula_units_Z   1
loop_
 _symmetry_equiv_pos_site_id
 _symmetry_equiv_pos_as_xyz
  1  'x, y, z'
loop_
 _atom_site_type_symbol
 _atom_site_label
 _atom_site_symmetry_multiplicity
 _atom_site_fract_x
 _atom_site_fract_y
 _atom_site_fract_z
 _atom_site_occupancy
  Ba  Ba0  1  0.914370  0.914370  0.743679  1
  Ba  Ba1  1  0.249508  0.249508  0.752619  1
  Ba  Ba2  1  0.588095  0.588095  0.735627  1
  Ba  Ba3  1  0.085630  0.085630  0.256321  1
  Ba  Ba4  1  0.411905  0.411905  0.264373  1
  Ba  Ba5  1  0.750492  0.750492  0.247381  1
  S  S6  1  0.335169  0.335169  0.000900  1
  S  S7  1  0.664831  0.664831  0.999100  1
  S  S8  1  0.500000  0.500000  0.500000  1
  S  S9  1  0.834445  0.834445  0.496949  1
  S  S10  1  0.165555  0.165555  0.503051  1
  Cl  Cl11  1  0.000000  0.000000  0.000000  1
