# generated using pymatgen
data_LuWF7
_symmetry_space_group_name_H-M   'P 1'
_cell_length_a   5.64776300
_cell_length_b   5.94977171
_cell_length_c   8.20645828
_cell_angle_alpha   102.86087913
_cell_angle_beta   90.00000000
_cell_angle_gamma   90.00000000
_symmetry_Int_Tables_number   1
_chemical_formula_structural   LuWF7
_chemical_formula_sum   'Lu2 W2 F14'
_cell_volume   268.84290016
_cell_formula_units_Z   2
loop_
 _symmetry_equiv_pos_site_id
 _symmetry_equiv_pos_as_xyz
  1  'x, y, z'
loop_
 _atom_site_type_symbol
 _atom_site_label
 _atom_site_symmetry_multiplicity
 _atom_site_fract_x
 _atom_site_fract_y
 _atom_site_fract_z
 _atom_site_occupancy
  Lu  Lu0  1  0.700790  0.652490  0.685279  1
  Lu  Lu1  1  0.200790  0.347510  0.314721  1
  W  W2  1  0.706851  0.813836  0.225149  1
  W  W3  1  0.206851  0.186164  0.774851  1
  F  F4  1  0.916238  0.475487  0.484980  1
  F  F5  1  0.416238  0.524513  0.515020  1
  F  F6  1  0.434413  0.914299  0.763886  1
  F  F7  1  0.934413  0.085701  0.236114  1
  F  F8  1  0.941216  0.957696  0.757814  1
  F  F9  1  0.441216  0.042304  0.242186  1
  F  F10  1  0.977268  0.460233  0.793006  1
  F  F11  1  0.477268  0.539767  0.206994  1
  F  F12  1  0.699789  0.764770  0.977931  1
  F  F13  1  0.199789  0.235230  0.022069  1
  F  F14  1  0.709048  0.870032  0.473910  1
  F  F15  1  0.209048  0.129968  0.526090  1
  F  F16  1  0.490749  0.391670  0.787431  1
  F  F17  1  0.990749  0.608330  0.212569  1
