# generated using pymatgen
data_Y3In3NiIr2
_symmetry_space_group_name_H-M   'P 1'
_cell_length_a   7.60039500
_cell_length_b   7.60039512
_cell_length_c   3.80080400
_cell_angle_alpha   90.00000000
_cell_angle_beta   90.00000000
_cell_angle_gamma   120.00000383
_symmetry_Int_Tables_number   1
_chemical_formula_structural   Y3In3NiIr2
_chemical_formula_sum   'Y3 In3 Ni1 Ir2'
_cell_volume   190.14216015
_cell_formula_units_Z   1
loop_
 _symmetry_equiv_pos_site_id
 _symmetry_equiv_pos_as_xyz
  1  'x, y, z'
loop_
 _atom_site_type_symbol
 _atom_site_label
 _atom_site_symmetry_multiplicity
 _atom_site_fract_x
 _atom_site_fract_y
 _atom_site_fract_z
 _atom_site_occupancy
  Y  Y0  1  0.000000  0.589416  0.500000  1
  Y  Y1  1  0.589416  0.000000  0.500000  1
  Y  Y2  1  0.410584  0.410584  0.500000  1
  In  In3  1  0.000000  0.251558  0.000000  1
  In  In4  1  0.251558  0.000000  0.000000  1
  In  In5  1  0.748442  0.748442  0.000000  1
  Ni  Ni6  1  0.000000  0.000000  0.500000  1
  Ir  Ir7  1  0.666667  0.333333  0.000000  1
  Ir  Ir8  1  0.333333  0.666667  0.000000  1
