# generated using pymatgen
data_Ca2YGa2GeRh6
_symmetry_space_group_name_H-M   'P 1'
_cell_length_a   5.64217500
_cell_length_b   5.64217535
_cell_length_c   15.52169900
_cell_angle_alpha   90.00000000
_cell_angle_beta   90.00000000
_cell_angle_gamma   120.00000380
_symmetry_Int_Tables_number   1
_chemical_formula_structural   Ca2YGa2GeRh6
_chemical_formula_sum   'Ca4 Y2 Ga4 Ge2 Rh12'
_cell_volume   427.92041291
_cell_formula_units_Z   2
loop_
 _symmetry_equiv_pos_site_id
 _symmetry_equiv_pos_as_xyz
  1  'x, y, z'
loop_
 _atom_site_type_symbol
 _atom_site_label
 _atom_site_symmetry_multiplicity
 _atom_site_fract_x
 _atom_site_fract_y
 _atom_site_fract_z
 _atom_site_occupancy
  Ca  Ca0  1  0.333333  0.666667  0.538937  1
  Ca  Ca1  1  0.666667  0.333333  0.461063  1
  Ca  Ca2  1  0.333333  0.666667  0.743811  1
  Ca  Ca3  1  0.666667  0.333333  0.256189  1
  Y  Y4  1  0.666667  0.333333  0.043467  1
  Y  Y5  1  0.333333  0.666667  0.956533  1
  Ga  Ga6  1  0.000000  0.000000  0.247362  1
  Ga  Ga7  1  0.000000  0.000000  0.752638  1
  Ga  Ga8  1  0.000000  0.000000  0.000000  1
  Ga  Ga9  1  0.000000  0.000000  0.500000  1
  Ge  Ge10  1  0.333333  0.666667  0.249167  1
  Ge  Ge11  1  0.666667  0.333333  0.750833  1
  Rh  Rh12  1  0.169708  0.339415  0.124930  1
  Rh  Rh13  1  0.830292  0.660585  0.875070  1
  Rh  Rh14  1  0.660585  0.830292  0.124930  1
  Rh  Rh15  1  0.832693  0.665387  0.629974  1
  Rh  Rh16  1  0.339415  0.169708  0.875070  1
  Rh  Rh17  1  0.167307  0.334613  0.370026  1
  Rh  Rh18  1  0.169708  0.830292  0.124930  1
  Rh  Rh19  1  0.334613  0.167307  0.629974  1
  Rh  Rh20  1  0.830292  0.169708  0.875070  1
  Rh  Rh21  1  0.665387  0.832693  0.370026  1
  Rh  Rh22  1  0.832693  0.167307  0.629974  1
  Rh  Rh23  1  0.167307  0.832693  0.370026  1
