# generated using pymatgen
data_Hf4BeSiH2
_symmetry_space_group_name_H-M   'P 1'
_cell_length_a   5.33888223
_cell_length_b   5.33888200
_cell_length_c   5.33888232
_cell_angle_alpha   104.31395749
_cell_angle_beta   104.31395100
_cell_angle_gamma   120.36652857
_symmetry_Int_Tables_number   1
_chemical_formula_structural   Hf4BeSiH2
_chemical_formula_sum   'Hf4 Be1 Si1 H2'
_cell_volume   113.91882076
_cell_formula_units_Z   1
loop_
 _symmetry_equiv_pos_site_id
 _symmetry_equiv_pos_as_xyz
  1  'x, y, z'
loop_
 _atom_site_type_symbol
 _atom_site_label
 _atom_site_symmetry_multiplicity
 _atom_site_fract_x
 _atom_site_fract_y
 _atom_site_fract_z
 _atom_site_occupancy
  Hf  Hf0  1  0.164170  0.664170  0.828342  1
  Hf  Hf1  1  0.835830  0.335830  0.171658  1
  Hf  Hf2  1  0.335830  0.164170  0.500000  1
  Hf  Hf3  1  0.664170  0.835830  0.500000  1
  Be  Be4  1  0.250000  0.250000  0.000000  1
  Si  Si5  1  0.750000  0.750000  0.000000  1
  H  H6  1  0.750000  0.250000  0.500000  1
  H  H7  1  0.250000  0.750000  0.500000  1
