# generated using pymatgen
data_Ta2Ti4P4Pd
_symmetry_space_group_name_H-M   'P 1'
_cell_length_a   7.36004041
_cell_length_b   7.36004048
_cell_length_c   13.92978487
_cell_angle_alpha   75.83159843
_cell_angle_beta   75.83159805
_cell_angle_gamma   27.08131910
_symmetry_Int_Tables_number   1
_chemical_formula_structural   Ta2Ti4P4Pd
_chemical_formula_sum   'Ta4 Ti8 P8 Pd2'
_cell_volume   332.45962237
_cell_formula_units_Z   2
loop_
 _symmetry_equiv_pos_site_id
 _symmetry_equiv_pos_as_xyz
  1  'x, y, z'
loop_
 _atom_site_type_symbol
 _atom_site_label
 _atom_site_symmetry_multiplicity
 _atom_site_fract_x
 _atom_site_fract_y
 _atom_site_fract_z
 _atom_site_occupancy
  Ta  Ta0  1  0.000000  0.000000  0.000000  1
  Ta  Ta1  1  0.500000  0.500000  0.500000  1
  Ta  Ta2  1  0.426524  0.426524  0.170515  1
  Ta  Ta3  1  0.573476  0.573476  0.829485  1
  Ti  Ti4  1  0.211986  0.211986  0.207092  1
  Ti  Ti5  1  0.788014  0.788014  0.792908  1
  Ti  Ti6  1  0.339928  0.339928  0.964946  1
  Ti  Ti7  1  0.660072  0.660072  0.035054  1
  Ti  Ti8  1  0.002192  0.002192  0.335972  1
  Ti  Ti9  1  0.997808  0.997808  0.664028  1
  Ti  Ti10  1  0.172153  0.172153  0.463240  1
  Ti  Ti11  1  0.827847  0.827847  0.536760  1
  P  P12  1  0.182475  0.182475  0.899874  1
  P  P13  1  0.817525  0.817525  0.100126  1
  P  P14  1  0.370550  0.370550  0.400089  1
  P  P15  1  0.629450  0.629450  0.599911  1
  P  P16  1  0.367761  0.367761  0.661414  1
  P  P17  1  0.632239  0.632239  0.338586  1
  P  P18  1  0.062984  0.062984  0.155676  1
  P  P19  1  0.937016  0.937016  0.844324  1
  Pd  Pd20  1  0.195323  0.195323  0.679308  1
  Pd  Pd21  1  0.804677  0.804677  0.320692  1
