# generated using pymatgen
data_HoAl3Fe5Re4
_symmetry_space_group_name_H-M   'P 1'
_cell_length_a   6.63165639
_cell_length_b   6.63165531
_cell_length_c   6.63165583
_cell_angle_alpha   137.56541179
_cell_angle_beta   97.04044286
_cell_angle_gamma   98.01208290
_symmetry_Int_Tables_number   1
_chemical_formula_structural   HoAl3Fe5Re4
_chemical_formula_sum   'Ho1 Al3 Fe5 Re4'
_cell_volume   183.44385497
_cell_formula_units_Z   1
loop_
 _symmetry_equiv_pos_site_id
 _symmetry_equiv_pos_as_xyz
  1  'x, y, z'
loop_
 _atom_site_type_symbol
 _atom_site_label
 _atom_site_symmetry_multiplicity
 _atom_site_fract_x
 _atom_site_fract_y
 _atom_site_fract_z
 _atom_site_occupancy
  Ho  Ho0  1  0.006952  0.000000  0.006952  1
  Al  Al1  1  0.771990  0.500000  0.271990  1
  Al  Al2  1  0.787760  0.285102  0.502659  1
  Al  Al3  1  0.217557  0.714898  0.502659  1
  Fe  Fe4  1  0.499290  0.501885  0.503854  1
  Fe  Fe5  1  0.499290  0.995436  0.997405  1
  Fe  Fe6  1  0.001969  0.004564  0.503854  1
  Fe  Fe7  1  0.001969  0.498115  0.997405  1
  Fe  Fe8  1  0.222416  0.500000  0.722416  1
  Re  Re9  1  0.639222  0.000000  0.639222  1
  Re  Re10  1  0.358623  0.000000  0.358623  1
  Re  Re11  1  0.354113  0.357632  0.996481  1
  Re  Re12  1  0.638849  0.642368  0.996481  1
