# generated using pymatgen
data_Ta6Be12Co5(SiNi)3
_symmetry_space_group_name_H-M   'P 1'
_cell_length_a   7.65459436
_cell_length_b   7.65488657
_cell_length_c   7.65194900
_cell_angle_alpha   59.72142620
_cell_angle_beta   59.72162011
_cell_angle_gamma   59.86545747
_symmetry_Int_Tables_number   1
_chemical_formula_structural   Ta6Be12Co5(SiNi)3
_chemical_formula_sum   'Ta6 Be12 Co5 Si3 Ni3'
_cell_volume   315.38229989
_cell_formula_units_Z   1
loop_
 _symmetry_equiv_pos_site_id
 _symmetry_equiv_pos_as_xyz
  1  'x, y, z'
loop_
 _atom_site_type_symbol
 _atom_site_label
 _atom_site_symmetry_multiplicity
 _atom_site_fract_x
 _atom_site_fract_y
 _atom_site_fract_z
 _atom_site_occupancy
  Ta  Ta0  1  0.709606  0.293312  0.298373  1
  Ta  Ta1  1  0.287974  0.705070  0.708405  1
  Ta  Ta2  1  0.291588  0.708115  0.296136  1
  Ta  Ta3  1  0.706925  0.290526  0.701372  1
  Ta  Ta4  1  0.299395  0.300192  0.703406  1
  Ta  Ta5  1  0.705543  0.698545  0.294320  1
  Be  Be6  1  0.332061  0.333171  0.315765  1
  Be  Be7  1  0.668191  0.667307  0.682790  1
  Be  Be8  1  0.325947  0.328419  0.016970  1
  Be  Be9  1  0.320477  0.018017  0.322944  1
  Be  Be10  1  0.673190  0.673405  0.983635  1
  Be  Be11  1  0.679152  0.980436  0.677888  1
  Be  Be12  1  0.020310  0.321666  0.321019  1
  Be  Be13  1  0.980926  0.679683  0.677267  1
  Be  Be14  1  0.499743  0.999867  0.000356  1
  Be  Be15  1  0.000645  0.500648  0.000459  1
  Be  Be16  1  0.000086  0.999816  0.499900  1
  Be  Be17  1  0.498849  0.500342  0.000192  1
  Co  Co18  1  0.124140  0.123795  0.120536  1
  Co  Co19  1  0.874825  0.877020  0.879191  1
  Co  Co20  1  0.123764  0.123635  0.628893  1
  Co  Co21  1  0.125369  0.629442  0.120751  1
  Co  Co22  1  0.875018  0.877152  0.372080  1
  Si  Si23  1  0.000825  0.500189  0.498002  1
  Si  Si24  1  0.499725  0.999913  0.499754  1
  Si  Si25  1  0.000542  0.998351  0.000800  1
  Ni  Ni26  1  0.874496  0.371895  0.879453  1
  Ni  Ni27  1  0.627621  0.125332  0.120731  1
  Ni  Ni28  1  0.373071  0.874740  0.878610  1
