# generated using pymatgen
data_Sc8Al14SiOs7
_symmetry_space_group_name_H-M   'P 1'
_cell_length_a   8.87945912
_cell_length_b   8.87945993
_cell_length_c   8.87945900
_cell_angle_alpha   120.15156950
_cell_angle_beta   120.00115072
_cell_angle_gamma   89.86784462
_symmetry_Int_Tables_number   1
_chemical_formula_structural   Sc8Al14SiOs7
_chemical_formula_sum   'Sc8 Al14 Si1 Os7'
_cell_volume   494.47099633
_cell_formula_units_Z   1
loop_
 _symmetry_equiv_pos_site_id
 _symmetry_equiv_pos_as_xyz
  1  'x, y, z'
loop_
 _atom_site_type_symbol
 _atom_site_label
 _atom_site_symmetry_multiplicity
 _atom_site_fract_x
 _atom_site_fract_y
 _atom_site_fract_z
 _atom_site_occupancy
  Sc  Sc0  1  0.794171  0.287073  0.075609  1
  Sc  Sc1  1  0.211464  0.287077  0.492903  1
  Sc  Sc2  1  0.204618  0.704618  0.500000  1
  Sc  Sc3  1  0.211466  0.718563  0.924391  1
  Sc  Sc4  1  0.794174  0.718561  0.507097  1
  Sc  Sc5  1  0.781065  0.281065  0.500000  1
  Sc  Sc6  1  0.378532  0.115654  0.737123  1
  Sc  Sc7  1  0.378532  0.641409  0.262877  1
  Al  Al8  1  0.161813  0.336352  0.174538  1
  Al  Al9  1  0.161814  0.987274  0.825462  1
  Al  Al10  1  0.158832  0.340335  0.818493  1
  Al  Al11  1  0.521841  0.340338  0.181507  1
  Al  Al12  1  0.839598  0.661236  0.821636  1
  Al  Al13  1  0.839601  0.017962  0.178364  1
  Al  Al14  1  0.840031  0.661250  0.178777  1
  Al  Al15  1  0.482472  0.661255  0.821223  1
  Al  Al16  1  0.373008  0.122090  0.250917  1
  Al  Al17  1  0.871172  0.122090  0.749083  1
  Al  Al18  1  0.621377  0.871893  0.250513  1
  Al  Al19  1  0.621380  0.370865  0.749487  1
  Al  Al20  1  0.622526  0.878750  0.743779  1
  Al  Al21  1  0.134969  0.878747  0.256221  1
  Si  Si22  1  0.994554  0.494554  0.500000  1
  Os  Os23  1  0.992325  0.997608  0.496740  1
  Os  Os24  1  0.500860  0.997601  0.005283  1
  Os  Os25  1  0.502754  0.502754  0.000000  1
  Os  Os26  1  0.500868  0.495584  0.503260  1
  Os  Os27  1  0.992320  0.495577  0.994717  1
  Os  Os28  1  0.999230  0.999230  0.000000  1
  Os  Os29  1  0.512631  0.012631  0.500000  1
