# generated using pymatgen
data_Ho4Er2MnBi2
_symmetry_space_group_name_H-M   'P 1'
_cell_length_a   8.26516278
_cell_length_b   8.25893070
_cell_length_c   4.27123100
_cell_angle_alpha   90.00000000
_cell_angle_beta   90.00000000
_cell_angle_gamma   119.97506205
_symmetry_Int_Tables_number   1
_chemical_formula_structural   Ho4Er2MnBi2
_chemical_formula_sum   'Ho4 Er2 Mn1 Bi2'
_cell_volume   252.56199813
_cell_formula_units_Z   1
loop_
 _symmetry_equiv_pos_site_id
 _symmetry_equiv_pos_as_xyz
  1  'x, y, z'
loop_
 _atom_site_type_symbol
 _atom_site_label
 _atom_site_symmetry_multiplicity
 _atom_site_fract_x
 _atom_site_fract_y
 _atom_site_fract_z
 _atom_site_occupancy
  Ho  Ho0  1  0.000000  0.609897  0.500000  1
  Ho  Ho1  1  0.390965  0.390474  0.500000  1
  Ho  Ho2  1  0.000000  0.232796  0.000000  1
  Ho  Ho3  1  0.609035  0.999509  0.500000  1
  Er  Er4  1  0.232428  0.999588  0.000000  1
  Er  Er5  1  0.767572  0.767160  0.000000  1
  Mn  Mn6  1  0.000000  0.000210  0.500000  1
  Bi  Bi7  1  0.334102  0.667235  0.000000  1
  Bi  Bi8  1  0.665898  0.333132  0.000000  1
