# generated using pymatgen
data_LiPr6V(Co4P3)4
_symmetry_space_group_name_H-M   'P 1'
_cell_length_a   3.77873000
_cell_length_b   10.70848900
_cell_length_c   12.44271600
_cell_angle_alpha   90.00000000
_cell_angle_beta   90.00000000
_cell_angle_gamma   90.00000000
_symmetry_Int_Tables_number   1
_chemical_formula_structural   LiPr6V(Co4P3)4
_chemical_formula_sum   'Li1 Pr6 V1 Co16 P12'
_cell_volume   503.48814022
_cell_formula_units_Z   1
loop_
 _symmetry_equiv_pos_site_id
 _symmetry_equiv_pos_as_xyz
  1  'x, y, z'
loop_
 _atom_site_type_symbol
 _atom_site_label
 _atom_site_symmetry_multiplicity
 _atom_site_fract_x
 _atom_site_fract_y
 _atom_site_fract_z
 _atom_site_occupancy
  Li  Li0  1  0.500000  0.500000  0.149046  1
  Pr  Pr1  1  0.000000  0.500000  0.522614  1
  Pr  Pr2  1  0.500000  0.000000  0.477667  1
  Pr  Pr3  1  0.500000  0.818863  0.205315  1
  Pr  Pr4  1  0.500000  0.181137  0.205315  1
  Pr  Pr5  1  0.000000  0.681369  0.793826  1
  Pr  Pr6  1  0.000000  0.318631  0.793826  1
  V  V7  1  0.000000  0.000000  0.847449  1
  Co  Co8  1  0.500000  0.500000  0.705929  1
  Co  Co9  1  0.000000  0.000000  0.295880  1
  Co  Co10  1  0.000000  0.500000  0.987396  1
  Co  Co11  1  0.500000  0.000000  0.010858  1
  Co  Co12  1  0.500000  0.331264  0.994854  1
  Co  Co13  1  0.500000  0.668736  0.994854  1
  Co  Co14  1  0.000000  0.165785  0.003439  1
  Co  Co15  1  0.000000  0.834215  0.003439  1
  Co  Co16  1  0.500000  0.295631  0.432147  1
  Co  Co17  1  0.500000  0.704369  0.432147  1
  Co  Co18  1  0.000000  0.202371  0.570650  1
  Co  Co19  1  0.000000  0.797629  0.570650  1
  Co  Co20  1  0.500000  0.881631  0.709681  1
  Co  Co21  1  0.500000  0.118369  0.709681  1
  Co  Co22  1  0.000000  0.620149  0.293902  1
  Co  Co23  1  0.000000  0.379851  0.293902  1
  P  P24  1  0.500000  0.500000  0.888889  1
  P  P25  1  0.000000  0.000000  0.112881  1
  P  P26  1  0.500000  0.500000  0.340431  1
  P  P27  1  0.000000  0.000000  0.658035  1
  P  P28  1  0.500000  0.304071  0.613693  1
  P  P29  1  0.500000  0.695929  0.613693  1
  P  P30  1  0.000000  0.195529  0.387302  1
  P  P31  1  0.000000  0.804471  0.387302  1
  P  P32  1  0.500000  0.848143  0.894312  1
  P  P33  1  0.500000  0.151857  0.894312  1
  P  P34  1  0.000000  0.655091  0.102344  1
  P  P35  1  0.000000  0.344909  0.102344  1
