# generated using pymatgen
data_Yb4Dy2Si24Os5Ru3
_symmetry_space_group_name_H-M   'P 1'
_cell_length_a   10.14763888
_cell_length_b   10.14716233
_cell_length_c   8.15729710
_cell_angle_alpha   89.99232998
_cell_angle_beta   89.99510759
_cell_angle_gamma   132.61752861
_symmetry_Int_Tables_number   1
_chemical_formula_structural   Yb4Dy2Si24Os5Ru3
_chemical_formula_sum   'Yb4 Dy2 Si24 Os5 Ru3'
_cell_volume   618.11425884
_cell_formula_units_Z   1
loop_
 _symmetry_equiv_pos_site_id
 _symmetry_equiv_pos_as_xyz
  1  'x, y, z'
loop_
 _atom_site_type_symbol
 _atom_site_label
 _atom_site_symmetry_multiplicity
 _atom_site_fract_x
 _atom_site_fract_y
 _atom_site_fract_z
 _atom_site_occupancy
  Yb  Yb0  1  0.499514  0.499363  0.499937  1
  Yb  Yb1  1  0.999796  0.999952  0.999398  1
  Yb  Yb2  1  0.499918  0.000023  0.750037  1
  Yb  Yb3  1  0.999905  0.500475  0.250161  1
  Dy  Dy4  1  0.500946  0.000410  0.250194  1
  Dy  Dy5  1  0.999377  0.499374  0.749940  1
  Si  Si6  1  0.796050  0.204127  0.500019  1
  Si  Si7  1  0.295535  0.704643  0.000057  1
  Si  Si8  1  0.204582  0.795654  0.500042  1
  Si  Si9  1  0.704147  0.295911  0.000014  1
  Si  Si10  1  0.332248  0.336246  0.832041  1
  Si  Si11  1  0.664050  0.667981  0.168103  1
  Si  Si12  1  0.167293  0.163028  0.329973  1
  Si  Si13  1  0.834476  0.830475  0.667535  1
  Si  Si14  1  0.123219  0.890560  0.730485  1
  Si  Si15  1  0.109675  0.877446  0.269628  1
  Si  Si16  1  0.607745  0.375286  0.230132  1
  Si  Si17  1  0.625319  0.392565  0.770123  1
  Si  Si18  1  0.876520  0.108747  0.269902  1
  Si  Si19  1  0.891185  0.123952  0.730245  1
  Si  Si20  1  0.391432  0.624202  0.769949  1
  Si  Si21  1  0.376201  0.608663  0.230269  1
  Si  Si22  1  0.347087  0.113419  0.506819  1
  Si  Si23  1  0.886632  0.653469  0.493879  1
  Si  Si24  1  0.386591  0.153261  0.009766  1
  Si  Si25  1  0.846810  0.613836  0.990753  1
  Si  Si26  1  0.653364  0.885985  0.491819  1
  Si  Si27  1  0.113924  0.347165  0.508768  1
  Si  Si28  1  0.613140  0.846603  0.992828  1
  Si  Si29  1  0.153403  0.387260  0.007616  1
  Os  Os30  1  0.671160  0.328984  0.500009  1
  Os  Os31  1  0.170632  0.829557  0.999951  1
  Os  Os32  1  0.329627  0.670519  0.500001  1
  Os  Os33  1  0.828863  0.171159  0.999997  1
  Os  Os34  1  0.126813  0.127130  0.624752  1
  Ru  Ru35  1  0.872584  0.873020  0.375026  1
  Ru  Ru36  1  0.373396  0.373036  0.124292  1
  Ru  Ru37  1  0.626839  0.626512  0.875543  1
