# generated using pymatgen
data_Pr2In4CoCuIr16
_symmetry_space_group_name_H-M   'P 1'
_cell_length_a   8.79138203
_cell_length_b   8.79138203
_cell_length_c   5.24083000
_cell_angle_alpha   90.00000000
_cell_angle_beta   90.00000000
_cell_angle_gamma   89.99105831
_symmetry_Int_Tables_number   1
_chemical_formula_structural   Pr2In4CoCuIr16
_chemical_formula_sum   'Pr2 In4 Co1 Cu1 Ir16'
_cell_volume   405.05534965
_cell_formula_units_Z   1
loop_
 _symmetry_equiv_pos_site_id
 _symmetry_equiv_pos_as_xyz
  1  'x, y, z'
loop_
 _atom_site_type_symbol
 _atom_site_label
 _atom_site_symmetry_multiplicity
 _atom_site_fract_x
 _atom_site_fract_y
 _atom_site_fract_z
 _atom_site_occupancy
  Pr  Pr0  1  0.000000  0.000000  0.000000  1
  Pr  Pr1  1  0.500000  0.500000  0.000000  1
  In  In2  1  0.122145  0.622145  0.000000  1
  In  In3  1  0.877855  0.377855  0.000000  1
  In  In4  1  0.621962  0.878038  0.000000  1
  In  In5  1  0.378038  0.121962  0.000000  1
  Co  Co6  1  0.500000  0.000000  0.500000  1
  Cu  Cu7  1  0.000000  0.500000  0.500000  1
  Ir  Ir8  1  0.206813  0.063560  0.500000  1
  Ir  Ir9  1  0.793187  0.936440  0.500000  1
  Ir  Ir10  1  0.064065  0.793884  0.500000  1
  Ir  Ir11  1  0.706116  0.435935  0.500000  1
  Ir  Ir12  1  0.935935  0.206116  0.500000  1
  Ir  Ir13  1  0.293884  0.564065  0.500000  1
  Ir  Ir14  1  0.563560  0.706813  0.500000  1
  Ir  Ir15  1  0.436440  0.293187  0.500000  1
  Ir  Ir16  1  0.674076  0.174076  0.244579  1
  Ir  Ir17  1  0.325924  0.825924  0.755421  1
  Ir  Ir18  1  0.325924  0.825924  0.244579  1
  Ir  Ir19  1  0.177178  0.322822  0.238903  1
  Ir  Ir20  1  0.177178  0.322822  0.761097  1
  Ir  Ir21  1  0.674076  0.174076  0.755421  1
  Ir  Ir22  1  0.822822  0.677178  0.761097  1
  Ir  Ir23  1  0.822822  0.677178  0.238903  1
