# generated using pymatgen
data_Hf3FeAs2Os3
_symmetry_space_group_name_H-M   'P 1'
_cell_length_a   6.58382400
_cell_length_b   6.58382464
_cell_length_c   3.87953600
_cell_angle_alpha   90.00000000
_cell_angle_beta   90.00000000
_cell_angle_gamma   120.00000683
_symmetry_Int_Tables_number   1
_chemical_formula_structural   Hf3FeAs2Os3
_chemical_formula_sum   'Hf3 Fe1 As2 Os3'
_cell_volume   145.63536738
_cell_formula_units_Z   1
loop_
 _symmetry_equiv_pos_site_id
 _symmetry_equiv_pos_as_xyz
  1  'x, y, z'
loop_
 _atom_site_type_symbol
 _atom_site_label
 _atom_site_symmetry_multiplicity
 _atom_site_fract_x
 _atom_site_fract_y
 _atom_site_fract_z
 _atom_site_occupancy
  Hf  Hf0  1  0.391787  0.391787  0.500000  1
  Hf  Hf1  1  0.608213  0.000000  0.500000  1
  Hf  Hf2  1  0.000000  0.608213  0.500000  1
  Fe  Fe3  1  0.000000  0.000000  0.500000  1
  As  As4  1  0.666667  0.333333  0.000000  1
  As  As5  1  0.333333  0.666667  0.000000  1
  Os  Os6  1  0.763247  0.763247  0.000000  1
  Os  Os7  1  0.236753  0.000000  0.000000  1
  Os  Os8  1  0.000000  0.236753  0.000000  1
