# generated using pymatgen
data_NaLa2Pr4RuBr12
_symmetry_space_group_name_H-M   'P 1'
_cell_length_a   9.66986105
_cell_length_b   9.67227207
_cell_length_c   9.67934993
_cell_angle_alpha   107.01091454
_cell_angle_beta   107.30930502
_cell_angle_gamma   107.28323459
_symmetry_Int_Tables_number   1
_chemical_formula_structural   NaLa2Pr4RuBr12
_chemical_formula_sum   'Na1 La2 Pr4 Ru1 Br12'
_cell_volume   749.76636354
_cell_formula_units_Z   1
loop_
 _symmetry_equiv_pos_site_id
 _symmetry_equiv_pos_as_xyz
  1  'x, y, z'
loop_
 _atom_site_type_symbol
 _atom_site_label
 _atom_site_symmetry_multiplicity
 _atom_site_fract_x
 _atom_site_fract_y
 _atom_site_fract_z
 _atom_site_occupancy
  Na  Na0  1  0.500162  0.500200  0.500309  1
  La  La1  1  0.112998  0.319751  0.030423  1
  La  La2  1  0.320113  0.030555  0.113618  1
  Pr  Pr3  1  0.030581  0.112476  0.319491  1
  Pr  Pr4  1  0.969047  0.886707  0.680256  1
  Pr  Pr5  1  0.681237  0.968976  0.886478  1
  Pr  Pr6  1  0.885956  0.681268  0.968980  1
  Ru  Ru7  1  0.003992  0.003036  0.001205  1
  Br  Br8  1  0.214624  0.682500  0.071578  1
  Br  Br9  1  0.456936  0.373535  0.158110  1
  Br  Br10  1  0.685227  0.073019  0.215656  1
  Br  Br11  1  0.927146  0.782900  0.314536  1
  Br  Br12  1  0.156609  0.454093  0.373436  1
  Br  Br13  1  0.371164  0.157523  0.456395  1
  Br  Br14  1  0.628199  0.843471  0.545817  1
  Br  Br15  1  0.843353  0.545672  0.629002  1
  Br  Br16  1  0.071974  0.215110  0.682712  1
  Br  Br17  1  0.314559  0.926186  0.781863  1
  Br  Br18  1  0.545187  0.628358  0.843121  1
  Br  Br19  1  0.780940  0.314667  0.927018  1
