# generated using pymatgen
data_Ga4Hg11(PBr4)4
_symmetry_space_group_name_H-M   'P 1'
_cell_length_a   7.84356935
_cell_length_b   7.84356979
_cell_length_c   22.42769790
_cell_angle_alpha   81.80002858
_cell_angle_beta   81.80002783
_cell_angle_gamma   59.55647673
_symmetry_Int_Tables_number   1
_chemical_formula_structural   Ga4Hg11(PBr4)4
_chemical_formula_sum   'Ga4 Hg11 P4 Br16'
_cell_volume   1173.38390615
_cell_formula_units_Z   1
loop_
 _symmetry_equiv_pos_site_id
 _symmetry_equiv_pos_as_xyz
  1  'x, y, z'
loop_
 _atom_site_type_symbol
 _atom_site_label
 _atom_site_symmetry_multiplicity
 _atom_site_fract_x
 _atom_site_fract_y
 _atom_site_fract_z
 _atom_site_occupancy
  Ga  Ga0  1  0.638713  0.638713  0.109532  1
  Ga  Ga1  1  0.361287  0.361287  0.890468  1
  Ga  Ga2  1  0.758497  0.758497  0.613474  1
  Ga  Ga3  1  0.241503  0.241503  0.386526  1
  Hg  Hg4  1  0.031943  0.031943  0.878217  1
  Hg  Hg5  1  0.764349  0.764349  0.283675  1
  Hg  Hg6  1  0.471118  0.471118  0.560134  1
  Hg  Hg7  1  0.734088  0.235434  0.720539  1
  Hg  Hg8  1  0.265912  0.764566  0.279461  1
  Hg  Hg9  1  0.764566  0.265912  0.279461  1
  Hg  Hg10  1  0.235434  0.734088  0.720539  1
  Hg  Hg11  1  0.528882  0.528882  0.439866  1
  Hg  Hg12  1  0.968057  0.968057  0.121783  1
  Hg  Hg13  1  0.000000  0.000000  0.000000  1
  Hg  Hg14  1  0.235651  0.235651  0.716325  1
  P  P15  1  0.941006  0.941006  0.237699  1
  P  P16  1  0.058994  0.058994  0.762301  1
  P  P17  1  0.585039  0.585039  0.325649  1
  P  P18  1  0.414961  0.414961  0.674351  1
  Br  Br19  1  0.534718  0.047925  0.849083  1
  Br  Br20  1  0.069605  0.069605  0.422326  1
  Br  Br21  1  0.533458  0.533458  0.848543  1
  Br  Br22  1  0.430074  0.929411  0.584280  1
  Br  Br23  1  0.737126  0.737126  0.720074  1
  Br  Br24  1  0.335100  0.335100  0.994984  1
  Br  Br25  1  0.465282  0.952075  0.150917  1
  Br  Br26  1  0.952075  0.465282  0.150917  1
  Br  Br27  1  0.466542  0.466542  0.151457  1
  Br  Br28  1  0.569926  0.070589  0.415720  1
  Br  Br29  1  0.664900  0.664900  0.005016  1
  Br  Br30  1  0.929411  0.430074  0.584280  1
  Br  Br31  1  0.262874  0.262874  0.279926  1
  Br  Br32  1  0.070589  0.569926  0.415720  1
  Br  Br33  1  0.930395  0.930395  0.577674  1
  Br  Br34  1  0.047925  0.534718  0.849083  1
