# generated using pymatgen
data_SbTe11PtRhI6
_symmetry_space_group_name_H-M   'P 1'
_cell_length_a   10.04591342
_cell_length_b   9.99331798
_cell_length_c   10.15239420
_cell_angle_alpha   109.65554226
_cell_angle_beta   108.99866455
_cell_angle_gamma   109.34231292
_symmetry_Int_Tables_number   1
_chemical_formula_structural   SbTe11PtRhI6
_chemical_formula_sum   'Sb1 Te11 Pt1 Rh1 I6'
_cell_volume   788.58915801
_cell_formula_units_Z   1
loop_
 _symmetry_equiv_pos_site_id
 _symmetry_equiv_pos_as_xyz
  1  'x, y, z'
loop_
 _atom_site_type_symbol
 _atom_site_label
 _atom_site_symmetry_multiplicity
 _atom_site_fract_x
 _atom_site_fract_y
 _atom_site_fract_z
 _atom_site_occupancy
  Sb  Sb0  1  0.939812  0.166322  0.190593  1
  Te  Te1  1  0.177748  0.936922  0.160081  1
  Te  Te2  1  0.160884  0.187164  0.945522  1
  Te  Te3  1  0.688976  0.672792  0.446081  1
  Te  Te4  1  0.442551  0.685967  0.664789  1
  Te  Te5  1  0.663086  0.438868  0.677121  1
  Te  Te6  1  0.058478  0.839170  0.819266  1
  Te  Te7  1  0.818677  0.065462  0.854691  1
  Te  Te8  1  0.831670  0.806011  0.054313  1
  Te  Te9  1  0.315733  0.337639  0.558949  1
  Te  Te10  1  0.573584  0.316912  0.339418  1
  Te  Te11  1  0.343972  0.567290  0.320939  1
  Pt  Pt12  1  0.251933  0.251943  0.251547  1
  Rh  Rh13  1  0.749905  0.750728  0.750000  1
  I  I14  1  0.998657  0.509931  0.256223  1
  I  I15  1  0.246091  0.990916  0.499407  1
  I  I16  1  0.503583  0.247170  0.993364  1
  I  I17  1  0.745905  0.998823  0.473202  1
  I  I18  1  0.484101  0.737215  0.992709  1
  I  I19  1  0.004651  0.492753  0.751787  1
