# generated using pymatgen
data_Tm5Rh2
_symmetry_space_group_name_H-M   'P 1'
_cell_length_a   6.32215089
_cell_length_b   7.12752348
_cell_length_c   8.48013059
_cell_angle_alpha   96.79764358
_cell_angle_beta   111.88610316
_cell_angle_gamma   90.00000242
_symmetry_Int_Tables_number   1
_chemical_formula_structural   Tm5Rh2
_chemical_formula_sum   'Tm10 Rh4'
_cell_volume   351.68798353
_cell_formula_units_Z   2
loop_
 _symmetry_equiv_pos_site_id
 _symmetry_equiv_pos_as_xyz
  1  'x, y, z'
loop_
 _atom_site_type_symbol
 _atom_site_label
 _atom_site_symmetry_multiplicity
 _atom_site_fract_x
 _atom_site_fract_y
 _atom_site_fract_z
 _atom_site_occupancy
  Tm  Tm0  1  0.790433  0.082565  0.812128  1
  Tm  Tm1  1  0.978305  0.417435  0.187872  1
  Tm  Tm2  1  0.209567  0.917435  0.187872  1
  Tm  Tm3  1  0.021695  0.582565  0.812128  1
  Tm  Tm4  1  0.208448  0.185584  0.561673  1
  Tm  Tm5  1  0.646775  0.314416  0.438327  1
  Tm  Tm6  1  0.791552  0.814416  0.438327  1
  Tm  Tm7  1  0.353225  0.685584  0.561673  1
  Tm  Tm8  1  0.422238  0.250000  0.000000  1
  Tm  Tm9  1  0.577762  0.750000  0.000000  1
  Rh  Rh10  1  0.598809  0.425203  0.780056  1
  Rh  Rh11  1  0.818753  0.074797  0.219944  1
  Rh  Rh12  1  0.401191  0.574797  0.219944  1
  Rh  Rh13  1  0.181247  0.925203  0.780056  1
