# generated using pymatgen
data_Tb6AlGe3Ru4
_symmetry_space_group_name_H-M   'P 1'
_cell_length_a   5.60197500
_cell_length_b   7.72368000
_cell_length_c   13.67918200
_cell_angle_alpha   90.00000000
_cell_angle_beta   90.00000000
_cell_angle_gamma   90.00000000
_symmetry_Int_Tables_number   1
_chemical_formula_structural   Tb6AlGe3Ru4
_chemical_formula_sum   'Tb12 Al2 Ge6 Ru8'
_cell_volume   591.86896271
_cell_formula_units_Z   2
loop_
 _symmetry_equiv_pos_site_id
 _symmetry_equiv_pos_as_xyz
  1  'x, y, z'
loop_
 _atom_site_type_symbol
 _atom_site_label
 _atom_site_symmetry_multiplicity
 _atom_site_fract_x
 _atom_site_fract_y
 _atom_site_fract_z
 _atom_site_occupancy
  Tb  Tb0  1  0.849146  0.904295  0.598553  1
  Tb  Tb1  1  0.150180  0.401551  0.901710  1
  Tb  Tb2  1  0.849146  0.595705  0.098553  1
  Tb  Tb3  1  0.628540  0.267101  0.750000  1
  Tb  Tb4  1  0.628540  0.232899  0.250000  1
  Tb  Tb5  1  0.849146  0.595705  0.401447  1
  Tb  Tb6  1  0.371662  0.734061  0.250000  1
  Tb  Tb7  1  0.150180  0.098449  0.098290  1
  Tb  Tb8  1  0.150180  0.098449  0.401710  1
  Tb  Tb9  1  0.371662  0.765939  0.750000  1
  Tb  Tb10  1  0.150180  0.401551  0.598290  1
  Tb  Tb11  1  0.849146  0.904295  0.901447  1
  Al  Al12  1  0.375851  0.750000  0.500000  1
  Al  Al13  1  0.375851  0.750000  0.000000  1
  Ge  Ge14  1  0.124619  0.111262  0.750000  1
  Ge  Ge15  1  0.626289  0.250000  0.500000  1
  Ge  Ge16  1  0.124619  0.388738  0.250000  1
  Ge  Ge17  1  0.874203  0.884999  0.250000  1
  Ge  Ge18  1  0.874203  0.615001  0.750000  1
  Ge  Ge19  1  0.626289  0.250000  0.000000  1
  Ru  Ru20  1  0.353724  0.034677  0.907519  1
  Ru  Ru21  1  0.353724  0.465323  0.092481  1
  Ru  Ru22  1  0.646368  0.968392  0.093037  1
  Ru  Ru23  1  0.646368  0.531608  0.906963  1
  Ru  Ru24  1  0.646368  0.968392  0.406963  1
  Ru  Ru25  1  0.646368  0.531608  0.593037  1
  Ru  Ru26  1  0.353724  0.465323  0.407519  1
  Ru  Ru27  1  0.353724  0.034677  0.592481  1
