# generated using pymatgen
data_Hf8Zr12Si13P3
_symmetry_space_group_name_H-M   'P 1'
_cell_length_a   7.09125878
_cell_length_b   7.08992267
_cell_length_c   12.92618464
_cell_angle_alpha   90.13370228
_cell_angle_beta   90.06496886
_cell_angle_gamma   89.91790431
_symmetry_Int_Tables_number   1
_chemical_formula_structural   Hf8Zr12Si13P3
_chemical_formula_sum   'Hf8 Zr12 Si13 P3'
_cell_volume   649.88016426
_cell_formula_units_Z   1
loop_
 _symmetry_equiv_pos_site_id
 _symmetry_equiv_pos_as_xyz
  1  'x, y, z'
loop_
 _atom_site_type_symbol
 _atom_site_label
 _atom_site_symmetry_multiplicity
 _atom_site_fract_x
 _atom_site_fract_y
 _atom_site_fract_z
 _atom_site_occupancy
  Hf  Hf0  1  0.346273  0.504170  0.379602  1
  Hf  Hf1  1  0.853702  0.997996  0.376662  1
  Hf  Hf2  1  0.999972  0.147799  0.124380  1
  Hf  Hf3  1  0.998120  0.853564  0.623944  1
  Hf  Hf4  1  0.652162  0.496791  0.878842  1
  Hf  Hf5  1  0.505080  0.346852  0.620518  1
  Hf  Hf6  1  0.498083  0.648333  0.122460  1
  Hf  Hf7  1  0.145404  0.004816  0.873596  1
  Zr  Zr8  1  0.996985  0.648939  0.032649  1
  Zr  Zr9  1  0.003186  0.351340  0.531635  1
  Zr  Zr10  1  0.651684  0.997733  0.966777  1
  Zr  Zr11  1  0.155177  0.502087  0.781479  1
  Zr  Zr12  1  0.846973  0.498815  0.281724  1
  Zr  Zr13  1  0.499928  0.152765  0.218812  1
  Zr  Zr14  1  0.499959  0.847116  0.717631  1
  Zr  Zr15  1  0.350590  0.003829  0.468387  1
  Zr  Zr16  1  0.675127  0.675246  0.500091  1
  Zr  Zr17  1  0.826181  0.174660  0.749373  1
  Zr  Zr18  1  0.172916  0.824676  0.251733  1
  Zr  Zr19  1  0.324125  0.325269  0.999177  1
  Si  Si20  1  0.201616  0.447905  0.188073  1
  Si  Si21  1  0.799041  0.551312  0.688118  1
  Si  Si22  1  0.448752  0.201950  0.811573  1
  Si  Si23  1  0.551051  0.798519  0.312199  1
  Si  Si24  1  0.298002  0.948849  0.062645  1
  Si  Si25  1  0.857378  0.794725  0.822213  1
  Si  Si26  1  0.142912  0.204023  0.322510  1
  Si  Si27  1  0.795215  0.857024  0.177651  1
  Si  Si28  1  0.297613  0.642352  0.578103  1
  Si  Si29  1  0.701071  0.354693  0.076940  1
  Si  Si30  1  0.642766  0.297890  0.422101  1
  Si  Si31  1  0.356758  0.706422  0.925589  1
  Si  Si32  1  0.205451  0.143663  0.676539  1
  P  P33  1  0.047026  0.701516  0.436579  1
  P  P34  1  0.951811  0.299181  0.935781  1
  P  P35  1  0.701910  0.047181  0.563913  1
