# generated using pymatgen
data_Li2Pr3NdBi4
_symmetry_space_group_name_H-M   'P 1'
_cell_length_a   4.61116500
_cell_length_b   4.61116336
_cell_length_c   16.13017300
_cell_angle_alpha   90.00000000
_cell_angle_beta   90.00000000
_cell_angle_gamma   119.99999026
_symmetry_Int_Tables_number   1
_chemical_formula_structural   Li2Pr3NdBi4
_chemical_formula_sum   'Li2 Pr3 Nd1 Bi4'
_cell_volume   297.02354037
_cell_formula_units_Z   1
loop_
 _symmetry_equiv_pos_site_id
 _symmetry_equiv_pos_as_xyz
  1  'x, y, z'
loop_
 _atom_site_type_symbol
 _atom_site_label
 _atom_site_symmetry_multiplicity
 _atom_site_fract_x
 _atom_site_fract_y
 _atom_site_fract_z
 _atom_site_occupancy
  Li  Li0  1  0.000000  0.000000  0.249998  1
  Li  Li1  1  0.000000  0.000000  0.750667  1
  Pr  Pr2  1  0.333333  0.666667  0.113351  1
  Pr  Pr3  1  0.333333  0.666667  0.386078  1
  Pr  Pr4  1  0.666667  0.333332  0.614379  1
  Nd  Nd5  1  0.666667  0.333332  0.886043  1
  Bi  Bi6  1  0.000000  0.000000  0.998509  1
  Bi  Bi7  1  0.666667  0.333332  0.249691  1
  Bi  Bi8  1  0.000000  0.000000  0.500166  1
  Bi  Bi9  1  0.333333  0.666667  0.751118  1
