# generated using pymatgen
data_Ca4Ac9Nd7Pb16
_symmetry_space_group_name_H-M   'P 1'
_cell_length_a   8.61652338
_cell_length_b   16.61927305
_cell_length_c   8.68101800
_cell_angle_alpha   90.04393214
_cell_angle_beta   90.35498711
_cell_angle_gamma   90.19463170
_symmetry_Int_Tables_number   1
_chemical_formula_structural   Ca4Ac9Nd7Pb16
_chemical_formula_sum   'Ca4 Ac9 Nd7 Pb16'
_cell_volume   1243.09343942
_cell_formula_units_Z   1
loop_
 _symmetry_equiv_pos_site_id
 _symmetry_equiv_pos_as_xyz
  1  'x, y, z'
loop_
 _atom_site_type_symbol
 _atom_site_label
 _atom_site_symmetry_multiplicity
 _atom_site_fract_x
 _atom_site_fract_y
 _atom_site_fract_z
 _atom_site_occupancy
  Ca  Ca0  1  0.812696  0.751255  0.500048  1
  Ca  Ca1  1  0.314430  0.751552  0.001981  1
  Ca  Ca2  1  0.185915  0.248649  0.501783  1
  Ca  Ca3  1  0.687548  0.249657  0.998077  1
  Ac  Ac4  1  0.146951  0.619261  0.337356  1
  Ac  Ac5  1  0.493464  0.595286  0.680127  1
  Ac  Ac6  1  0.994596  0.906834  0.820339  1
  Ac  Ac7  1  0.505532  0.094751  0.319492  1
  Ac  Ac8  1  0.004926  0.403329  0.181129  1
  Ac  Ac9  1  0.505395  0.403114  0.320772  1
  Ac  Ac10  1  0.005860  0.095150  0.179319  1
  Ac  Ac11  1  0.494881  0.907068  0.680661  1
  Ac  Ac12  1  0.994233  0.594801  0.817458  1
  Nd  Nd13  1  0.647467  0.624033  0.164353  1
  Nd  Nd14  1  0.147963  0.877887  0.334466  1
  Nd  Nd15  1  0.352168  0.122574  0.835760  1
  Nd  Nd16  1  0.853628  0.377685  0.662310  1
  Nd  Nd17  1  0.355949  0.373629  0.836075  1
  Nd  Nd18  1  0.851339  0.123254  0.665769  1
  Nd  Nd19  1  0.647177  0.879062  0.163609  1
  Pb  Pb20  1  0.688685  0.460166  0.956294  1
  Pb  Pb21  1  0.185808  0.041196  0.542295  1
  Pb  Pb22  1  0.310526  0.960483  0.045068  1
  Pb  Pb23  1  0.797885  0.539312  0.457238  1
  Pb  Pb24  1  0.319432  0.537649  0.035580  1
  Pb  Pb25  1  0.814250  0.960072  0.456815  1
  Pb  Pb26  1  0.689013  0.041352  0.955972  1
  Pb  Pb27  1  0.191935  0.452712  0.548705  1
  Pb  Pb28  1  0.455262  0.754506  0.380186  1
  Pb  Pb29  1  0.947820  0.751744  0.116368  1
  Pb  Pb30  1  0.548962  0.248649  0.620235  1
  Pb  Pb31  1  0.048710  0.250470  0.879400  1
  Pb  Pb32  1  0.686084  0.752109  0.861111  1
  Pb  Pb33  1  0.187820  0.753004  0.642516  1
  Pb  Pb34  1  0.312177  0.248268  0.138299  1
  Pb  Pb35  1  0.813519  0.249479  0.363033  1
