# generated using pymatgen
data_Cs5ReTc2Se7
_symmetry_space_group_name_H-M   'P 1'
_cell_length_a   11.52021240
_cell_length_b   11.51202572
_cell_length_c   11.71303570
_cell_angle_alpha   59.61756820
_cell_angle_beta   59.50073349
_cell_angle_gamma   60.10843417
_symmetry_Int_Tables_number   1
_chemical_formula_structural   Cs5ReTc2Se7
_chemical_formula_sum   'Cs10 Re2 Tc4 Se14'
_cell_volume   1091.91628273
_cell_formula_units_Z   2
loop_
 _symmetry_equiv_pos_site_id
 _symmetry_equiv_pos_as_xyz
  1  'x, y, z'
loop_
 _atom_site_type_symbol
 _atom_site_label
 _atom_site_symmetry_multiplicity
 _atom_site_fract_x
 _atom_site_fract_y
 _atom_site_fract_z
 _atom_site_occupancy
  Cs  Cs0  1  0.010162  0.010596  0.988486  1
  Cs  Cs1  1  0.423397  0.986113  0.004215  1
  Cs  Cs2  1  0.414481  0.996624  0.582515  1
  Cs  Cs3  1  0.850667  0.850792  0.858087  1
  Cs  Cs4  1  0.837232  0.837358  0.433931  1
  Cs  Cs5  1  0.996149  0.413918  0.583163  1
  Cs  Cs6  1  0.030853  0.031745  0.442973  1
  Cs  Cs7  1  0.985818  0.423576  0.004660  1
  Cs  Cs8  1  0.187641  0.575074  0.117651  1
  Cs  Cs9  1  0.575255  0.187857  0.117424  1
  Re  Re10  1  0.383064  0.615551  0.613638  1
  Re  Re11  1  0.382481  0.382376  0.617542  1
  Tc  Tc12  1  0.381157  0.615210  0.387183  1
  Tc  Tc13  1  0.616120  0.382696  0.613830  1
  Tc  Tc14  1  0.616088  0.615873  0.381809  1
  Tc  Tc15  1  0.615323  0.381155  0.387265  1
  Se  Se16  1  0.220753  0.220783  0.781983  1
  Se  Se17  1  0.210997  0.778231  0.769056  1
  Se  Se18  1  0.388682  0.388913  0.829767  1
  Se  Se19  1  0.165133  0.608590  0.613025  1
  Se  Se20  1  0.609835  0.610585  0.606874  1
  Se  Se21  1  0.202909  0.780879  0.244204  1
  Se  Se22  1  0.387607  0.387529  0.393886  1
  Se  Se23  1  0.394532  0.831249  0.386751  1
  Se  Se24  1  0.608292  0.166507  0.612486  1
  Se  Se25  1  0.779813  0.209210  0.769945  1
  Se  Se26  1  0.830273  0.394893  0.386808  1
  Se  Se27  1  0.607381  0.607236  0.173529  1
  Se  Se28  1  0.781351  0.781241  0.208187  1
  Se  Se29  1  0.781354  0.202447  0.243932  1
