# generated using pymatgen
data_Ho6CoNi15(P6Ru)2
_symmetry_space_group_name_H-M   'P 1'
_cell_length_a   3.76648300
_cell_length_b   10.53092700
_cell_length_c   12.37383700
_cell_angle_alpha   90.00000000
_cell_angle_beta   90.00000000
_cell_angle_gamma   90.00000000
_symmetry_Int_Tables_number   1
_chemical_formula_structural   Ho6CoNi15(P6Ru)2
_chemical_formula_sum   'Ho6 Co1 Ni15 P12 Ru2'
_cell_volume   490.80276943
_cell_formula_units_Z   1
loop_
 _symmetry_equiv_pos_site_id
 _symmetry_equiv_pos_as_xyz
  1  'x, y, z'
loop_
 _atom_site_type_symbol
 _atom_site_label
 _atom_site_symmetry_multiplicity
 _atom_site_fract_x
 _atom_site_fract_y
 _atom_site_fract_z
 _atom_site_occupancy
  Ho  Ho0  1  0.000000  0.500000  0.523442  1
  Ho  Ho1  1  0.500000  0.000000  0.476491  1
  Ho  Ho2  1  0.500000  0.814730  0.207888  1
  Ho  Ho3  1  0.500000  0.185270  0.207888  1
  Ho  Ho4  1  0.000000  0.685234  0.791577  1
  Ho  Ho5  1  0.000000  0.314766  0.791577  1
  Co  Co6  1  0.500000  0.000000  0.016880  1
  Ni  Ni7  1  0.000000  0.500000  0.981670  1
  Ni  Ni8  1  0.500000  0.302455  0.429237  1
  Ni  Ni9  1  0.500000  0.697545  0.429237  1
  Ni  Ni10  1  0.000000  0.197199  0.570272  1
  Ni  Ni11  1  0.000000  0.802801  0.570272  1
  Ni  Ni12  1  0.500000  0.879541  0.710106  1
  Ni  Ni13  1  0.500000  0.120459  0.710106  1
  Ni  Ni14  1  0.000000  0.621034  0.291200  1
  Ni  Ni15  1  0.000000  0.378966  0.291200  1
  Ni  Ni16  1  0.500000  0.330855  0.987377  1
  Ni  Ni17  1  0.500000  0.669145  0.987377  1
  Ni  Ni18  1  0.000000  0.168229  0.012604  1
  Ni  Ni19  1  0.000000  0.831771  0.012604  1
  Ni  Ni20  1  0.500000  0.500000  0.700042  1
  Ni  Ni21  1  0.000000  0.000000  0.297651  1
  P  P22  1  0.500000  0.313548  0.614444  1
  P  P23  1  0.500000  0.686452  0.614444  1
  P  P24  1  0.000000  0.185563  0.385266  1
  P  P25  1  0.000000  0.814437  0.385266  1
  P  P26  1  0.500000  0.500000  0.875432  1
  P  P27  1  0.000000  0.000000  0.121363  1
  P  P28  1  0.500000  0.850363  0.893285  1
  P  P29  1  0.500000  0.149637  0.893285  1
  P  P30  1  0.000000  0.649023  0.108168  1
  P  P31  1  0.000000  0.350977  0.108168  1
  P  P32  1  0.500000  0.500000  0.349147  1
  P  P33  1  0.000000  0.000000  0.652032  1
  Ru  Ru34  1  0.500000  0.500000  0.158221  1
  Ru  Ru35  1  0.000000  0.000000  0.844778  1
