# generated using pymatgen
data_CoHg5F18
_symmetry_space_group_name_H-M   'P 1'
_cell_length_a   7.96667470
_cell_length_b   8.11452309
_cell_length_c   8.24638100
_cell_angle_alpha   90.16754111
_cell_angle_beta   89.68199992
_cell_angle_gamma   119.14557970
_symmetry_Int_Tables_number   1
_chemical_formula_structural   CoHg5F18
_chemical_formula_sum   'Co1 Hg5 F18'
_cell_volume   465.58881235
_cell_formula_units_Z   1
loop_
 _symmetry_equiv_pos_site_id
 _symmetry_equiv_pos_as_xyz
  1  'x, y, z'
loop_
 _atom_site_type_symbol
 _atom_site_label
 _atom_site_symmetry_multiplicity
 _atom_site_fract_x
 _atom_site_fract_y
 _atom_site_fract_z
 _atom_site_occupancy
  Co  Co0  1  0.500000  0.500000  0.000000  1
  Hg  Hg1  1  0.000000  0.500000  0.500000  1
  Hg  Hg2  1  0.000000  0.500000  0.000000  1
  Hg  Hg3  1  0.500000  0.000000  0.500000  1
  Hg  Hg4  1  0.500000  0.000000  0.000000  1
  Hg  Hg5  1  0.500000  0.500000  0.500000  1
  F  F6  1  0.742353  0.573552  0.063646  1
  F  F7  1  0.257647  0.426448  0.936354  1
  F  F8  1  0.212173  0.409162  0.555981  1
  F  F9  1  0.787827  0.590838  0.444019  1
  F  F10  1  0.570314  0.738812  0.940759  1
  F  F11  1  0.429686  0.261188  0.059241  1
  F  F12  1  0.421007  0.219422  0.446802  1
  F  F13  1  0.578993  0.780578  0.553198  1
  F  F14  1  0.781036  0.221138  0.565371  1
  F  F15  1  0.218964  0.778862  0.434629  1
  F  F16  1  0.213693  0.780300  0.063387  1
  F  F17  1  0.786307  0.219700  0.936613  1
  F  F18  1  0.985118  0.406699  0.235312  1
  F  F19  1  0.014882  0.593301  0.764688  1
  F  F20  1  0.403894  0.983886  0.766240  1
  F  F21  1  0.596106  0.016114  0.233760  1
  F  F22  1  0.555371  0.452360  0.799286  1
  F  F23  1  0.444629  0.547640  0.200714  1
