# generated using pymatgen
data_YbHfNiAs2
_symmetry_space_group_name_H-M   'P 1'
_cell_length_a   4.06570300
_cell_length_b   4.06570368
_cell_length_c   13.61835200
_cell_angle_alpha   90.00000000
_cell_angle_beta   90.00000000
_cell_angle_gamma   120.00001889
_symmetry_Int_Tables_number   1
_chemical_formula_structural   YbHfNiAs2
_chemical_formula_sum   'Yb2 Hf2 Ni2 As4'
_cell_volume   194.95145344
_cell_formula_units_Z   2
loop_
 _symmetry_equiv_pos_site_id
 _symmetry_equiv_pos_as_xyz
  1  'x, y, z'
loop_
 _atom_site_type_symbol
 _atom_site_label
 _atom_site_symmetry_multiplicity
 _atom_site_fract_x
 _atom_site_fract_y
 _atom_site_fract_z
 _atom_site_occupancy
  Yb  Yb0  1  0.666667  0.333333  0.348787  1
  Yb  Yb1  1  0.333333  0.666667  0.848787  1
  Hf  Hf2  1  0.666667  0.333333  0.613338  1
  Hf  Hf3  1  0.333333  0.666667  0.113338  1
  Ni  Ni4  1  0.000000  0.000000  0.028224  1
  Ni  Ni5  1  0.000000  0.000000  0.528224  1
  As  As6  1  0.666667  0.333333  0.980040  1
  As  As7  1  0.333333  0.666667  0.480040  1
  As  As8  1  0.000000  0.000000  0.713942  1
  As  As9  1  0.000000  0.000000  0.213942  1
