# generated using pymatgen
data_Pr10Si6F
_symmetry_space_group_name_H-M   'P 1'
_cell_length_a   9.00317515
_cell_length_b   9.00317468
_cell_length_c   9.00317522
_cell_angle_alpha   127.84043060
_cell_angle_beta   127.84043322
_cell_angle_gamma   76.88366831
_symmetry_Int_Tables_number   1
_chemical_formula_structural   Pr10Si6F
_chemical_formula_sum   'Pr10 Si6 F1'
_cell_volume   441.87677479
_cell_formula_units_Z   1
loop_
 _symmetry_equiv_pos_site_id
 _symmetry_equiv_pos_as_xyz
  1  'x, y, z'
loop_
 _atom_site_type_symbol
 _atom_site_label
 _atom_site_symmetry_multiplicity
 _atom_site_fract_x
 _atom_site_fract_y
 _atom_site_fract_z
 _atom_site_occupancy
  Pr  Pr0  1  0.782438  0.424774  0.000000  1
  Pr  Pr1  1  0.424774  0.782439  0.000000  1
  Pr  Pr2  1  0.934453  0.934453  0.654404  1
  Pr  Pr3  1  0.280049  0.280049  0.345596  1
  Pr  Pr4  1  0.719951  0.065547  0.000000  1
  Pr  Pr5  1  0.065547  0.719951  0.000000  1
  Pr  Pr6  1  0.575226  0.575226  0.357664  1
  Pr  Pr7  1  0.217561  0.217561  0.642336  1
  Pr  Pr8  1  0.250000  0.750000  0.500000  1
  Pr  Pr9  1  0.750000  0.250000  0.500000  1
  Si  Si10  1  0.000000  0.500000  0.500000  1
  Si  Si11  1  0.500000  0.000000  0.500000  1
  Si  Si12  1  0.135822  0.365570  0.000000  1
  Si  Si13  1  0.365570  0.135822  0.000000  1
  Si  Si14  1  0.864178  0.864178  0.229748  1
  Si  Si15  1  0.634430  0.634430  0.770252  1
  F  F16  1  0.500000  0.500000  0.000000  1
