# generated using pymatgen
data_Dy10InSn5Se2
_symmetry_space_group_name_H-M   'P 1'
_cell_length_a   9.12238819
_cell_length_b   9.12238778
_cell_length_c   6.74708700
_cell_angle_alpha   90.00000000
_cell_angle_beta   90.00000000
_cell_angle_gamma   119.97689171
_symmetry_Int_Tables_number   1
_chemical_formula_structural   Dy10InSn5Se2
_chemical_formula_sum   'Dy10 In1 Sn5 Se2'
_cell_volume   486.36812006
_cell_formula_units_Z   1
loop_
 _symmetry_equiv_pos_site_id
 _symmetry_equiv_pos_as_xyz
  1  'x, y, z'
loop_
 _atom_site_type_symbol
 _atom_site_label
 _atom_site_symmetry_multiplicity
 _atom_site_fract_x
 _atom_site_fract_y
 _atom_site_fract_z
 _atom_site_occupancy
  Dy  Dy0  1  0.666418  0.333336  0.999736  1
  Dy  Dy1  1  0.333336  0.666418  0.999736  1
  Dy  Dy2  1  0.333336  0.666418  0.500264  1
  Dy  Dy3  1  0.666418  0.333336  0.500264  1
  Dy  Dy4  1  0.747635  0.747635  0.750000  1
  Dy  Dy5  1  0.252828  0.999978  0.750000  1
  Dy  Dy6  1  0.999978  0.252828  0.750000  1
  Dy  Dy7  1  0.252398  0.252398  0.250000  1
  Dy  Dy8  1  0.747679  0.000337  0.250000  1
  Dy  Dy9  1  0.000337  0.747679  0.250000  1
  In  In10  1  0.396398  0.396398  0.750000  1
  Sn  Sn11  1  0.604349  0.999937  0.750000  1
  Sn  Sn12  1  0.999937  0.604349  0.750000  1
  Sn  Sn13  1  0.603490  0.603490  0.250000  1
  Sn  Sn14  1  0.395618  0.999960  0.250000  1
  Sn  Sn15  1  0.999960  0.395618  0.250000  1
  Se  Se16  1  0.999942  0.999942  0.000277  1
  Se  Se17  1  0.999942  0.999942  0.499723  1
