# generated using pymatgen
data_CaPrScMnO6
_symmetry_space_group_name_H-M   'P 1'
_cell_length_a   5.50769407
_cell_length_b   5.60228900
_cell_length_c   7.82986315
_cell_angle_alpha   90.00033396
_cell_angle_beta   90.30405969
_cell_angle_gamma   89.99978421
_symmetry_Int_Tables_number   1
_chemical_formula_structural   CaPrScMnO6
_chemical_formula_sum   'Ca2 Pr2 Sc2 Mn2 O12'
_cell_volume   241.59245865
_cell_formula_units_Z   2
loop_
 _symmetry_equiv_pos_site_id
 _symmetry_equiv_pos_as_xyz
  1  'x, y, z'
loop_
 _atom_site_type_symbol
 _atom_site_label
 _atom_site_symmetry_multiplicity
 _atom_site_fract_x
 _atom_site_fract_y
 _atom_site_fract_z
 _atom_site_occupancy
  Ca  Ca0  1  0.489729  0.456103  0.751024  1
  Ca  Ca1  1  0.989728  0.043899  0.251025  1
  Pr  Pr2  1  0.011240  0.956007  0.749865  1
  Pr  Pr3  1  0.511245  0.543996  0.249865  1
  Sc  Sc4  1  0.500382  0.003835  0.499488  1
  Sc  Sc5  1  0.000363  0.496160  0.999503  1
  Mn  Mn6  1  0.500319  0.000951  0.000423  1
  Mn  Mn7  1  0.000322  0.499051  0.500420  1
  O  O8  1  0.082936  0.475748  0.260286  1
  O  O9  1  0.582935  0.024252  0.760278  1
  O  O10  1  0.221958  0.202030  0.956507  1
  O  O11  1  0.721963  0.297974  0.456513  1
  O  O12  1  0.199320  0.220115  0.544510  1
  O  O13  1  0.699318  0.279887  0.044504  1
  O  O14  1  0.300666  0.720459  0.953443  1
  O  O15  1  0.800673  0.779535  0.453450  1
  O  O16  1  0.279120  0.701790  0.545129  1
  O  O17  1  0.779124  0.798208  0.045125  1
  O  O18  1  0.414328  0.977671  0.239320  1
  O  O19  1  0.914329  0.522328  0.739322  1
