# generated using pymatgen
data_Nb8FeNiS16
_symmetry_space_group_name_H-M   'P 1'
_cell_length_a   6.68074800
_cell_length_b   6.68074758
_cell_length_c   11.79169700
_cell_angle_alpha   90.00000000
_cell_angle_beta   90.00000000
_cell_angle_gamma   120.00000208
_symmetry_Int_Tables_number   1
_chemical_formula_structural   Nb8FeNiS16
_chemical_formula_sum   'Nb8 Fe1 Ni1 S16'
_cell_volume   455.78191314
_cell_formula_units_Z   1
loop_
 _symmetry_equiv_pos_site_id
 _symmetry_equiv_pos_as_xyz
  1  'x, y, z'
loop_
 _atom_site_type_symbol
 _atom_site_label
 _atom_site_symmetry_multiplicity
 _atom_site_fract_x
 _atom_site_fract_y
 _atom_site_fract_z
 _atom_site_occupancy
  Nb  Nb0  1  0.000000  0.000000  0.249450  1
  Nb  Nb1  1  0.000000  0.000000  0.750550  1
  Nb  Nb2  1  0.506425  0.012848  0.252534  1
  Nb  Nb3  1  0.987152  0.493575  0.252534  1
  Nb  Nb4  1  0.506425  0.493575  0.252534  1
  Nb  Nb5  1  0.493575  0.987152  0.747466  1
  Nb  Nb6  1  0.012848  0.506425  0.747466  1
  Nb  Nb7  1  0.493575  0.506425  0.747466  1
  Fe  Fe8  1  0.000000  0.000000  0.500000  1
  Ni  Ni9  1  0.000000  0.000000  0.000000  1
  S  S10  1  0.333333  0.666667  0.884378  1
  S  S11  1  0.666667  0.333333  0.115622  1
  S  S12  1  0.666667  0.333333  0.389605  1
  S  S13  1  0.333333  0.666667  0.610395  1
  S  S14  1  0.831953  0.663905  0.881056  1
  S  S15  1  0.336095  0.168047  0.881056  1
  S  S16  1  0.831953  0.168047  0.881056  1
  S  S17  1  0.168047  0.336095  0.118944  1
  S  S18  1  0.663905  0.831953  0.118944  1
  S  S19  1  0.168047  0.831953  0.118944  1
  S  S20  1  0.163076  0.326152  0.384476  1
  S  S21  1  0.673848  0.836924  0.384476  1
  S  S22  1  0.163076  0.836924  0.384476  1
  S  S23  1  0.836924  0.673848  0.615524  1
  S  S24  1  0.326152  0.163076  0.615524  1
  S  S25  1  0.836924  0.163076  0.615524  1
