# generated using pymatgen
data_YHo9(Bi3C)2
_symmetry_space_group_name_H-M   'P 1'
_cell_length_a   6.47434900
_cell_length_b   9.13007162
_cell_length_c   9.12970601
_cell_angle_alpha   120.00081520
_cell_angle_beta   89.99865590
_cell_angle_gamma   89.99975097
_symmetry_Int_Tables_number   1
_chemical_formula_structural   YHo9(Bi3C)2
_chemical_formula_sum   'Y1 Ho9 Bi6 C2'
_cell_volume   467.36280642
_cell_formula_units_Z   1
loop_
 _symmetry_equiv_pos_site_id
 _symmetry_equiv_pos_as_xyz
  1  'x, y, z'
loop_
 _atom_site_type_symbol
 _atom_site_label
 _atom_site_symmetry_multiplicity
 _atom_site_fract_x
 _atom_site_fract_y
 _atom_site_fract_z
 _atom_site_occupancy
  Y  Y0  1  0.500013  0.333349  0.666712  1
  Ho  Ho1  1  0.500016  0.666660  0.333298  1
  Ho  Ho2  1  0.999987  0.666655  0.333301  1
  Ho  Ho3  1  0.999982  0.333351  0.666706  1
  Ho  Ho4  1  0.750069  0.206782  0.999991  1
  Ho  Ho5  1  0.750069  0.793195  0.793166  1
  Ho  Ho6  1  0.750068  0.000014  0.206809  1
  Ho  Ho7  1  0.249938  0.793214  0.000017  1
  Ho  Ho8  1  0.249935  0.206787  0.206808  1
  Ho  Ho9  1  0.249932  0.999985  0.793183  1
  Bi  Bi10  1  0.750810  0.598646  0.000684  1
  Bi  Bi11  1  0.750812  0.402023  0.401309  1
  Bi  Bi12  1  0.750809  0.999335  0.598013  1
  Bi  Bi13  1  0.249192  0.402043  0.000687  1
  Bi  Bi14  1  0.249188  0.598682  0.598021  1
  Bi  Bi15  1  0.249187  0.999287  0.401302  1
  C  C16  1  0.499988  0.999998  0.999998  1
  C  C17  1  0.000010  0.999995  0.999994  1
