# generated using pymatgen
data_Pr3NdErP12Ru19
_symmetry_space_group_name_H-M   'P 1'
_cell_length_a   12.62359600
_cell_length_b   12.62359752
_cell_length_c   4.01331000
_cell_angle_alpha   90.00000000
_cell_angle_beta   90.00000000
_cell_angle_gamma   120.00000126
_symmetry_Int_Tables_number   1
_chemical_formula_structural   Pr3NdErP12Ru19
_chemical_formula_sum   'Pr3 Nd1 Er1 P12 Ru19'
_cell_volume   553.85943703
_cell_formula_units_Z   1
loop_
 _symmetry_equiv_pos_site_id
 _symmetry_equiv_pos_as_xyz
  1  'x, y, z'
loop_
 _atom_site_type_symbol
 _atom_site_label
 _atom_site_symmetry_multiplicity
 _atom_site_fract_x
 _atom_site_fract_y
 _atom_site_fract_z
 _atom_site_occupancy
  Pr  Pr0  1  0.183684  0.183674  0.500000  1
  Pr  Pr1  1  0.816326  0.000010  0.500000  1
  Pr  Pr2  1  0.999990  0.816316  0.500000  1
  Nd  Nd3  1  0.333333  0.666667  0.000000  1
  Er  Er4  1  0.666667  0.333333  0.000000  1
  P  P5  1  0.811885  0.810894  0.000000  1
  P  P6  1  0.189106  0.000991  0.000000  1
  P  P7  1  0.999009  0.188115  0.000000  1
  P  P8  1  0.171771  0.476388  0.500000  1
  P  P9  1  0.523612  0.695383  0.500000  1
  P  P10  1  0.304617  0.828229  0.500000  1
  P  P11  1  0.695258  0.520812  0.500000  1
  P  P12  1  0.825554  0.304742  0.500000  1
  P  P13  1  0.479188  0.174446  0.500000  1
  P  P14  1  0.374359  0.374485  0.000000  1
  P  P15  1  0.625515  0.999874  0.000000  1
  P  P16  1  0.000126  0.625641  0.000000  1
  Ru  Ru17  1  0.554083  0.553856  0.000000  1
  Ru  Ru18  1  0.446144  0.000227  0.000000  1
  Ru  Ru19  1  0.999773  0.445917  0.000000  1
  Ru  Ru20  1  0.713656  0.712446  0.500000  1
  Ru  Ru21  1  0.287554  0.001210  0.500000  1
  Ru  Ru22  1  0.998790  0.286344  0.500000  1
  Ru  Ru23  1  0.184109  0.378932  0.000000  1
  Ru  Ru24  1  0.621068  0.805177  0.000000  1
  Ru  Ru25  1  0.194823  0.815891  0.000000  1
  Ru  Ru26  1  0.804310  0.618272  0.000000  1
  Ru  Ru27  1  0.813962  0.195690  0.000000  1
  Ru  Ru28  1  0.381728  0.186038  0.000000  1
  Ru  Ru29  1  0.367679  0.491151  0.500000  1
  Ru  Ru30  1  0.508849  0.876528  0.500000  1
  Ru  Ru31  1  0.123472  0.632321  0.500000  1
  Ru  Ru32  1  0.873046  0.505342  0.500000  1
  Ru  Ru33  1  0.632296  0.126954  0.500000  1
  Ru  Ru34  1  0.494658  0.367704  0.500000  1
  Ru  Ru35  1  0.000000  0.000000  0.000000  1
