# generated using pymatgen
data_Gd6YRhO12
_symmetry_space_group_name_H-M   'P 1'
_cell_length_a   6.72361944
_cell_length_b   6.72362037
_cell_length_c   6.72361967
_cell_angle_alpha   95.10573730
_cell_angle_beta   95.10573550
_cell_angle_gamma   95.10574321
_symmetry_Int_Tables_number   1
_chemical_formula_structural   Gd6YRhO12
_chemical_formula_sum   'Gd6 Y1 Rh1 O12'
_cell_volume   300.10553505
_cell_formula_units_Z   1
loop_
 _symmetry_equiv_pos_site_id
 _symmetry_equiv_pos_as_xyz
  1  'x, y, z'
loop_
 _atom_site_type_symbol
 _atom_site_label
 _atom_site_symmetry_multiplicity
 _atom_site_fract_x
 _atom_site_fract_y
 _atom_site_fract_z
 _atom_site_occupancy
  Gd  Gd0  1  0.733895  0.912118  0.427333  1
  Gd  Gd1  1  0.427333  0.733895  0.912118  1
  Gd  Gd2  1  0.087882  0.572667  0.266105  1
  Gd  Gd3  1  0.912118  0.427333  0.733895  1
  Gd  Gd4  1  0.572667  0.266105  0.087882  1
  Gd  Gd5  1  0.266105  0.087882  0.572667  1
  Y  Y6  1  0.000000  0.000000  0.000000  1
  Rh  Rh7  1  0.500000  0.500000  0.500000  1
  O  O8  1  0.065238  0.913344  0.318160  1
  O  O9  1  0.681840  0.934762  0.086656  1
  O  O10  1  0.455223  0.800733  0.584253  1
  O  O11  1  0.086656  0.681840  0.934762  1
  O  O12  1  0.800733  0.584253  0.455223  1
  O  O13  1  0.415747  0.544777  0.199267  1
  O  O14  1  0.584253  0.455223  0.800733  1
  O  O15  1  0.199267  0.415747  0.544777  1
  O  O16  1  0.913344  0.318160  0.065238  1
  O  O17  1  0.544777  0.199267  0.415747  1
  O  O18  1  0.318160  0.065238  0.913344  1
  O  O19  1  0.934762  0.086656  0.681840  1
