# generated using pymatgen
data_Er2Sb5
_symmetry_space_group_name_H-M   'P 1'
_cell_length_a   4.20822300
_cell_length_b   13.17276172
_cell_length_c   14.61989795
_cell_angle_alpha   78.20399499
_cell_angle_beta   90.00000000
_cell_angle_gamma   90.00000000
_symmetry_Int_Tables_number   1
_chemical_formula_structural   Er2Sb5
_chemical_formula_sum   'Er8 Sb20'
_cell_volume   793.32311364
_cell_formula_units_Z   4
loop_
 _symmetry_equiv_pos_site_id
 _symmetry_equiv_pos_as_xyz
  1  'x, y, z'
loop_
 _atom_site_type_symbol
 _atom_site_label
 _atom_site_symmetry_multiplicity
 _atom_site_fract_x
 _atom_site_fract_y
 _atom_site_fract_z
 _atom_site_occupancy
  Er  Er0  1  0.250000  0.394026  0.770417  1
  Er  Er1  1  0.750000  0.605974  0.229583  1
  Er  Er2  1  0.250000  0.662221  0.855748  1
  Er  Er3  1  0.750000  0.337779  0.144252  1
  Er  Er4  1  0.250000  0.669135  0.576891  1
  Er  Er5  1  0.750000  0.330865  0.423109  1
  Er  Er6  1  0.250000  0.953161  0.360323  1
  Er  Er7  1  0.750000  0.046839  0.639677  1
  Sb  Sb8  1  0.250000  0.142921  0.778429  1
  Sb  Sb9  1  0.750000  0.857079  0.221571  1
  Sb  Sb10  1  0.250000  0.143329  0.482936  1
  Sb  Sb11  1  0.750000  0.856671  0.517064  1
  Sb  Sb12  1  0.250000  0.152199  0.171392  1
  Sb  Sb13  1  0.750000  0.847801  0.828608  1
  Sb  Sb14  1  0.250000  0.420378  0.975465  1
  Sb  Sb15  1  0.750000  0.579622  0.024535  1
  Sb  Sb16  1  0.750000  0.029262  0.910040  1
  Sb  Sb17  1  0.250000  0.970738  0.089960  1
  Sb  Sb18  1  0.750000  0.138932  0.322130  1
  Sb  Sb19  1  0.250000  0.861068  0.677870  1
  Sb  Sb20  1  0.750000  0.278987  0.937176  1
  Sb  Sb21  1  0.250000  0.721013  0.062824  1
  Sb  Sb22  1  0.750000  0.284464  0.652744  1
  Sb  Sb23  1  0.250000  0.715536  0.347256  1
  Sb  Sb24  1  0.750000  0.576038  0.734412  1
  Sb  Sb25  1  0.250000  0.423962  0.265588  1
  Sb  Sb26  1  0.750000  0.572978  0.447700  1
  Sb  Sb27  1  0.250000  0.427022  0.552300  1
