# generated using pymatgen
data_Ho4NbPd15
_symmetry_space_group_name_H-M   'P 1'
_cell_length_a   4.08779500
_cell_length_b   4.08779500
_cell_length_c   20.46993300
_cell_angle_alpha   90.00000000
_cell_angle_beta   90.00000000
_cell_angle_gamma   90.00000000
_symmetry_Int_Tables_number   1
_chemical_formula_structural   Ho4NbPd15
_chemical_formula_sum   'Ho4 Nb1 Pd15'
_cell_volume   342.05397161
_cell_formula_units_Z   1
loop_
 _symmetry_equiv_pos_site_id
 _symmetry_equiv_pos_as_xyz
  1  'x, y, z'
loop_
 _atom_site_type_symbol
 _atom_site_label
 _atom_site_symmetry_multiplicity
 _atom_site_fract_x
 _atom_site_fract_y
 _atom_site_fract_z
 _atom_site_occupancy
  Ho  Ho0  1  0.000000  0.000000  0.199966  1
  Ho  Ho1  1  0.000000  0.000000  0.398806  1
  Ho  Ho2  1  0.000000  0.000000  0.601194  1
  Ho  Ho3  1  0.000000  0.000000  0.800034  1
  Nb  Nb4  1  0.000000  0.000000  0.000000  1
  Pd  Pd5  1  0.500000  0.500000  0.000000  1
  Pd  Pd6  1  0.500000  0.500000  0.194839  1
  Pd  Pd7  1  0.500000  0.500000  0.398500  1
  Pd  Pd8  1  0.500000  0.500000  0.601500  1
  Pd  Pd9  1  0.500000  0.500000  0.805161  1
  Pd  Pd10  1  0.500000  0.000000  0.092089  1
  Pd  Pd11  1  0.500000  0.000000  0.297393  1
  Pd  Pd12  1  0.500000  0.000000  0.500000  1
  Pd  Pd13  1  0.500000  0.000000  0.702607  1
  Pd  Pd14  1  0.500000  0.000000  0.907911  1
  Pd  Pd15  1  0.000000  0.500000  0.092089  1
  Pd  Pd16  1  0.000000  0.500000  0.297393  1
  Pd  Pd17  1  0.000000  0.500000  0.500000  1
  Pd  Pd18  1  0.000000  0.500000  0.702607  1
  Pd  Pd19  1  0.000000  0.500000  0.907911  1
