# generated using pymatgen
data_Pr2NdZr(Sn5Rh3)2
_symmetry_space_group_name_H-M   'P 1'
_cell_length_a   13.59324432
_cell_length_b   13.59324479
_cell_length_c   7.24708900
_cell_angle_alpha   90.16493812
_cell_angle_beta   89.83506187
_cell_angle_gamma   160.78797235
_symmetry_Int_Tables_number   1
_chemical_formula_structural   Pr2NdZr(Sn5Rh3)2
_chemical_formula_sum   'Pr2 Nd1 Zr1 Sn10 Rh6'
_cell_volume   440.64570852
_cell_formula_units_Z   1
loop_
 _symmetry_equiv_pos_site_id
 _symmetry_equiv_pos_as_xyz
  1  'x, y, z'
loop_
 _atom_site_type_symbol
 _atom_site_label
 _atom_site_symmetry_multiplicity
 _atom_site_fract_x
 _atom_site_fract_y
 _atom_site_fract_z
 _atom_site_occupancy
  Pr  Pr0  1  0.170884  0.829116  0.747195  1
  Pr  Pr1  1  0.828324  0.171676  0.249395  1
  Nd  Nd2  1  0.476764  0.523236  0.761893  1
  Zr  Zr3  1  0.525720  0.474280  0.257093  1
  Sn  Sn4  1  0.880691  0.119309  0.767144  1
  Sn  Sn5  1  0.118779  0.881221  0.267038  1
  Sn  Sn6  1  0.703158  0.296842  0.452234  1
  Sn  Sn7  1  0.295676  0.704324  0.950498  1
  Sn  Sn8  1  0.595280  0.404720  0.889992  1
  Sn  Sn9  1  0.407000  0.593000  0.384045  1
  Sn  Sn10  1  0.954754  0.045246  0.104789  1
  Sn  Sn11  1  0.046880  0.953120  0.596127  1
  Sn  Sn12  1  0.289358  0.710642  0.526330  1
  Sn  Sn13  1  0.710362  0.289638  0.026337  1
  Rh  Rh14  1  0.050937  0.949063  0.992131  1
  Rh  Rh15  1  0.950540  0.049460  0.476917  1
  Rh  Rh16  1  0.777511  0.222489  0.738111  1
  Rh  Rh17  1  0.221192  0.778808  0.237633  1
  Rh  Rh18  1  0.394989  0.605011  0.016080  1
  Rh  Rh19  1  0.601199  0.398801  0.503017  1
