# generated using pymatgen
data_Ca3SmTa2(FeO6)2
_symmetry_space_group_name_H-M   'P 1'
_cell_length_a   5.67247024
_cell_length_b   9.63233896
_cell_length_c   9.59860630
_cell_angle_alpha   69.88753610
_cell_angle_beta   90.23566912
_cell_angle_gamma   90.27569708
_symmetry_Int_Tables_number   1
_chemical_formula_structural   Ca3SmTa2(FeO6)2
_chemical_formula_sum   'Ca6 Sm2 Ta4 Fe4 O24'
_cell_volume   492.47052635
_cell_formula_units_Z   2
loop_
 _symmetry_equiv_pos_site_id
 _symmetry_equiv_pos_as_xyz
  1  'x, y, z'
loop_
 _atom_site_type_symbol
 _atom_site_label
 _atom_site_symmetry_multiplicity
 _atom_site_fract_x
 _atom_site_fract_y
 _atom_site_fract_z
 _atom_site_occupancy
  Ca  Ca0  1  0.550100  0.119474  0.631211  1
  Ca  Ca1  1  0.549502  0.619032  0.131216  1
  Ca  Ca2  1  0.053823  0.882256  0.873299  1
  Ca  Ca3  1  0.054545  0.383343  0.372342  1
  Ca  Ca4  1  0.448783  0.879816  0.366167  1
  Ca  Ca5  1  0.449281  0.380165  0.866543  1
  Sm  Sm6  1  0.935813  0.113584  0.128532  1
  Sm  Sm7  1  0.935283  0.612985  0.629376  1
  Ta  Ta8  1  0.494686  0.753397  0.749872  1
  Ta  Ta9  1  0.495120  0.253070  0.250051  1
  Ta  Ta10  1  0.004464  0.246331  0.748745  1
  Ta  Ta11  1  0.002582  0.746401  0.248577  1
  Fe  Fe12  1  0.998064  0.499159  0.001057  1
  Fe  Fe13  1  0.497435  0.499434  0.499157  1
  Fe  Fe14  1  0.998030  0.999185  0.500981  1
  Fe  Fe15  1  0.497071  0.999889  0.998608  1
  O  O16  1  0.529785  0.680303  0.580462  1
  O  O17  1  0.530278  0.180396  0.080398  1
  O  O18  1  0.967578  0.171888  0.579593  1
  O  O19  1  0.965356  0.671209  0.079752  1
  O  O20  1  0.466736  0.318421  0.420193  1
  O  O21  1  0.466619  0.818119  0.920418  1
  O  O22  1  0.030867  0.824403  0.425435  1
  O  O23  1  0.032866  0.324962  0.925451  1
  O  O24  1  0.708979  0.079874  0.365114  1
  O  O25  1  0.709043  0.580036  0.865001  1
  O  O26  1  0.819802  0.079656  0.879713  1
  O  O27  1  0.814285  0.578949  0.379664  1
  O  O28  1  0.294633  0.921837  0.628930  1
  O  O29  1  0.294737  0.421582  0.128893  1
  O  O30  1  0.187349  0.923272  0.127976  1
  O  O31  1  0.192442  0.424429  0.628149  1
  O  O32  1  0.205941  0.121872  0.320868  1
  O  O33  1  0.205797  0.622323  0.820917  1
  O  O34  1  0.300488  0.135563  0.816477  1
  O  O35  1  0.295775  0.635346  0.314608  1
  O  O36  1  0.791204  0.875478  0.675479  1
  O  O37  1  0.791305  0.375045  0.175531  1
  O  O38  1  0.714392  0.874123  0.181496  1
  O  O39  1  0.719161  0.373395  0.683741  1
