# generated using pymatgen
data_Mg9Al7Pd8
_symmetry_space_group_name_H-M   'P 1'
_cell_length_a   8.32096742
_cell_length_b   8.37428450
_cell_length_c   8.35438568
_cell_angle_alpha   59.65682023
_cell_angle_beta   59.61997837
_cell_angle_gamma   60.05226559
_symmetry_Int_Tables_number   1
_chemical_formula_structural   Mg9Al7Pd8
_chemical_formula_sum   'Mg9 Al7 Pd8'
_cell_volume   409.53864164
_cell_formula_units_Z   1
loop_
 _symmetry_equiv_pos_site_id
 _symmetry_equiv_pos_as_xyz
  1  'x, y, z'
loop_
 _atom_site_type_symbol
 _atom_site_label
 _atom_site_symmetry_multiplicity
 _atom_site_fract_x
 _atom_site_fract_y
 _atom_site_fract_z
 _atom_site_occupancy
  Mg  Mg0  1  0.436912  0.434628  0.811888  1
  Mg  Mg1  1  0.818064  0.431935  0.818064  1
  Mg  Mg2  1  0.811888  0.816570  0.436912  1
  Mg  Mg3  1  0.568251  0.181748  0.568251  1
  Mg  Mg4  1  0.181913  0.568088  0.181912  1
  Mg  Mg5  1  0.183764  0.569292  0.568081  1
  Mg  Mg6  1  0.567201  0.567782  0.184884  1
  Mg  Mg7  1  0.568080  0.178863  0.183765  1
  Mg  Mg8  1  0.184884  0.180130  0.567203  1
  Al  Al9  1  0.996043  0.999043  0.002660  1
  Al  Al10  1  0.000422  0.995523  0.500381  1
  Al  Al11  1  0.500382  0.003673  0.000422  1
  Al  Al12  1  0.002661  0.502253  0.996043  1
  Al  Al13  1  0.827692  0.419318  0.424434  1
  Al  Al14  1  0.424434  0.828554  0.827693  1
  Al  Al15  1  0.424003  0.825996  0.424003  1
  Pd  Pd16  1  0.212277  0.214293  0.215669  1
  Pd  Pd17  1  0.214924  0.211748  0.857995  1
  Pd  Pd18  1  0.857996  0.215331  0.214924  1
  Pd  Pd19  1  0.215670  0.857760  0.212277  1
  Pd  Pd20  1  0.776615  0.786530  0.789720  1
  Pd  Pd21  1  0.778067  0.774913  0.158132  1
  Pd  Pd22  1  0.789720  0.147134  0.776615  1
  Pd  Pd23  1  0.158132  0.788889  0.778067  1
