# generated using pymatgen
data_Dy9Ho3GaCo4Hg
_symmetry_space_group_name_H-M   'P 1'
_cell_length_a   8.27463106
_cell_length_b   8.27463216
_cell_length_c   8.27780610
_cell_angle_alpha   112.07141664
_cell_angle_beta   109.60691847
_cell_angle_gamma   106.76217725
_symmetry_Int_Tables_number   1
_chemical_formula_structural   Dy9Ho3GaCo4Hg
_chemical_formula_sum   'Dy9 Ho3 Ga1 Co4 Hg1'
_cell_volume   435.45856957
_cell_formula_units_Z   1
loop_
 _symmetry_equiv_pos_site_id
 _symmetry_equiv_pos_as_xyz
  1  'x, y, z'
loop_
 _atom_site_type_symbol
 _atom_site_label
 _atom_site_symmetry_multiplicity
 _atom_site_fract_x
 _atom_site_fract_y
 _atom_site_fract_z
 _atom_site_occupancy
  Dy  Dy0  1  0.960664  0.262729  0.697740  1
  Dy  Dy1  1  0.039168  0.737056  0.302316  1
  Dy  Dy2  1  0.674387  0.860764  0.186713  1
  Dy  Dy3  1  0.325949  0.512327  0.186713  1
  Dy  Dy4  1  0.325838  0.139344  0.813343  1
  Dy  Dy5  1  0.673998  0.487504  0.813343  1
  Dy  Dy6  1  0.565260  0.263148  0.302316  1
  Dy  Dy7  1  0.435011  0.737076  0.697740  1
  Dy  Dy8  1  0.179637  0.780504  0.960141  1
  Ho  Ho9  1  0.820169  0.780349  0.600519  1
  Ho  Ho10  1  0.179649  0.219693  0.399341  1
  Ho  Ho11  1  0.820493  0.219609  0.040102  1
  Ga  Ga12  1  0.999909  0.499801  0.499710  1
  Co  Co13  1  0.113767  0.113999  0.000047  1
  Co  Co14  1  0.886048  0.886280  0.000047  1
  Co  Co15  1  0.663839  0.499948  0.163787  1
  Co  Co16  1  0.336219  0.499886  0.836104  1
  Hg  Hg17  1  0.499994  0.999983  0.499977  1
