# generated using pymatgen
data_GdY3(ZnSi3)2
_symmetry_space_group_name_H-M   'P 1'
_cell_length_a   4.09412600
_cell_length_b   4.11909100
_cell_length_c   14.00381000
_cell_angle_alpha   90.00000000
_cell_angle_beta   90.00000000
_cell_angle_gamma   90.00000000
_symmetry_Int_Tables_number   1
_chemical_formula_structural   GdY3(ZnSi3)2
_chemical_formula_sum   'Gd1 Y3 Zn2 Si6'
_cell_volume   236.16133797
_cell_formula_units_Z   1
loop_
 _symmetry_equiv_pos_site_id
 _symmetry_equiv_pos_as_xyz
  1  'x, y, z'
loop_
 _atom_site_type_symbol
 _atom_site_label
 _atom_site_symmetry_multiplicity
 _atom_site_fract_x
 _atom_site_fract_y
 _atom_site_fract_z
 _atom_site_occupancy
  Gd  Gd0  1  0.500000  0.500000  0.005751  1
  Y  Y1  1  0.000000  0.000000  0.505109  1
  Y  Y2  1  0.500000  0.000000  0.745062  1
  Y  Y3  1  0.000000  0.500000  0.246826  1
  Zn  Zn4  1  0.000000  0.000000  0.914727  1
  Zn  Zn5  1  0.500000  0.500000  0.415496  1
  Si  Si6  1  0.000000  0.500000  0.832625  1
  Si  Si7  1  0.500000  0.000000  0.333749  1
  Si  Si8  1  0.000000  0.000000  0.083382  1
  Si  Si9  1  0.500000  0.500000  0.582728  1
  Si  Si10  1  0.500000  0.000000  0.167720  1
  Si  Si11  1  0.000000  0.500000  0.666823  1
