# generated using pymatgen
data_CsTa8VS16
_symmetry_space_group_name_H-M   'P 1'
_cell_length_a   6.65262100
_cell_length_b   6.65262230
_cell_length_c   14.56661500
_cell_angle_alpha   90.00000000
_cell_angle_beta   90.00000000
_cell_angle_gamma   119.99999851
_symmetry_Int_Tables_number   1
_chemical_formula_structural   CsTa8VS16
_chemical_formula_sum   'Cs1 Ta8 V1 S16'
_cell_volume   558.30938683
_cell_formula_units_Z   1
loop_
 _symmetry_equiv_pos_site_id
 _symmetry_equiv_pos_as_xyz
  1  'x, y, z'
loop_
 _atom_site_type_symbol
 _atom_site_label
 _atom_site_symmetry_multiplicity
 _atom_site_fract_x
 _atom_site_fract_y
 _atom_site_fract_z
 _atom_site_occupancy
  Cs  Cs0  1  0.000000  0.000000  0.000000  1
  Ta  Ta1  1  0.000000  0.000000  0.289793  1
  Ta  Ta2  1  0.000000  0.000000  0.710207  1
  Ta  Ta3  1  0.505031  0.010061  0.293021  1
  Ta  Ta4  1  0.494969  0.989939  0.706979  1
  Ta  Ta5  1  0.989939  0.494969  0.293021  1
  Ta  Ta6  1  0.010061  0.505031  0.706979  1
  Ta  Ta7  1  0.505031  0.494969  0.293021  1
  Ta  Ta8  1  0.494969  0.505031  0.706979  1
  V  V9  1  0.000000  0.000000  0.500000  1
  S  S10  1  0.333333  0.666667  0.598458  1
  S  S11  1  0.666667  0.333333  0.401542  1
  S  S12  1  0.666667  0.333333  0.183122  1
  S  S13  1  0.333333  0.666667  0.816878  1
  S  S14  1  0.169608  0.339216  0.186280  1
  S  S15  1  0.830392  0.660784  0.813720  1
  S  S16  1  0.660784  0.830392  0.186280  1
  S  S17  1  0.834428  0.668855  0.601292  1
  S  S18  1  0.339216  0.169608  0.813720  1
  S  S19  1  0.165572  0.331145  0.398708  1
  S  S20  1  0.169608  0.830392  0.186280  1
  S  S21  1  0.331145  0.165572  0.601292  1
  S  S22  1  0.830392  0.169608  0.813720  1
  S  S23  1  0.668855  0.834428  0.398708  1
  S  S24  1  0.834428  0.165572  0.601292  1
  S  S25  1  0.165572  0.834428  0.398708  1
