# generated using pymatgen
data_Zr12Al2Zn7Cu2PdC4
_symmetry_space_group_name_H-M   'P 1'
_cell_length_a   8.66974915
_cell_length_b   8.64752353
_cell_length_c   8.63545100
_cell_angle_alpha   59.95373138
_cell_angle_beta   60.11694277
_cell_angle_gamma   60.08475585
_symmetry_Int_Tables_number   1
_chemical_formula_structural   Zr12Al2Zn7Cu2PdC4
_chemical_formula_sum   'Zr12 Al2 Zn7 Cu2 Pd1 C4'
_cell_volume   458.32761098
_cell_formula_units_Z   1
loop_
 _symmetry_equiv_pos_site_id
 _symmetry_equiv_pos_as_xyz
  1  'x, y, z'
loop_
 _atom_site_type_symbol
 _atom_site_label
 _atom_site_symmetry_multiplicity
 _atom_site_fract_x
 _atom_site_fract_y
 _atom_site_fract_z
 _atom_site_occupancy
  Zr  Zr0  1  0.440621  0.440482  0.058305  1
  Zr  Zr1  1  0.062630  0.439577  0.057744  1
  Zr  Zr2  1  0.441543  0.059995  0.056994  1
  Zr  Zr3  1  0.061193  0.059024  0.439566  1
  Zr  Zr4  1  0.440024  0.060260  0.439995  1
  Zr  Zr5  1  0.062425  0.438394  0.438889  1
  Zr  Zr6  1  0.809012  0.808383  0.193451  1
  Zr  Zr7  1  0.187287  0.809748  0.193179  1
  Zr  Zr8  1  0.809734  0.189415  0.192071  1
  Zr  Zr9  1  0.190289  0.191633  0.808897  1
  Zr  Zr10  1  0.809953  0.190599  0.808383  1
  Zr  Zr11  1  0.189882  0.808375  0.807746  1
  Al  Al12  1  0.825439  0.832869  0.513150  1
  Al  Al13  1  0.829492  0.510950  0.826308  1
  Zn  Zn14  1  0.505537  0.833668  0.827140  1
  Zn  Zn15  1  0.827315  0.836633  0.830556  1
  Zn  Zn16  1  0.424561  0.419773  0.736901  1
  Zn  Zn17  1  0.421301  0.738600  0.424338  1
  Zn  Zn18  1  0.740996  0.417327  0.425127  1
  Zn  Zn19  1  0.420845  0.416179  0.422970  1
  Zn  Zn20  1  0.624986  0.624993  0.124874  1
  Cu  Cu21  1  0.626582  0.122861  0.623840  1
  Cu  Cu22  1  0.629552  0.625626  0.625425  1
  Pd  Pd23  1  0.117252  0.625703  0.625732  1
  C  C24  1  0.125493  0.123098  0.626202  1
  C  C25  1  0.125193  0.626119  0.123385  1
  C  C26  1  0.624044  0.124951  0.124575  1
  C  C27  1  0.126817  0.124765  0.124256  1
