# generated using pymatgen
data_DyHoMg(PRh2)6
_symmetry_space_group_name_H-M   'P 1'
_cell_length_a   9.70777300
_cell_length_b   9.70777236
_cell_length_c   3.88940000
_cell_angle_alpha   90.00000000
_cell_angle_beta   90.00000000
_cell_angle_gamma   120.00000560
_symmetry_Int_Tables_number   1
_chemical_formula_structural   DyHoMg(PRh2)6
_chemical_formula_sum   'Dy1 Ho1 Mg1 P6 Rh12'
_cell_volume   317.43324832
_cell_formula_units_Z   1
loop_
 _symmetry_equiv_pos_site_id
 _symmetry_equiv_pos_as_xyz
  1  'x, y, z'
loop_
 _atom_site_type_symbol
 _atom_site_label
 _atom_site_symmetry_multiplicity
 _atom_site_fract_x
 _atom_site_fract_y
 _atom_site_fract_z
 _atom_site_occupancy
  Dy  Dy0  1  0.333333  0.666667  0.752509  1
  Ho  Ho1  1  0.666667  0.333333  0.247496  1
  Mg  Mg2  1  0.000000  0.000000  0.499982  1
  P  P3  1  0.402387  0.285293  0.746512  1
  P  P4  1  0.714707  0.117093  0.746512  1
  P  P5  1  0.882907  0.597613  0.746512  1
  P  P6  1  0.597673  0.714728  0.253491  1
  P  P7  1  0.285272  0.882945  0.253491  1
  P  P8  1  0.117055  0.402327  0.253491  1
  Rh  Rh9  1  0.453586  0.066509  0.748452  1
  Rh  Rh10  1  0.933491  0.387077  0.748452  1
  Rh  Rh11  1  0.612923  0.546414  0.748452  1
  Rh  Rh12  1  0.546529  0.933631  0.251545  1
  Rh  Rh13  1  0.066369  0.612898  0.251545  1
  Rh  Rh14  1  0.387102  0.453471  0.251545  1
  Rh  Rh15  1  0.161140  0.289201  0.754466  1
  Rh  Rh16  1  0.710799  0.871938  0.754466  1
  Rh  Rh17  1  0.128062  0.838860  0.754466  1
  Rh  Rh18  1  0.838854  0.710758  0.245538  1
  Rh  Rh19  1  0.289242  0.128096  0.245538  1
  Rh  Rh20  1  0.871904  0.161146  0.245538  1
