# generated using pymatgen
data_Ba4CuH12Pd
_symmetry_space_group_name_H-M   'P 1'
_cell_length_a   7.99135364
_cell_length_b   7.99135371
_cell_length_c   5.88371699
_cell_angle_alpha   89.71952757
_cell_angle_beta   89.71952890
_cell_angle_gamma   136.84493080
_symmetry_Int_Tables_number   1
_chemical_formula_structural   Ba4CuH12Pd
_chemical_formula_sum   'Ba4 Cu1 H12 Pd1'
_cell_volume   256.97707734
_cell_formula_units_Z   1
loop_
 _symmetry_equiv_pos_site_id
 _symmetry_equiv_pos_as_xyz
  1  'x, y, z'
loop_
 _atom_site_type_symbol
 _atom_site_label
 _atom_site_symmetry_multiplicity
 _atom_site_fract_x
 _atom_site_fract_y
 _atom_site_fract_z
 _atom_site_occupancy
  Ba  Ba0  1  0.357403  0.642597  0.000000  1
  Ba  Ba1  1  0.857048  0.142952  0.500000  1
  Ba  Ba2  1  0.642597  0.357403  0.000000  1
  Ba  Ba3  1  0.142952  0.857048  0.500000  1
  Cu  Cu4  1  0.500000  0.500000  0.500000  1
  H  H5  1  0.999067  0.501181  0.250224  1
  H  H6  1  0.498819  0.000933  0.749776  1
  H  H7  1  0.000933  0.498819  0.749776  1
  H  H8  1  0.501181  0.999067  0.250224  1
  H  H9  1  0.112400  0.887600  0.000000  1
  H  H10  1  0.607809  0.392191  0.500000  1
  H  H11  1  0.887600  0.112400  0.000000  1
  H  H12  1  0.392191  0.607809  0.500000  1
  H  H13  1  0.795624  0.795624  0.204764  1
  H  H14  1  0.204376  0.204376  0.795236  1
  H  H15  1  0.704391  0.704391  0.705557  1
  H  H16  1  0.295609  0.295609  0.294443  1
  Pd  Pd17  1  0.000000  0.000000  0.000000  1
