# generated using pymatgen
data_Y8PPd23Pt
_symmetry_space_group_name_H-M   'P 1'
_cell_length_a   8.34538900
_cell_length_b   8.35094900
_cell_length_c   8.35094900
_cell_angle_alpha   90.00000000
_cell_angle_beta   90.00000000
_cell_angle_gamma   90.00000000
_symmetry_Int_Tables_number   1
_chemical_formula_structural   Y8PPd23Pt
_chemical_formula_sum   'Y8 P1 Pd23 Pt1'
_cell_volume   581.99365230
_cell_formula_units_Z   1
loop_
 _symmetry_equiv_pos_site_id
 _symmetry_equiv_pos_as_xyz
  1  'x, y, z'
loop_
 _atom_site_type_symbol
 _atom_site_label
 _atom_site_symmetry_multiplicity
 _atom_site_fract_x
 _atom_site_fract_y
 _atom_site_fract_z
 _atom_site_occupancy
  Y  Y0  1  0.254652  0.254857  0.254857  1
  Y  Y1  1  0.744679  0.744512  0.744512  1
  Y  Y2  1  0.744679  0.744512  0.255488  1
  Y  Y3  1  0.744679  0.255488  0.744512  1
  Y  Y4  1  0.254652  0.254857  0.745143  1
  Y  Y5  1  0.254652  0.745143  0.254857  1
  Y  Y6  1  0.254652  0.745143  0.745143  1
  Y  Y7  1  0.744679  0.255488  0.255488  1
  P  P8  1  0.005210  0.000000  0.000000  1
  Pd  Pd9  1  0.255477  0.500000  0.000000  1
  Pd  Pd10  1  0.743091  0.500000  0.000000  1
  Pd  Pd11  1  0.999898  0.256206  0.500000  1
  Pd  Pd12  1  0.499994  0.255873  0.000000  1
  Pd  Pd13  1  0.999898  0.743794  0.500000  1
  Pd  Pd14  1  0.499994  0.744127  0.000000  1
  Pd  Pd15  1  0.499994  0.000000  0.255873  1
  Pd  Pd16  1  0.255477  0.000000  0.500000  1
  Pd  Pd17  1  0.499994  0.000000  0.744127  1
  Pd  Pd18  1  0.743091  0.000000  0.500000  1
  Pd  Pd19  1  0.999898  0.500000  0.256206  1
  Pd  Pd20  1  0.999898  0.500000  0.743794  1
  Pd  Pd21  1  0.252014  0.500000  0.500000  1
  Pd  Pd22  1  0.747986  0.500000  0.500000  1
  Pd  Pd23  1  0.499728  0.252088  0.500000  1
  Pd  Pd24  1  0.499728  0.747912  0.500000  1
  Pd  Pd25  1  0.499728  0.500000  0.252088  1
  Pd  Pd26  1  0.499728  0.500000  0.747912  1
  Pd  Pd27  1  0.728762  0.000000  0.000000  1
  Pd  Pd28  1  0.998752  0.275594  0.000000  1
  Pd  Pd29  1  0.998752  0.724406  0.000000  1
  Pd  Pd30  1  0.998752  0.000000  0.275594  1
  Pd  Pd31  1  0.998752  0.000000  0.724406  1
  Pt  Pt32  1  0.278086  0.000000  0.000000  1
