# generated using pymatgen
data_DyY2LuNi13C4
_symmetry_space_group_name_H-M   'P 1'
_cell_length_a   8.37643680
_cell_length_b   8.37643712
_cell_length_c   3.84948600
_cell_angle_alpha   90.00000000
_cell_angle_beta   90.00000000
_cell_angle_gamma   91.51488218
_symmetry_Int_Tables_number   1
_chemical_formula_structural   DyY2LuNi13C4
_chemical_formula_sum   'Dy1 Y2 Lu1 Ni13 C4'
_cell_volume   270.00361419
_cell_formula_units_Z   1
loop_
 _symmetry_equiv_pos_site_id
 _symmetry_equiv_pos_as_xyz
  1  'x, y, z'
loop_
 _atom_site_type_symbol
 _atom_site_label
 _atom_site_symmetry_multiplicity
 _atom_site_fract_x
 _atom_site_fract_y
 _atom_site_fract_z
 _atom_site_occupancy
  Dy  Dy0  1  0.187059  0.812941  0.500000  1
  Y  Y1  1  0.652794  0.650741  0.500000  1
  Y  Y2  1  0.349259  0.347206  0.500000  1
  Lu  Lu3  1  0.812126  0.187874  0.500000  1
  Ni  Ni4  1  0.503718  0.000327  0.500000  1
  Ni  Ni5  1  0.999673  0.496282  0.500000  1
  Ni  Ni6  1  0.997602  0.002398  0.000000  1
  Ni  Ni7  1  0.431242  0.783308  0.000000  1
  Ni  Ni8  1  0.571973  0.214313  0.000000  1
  Ni  Ni9  1  0.216692  0.568758  0.000000  1
  Ni  Ni10  1  0.785687  0.428027  0.000000  1
  Ni  Ni11  1  0.708417  0.928904  0.000000  1
  Ni  Ni12  1  0.290097  0.074327  0.000000  1
  Ni  Ni13  1  0.071096  0.291583  0.000000  1
  Ni  Ni14  1  0.925673  0.709903  0.000000  1
  Ni  Ni15  1  0.876299  0.880212  0.500000  1
  Ni  Ni16  1  0.119788  0.123701  0.500000  1
  C  C17  1  0.444514  0.555486  0.000000  1
  C  C18  1  0.558129  0.441871  0.000000  1
  C  C19  1  0.497915  0.999752  0.000000  1
  C  C20  1  0.000248  0.502085  0.000000  1
