# generated using pymatgen
data_Dy3Y5(HoIr2)2
_symmetry_space_group_name_H-M   'P 1'
_cell_length_a   6.50997906
_cell_length_b   7.22999279
_cell_length_c   8.55722154
_cell_angle_alpha   96.49405625
_cell_angle_beta   112.38519539
_cell_angle_gamma   90.13662579
_symmetry_Int_Tables_number   1
_chemical_formula_structural   Dy3Y5(HoIr2)2
_chemical_formula_sum   'Dy3 Y5 Ho2 Ir4'
_cell_volume   369.57038234
_cell_formula_units_Z   1
loop_
 _symmetry_equiv_pos_site_id
 _symmetry_equiv_pos_as_xyz
  1  'x, y, z'
loop_
 _atom_site_type_symbol
 _atom_site_label
 _atom_site_symmetry_multiplicity
 _atom_site_fract_x
 _atom_site_fract_y
 _atom_site_fract_z
 _atom_site_occupancy
  Dy  Dy0  1  0.971698  0.916818  0.181701  1
  Dy  Dy1  1  0.789923  0.583162  0.818306  1
  Dy  Dy2  1  0.028413  0.082974  0.818342  1
  Y  Y3  1  0.210486  0.417934  0.181745  1
  Y  Y4  1  0.653821  0.817526  0.441273  1
  Y  Y5  1  0.212381  0.682706  0.558888  1
  Y  Y6  1  0.346277  0.182473  0.558890  1
  Y  Y7  1  0.787582  0.317389  0.441038  1
  Ho  Ho8  1  0.428322  0.750022  0.999837  1
  Ho  Ho9  1  0.571708  0.249898  0.000043  1
  Ir  Ir10  1  0.822860  0.573513  0.216893  1
  Ir  Ir11  1  0.607537  0.926858  0.783156  1
  Ir  Ir12  1  0.175680  0.426822  0.782893  1
  Ir  Ir13  1  0.393310  0.071906  0.216995  1
