# generated using pymatgen
data_UP3IO13
_symmetry_space_group_name_H-M   'P 1'
_cell_length_a   6.68970473
_cell_length_b   7.73181014
_cell_length_c   11.88341300
_cell_angle_alpha   76.15776356
_cell_angle_beta   86.45607144
_cell_angle_gamma   78.61689306
_symmetry_Int_Tables_number   1
_chemical_formula_structural   UP3IO13
_chemical_formula_sum   'U2 P6 I2 O26'
_cell_volume   584.99321365
_cell_formula_units_Z   2
loop_
 _symmetry_equiv_pos_site_id
 _symmetry_equiv_pos_as_xyz
  1  'x, y, z'
loop_
 _atom_site_type_symbol
 _atom_site_label
 _atom_site_symmetry_multiplicity
 _atom_site_fract_x
 _atom_site_fract_y
 _atom_site_fract_z
 _atom_site_occupancy
  U  U0  1  0.213809  0.203307  0.092480  1
  U  U1  1  0.240137  0.208644  0.599368  1
  P  P2  1  0.112819  0.471895  0.313100  1
  P  P3  1  0.240557  0.802418  0.334865  1
  P  P4  1  0.275344  0.906610  0.892398  1
  P  P5  1  0.738892  0.052877  0.113834  1
  P  P6  1  0.726890  0.221687  0.665777  1
  P  P7  1  0.879241  0.545530  0.683341  1
  I  I8  1  0.750532  0.820600  0.400355  1
  I  I9  1  0.799771  0.776380  0.913215  1
  O  O10  1  0.150542  0.386753  0.207578  1
  O  O11  1  0.060394  0.817923  0.423083  1
  O  O12  1  0.092489  0.457184  0.637376  1
  O  O13  1  0.223802  0.064416  0.783516  1
  O  O14  1  0.112504  0.784767  0.917586  1
  O  O15  1  0.240660  0.345792  0.415451  1
  O  O16  1  0.223120  0.648791  0.269499  1
  O  O17  1  0.235120  0.370832  0.958697  1
  O  O18  1  0.277527  0.993123  0.998016  1
  O  O19  1  0.223053  0.980850  0.240136  1
  O  O20  1  0.336888  0.988769  0.569305  1
  O  O21  1  0.532847  0.168657  0.136959  1
  O  O22  1  0.440119  0.752352  0.397927  1
  O  O23  1  0.532262  0.302543  0.593050  1
  O  O24  1  0.480615  0.778936  0.882953  1
  O  O25  1  0.675917  0.045039  0.416337  1
  O  O26  1  0.702549  0.059837  0.758399  1
  O  O27  1  0.722182  0.983355  0.003942  1
  O  O28  1  0.815328  0.590558  0.033421  1
  O  O29  1  0.757302  0.382579  0.726815  1
  O  O30  1  0.759658  0.692298  0.589391  1
  O  O31  1  0.898201  0.177005  0.091134  1
  O  O32  1  0.799508  0.888378  0.217989  1
  O  O33  1  0.894295  0.529278  0.344803  1
  O  O34  1  0.918900  0.193851  0.586939  1
  O  O35  1  0.916223  0.606190  0.790964  1
