# generated using pymatgen
data_Sc4BeCr2Os5
_symmetry_space_group_name_H-M   'P 1'
_cell_length_a   5.05123606
_cell_length_b   5.15894154
_cell_length_c   8.53099400
_cell_angle_alpha   90.00000000
_cell_angle_beta   90.00000000
_cell_angle_gamma   121.44313352
_symmetry_Int_Tables_number   1
_chemical_formula_structural   Sc4BeCr2Os5
_chemical_formula_sum   'Sc4 Be1 Cr2 Os5'
_cell_volume   189.66515144
_cell_formula_units_Z   1
loop_
 _symmetry_equiv_pos_site_id
 _symmetry_equiv_pos_as_xyz
  1  'x, y, z'
loop_
 _atom_site_type_symbol
 _atom_site_label
 _atom_site_symmetry_multiplicity
 _atom_site_fract_x
 _atom_site_fract_y
 _atom_site_fract_z
 _atom_site_occupancy
  Sc  Sc0  1  0.335855  0.670669  0.436587  1
  Sc  Sc1  1  0.661359  0.331880  0.561866  1
  Sc  Sc2  1  0.661359  0.331880  0.938134  1
  Sc  Sc3  1  0.335855  0.670669  0.063413  1
  Be  Be4  1  0.174880  0.831923  0.750000  1
  Cr  Cr5  1  0.178767  0.332293  0.750000  1
  Cr  Cr6  1  0.338087  0.170348  0.250000  1
  Os  Os7  1  0.825843  0.656006  0.250000  1
  Os  Os8  1  0.637542  0.804072  0.750000  1
  Os  Os9  1  0.010443  0.014591  0.990958  1
  Os  Os10  1  0.829568  0.171077  0.250000  1
  Os  Os11  1  0.010443  0.014591  0.509042  1
