# generated using pymatgen
data_TbHo15(InPd)4
_symmetry_space_group_name_H-M   'P 1'
_cell_length_a   9.69434165
_cell_length_b   9.69434180
_cell_length_c   9.72549200
_cell_angle_alpha   59.89365000
_cell_angle_beta   59.89364946
_cell_angle_gamma   59.73651466
_symmetry_Int_Tables_number   1
_chemical_formula_structural   TbHo15(InPd)4
_chemical_formula_sum   'Tb1 Ho15 In4 Pd4'
_cell_volume   643.96718898
_cell_formula_units_Z   1
loop_
 _symmetry_equiv_pos_site_id
 _symmetry_equiv_pos_as_xyz
  1  'x, y, z'
loop_
 _atom_site_type_symbol
 _atom_site_label
 _atom_site_symmetry_multiplicity
 _atom_site_fract_x
 _atom_site_fract_y
 _atom_site_fract_z
 _atom_site_occupancy
  Tb  Tb0  1  0.434544  0.434544  0.065456  1
  Ho  Ho1  1  0.648245  0.648245  0.056025  1
  Ho  Ho2  1  0.189592  0.810040  0.190567  1
  Ho  Ho3  1  0.063812  0.435933  0.063569  1
  Ho  Ho4  1  0.189592  0.810040  0.809801  1
  Ho  Ho5  1  0.063812  0.435933  0.436687  1
  Ho  Ho6  1  0.810040  0.189592  0.190567  1
  Ho  Ho7  1  0.648245  0.648245  0.647484  1
  Ho  Ho8  1  0.810040  0.189592  0.809801  1
  Ho  Ho9  1  0.190620  0.190620  0.809380  1
  Ho  Ho10  1  0.057307  0.648234  0.647230  1
  Ho  Ho11  1  0.435933  0.063812  0.063569  1
  Ho  Ho12  1  0.063481  0.063481  0.436519  1
  Ho  Ho13  1  0.648234  0.057307  0.647230  1
  Ho  Ho14  1  0.810338  0.810338  0.189662  1
  Ho  Ho15  1  0.435933  0.063812  0.436687  1
  In  In16  1  0.416715  0.416715  0.417054  1
  In  In17  1  0.416715  0.416715  0.749518  1
  In  In18  1  0.417124  0.749190  0.416844  1
  In  In19  1  0.749190  0.417124  0.416844  1
  Pd  Pd20  1  0.431513  0.857002  0.855742  1
  Pd  Pd21  1  0.855985  0.855985  0.855939  1
  Pd  Pd22  1  0.857002  0.431513  0.855742  1
  Pd  Pd23  1  0.855985  0.855985  0.432089  1
