# generated using pymatgen
data_MgTa2TiPt12
_symmetry_space_group_name_H-M   'P 1'
_cell_length_a   5.64484300
_cell_length_b   5.64484374
_cell_length_c   9.14773400
_cell_angle_alpha   90.00000000
_cell_angle_beta   90.00000000
_cell_angle_gamma   120.00000154
_symmetry_Int_Tables_number   1
_chemical_formula_structural   MgTa2TiPt12
_chemical_formula_sum   'Mg1 Ta2 Ti1 Pt12'
_cell_volume   252.43405518
_cell_formula_units_Z   1
loop_
 _symmetry_equiv_pos_site_id
 _symmetry_equiv_pos_as_xyz
  1  'x, y, z'
loop_
 _atom_site_type_symbol
 _atom_site_label
 _atom_site_symmetry_multiplicity
 _atom_site_fract_x
 _atom_site_fract_y
 _atom_site_fract_z
 _atom_site_occupancy
  Mg  Mg0  1  0.333333  0.666667  0.249182  1
  Ta  Ta1  1  0.000000  0.000000  0.492321  1
  Ta  Ta2  1  0.666667  0.333333  0.753066  1
  Ti  Ti3  1  0.000000  0.000000  0.006446  1
  Pt  Pt4  1  0.501841  0.498159  0.503755  1
  Pt  Pt5  1  0.501841  0.003683  0.503755  1
  Pt  Pt6  1  0.996317  0.498159  0.503755  1
  Pt  Pt7  1  0.501762  0.498238  0.996363  1
  Pt  Pt8  1  0.501762  0.003523  0.996363  1
  Pt  Pt9  1  0.996477  0.498238  0.996363  1
  Pt  Pt10  1  0.832614  0.665230  0.249623  1
  Pt  Pt11  1  0.334770  0.167386  0.249623  1
  Pt  Pt12  1  0.832614  0.167386  0.249623  1
  Pt  Pt13  1  0.166354  0.332709  0.749920  1
  Pt  Pt14  1  0.667291  0.833646  0.749920  1
  Pt  Pt15  1  0.166354  0.833646  0.749920  1
