# generated using pymatgen
data_SrNd(AsPt)2
_symmetry_space_group_name_H-M   'P 1'
_cell_length_a   4.33514000
_cell_length_b   4.33513918
_cell_length_c   8.54811000
_cell_angle_alpha   90.00000000
_cell_angle_beta   90.00000000
_cell_angle_gamma   119.99999099
_symmetry_Int_Tables_number   1
_chemical_formula_structural   SrNd(AsPt)2
_chemical_formula_sum   'Sr1 Nd1 As2 Pt2'
_cell_volume   139.12556648
_cell_formula_units_Z   1
loop_
 _symmetry_equiv_pos_site_id
 _symmetry_equiv_pos_as_xyz
  1  'x, y, z'
loop_
 _atom_site_type_symbol
 _atom_site_label
 _atom_site_symmetry_multiplicity
 _atom_site_fract_x
 _atom_site_fract_y
 _atom_site_fract_z
 _atom_site_occupancy
  Sr  Sr0  1  0.000000  0.000000  0.000000  1
  Nd  Nd1  1  0.000000  0.000000  0.500000  1
  As  As2  1  0.333333  0.666667  0.740181  1
  As  As3  1  0.666667  0.333333  0.259819  1
  Pt  Pt4  1  0.333333  0.666667  0.265673  1
  Pt  Pt5  1  0.666667  0.333333  0.734327  1
