# generated using pymatgen
data_Ho4Ga(SiIr2)2
_symmetry_space_group_name_H-M   'P 1'
_cell_length_a   10.72504434
_cell_length_b   10.72504444
_cell_length_c   7.73045200
_cell_angle_alpha   71.25828482
_cell_angle_beta   71.25828465
_cell_angle_gamma   30.31346993
_symmetry_Int_Tables_number   1
_chemical_formula_structural   Ho4Ga(SiIr2)2
_chemical_formula_sum   'Ho8 Ga2 Si4 Ir8'
_cell_volume   423.21385183
_cell_formula_units_Z   2
loop_
 _symmetry_equiv_pos_site_id
 _symmetry_equiv_pos_as_xyz
  1  'x, y, z'
loop_
 _atom_site_type_symbol
 _atom_site_label
 _atom_site_symmetry_multiplicity
 _atom_site_fract_x
 _atom_site_fract_y
 _atom_site_fract_z
 _atom_site_occupancy
  Ho  Ho0  1  0.212425  0.444653  0.400494  1
  Ho  Ho1  1  0.555347  0.787575  0.099506  1
  Ho  Ho2  1  0.444653  0.212425  0.900494  1
  Ho  Ho3  1  0.920759  0.217306  0.333378  1
  Ho  Ho4  1  0.782694  0.079241  0.166622  1
  Ho  Ho5  1  0.079241  0.782694  0.666622  1
  Ho  Ho6  1  0.217306  0.920759  0.833378  1
  Ho  Ho7  1  0.787575  0.555347  0.599506  1
  Ga  Ga8  1  0.627777  0.372223  0.750000  1
  Ga  Ga9  1  0.372223  0.627777  0.250000  1
  Si  Si10  1  0.298480  0.048586  0.442100  1
  Si  Si11  1  0.951414  0.701520  0.057900  1
  Si  Si12  1  0.701520  0.951414  0.557900  1
  Si  Si13  1  0.048586  0.298480  0.942100  1
  Ir  Ir14  1  0.275942  0.592043  0.025301  1
  Ir  Ir15  1  0.592043  0.275942  0.525301  1
  Ir  Ir16  1  0.724058  0.407957  0.974699  1
  Ir  Ir17  1  0.069687  0.369358  0.192340  1
  Ir  Ir18  1  0.630642  0.930313  0.307660  1
  Ir  Ir19  1  0.407957  0.724058  0.474699  1
  Ir  Ir20  1  0.930313  0.630642  0.807660  1
  Ir  Ir21  1  0.369358  0.069687  0.692340  1
