# generated using pymatgen
data_Li5Al(Co2Si)6
_symmetry_space_group_name_H-M   'P 1'
_cell_length_a   3.89916700
_cell_length_b   5.50436900
_cell_length_c   11.67438701
_cell_angle_alpha   89.99693371
_cell_angle_beta   89.99658753
_cell_angle_gamma   90.00008567
_symmetry_Int_Tables_number   1
_chemical_formula_structural   Li5Al(Co2Si)6
_chemical_formula_sum   'Li5 Al1 Co12 Si6'
_cell_volume   250.56099310
_cell_formula_units_Z   1
loop_
 _symmetry_equiv_pos_site_id
 _symmetry_equiv_pos_as_xyz
  1  'x, y, z'
loop_
 _atom_site_type_symbol
 _atom_site_label
 _atom_site_symmetry_multiplicity
 _atom_site_fract_x
 _atom_site_fract_y
 _atom_site_fract_z
 _atom_site_occupancy
  Li  Li0  1  0.499656  0.500026  0.167151  1
  Li  Li1  1  0.999621  0.999988  0.333589  1
  Li  Li2  1  0.500001  0.500001  0.500000  1
  Li  Li3  1  0.000379  0.000012  0.666411  1
  Li  Li4  1  0.500344  0.499976  0.832848  1
  Al  Al5  1  0.000000  0.000000  0.000000  1
  Co  Co6  1  0.500001  0.250719  0.999998  1
  Co  Co7  1  0.500001  0.749281  0.000002  1
  Co  Co8  1  0.999746  0.251313  0.166810  1
  Co  Co9  1  0.999746  0.748689  0.166810  1
  Co  Co10  1  0.499720  0.251003  0.333498  1
  Co  Co11  1  0.499719  0.748995  0.333497  1
  Co  Co12  1  0.000000  0.248991  0.500000  1
  Co  Co13  1  0.000000  0.751009  0.500000  1
  Co  Co14  1  0.500283  0.251005  0.666503  1
  Co  Co15  1  0.500282  0.748997  0.666502  1
  Co  Co16  1  0.000253  0.251311  0.833189  1
  Co  Co17  1  0.000253  0.748687  0.833189  1
  Si  Si18  1  0.000000  0.500001  0.000000  1
  Si  Si19  1  0.499755  0.999991  0.171713  1
  Si  Si20  1  0.999736  0.500010  0.335693  1
  Si  Si21  1  0.500001  0.000000  0.500000  1
  Si  Si22  1  0.000263  0.499992  0.664307  1
  Si  Si23  1  0.500247  0.000009  0.828286  1
