# generated using pymatgen
data_Nb3VCo2N
_symmetry_space_group_name_H-M   'P 1'
_cell_length_a   8.08359334
_cell_length_b   8.08359313
_cell_length_c   8.08359300
_cell_angle_alpha   59.99999643
_cell_angle_beta   59.99999731
_cell_angle_gamma   59.99999968
_symmetry_Int_Tables_number   1
_chemical_formula_structural   Nb3VCo2N
_chemical_formula_sum   'Nb12 V4 Co8 N4'
_cell_volume   373.50663691
_cell_formula_units_Z   4
loop_
 _symmetry_equiv_pos_site_id
 _symmetry_equiv_pos_as_xyz
  1  'x, y, z'
loop_
 _atom_site_type_symbol
 _atom_site_label
 _atom_site_symmetry_multiplicity
 _atom_site_fract_x
 _atom_site_fract_y
 _atom_site_fract_z
 _atom_site_occupancy
  Nb  Nb0  1  0.805900  0.805900  0.194100  1
  Nb  Nb1  1  0.194100  0.194100  0.805900  1
  Nb  Nb2  1  0.805900  0.194100  0.805900  1
  Nb  Nb3  1  0.194100  0.805900  0.194100  1
  Nb  Nb4  1  0.194100  0.805900  0.805900  1
  Nb  Nb5  1  0.805900  0.194100  0.194100  1
  Nb  Nb6  1  0.444100  0.444100  0.055900  1
  Nb  Nb7  1  0.055900  0.055900  0.444100  1
  Nb  Nb8  1  0.444100  0.055900  0.444100  1
  Nb  Nb9  1  0.055900  0.444100  0.055900  1
  Nb  Nb10  1  0.055900  0.444100  0.444100  1
  Nb  Nb11  1  0.444100  0.055900  0.055900  1
  V  V12  1  0.125000  0.625000  0.625000  1
  V  V13  1  0.625000  0.125000  0.625000  1
  V  V14  1  0.625000  0.625000  0.125000  1
  V  V15  1  0.625000  0.625000  0.625000  1
  Co  Co16  1  0.728779  0.423741  0.423741  1
  Co  Co17  1  0.423741  0.728779  0.423741  1
  Co  Co18  1  0.423741  0.423741  0.728779  1
  Co  Co19  1  0.423741  0.423741  0.423741  1
  Co  Co20  1  0.521221  0.826259  0.826259  1
  Co  Co21  1  0.826259  0.521221  0.826259  1
  Co  Co22  1  0.826259  0.826259  0.521221  1
  Co  Co23  1  0.826259  0.826259  0.826259  1
  N  N24  1  0.625000  0.125000  0.125000  1
  N  N25  1  0.125000  0.625000  0.125000  1
  N  N26  1  0.125000  0.125000  0.625000  1
  N  N27  1  0.125000  0.125000  0.125000  1
