# generated using pymatgen
data_Tb8Ti8Si16MoW3
_symmetry_space_group_name_H-M   'P 1'
_cell_length_a   6.99948921
_cell_length_b   6.99948955
_cell_length_c   12.89291775
_cell_angle_alpha   89.99944629
_cell_angle_beta   90.00055274
_cell_angle_gamma   89.95719181
_symmetry_Int_Tables_number   1
_chemical_formula_structural   Tb8Ti8Si16MoW3
_chemical_formula_sum   'Tb8 Ti8 Si16 Mo1 W3'
_cell_volume   631.66062873
_cell_formula_units_Z   1
loop_
 _symmetry_equiv_pos_site_id
 _symmetry_equiv_pos_as_xyz
  1  'x, y, z'
loop_
 _atom_site_type_symbol
 _atom_site_label
 _atom_site_symmetry_multiplicity
 _atom_site_fract_x
 _atom_site_fract_y
 _atom_site_fract_z
 _atom_site_occupancy
  Tb  Tb0  1  0.340847  0.000514  0.467574  1
  Tb  Tb1  1  0.499040  0.840108  0.717514  1
  Tb  Tb2  1  0.500836  0.159252  0.217393  1
  Tb  Tb3  1  0.840108  0.499040  0.282486  1
  Tb  Tb4  1  0.159252  0.500836  0.782607  1
  Tb  Tb5  1  0.659764  0.999090  0.967613  1
  Tb  Tb6  1  0.000514  0.340847  0.532426  1
  Tb  Tb7  1  0.999090  0.659764  0.032387  1
  Ti  Ti8  1  0.153751  0.009401  0.876513  1
  Ti  Ti9  1  0.490531  0.653999  0.126505  1
  Ti  Ti10  1  0.509141  0.346425  0.626743  1
  Ti  Ti11  1  0.653999  0.490531  0.873495  1
  Ti  Ti12  1  0.346425  0.509141  0.373257  1
  Ti  Ti13  1  0.846249  0.990637  0.376534  1
  Ti  Ti14  1  0.009401  0.153751  0.123487  1
  Ti  Ti15  1  0.990637  0.846249  0.623466  1
  Si  Si16  1  0.199868  0.129543  0.685496  1
  Si  Si17  1  0.370633  0.699838  0.935209  1
  Si  Si18  1  0.629365  0.299954  0.435401  1
  Si  Si19  1  0.699838  0.370633  0.064791  1
  Si  Si20  1  0.299954  0.629365  0.564599  1
  Si  Si21  1  0.800298  0.870538  0.185126  1
  Si  Si22  1  0.129543  0.199868  0.314504  1
  Si  Si23  1  0.870538  0.800298  0.814874  1
  Si  Si24  1  0.291408  0.953347  0.065201  1
  Si  Si25  1  0.546749  0.791082  0.315191  1
  Si  Si26  1  0.453134  0.208744  0.815864  1
  Si  Si27  1  0.791082  0.546749  0.684809  1
  Si  Si28  1  0.208744  0.453134  0.184136  1
  Si  Si29  1  0.708811  0.047189  0.565572  1
  Si  Si30  1  0.953347  0.291408  0.934799  1
  Si  Si31  1  0.047189  0.708811  0.434428  1
  Mo  Mo32  1  0.673290  0.673290  0.500000  1
  W  W33  1  0.326541  0.326541  0.000000  1
  W  W34  1  0.173395  0.826688  0.249789  1
  W  W35  1  0.826688  0.173395  0.750211  1
