# generated using pymatgen
data_Ca2TmUN4
_symmetry_space_group_name_H-M   'P 1'
_cell_length_a   6.88738988
_cell_length_b   9.14953236
_cell_length_c   6.02310537
_cell_angle_alpha   29.13317111
_cell_angle_beta   55.12784812
_cell_angle_gamma   41.17009800
_symmetry_Int_Tables_number   1
_chemical_formula_structural   Ca2TmUN4
_chemical_formula_sum   'Ca2 Tm1 U1 N4'
_cell_volume   117.20365203
_cell_formula_units_Z   1
loop_
 _symmetry_equiv_pos_site_id
 _symmetry_equiv_pos_as_xyz
  1  'x, y, z'
loop_
 _atom_site_type_symbol
 _atom_site_label
 _atom_site_symmetry_multiplicity
 _atom_site_fract_x
 _atom_site_fract_y
 _atom_site_fract_z
 _atom_site_occupancy
  Ca  Ca0  1  0.750000  0.500000  0.000000  1
  Ca  Ca1  1  0.500000  0.000000  0.000000  1
  Tm  Tm2  1  0.250000  0.500000  0.000000  1
  U  U3  1  0.000000  0.000000  0.000000  1
  N  N4  1  0.487938  0.500000  0.524124  1
  N  N5  1  0.215053  0.000000  0.569893  1
  N  N6  1  0.012062  0.500000  0.475876  1
  N  N7  1  0.784947  0.000000  0.430107  1
