# generated using pymatgen
data_Rh4Pb4O13
_symmetry_space_group_name_H-M   'P 1'
_cell_length_a   7.29153565
_cell_length_b   7.29153579
_cell_length_c   7.29153600
_cell_angle_alpha   59.99999903
_cell_angle_beta   59.99999839
_cell_angle_gamma   59.99999957
_symmetry_Int_Tables_number   1
_chemical_formula_structural   Rh4Pb4O13
_chemical_formula_sum   'Rh4 Pb4 O13'
_cell_volume   274.12082583
_cell_formula_units_Z   1
loop_
 _symmetry_equiv_pos_site_id
 _symmetry_equiv_pos_as_xyz
  1  'x, y, z'
loop_
 _atom_site_type_symbol
 _atom_site_label
 _atom_site_symmetry_multiplicity
 _atom_site_fract_x
 _atom_site_fract_y
 _atom_site_fract_z
 _atom_site_occupancy
  Rh  Rh0  1  0.124586  0.625138  0.625138  1
  Rh  Rh1  1  0.625138  0.124586  0.625138  1
  Rh  Rh2  1  0.625138  0.625138  0.124586  1
  Rh  Rh3  1  0.625138  0.625138  0.625138  1
  Pb  Pb4  1  0.617839  0.127387  0.127387  1
  Pb  Pb5  1  0.127387  0.617839  0.127387  1
  Pb  Pb6  1  0.127387  0.127387  0.617839  1
  Pb  Pb7  1  0.127387  0.127387  0.127387  1
  O  O8  1  0.294002  0.294002  0.705998  1
  O  O9  1  0.705998  0.705998  0.294002  1
  O  O10  1  0.294002  0.705998  0.294002  1
  O  O11  1  0.705998  0.294002  0.705998  1
  O  O12  1  0.705998  0.294002  0.294002  1
  O  O13  1  0.294002  0.705998  0.705998  1
  O  O14  1  0.954214  0.954214  0.545786  1
  O  O15  1  0.545786  0.545786  0.954214  1
  O  O16  1  0.954214  0.545786  0.954214  1
  O  O17  1  0.545786  0.954214  0.545786  1
  O  O18  1  0.545786  0.954214  0.954214  1
  O  O19  1  0.954214  0.545786  0.545786  1
  O  O20  1  0.000000  0.000000  0.000000  1
