# generated using pymatgen
data_Ce2GeP(RhO)2
_symmetry_space_group_name_H-M   'P 1'
_cell_length_a   4.01200400
_cell_length_b   4.01200400
_cell_length_c   8.29896400
_cell_angle_alpha   90.00000000
_cell_angle_beta   90.00000000
_cell_angle_gamma   90.00000000
_symmetry_Int_Tables_number   1
_chemical_formula_structural   Ce2GeP(RhO)2
_chemical_formula_sum   'Ce2 Ge1 P1 Rh2 O2'
_cell_volume   133.58158596
_cell_formula_units_Z   1
loop_
 _symmetry_equiv_pos_site_id
 _symmetry_equiv_pos_as_xyz
  1  'x, y, z'
loop_
 _atom_site_type_symbol
 _atom_site_label
 _atom_site_symmetry_multiplicity
 _atom_site_fract_x
 _atom_site_fract_y
 _atom_site_fract_z
 _atom_site_occupancy
  Ce  Ce0  1  0.250001  0.250001  0.140793  1
  Ce  Ce1  1  0.750001  0.750001  0.849468  1
  Ge  Ge2  1  0.750001  0.750001  0.335516  1
  P  P3  1  0.250001  0.250001  0.656622  1
  Rh  Rh4  1  0.750001  0.250003  0.513066  1
  Rh  Rh5  1  0.250003  0.750001  0.513066  1
  O  O6  1  0.750001  0.250003  0.995733  1
  O  O7  1  0.250003  0.750001  0.995733  1
