# generated using pymatgen
data_CsEu(YSe2)2
_symmetry_space_group_name_H-M   'P 1'
_cell_length_a   4.21811300
_cell_length_b   4.21811260
_cell_length_c   30.60789500
_cell_angle_alpha   90.00000000
_cell_angle_beta   90.00000000
_cell_angle_gamma   119.99996390
_symmetry_Int_Tables_number   1
_chemical_formula_structural   CsEu(YSe2)2
_chemical_formula_sum   'Cs2 Eu2 Y4 Se8'
_cell_volume   471.62914131
_cell_formula_units_Z   2
loop_
 _symmetry_equiv_pos_site_id
 _symmetry_equiv_pos_as_xyz
  1  'x, y, z'
loop_
 _atom_site_type_symbol
 _atom_site_label
 _atom_site_symmetry_multiplicity
 _atom_site_fract_x
 _atom_site_fract_y
 _atom_site_fract_z
 _atom_site_occupancy
  Cs  Cs0  1  0.666667  0.333333  0.250000  1
  Cs  Cs1  1  0.333333  0.666667  0.750000  1
  Eu  Eu2  1  0.000000  0.000000  0.500000  1
  Eu  Eu3  1  0.000000  0.000000  0.000000  1
  Y  Y4  1  0.666667  0.333333  0.613249  1
  Y  Y5  1  0.666667  0.333333  0.886751  1
  Y  Y6  1  0.333333  0.666667  0.386751  1
  Y  Y7  1  0.333333  0.666667  0.113249  1
  Se  Se8  1  0.000000  0.000000  0.163602  1
  Se  Se9  1  0.666667  0.333333  0.440614  1
  Se  Se10  1  0.000000  0.000000  0.663602  1
  Se  Se11  1  0.333333  0.666667  0.940614  1
  Se  Se12  1  0.333333  0.666667  0.559386  1
  Se  Se13  1  0.000000  0.000000  0.336398  1
  Se  Se14  1  0.666667  0.333333  0.059386  1
  Se  Se15  1  0.000000  0.000000  0.836398  1
