# generated using pymatgen
data_Pr2(Ga3Rh)3
_symmetry_space_group_name_H-M   'P 1'
_cell_length_a   7.66176251
_cell_length_b   7.66176193
_cell_length_c   9.70206600
_cell_angle_alpha   90.00000000
_cell_angle_beta   90.00000000
_cell_angle_gamma   119.49141166
_symmetry_Int_Tables_number   1
_chemical_formula_structural   Pr2(Ga3Rh)3
_chemical_formula_sum   'Pr4 Ga18 Rh6'
_cell_volume   495.74137177
_cell_formula_units_Z   2
loop_
 _symmetry_equiv_pos_site_id
 _symmetry_equiv_pos_as_xyz
  1  'x, y, z'
loop_
 _atom_site_type_symbol
 _atom_site_label
 _atom_site_symmetry_multiplicity
 _atom_site_fract_x
 _atom_site_fract_y
 _atom_site_fract_z
 _atom_site_occupancy
  Pr  Pr0  1  0.997490  0.669917  0.250000  1
  Pr  Pr1  1  0.002510  0.330083  0.750000  1
  Pr  Pr2  1  0.669917  0.997490  0.250000  1
  Pr  Pr3  1  0.330083  0.002510  0.750000  1
  Ga  Ga4  1  0.129889  0.129889  0.250000  1
  Ga  Ga5  1  0.870111  0.870111  0.750000  1
  Ga  Ga6  1  0.003810  0.335663  0.077257  1
  Ga  Ga7  1  0.996190  0.664337  0.922743  1
  Ga  Ga8  1  0.996190  0.664337  0.577257  1
  Ga  Ga9  1  0.335663  0.003810  0.422743  1
  Ga  Ga10  1  0.003810  0.335663  0.422743  1
  Ga  Ga11  1  0.664337  0.996190  0.577257  1
  Ga  Ga12  1  0.664337  0.996190  0.922743  1
  Ga  Ga13  1  0.335663  0.003810  0.077257  1
  Ga  Ga14  1  0.333931  0.333931  0.556219  1
  Ga  Ga15  1  0.666069  0.666069  0.443781  1
  Ga  Ga16  1  0.666069  0.666069  0.056219  1
  Ga  Ga17  1  0.333931  0.333931  0.943781  1
  Ga  Ga18  1  0.340178  0.546237  0.250000  1
  Ga  Ga19  1  0.659822  0.453763  0.750000  1
  Ga  Ga20  1  0.546237  0.340178  0.250000  1
  Ga  Ga21  1  0.453763  0.659822  0.750000  1
  Rh  Rh22  1  0.671004  0.328996  0.000000  1
  Rh  Rh23  1  0.328996  0.671004  0.000000  1
  Rh  Rh24  1  0.328996  0.671004  0.500000  1
  Rh  Rh25  1  0.671004  0.328996  0.500000  1
  Rh  Rh26  1  0.000000  0.000000  0.000000  1
  Rh  Rh27  1  0.000000  0.000000  0.500000  1
