# generated using pymatgen
data_Y3SnBi2Rh3
_symmetry_space_group_name_H-M   'P 1'
_cell_length_a   7.64707583
_cell_length_b   7.64707624
_cell_length_c   3.98572100
_cell_angle_alpha   90.00000000
_cell_angle_beta   90.00000000
_cell_angle_gamma   120.58552462
_symmetry_Int_Tables_number   1
_chemical_formula_structural   Y3SnBi2Rh3
_chemical_formula_sum   'Y3 Sn1 Bi2 Rh3'
_cell_volume   200.64834898
_cell_formula_units_Z   1
loop_
 _symmetry_equiv_pos_site_id
 _symmetry_equiv_pos_as_xyz
  1  'x, y, z'
loop_
 _atom_site_type_symbol
 _atom_site_label
 _atom_site_symmetry_multiplicity
 _atom_site_fract_x
 _atom_site_fract_y
 _atom_site_fract_z
 _atom_site_occupancy
  Y  Y0  1  0.403246  0.008028  0.500000  1
  Y  Y1  1  0.008028  0.403246  0.500000  1
  Y  Y2  1  0.590240  0.590240  0.500000  1
  Sn  Sn3  1  0.263507  0.263507  0.000000  1
  Bi  Bi4  1  0.737422  0.002192  0.000000  1
  Bi  Bi5  1  0.002192  0.737422  0.000000  1
  Rh  Rh6  1  0.330653  0.658328  0.000000  1
  Rh  Rh7  1  0.658328  0.330653  0.000000  1
  Rh  Rh8  1  0.006384  0.006384  0.500000  1
