# generated using pymatgen
data_Sm2Al3Zn3Cu4
_symmetry_space_group_name_H-M   'P 1'
_cell_length_a   4.13578400
_cell_length_b   5.31892405
_cell_length_c   9.12662636
_cell_angle_alpha   90.18485602
_cell_angle_beta   90.00000000
_cell_angle_gamma   90.00000000
_symmetry_Int_Tables_number   1
_chemical_formula_structural   Sm2Al3Zn3Cu4
_chemical_formula_sum   'Sm2 Al3 Zn3 Cu4'
_cell_volume   200.76576054
_cell_formula_units_Z   1
loop_
 _symmetry_equiv_pos_site_id
 _symmetry_equiv_pos_as_xyz
  1  'x, y, z'
loop_
 _atom_site_type_symbol
 _atom_site_label
 _atom_site_symmetry_multiplicity
 _atom_site_fract_x
 _atom_site_fract_y
 _atom_site_fract_z
 _atom_site_occupancy
  Sm  Sm0  1  0.000000  0.001343  0.998864  1
  Sm  Sm1  1  0.000000  0.498623  0.501133  1
  Al  Al2  1  0.500000  0.505265  0.996598  1
  Al  Al3  1  0.500000  0.994715  0.503403  1
  Al  Al4  1  0.500000  0.249961  0.249990  1
  Zn  Zn5  1  0.500000  0.750005  0.750006  1
  Zn  Zn6  1  0.500000  0.749948  0.250020  1
  Zn  Zn7  1  0.500000  0.250007  0.749991  1
  Cu  Cu8  1  0.000000  0.000098  0.336278  1
  Cu  Cu9  1  0.000000  0.500451  0.834502  1
  Cu  Cu10  1  0.000000  0.499856  0.163716  1
  Cu  Cu11  1  0.000000  0.999527  0.665500  1
