# generated using pymatgen
data_Nd6Sm2Sc12Si15Ag
_symmetry_space_group_name_H-M   'P 1'
_cell_length_a   7.25978491
_cell_length_b   7.49216914
_cell_length_c   14.28241785
_cell_angle_alpha   89.89700184
_cell_angle_beta   89.64677519
_cell_angle_gamma   90.24991151
_symmetry_Int_Tables_number   1
_chemical_formula_structural   Nd6Sm2Sc12Si15Ag
_chemical_formula_sum   'Nd6 Sm2 Sc12 Si15 Ag1'
_cell_volume   776.81920635
_cell_formula_units_Z   1
loop_
 _symmetry_equiv_pos_site_id
 _symmetry_equiv_pos_as_xyz
  1  'x, y, z'
loop_
 _atom_site_type_symbol
 _atom_site_label
 _atom_site_symmetry_multiplicity
 _atom_site_fract_x
 _atom_site_fract_y
 _atom_site_fract_z
 _atom_site_occupancy
  Nd  Nd0  1  0.012036  0.173457  0.098151  1
  Nd  Nd1  1  0.987744  0.828137  0.903189  1
  Nd  Nd2  1  0.487460  0.673854  0.903433  1
  Nd  Nd3  1  0.989454  0.832439  0.597383  1
  Nd  Nd4  1  0.512028  0.326615  0.096733  1
  Nd  Nd5  1  0.009040  0.170828  0.399021  1
  Sm  Sm6  1  0.513028  0.324268  0.399477  1
  Sm  Sm7  1  0.494046  0.676613  0.600962  1
  Sc  Sc8  1  0.162586  0.498596  0.753537  1
  Sc  Sc9  1  0.837950  0.500910  0.250895  1
  Sc  Sc10  1  0.338728  0.997610  0.248529  1
  Sc  Sc11  1  0.664783  0.998976  0.751812  1
  Sc  Sc12  1  0.343127  0.172348  0.627813  1
  Sc  Sc13  1  0.665119  0.823389  0.373707  1
  Sc  Sc14  1  0.166718  0.675644  0.371298  1
  Sc  Sc15  1  0.670218  0.824891  0.124632  1
  Sc  Sc16  1  0.823744  0.325828  0.625302  1
  Sc  Sc17  1  0.328640  0.174266  0.875663  1
  Sc  Sc18  1  0.830492  0.323166  0.875728  1
  Sc  Sc19  1  0.168984  0.675971  0.125269  1
  Si  Si20  1  0.036955  0.127462  0.749609  1
  Si  Si21  1  0.963890  0.877040  0.249113  1
  Si  Si22  1  0.465329  0.621391  0.248608  1
  Si  Si23  1  0.535888  0.380153  0.751967  1
  Si  Si24  1  0.287379  0.879712  0.750383  1
  Si  Si25  1  0.709907  0.120698  0.248789  1
  Si  Si26  1  0.213876  0.378641  0.249473  1
  Si  Si27  1  0.789474  0.620748  0.751373  1
  Si  Si28  1  0.836690  0.540028  0.458489  1
  Si  Si29  1  0.343502  0.960108  0.461206  1
  Si  Si30  1  0.847917  0.536877  0.039351  1
  Si  Si31  1  0.653654  0.036983  0.538053  1
  Si  Si32  1  0.151225  0.463370  0.961325  1
  Si  Si33  1  0.652582  0.036658  0.960133  1
  Si  Si34  1  0.346362  0.963067  0.039987  1
  Ag  Ag35  1  0.159442  0.459258  0.539607  1
