# generated using pymatgen
data_Rb2U(SeF)2
_symmetry_space_group_name_H-M   'P 1'
_cell_length_a   7.55682945
_cell_length_b   7.55682909
_cell_length_c   8.83475500
_cell_angle_alpha   72.82492980
_cell_angle_beta   72.82492271
_cell_angle_gamma   63.39859316
_symmetry_Int_Tables_number   1
_chemical_formula_structural   Rb2U(SeF)2
_chemical_formula_sum   'Rb4 U2 Se4 F4'
_cell_volume   423.06723173
_cell_formula_units_Z   2
loop_
 _symmetry_equiv_pos_site_id
 _symmetry_equiv_pos_as_xyz
  1  'x, y, z'
loop_
 _atom_site_type_symbol
 _atom_site_label
 _atom_site_symmetry_multiplicity
 _atom_site_fract_x
 _atom_site_fract_y
 _atom_site_fract_z
 _atom_site_occupancy
  Rb  Rb0  1  0.679356  0.676431  0.662147  1
  Rb  Rb1  1  0.323569  0.320644  0.837853  1
  Rb  Rb2  1  0.320644  0.323569  0.337853  1
  Rb  Rb3  1  0.676431  0.679356  0.162147  1
  U  U4  1  0.000215  0.999785  0.750000  1
  U  U5  1  0.999785  0.000215  0.250000  1
  Se  Se6  1  0.235034  0.765046  0.000058  1
  Se  Se7  1  0.234954  0.764966  0.499942  1
  Se  Se8  1  0.764966  0.234954  0.999942  1
  Se  Se9  1  0.765046  0.235034  0.500058  1
  F  F10  1  0.179403  0.179942  0.659474  1
  F  F11  1  0.820058  0.820597  0.840526  1
  F  F12  1  0.820597  0.820058  0.340526  1
  F  F13  1  0.179942  0.179403  0.159474  1
