# generated using pymatgen
data_Cd41Rh8
_symmetry_space_group_name_H-M   'P 1'
_cell_length_a   10.27750821
_cell_length_b   10.27750761
_cell_length_c   10.27750800
_cell_angle_alpha   94.78020881
_cell_angle_beta   94.78020853
_cell_angle_gamma   94.78020531
_symmetry_Int_Tables_number   1
_chemical_formula_structural   Cd41Rh8
_chemical_formula_sum   'Cd41 Rh8'
_cell_volume   1073.58123856
_cell_formula_units_Z   1
loop_
 _symmetry_equiv_pos_site_id
 _symmetry_equiv_pos_as_xyz
  1  'x, y, z'
loop_
 _atom_site_type_symbol
 _atom_site_label
 _atom_site_symmetry_multiplicity
 _atom_site_fract_x
 _atom_site_fract_y
 _atom_site_fract_z
 _atom_site_occupancy
  Cd  Cd0  1  0.000000  0.000000  0.000000  1
  Cd  Cd1  1  0.500000  0.500000  0.500000  1
  Cd  Cd2  1  0.000000  0.500000  0.500000  1
  Cd  Cd3  1  0.500000  0.000000  0.500000  1
  Cd  Cd4  1  0.500000  0.500000  0.000000  1
  Cd  Cd5  1  0.777814  0.450470  0.073396  1
  Cd  Cd6  1  0.073396  0.777814  0.450470  1
  Cd  Cd7  1  0.450470  0.073396  0.777814  1
  Cd  Cd8  1  0.222186  0.549530  0.926604  1
  Cd  Cd9  1  0.926604  0.222186  0.549530  1
  Cd  Cd10  1  0.549530  0.926604  0.222186  1
  Cd  Cd11  1  0.731046  0.049523  0.870472  1
  Cd  Cd12  1  0.870472  0.731046  0.049523  1
  Cd  Cd13  1  0.049523  0.870472  0.731046  1
  Cd  Cd14  1  0.268954  0.950477  0.129528  1
  Cd  Cd15  1  0.129528  0.268954  0.950477  1
  Cd  Cd16  1  0.950477  0.129528  0.268954  1
  Cd  Cd17  1  0.682597  0.177964  0.126846  1
  Cd  Cd18  1  0.126846  0.682597  0.177964  1
  Cd  Cd19  1  0.177964  0.126846  0.682597  1
  Cd  Cd20  1  0.317403  0.822036  0.873154  1
  Cd  Cd21  1  0.873154  0.317403  0.822036  1
  Cd  Cd22  1  0.822036  0.873154  0.317403  1
  Cd  Cd23  1  0.388983  0.363378  0.739452  1
  Cd  Cd24  1  0.739452  0.388983  0.363378  1
  Cd  Cd25  1  0.363378  0.739452  0.388983  1
  Cd  Cd26  1  0.611017  0.636622  0.260548  1
  Cd  Cd27  1  0.260548  0.611017  0.636622  1
  Cd  Cd28  1  0.636622  0.260548  0.611017  1
  Cd  Cd29  1  0.965837  0.596282  0.784264  1
  Cd  Cd30  1  0.784264  0.965837  0.596282  1
  Cd  Cd31  1  0.596282  0.784264  0.965837  1
  Cd  Cd32  1  0.034163  0.403718  0.215736  1
  Cd  Cd33  1  0.215736  0.034163  0.403718  1
  Cd  Cd34  1  0.403718  0.215736  0.034163  1
  Cd  Cd35  1  0.670421  0.537406  0.776698  1
  Cd  Cd36  1  0.776698  0.670421  0.537406  1
  Cd  Cd37  1  0.537406  0.776698  0.670421  1
  Cd  Cd38  1  0.329579  0.462594  0.223302  1
  Cd  Cd39  1  0.223302  0.329579  0.462594  1
  Cd  Cd40  1  0.462594  0.223302  0.329579  1
  Rh  Rh41  1  0.617081  0.286639  0.888563  1
  Rh  Rh42  1  0.888563  0.617081  0.286639  1
  Rh  Rh43  1  0.286639  0.888563  0.617081  1
  Rh  Rh44  1  0.382919  0.713361  0.111437  1
  Rh  Rh45  1  0.111437  0.382919  0.713361  1
  Rh  Rh46  1  0.713361  0.111437  0.382919  1
  Rh  Rh47  1  0.804614  0.804614  0.804614  1
  Rh  Rh48  1  0.195386  0.195386  0.195386  1
