# generated using pymatgen
data_Tb2Al20FeRuRh2
_symmetry_space_group_name_H-M   'P 1'
_cell_length_a   6.83207888
_cell_length_b   6.84754063
_cell_length_c   9.14024782
_cell_angle_alpha   89.91544137
_cell_angle_beta   90.10739292
_cell_angle_gamma   97.17743758
_symmetry_Int_Tables_number   1
_chemical_formula_structural   Tb2Al20FeRuRh2
_chemical_formula_sum   'Tb2 Al20 Fe1 Ru1 Rh2'
_cell_volume   424.25582444
_cell_formula_units_Z   1
loop_
 _symmetry_equiv_pos_site_id
 _symmetry_equiv_pos_as_xyz
  1  'x, y, z'
loop_
 _atom_site_type_symbol
 _atom_site_label
 _atom_site_symmetry_multiplicity
 _atom_site_fract_x
 _atom_site_fract_y
 _atom_site_fract_z
 _atom_site_occupancy
  Tb  Tb0  1  0.869204  0.124954  0.751265  1
  Tb  Tb1  1  0.130796  0.875046  0.248735  1
  Al  Al2  1  0.620570  0.375202  0.550067  1
  Al  Al3  1  0.379430  0.624798  0.449933  1
  Al  Al4  1  0.380791  0.628705  0.048704  1
  Al  Al5  1  0.619209  0.371295  0.951296  1
  Al  Al6  1  0.225157  0.222756  0.499743  1
  Al  Al7  1  0.774843  0.777244  0.500257  1
  Al  Al8  1  0.770788  0.779815  0.997922  1
  Al  Al9  1  0.229212  0.220185  0.002078  1
  Al  Al10  1  0.839616  0.152846  0.100139  1
  Al  Al11  1  0.160384  0.847154  0.899861  1
  Al  Al12  1  0.156112  0.845378  0.601811  1
  Al  Al13  1  0.843888  0.154622  0.398189  1
  Al  Al14  1  0.856745  0.589622  0.750710  1
  Al  Al15  1  0.143255  0.410378  0.249290  1
  Al  Al16  1  0.413096  0.139109  0.753551  1
  Al  Al17  1  0.586904  0.860891  0.246449  1
  Al  Al18  1  0.224579  0.480049  0.750500  1
  Al  Al19  1  0.775421  0.519951  0.249500  1
  Al  Al20  1  0.518169  0.779652  0.752695  1
  Al  Al21  1  0.481831  0.220348  0.247305  1
  Fe  Fe22  1  0.500000  0.000000  0.000000  1
  Ru  Ru23  1  0.500000  0.000000  0.500000  1
  Rh  Rh24  1  0.000000  0.500000  0.500000  1
  Rh  Rh25  1  0.000000  0.500000  0.000000  1
