# generated using pymatgen
data_La3Nd5(CdIr)2
_symmetry_space_group_name_H-M   'P 1'
_cell_length_a   10.01206333
_cell_length_b   10.05077164
_cell_length_c   10.05077225
_cell_angle_alpha   59.74535982
_cell_angle_beta   60.12731328
_cell_angle_gamma   60.12731798
_symmetry_Int_Tables_number   1
_chemical_formula_structural   La3Nd5(CdIr)2
_chemical_formula_sum   'La6 Nd10 Cd4 Ir4'
_cell_volume   715.14575422
_cell_formula_units_Z   2
loop_
 _symmetry_equiv_pos_site_id
 _symmetry_equiv_pos_as_xyz
  1  'x, y, z'
loop_
 _atom_site_type_symbol
 _atom_site_label
 _atom_site_symmetry_multiplicity
 _atom_site_fract_x
 _atom_site_fract_y
 _atom_site_fract_z
 _atom_site_occupancy
  La  La0  1  0.346744  0.348575  0.348575  1
  La  La1  1  0.348575  0.346744  0.956106  1
  La  La2  1  0.348575  0.956106  0.346744  1
  La  La3  1  0.956106  0.348575  0.348575  1
  La  La4  1  0.811437  0.188563  0.188563  1
  La  La5  1  0.188563  0.811437  0.811437  1
  Nd  Nd6  1  0.190706  0.809294  0.190706  1
  Nd  Nd7  1  0.809294  0.190706  0.809294  1
  Nd  Nd8  1  0.190706  0.190706  0.809294  1
  Nd  Nd9  1  0.809294  0.809294  0.190706  1
  Nd  Nd10  1  0.937138  0.562862  0.562862  1
  Nd  Nd11  1  0.562862  0.937138  0.937138  1
  Nd  Nd12  1  0.562625  0.937375  0.562625  1
  Nd  Nd13  1  0.937375  0.562625  0.937375  1
  Nd  Nd14  1  0.562625  0.562625  0.937375  1
  Nd  Nd15  1  0.937375  0.937375  0.562625  1
  Cd  Cd16  1  0.581053  0.579646  0.579646  1
  Cd  Cd17  1  0.579646  0.581053  0.259654  1
  Cd  Cd18  1  0.579646  0.259654  0.581053  1
  Cd  Cd19  1  0.259654  0.579646  0.579646  1
  Ir  Ir20  1  0.138891  0.142676  0.142676  1
  Ir  Ir21  1  0.142676  0.138891  0.575756  1
  Ir  Ir22  1  0.142676  0.575756  0.138891  1
  Ir  Ir23  1  0.575756  0.142676  0.142676  1
