# generated using pymatgen
data_Li(BBr)6
_symmetry_space_group_name_H-M   'P 1'
_cell_length_a   10.06087711
_cell_length_b   10.06087626
_cell_length_c   17.03895900
_cell_angle_alpha   107.17142209
_cell_angle_beta   72.82857941
_cell_angle_gamma   119.99999470
_symmetry_Int_Tables_number   1
_chemical_formula_structural   Li(BBr)6
_chemical_formula_sum   'Li4 B24 Br24'
_cell_volume   1404.16629259
_cell_formula_units_Z   4
loop_
 _symmetry_equiv_pos_site_id
 _symmetry_equiv_pos_as_xyz
  1  'x, y, z'
loop_
 _atom_site_type_symbol
 _atom_site_label
 _atom_site_symmetry_multiplicity
 _atom_site_fract_x
 _atom_site_fract_y
 _atom_site_fract_z
 _atom_site_occupancy
  Li  Li0  1  0.655073  0.344927  0.034779  1
  Li  Li1  1  0.174820  0.825179  0.475536  1
  Li  Li2  1  0.825178  0.174821  0.524464  1
  Li  Li3  1  0.344927  0.655073  0.965221  1
  B  B4  1  0.051409  0.193677  0.019782  1
  B  B5  1  0.806324  0.877514  0.019782  1
  B  B6  1  0.122486  0.948592  0.019782  1
  B  B7  1  0.890868  0.064052  0.085052  1
  B  B8  1  0.088133  0.109132  0.085052  1
  B  B9  1  0.935947  0.911866  0.085052  1
  B  B10  1  0.451224  0.354083  0.414798  1
  B  B11  1  0.645917  0.511938  0.414798  1
  B  B12  1  0.488062  0.548776  0.414798  1
  B  B13  1  0.571110  0.369756  0.480303  1
  B  B14  1  0.318343  0.428890  0.480303  1
  B  B15  1  0.630244  0.681657  0.480303  1
  B  B16  1  0.369756  0.318343  0.519697  1
  B  B17  1  0.681657  0.571110  0.519697  1
  B  B18  1  0.428889  0.630244  0.519697  1
  B  B19  1  0.511938  0.451224  0.585202  1
  B  B20  1  0.354083  0.488062  0.585202  1
  B  B21  1  0.548776  0.645917  0.585202  1
  B  B22  1  0.064053  0.088134  0.914948  1
  B  B23  1  0.911867  0.890868  0.914948  1
  B  B24  1  0.109133  0.935947  0.914948  1
  B  B25  1  0.877514  0.051408  0.980218  1
  B  B26  1  0.193676  0.122486  0.980218  1
  B  B27  1  0.948591  0.806323  0.980218  1
  Br  Br28  1  0.105220  0.419414  0.045547  1
  Br  Br29  1  0.580586  0.731352  0.045547  1
  Br  Br30  1  0.268649  0.894780  0.045547  1
  Br  Br31  1  0.764508  0.136343  0.180739  1
  Br  Br32  1  0.191095  0.235491  0.180739  1
  Br  Br33  1  0.863657  0.808905  0.180739  1
  Br  Br34  1  0.393390  0.185336  0.319411  1
  Br  Br35  1  0.814664  0.527465  0.319411  1
  Br  Br36  1  0.472535  0.606610  0.319411  1
  Br  Br37  1  0.646879  0.209958  0.453019  1
  Br  Br38  1  0.110061  0.353121  0.453019  1
  Br  Br39  1  0.790042  0.889940  0.453019  1
  Br  Br40  1  0.209958  0.110061  0.546982  1
  Br  Br41  1  0.889939  0.646879  0.546982  1
  Br  Br42  1  0.353121  0.790042  0.546982  1
  Br  Br43  1  0.527465  0.393390  0.680590  1
  Br  Br44  1  0.185336  0.472535  0.680590  1
  Br  Br45  1  0.606610  0.814664  0.680590  1
  Br  Br46  1  0.136343  0.191095  0.819261  1
  Br  Br47  1  0.808905  0.764509  0.819261  1
  Br  Br48  1  0.235492  0.863657  0.819261  1
  Br  Br49  1  0.731351  0.105220  0.954453  1
  Br  Br50  1  0.419414  0.268648  0.954453  1
  Br  Br51  1  0.894780  0.580586  0.954453  1
