# generated using pymatgen
data_Pr9Ga(Co2Ag)2
_symmetry_space_group_name_H-M   'P 1'
_cell_length_a   8.90804596
_cell_length_b   8.90804686
_cell_length_c   8.90804600
_cell_angle_alpha   128.71233958
_cell_angle_beta   128.71235245
_cell_angle_gamma   75.47386256
_symmetry_Int_Tables_number   1
_chemical_formula_structural   Pr9Ga(Co2Ag)2
_chemical_formula_sum   'Pr9 Ga1 Co4 Ag2'
_cell_volume   418.80834331
_cell_formula_units_Z   1
loop_
 _symmetry_equiv_pos_site_id
 _symmetry_equiv_pos_as_xyz
  1  'x, y, z'
loop_
 _atom_site_type_symbol
 _atom_site_label
 _atom_site_symmetry_multiplicity
 _atom_site_fract_x
 _atom_site_fract_y
 _atom_site_fract_z
 _atom_site_occupancy
  Pr  Pr0  1  0.722107  0.560485  0.537373  1
  Pr  Pr1  1  0.439515  0.976887  0.161622  1
  Pr  Pr2  1  0.815265  0.277893  0.838378  1
  Pr  Pr3  1  0.560485  0.023113  0.838378  1
  Pr  Pr4  1  0.023113  0.184735  0.462627  1
  Pr  Pr5  1  0.277893  0.439515  0.462627  1
  Pr  Pr6  1  0.184735  0.722107  0.161622  1
  Pr  Pr7  1  0.976887  0.815265  0.537373  1
  Pr  Pr8  1  0.500000  0.500000  0.000000  1
  Ga  Ga9  1  0.000000  0.000000  0.000000  1
  Co  Co10  1  0.130425  0.630406  0.760830  1
  Co  Co11  1  0.869575  0.369594  0.239170  1
  Co  Co12  1  0.630406  0.869575  0.499980  1
  Co  Co13  1  0.369594  0.130425  0.500020  1
  Ag  Ag14  1  0.261329  0.261329  0.000000  1
  Ag  Ag15  1  0.738671  0.738671  0.000000  1
