# generated using pymatgen
data_Yb6AlGa6Sb2RhO24
_symmetry_space_group_name_H-M   'P 1'
_cell_length_a   10.60557268
_cell_length_b   10.60557209
_cell_length_c   10.60557300
_cell_angle_alpha   109.60981923
_cell_angle_beta   109.60981810
_cell_angle_gamma   109.60981542
_symmetry_Int_Tables_number   1
_chemical_formula_structural   Yb6AlGa6Sb2RhO24
_chemical_formula_sum   'Yb12 Al2 Ga12 Sb4 Rh2 O48'
_cell_volume   913.54879053
_cell_formula_units_Z   2
loop_
 _symmetry_equiv_pos_site_id
 _symmetry_equiv_pos_as_xyz
  1  'x, y, z'
loop_
 _atom_site_type_symbol
 _atom_site_label
 _atom_site_symmetry_multiplicity
 _atom_site_fract_x
 _atom_site_fract_y
 _atom_site_fract_z
 _atom_site_occupancy
  Yb  Yb0  1  0.242025  0.374527  0.122142  1
  Yb  Yb1  1  0.363070  0.741673  0.122461  1
  Yb  Yb2  1  0.370852  0.126774  0.248982  1
  Yb  Yb3  1  0.881094  0.631154  0.249915  1
  Yb  Yb4  1  0.121367  0.240352  0.374861  1
  Yb  Yb5  1  0.757151  0.120290  0.380526  1
  Yb  Yb6  1  0.242849  0.879708  0.619474  1
  Yb  Yb7  1  0.878633  0.759648  0.625139  1
  Yb  Yb8  1  0.118904  0.368846  0.750085  1
  Yb  Yb9  1  0.629148  0.873226  0.751018  1
  Yb  Yb10  1  0.636930  0.258327  0.877537  1
  Yb  Yb11  1  0.757975  0.625473  0.877858  1
  Al  Al12  1  0.000000  0.499999  0.000000  1
  Al  Al13  1  0.000000  0.000000  0.499999  1
  Ga  Ga14  1  0.758471  0.881083  0.132045  1
  Ga  Ga15  1  0.879755  0.258293  0.123126  1
  Ga  Ga16  1  0.624269  0.377063  0.250893  1
  Ga  Ga17  1  0.118064  0.869083  0.249611  1
  Ga  Ga18  1  0.633264  0.753354  0.376134  1
  Ga  Ga19  1  0.247852  0.624353  0.368303  1
  Ga  Ga20  1  0.752148  0.375647  0.631697  1
  Ga  Ga21  1  0.366736  0.246646  0.623866  1
  Ga  Ga22  1  0.881936  0.130917  0.750390  1
  Ga  Ga23  1  0.375731  0.622937  0.749107  1
  Ga  Ga24  1  0.241530  0.118917  0.867955  1
  Ga  Ga25  1  0.120245  0.741708  0.876874  1
  Sb  Sb26  1  0.499999  0.000000  0.000000  1
  Sb  Sb27  1  0.500000  0.500000  0.000000  1
  Sb  Sb28  1  0.500000  0.000000  0.500000  1
  Sb  Sb29  1  0.000000  0.500000  0.500000  1
  Rh  Rh30  1  0.000000  0.000000  0.000000  1
  Rh  Rh31  1  0.499999  0.499999  0.499999  1
  O  O32  1  0.320647  0.906508  0.026387  1
  O  O33  1  0.205268  0.120245  0.026822  1
  O  O34  1  0.704930  0.678692  0.082678  1
  O  O35  1  0.886329  0.412516  0.084947  1
  O  O36  1  0.975065  0.674272  0.088637  1
  O  O37  1  0.621516  0.416203  0.093872  1
  O  O38  1  0.593089  0.913369  0.118590  1
  O  O39  1  0.028352  0.205025  0.120704  1
  O  O40  1  0.473564  0.593835  0.178354  1
  O  O41  1  0.200306  0.583259  0.174772  1
  O  O42  1  0.116300  0.023878  0.202134  1
  O  O43  1  0.585987  0.179927  0.207030  1
  O  O44  1  0.470055  0.379170  0.292045  1
  O  O45  1  0.320359  0.917821  0.295590  1
  O  O46  1  0.911364  0.026237  0.327319  1
  O  O47  1  0.915268  0.294356  0.319593  1
  O  O48  1  0.296187  0.474519  0.385384  1
  O  O49  1  0.580901  0.903622  0.377202  1
  O  O50  1  0.822861  0.528808  0.407337  1
  O  O51  1  0.084840  0.886372  0.410082  1
  O  O52  1  0.826217  0.799397  0.415259  1
  O  O53  1  0.095423  0.621178  0.417704  1
  O  O54  1  0.594274  0.178108  0.472531  1
  O  O55  1  0.382378  0.293138  0.472921  1
  O  O56  1  0.617622  0.706862  0.527079  1
  O  O57  1  0.405724  0.821891  0.527468  1
  O  O58  1  0.904577  0.378821  0.582296  1
  O  O59  1  0.173783  0.200603  0.584741  1
  O  O60  1  0.915160  0.113628  0.589918  1
  O  O61  1  0.177138  0.471191  0.592661  1
  O  O62  1  0.419099  0.096378  0.622797  1
  O  O63  1  0.703813  0.525481  0.614616  1
  O  O64  1  0.084731  0.705644  0.680407  1
  O  O65  1  0.088636  0.973763  0.672681  1
  O  O66  1  0.679641  0.082178  0.704410  1
  O  O67  1  0.529945  0.620830  0.707955  1
  O  O68  1  0.414013  0.820073  0.792970  1
  O  O69  1  0.883699  0.976121  0.797864  1
  O  O70  1  0.799694  0.416741  0.825228  1
  O  O71  1  0.526435  0.406163  0.821645  1
  O  O72  1  0.971647  0.794973  0.879295  1
  O  O73  1  0.406911  0.086631  0.881410  1
  O  O74  1  0.378483  0.583797  0.906128  1
  O  O75  1  0.024935  0.325728  0.911363  1
  O  O76  1  0.113671  0.587484  0.915053  1
  O  O77  1  0.295070  0.321308  0.917321  1
  O  O78  1  0.679353  0.093492  0.973613  1
  O  O79  1  0.794730  0.879754  0.973177  1
