# generated using pymatgen
data_HoTh(Al4Fe)2
_symmetry_space_group_name_H-M   'P 1'
_cell_length_a   7.58577500
_cell_length_b   4.06475500
_cell_length_c   6.79923700
_cell_angle_alpha   90.00000000
_cell_angle_beta   90.00000000
_cell_angle_gamma   90.00000000
_symmetry_Int_Tables_number   1
_chemical_formula_structural   HoTh(Al4Fe)2
_chemical_formula_sum   'Ho1 Th1 Al8 Fe2'
_cell_volume   209.64982807
_cell_formula_units_Z   1
loop_
 _symmetry_equiv_pos_site_id
 _symmetry_equiv_pos_as_xyz
  1  'x, y, z'
loop_
 _atom_site_type_symbol
 _atom_site_label
 _atom_site_symmetry_multiplicity
 _atom_site_fract_x
 _atom_site_fract_y
 _atom_site_fract_z
 _atom_site_occupancy
  Ho  Ho0  1  0.750000  0.000000  0.616148  1
  Th  Th1  1  0.250000  0.000000  0.387452  1
  Al  Al2  1  0.999240  0.000000  0.998185  1
  Al  Al3  1  0.500760  0.000000  0.998185  1
  Al  Al4  1  0.250000  0.499999  0.036354  1
  Al  Al5  1  0.571878  0.499999  0.305479  1
  Al  Al6  1  0.928122  0.499999  0.305479  1
  Al  Al7  1  0.065971  0.499999  0.698233  1
  Al  Al8  1  0.434028  0.499999  0.698233  1
  Al  Al9  1  0.750000  0.499999  0.958695  1
  Fe  Fe10  1  0.750000  0.000000  0.197024  1
  Fe  Fe11  1  0.250000  0.000000  0.800539  1
