# generated using pymatgen
data_Ba7ThAs6
_symmetry_space_group_name_H-M   'P 1'
_cell_length_a   8.62824508
_cell_length_b   8.62824480
_cell_length_c   8.49249700
_cell_angle_alpha   109.15283212
_cell_angle_beta   109.15283148
_cell_angle_gamma   109.78771858
_symmetry_Int_Tables_number   1
_chemical_formula_structural   Ba7ThAs6
_chemical_formula_sum   'Ba7 Th1 As6'
_cell_volume   488.59598942
_cell_formula_units_Z   1
loop_
 _symmetry_equiv_pos_site_id
 _symmetry_equiv_pos_as_xyz
  1  'x, y, z'
loop_
 _atom_site_type_symbol
 _atom_site_label
 _atom_site_symmetry_multiplicity
 _atom_site_fract_x
 _atom_site_fract_y
 _atom_site_fract_z
 _atom_site_occupancy
  Ba  Ba0  1  0.134188  0.501814  0.004254  1
  Ba  Ba1  1  0.367625  0.365812  0.370066  1
  Ba  Ba2  1  0.998186  0.132375  0.502440  1
  Ba  Ba3  1  0.880879  0.869720  0.872922  1
  Ba  Ba4  1  0.988842  0.619121  0.492043  1
  Ba  Ba5  1  0.500000  0.000000  0.131404  1
  Ba  Ba6  1  0.630280  0.511158  0.003202  1
  Th  Th7  1  0.500000  0.000000  0.634926  1
  As  As8  1  0.849489  0.233057  0.086527  1
  As  As9  1  0.153319  0.882416  0.282481  1
  As  As10  1  0.383568  0.650511  0.737038  1
  As  As11  1  0.266943  0.116432  0.853470  1
  As  As12  1  0.729097  0.346681  0.629163  1
  As  As13  1  0.617584  0.770903  0.400064  1
