# generated using pymatgen
data_TbNd3Ga4NiRh3
_symmetry_space_group_name_H-M   'P 1'
_cell_length_a   4.34959400
_cell_length_b   7.01339286
_cell_length_c   7.83776518
_cell_angle_alpha   90.40413367
_cell_angle_beta   90.00000000
_cell_angle_gamma   90.00000000
_symmetry_Int_Tables_number   1
_chemical_formula_structural   TbNd3Ga4NiRh3
_chemical_formula_sum   'Tb1 Nd3 Ga4 Ni1 Rh3'
_cell_volume   239.08830419
_cell_formula_units_Z   1
loop_
 _symmetry_equiv_pos_site_id
 _symmetry_equiv_pos_as_xyz
  1  'x, y, z'
loop_
 _atom_site_type_symbol
 _atom_site_label
 _atom_site_symmetry_multiplicity
 _atom_site_fract_x
 _atom_site_fract_y
 _atom_site_fract_z
 _atom_site_occupancy
  Tb  Tb0  1  0.750000  0.472484  0.308556  1
  Nd  Nd1  1  0.250000  0.028247  0.813610  1
  Nd  Nd2  1  0.250000  0.527972  0.688082  1
  Nd  Nd3  1  0.750000  0.970513  0.190467  1
  Ga  Ga4  1  0.250000  0.156241  0.428228  1
  Ga  Ga5  1  0.250000  0.655614  0.065074  1
  Ga  Ga6  1  0.750000  0.841790  0.574663  1
  Ga  Ga7  1  0.750000  0.350820  0.931720  1
  Ni  Ni8  1  0.750000  0.719269  0.891932  1
  Rh  Rh9  1  0.250000  0.769708  0.391351  1
  Rh  Rh10  1  0.250000  0.279176  0.110423  1
  Rh  Rh11  1  0.750000  0.228165  0.605890  1
