# generated using pymatgen
data_Tm2Si5Ir2Pt
_symmetry_space_group_name_H-M   'P 1'
_cell_length_a   8.08322267
_cell_length_b   8.07156730
_cell_length_c   8.07156700
_cell_angle_alpha   137.87755903
_cell_angle_beta   104.67619984
_cell_angle_gamma   90.26117057
_symmetry_Int_Tables_number   1
_chemical_formula_structural   Tm2Si5Ir2Pt
_chemical_formula_sum   'Tm4 Si10 Ir4 Pt2'
_cell_volume   326.31044158
_cell_formula_units_Z   2
loop_
 _symmetry_equiv_pos_site_id
 _symmetry_equiv_pos_as_xyz
  1  'x, y, z'
loop_
 _atom_site_type_symbol
 _atom_site_label
 _atom_site_symmetry_multiplicity
 _atom_site_fract_x
 _atom_site_fract_y
 _atom_site_fract_z
 _atom_site_occupancy
  Tm  Tm0  1  0.860109  0.629669  0.230441  1
  Tm  Tm1  1  0.139891  0.370331  0.769559  1
  Tm  Tm2  1  0.397639  0.129959  0.267681  1
  Tm  Tm3  1  0.602361  0.870041  0.732319  1
  Si  Si4  1  0.500000  0.756333  0.256333  1
  Si  Si5  1  0.500000  0.243667  0.743667  1
  Si  Si6  1  0.223453  0.974325  0.747431  1
  Si  Si7  1  0.776547  0.523978  0.750873  1
  Si  Si8  1  0.776547  0.025675  0.252569  1
  Si  Si9  1  0.223453  0.476022  0.249127  1
  Si  Si10  1  0.049691  0.893153  0.156538  1
  Si  Si11  1  0.950309  0.106847  0.843462  1
  Si  Si12  1  0.739798  0.392887  0.346911  1
  Si  Si13  1  0.260202  0.607113  0.653089  1
  Ir  Ir14  1  0.000000  0.751772  0.751772  1
  Ir  Ir15  1  0.000000  0.248228  0.248228  1
  Ir  Ir16  1  0.247153  0.860658  0.386497  1
  Ir  Ir17  1  0.752847  0.139342  0.613503  1
  Pt  Pt18  1  0.475120  0.360816  0.114304  1
  Pt  Pt19  1  0.524880  0.639184  0.885696  1
