# generated using pymatgen
data_Nd2SmMg3Ag2Ru
_symmetry_space_group_name_H-M   'P 1'
_cell_length_a   7.90249698
_cell_length_b   7.88823133
_cell_length_c   4.02884200
_cell_angle_alpha   90.00000000
_cell_angle_beta   90.00000000
_cell_angle_gamma   119.97873094
_symmetry_Int_Tables_number   1
_chemical_formula_structural   Nd2SmMg3Ag2Ru
_chemical_formula_sum   'Nd2 Sm1 Mg3 Ag2 Ru1'
_cell_volume   217.54438735
_cell_formula_units_Z   1
loop_
 _symmetry_equiv_pos_site_id
 _symmetry_equiv_pos_as_xyz
  1  'x, y, z'
loop_
 _atom_site_type_symbol
 _atom_site_label
 _atom_site_symmetry_multiplicity
 _atom_site_fract_x
 _atom_site_fract_y
 _atom_site_fract_z
 _atom_site_occupancy
  Nd  Nd0  1  0.032645  0.431073  0.500000  1
  Nd  Nd1  1  0.569065  0.601602  0.500000  1
  Sm  Sm2  1  0.397278  0.966485  0.500000  1
  Mg  Mg3  1  0.999306  0.747448  0.000000  1
  Mg  Mg4  1  0.253353  0.250846  0.000000  1
  Mg  Mg5  1  0.747464  0.001561  0.000000  1
  Ag  Ag6  1  0.665934  0.332066  0.000000  1
  Ag  Ag7  1  0.000940  0.999979  0.500000  1
  Ru  Ru8  1  0.334014  0.668940  0.000000  1
