# generated using pymatgen
data_NdYFe2(WO6)2
_symmetry_space_group_name_H-M   'P 1'
_cell_length_a   5.31882335
_cell_length_b   7.50428294
_cell_length_c   11.12586800
_cell_angle_alpha   90.00000000
_cell_angle_beta   90.00000000
_cell_angle_gamma   90.08210568
_symmetry_Int_Tables_number   1
_chemical_formula_structural   NdYFe2(WO6)2
_chemical_formula_sum   'Nd2 Y2 Fe4 W4 O24'
_cell_volume   444.07694282
_cell_formula_units_Z   2
loop_
 _symmetry_equiv_pos_site_id
 _symmetry_equiv_pos_as_xyz
  1  'x, y, z'
loop_
 _atom_site_type_symbol
 _atom_site_label
 _atom_site_symmetry_multiplicity
 _atom_site_fract_x
 _atom_site_fract_y
 _atom_site_fract_z
 _atom_site_occupancy
  Nd  Nd0  1  0.541485  0.251390  0.044122  1
  Nd  Nd1  1  0.041484  0.751390  0.455879  1
  Y  Y2  1  0.951221  0.251151  0.545871  1
  Y  Y3  1  0.451220  0.751151  0.954129  1
  Fe  Fe4  1  0.041908  0.994764  0.138680  1
  Fe  Fe5  1  0.541908  0.494764  0.361320  1
  Fe  Fe6  1  0.455500  0.998046  0.640559  1
  Fe  Fe7  1  0.955501  0.498046  0.859441  1
  W  W8  1  0.050556  0.508895  0.141318  1
  W  W9  1  0.550556  0.008894  0.358681  1
  W  W10  1  0.447782  0.504406  0.643596  1
  W  W11  1  0.947783  0.004405  0.856404  1
  O  O12  1  0.759959  0.957513  0.019146  1
  O  O13  1  0.765510  0.548558  0.028189  1
  O  O14  1  0.175643  0.749346  0.118590  1
  O  O15  1  0.949056  0.259965  0.140748  1
  O  O16  1  0.368430  0.440462  0.209606  1
  O  O17  1  0.382820  0.065128  0.215888  1
  O  O18  1  0.882821  0.565128  0.284112  1
  O  O19  1  0.868431  0.940462  0.290394  1
  O  O20  1  0.449056  0.759966  0.359252  1
  O  O21  1  0.675644  0.249346  0.381411  1
  O  O22  1  0.265509  0.048558  0.471811  1
  O  O23  1  0.259960  0.457513  0.480854  1
  O  O24  1  0.738236  0.968468  0.521724  1
  O  O25  1  0.732673  0.538343  0.529805  1
  O  O26  1  0.338263  0.746967  0.620049  1
  O  O27  1  0.564216  0.258235  0.646510  1
  O  O28  1  0.126841  0.434623  0.706641  1
  O  O29  1  0.109900  0.063943  0.711412  1
  O  O30  1  0.609901  0.563943  0.788588  1
  O  O31  1  0.626842  0.934623  0.793359  1
  O  O32  1  0.064215  0.758236  0.853490  1
  O  O33  1  0.838262  0.246967  0.879952  1
  O  O34  1  0.232674  0.038343  0.970195  1
  O  O35  1  0.238236  0.468468  0.978276  1
