# generated using pymatgen
data_Tb16Cd4Pd3Ru
_symmetry_space_group_name_H-M   'P 1'
_cell_length_a   9.74875409
_cell_length_b   9.74875445
_cell_length_c   9.74875429
_cell_angle_alpha   59.50030004
_cell_angle_beta   59.50030587
_cell_angle_gamma   59.50029805
_symmetry_Int_Tables_number   1
_chemical_formula_structural   Tb16Cd4Pd3Ru
_chemical_formula_sum   'Tb16 Cd4 Pd3 Ru1'
_cell_volume   647.69208342
_cell_formula_units_Z   1
loop_
 _symmetry_equiv_pos_site_id
 _symmetry_equiv_pos_as_xyz
  1  'x, y, z'
loop_
 _atom_site_type_symbol
 _atom_site_label
 _atom_site_symmetry_multiplicity
 _atom_site_fract_x
 _atom_site_fract_y
 _atom_site_fract_z
 _atom_site_occupancy
  Tb  Tb0  1  0.352714  0.352714  0.352714  1
  Tb  Tb1  1  0.349416  0.349416  0.947196  1
  Tb  Tb2  1  0.349416  0.947196  0.349416  1
  Tb  Tb3  1  0.947196  0.349416  0.349416  1
  Tb  Tb4  1  0.816010  0.188925  0.188925  1
  Tb  Tb5  1  0.188544  0.809837  0.809837  1
  Tb  Tb6  1  0.188925  0.816010  0.188925  1
  Tb  Tb7  1  0.809837  0.188544  0.809837  1
  Tb  Tb8  1  0.188925  0.188925  0.816010  1
  Tb  Tb9  1  0.809837  0.809837  0.188544  1
  Tb  Tb10  1  0.934291  0.566360  0.566360  1
  Tb  Tb11  1  0.561115  0.935701  0.935701  1
  Tb  Tb12  1  0.566360  0.934291  0.566360  1
  Tb  Tb13  1  0.935701  0.561115  0.935701  1
  Tb  Tb14  1  0.566360  0.566360  0.934291  1
  Tb  Tb15  1  0.935701  0.935701  0.561115  1
  Cd  Cd16  1  0.580429  0.580429  0.580429  1
  Cd  Cd17  1  0.581167  0.581167  0.254381  1
  Cd  Cd18  1  0.581167  0.254381  0.581167  1
  Cd  Cd19  1  0.254381  0.581167  0.581167  1
  Pd  Pd20  1  0.144388  0.144388  0.570146  1
  Pd  Pd21  1  0.144388  0.570146  0.144388  1
  Pd  Pd22  1  0.570146  0.144388  0.144388  1
  Ru  Ru23  1  0.143589  0.143589  0.143589  1
