# generated using pymatgen
data_Tb2Yb(MgIr)3
_symmetry_space_group_name_H-M   'P 1'
_cell_length_a   7.12904400
_cell_length_b   7.23273753
_cell_length_c   4.16916600
_cell_angle_alpha   90.00000000
_cell_angle_beta   90.00000000
_cell_angle_gamma   119.52685942
_symmetry_Int_Tables_number   1
_chemical_formula_structural   Tb2Yb(MgIr)3
_chemical_formula_sum   'Tb2 Yb1 Mg3 Ir3'
_cell_volume   187.05301564
_cell_formula_units_Z   1
loop_
 _symmetry_equiv_pos_site_id
 _symmetry_equiv_pos_as_xyz
  1  'x, y, z'
loop_
 _atom_site_type_symbol
 _atom_site_label
 _atom_site_symmetry_multiplicity
 _atom_site_fract_x
 _atom_site_fract_y
 _atom_site_fract_z
 _atom_site_occupancy
  Tb  Tb0  1  0.001670  0.411518  0.500000  1
  Tb  Tb1  1  0.590152  0.588482  0.500000  1
  Yb  Yb2  1  0.413861  0.000000  0.500000  1
  Mg  Mg3  1  0.004488  0.761218  0.000000  1
  Mg  Mg4  1  0.243269  0.238782  0.000000  1
  Mg  Mg5  1  0.749012  0.000000  0.000000  1
  Ir  Ir6  1  0.330375  0.654472  0.000000  1
  Ir  Ir7  1  0.675905  0.345528  0.000000  1
  Ir  Ir8  1  0.991269  0.000000  0.500000  1
