# generated using pymatgen
data_NaAg2AsS4
_symmetry_space_group_name_H-M   'P 1'
_cell_length_a   6.67375211
_cell_length_b   6.67375183
_cell_length_c   6.67375212
_cell_angle_alpha   123.95785216
_cell_angle_beta   123.95784934
_cell_angle_gamma   83.27143820
_symmetry_Int_Tables_number   1
_chemical_formula_structural   NaAg2AsS4
_chemical_formula_sum   'Na1 Ag2 As1 S4'
_cell_volume   196.12510513
_cell_formula_units_Z   1
loop_
 _symmetry_equiv_pos_site_id
 _symmetry_equiv_pos_as_xyz
  1  'x, y, z'
loop_
 _atom_site_type_symbol
 _atom_site_label
 _atom_site_symmetry_multiplicity
 _atom_site_fract_x
 _atom_site_fract_y
 _atom_site_fract_z
 _atom_site_occupancy
  Na  Na0  1  0.500000  0.500000  0.000000  1
  Ag  Ag1  1  0.750000  0.250000  0.500000  1
  Ag  Ag2  1  0.250000  0.750000  0.500000  1
  As  As3  1  0.000000  0.000000  0.000000  1
  S  S4  1  0.080136  0.080136  0.411889  1
  S  S5  1  0.668246  0.668246  0.588111  1
  S  S6  1  0.331754  0.919864  0.000000  1
  S  S7  1  0.919864  0.331754  0.000000  1
