# generated using pymatgen
data_Er4Tm4CdHgPt2
_symmetry_space_group_name_H-M   'P 1'
_cell_length_a   9.55433675
_cell_length_b   9.55433522
_cell_length_c   9.55539500
_cell_angle_alpha   59.99632723
_cell_angle_beta   59.99633252
_cell_angle_gamma   60.07241946
_symmetry_Int_Tables_number   1
_chemical_formula_structural   Er4Tm4CdHgPt2
_chemical_formula_sum   'Er8 Tm8 Cd2 Hg2 Pt4'
_cell_volume   617.08881582
_cell_formula_units_Z   2
loop_
 _symmetry_equiv_pos_site_id
 _symmetry_equiv_pos_as_xyz
  1  'x, y, z'
loop_
 _atom_site_type_symbol
 _atom_site_label
 _atom_site_symmetry_multiplicity
 _atom_site_fract_x
 _atom_site_fract_y
 _atom_site_fract_z
 _atom_site_occupancy
  Er  Er0  1  0.189514  0.189514  0.810486  1
  Er  Er1  1  0.810547  0.810547  0.189453  1
  Er  Er2  1  0.934664  0.564122  0.564739  1
  Er  Er3  1  0.564122  0.934664  0.936475  1
  Er  Er4  1  0.564122  0.934664  0.564739  1
  Er  Er5  1  0.934664  0.564122  0.936475  1
  Er  Er6  1  0.564827  0.564827  0.935173  1
  Er  Er7  1  0.936318  0.936318  0.563682  1
  Tm  Tm8  1  0.353502  0.353502  0.350586  1
  Tm  Tm9  1  0.353502  0.353502  0.942409  1
  Tm  Tm10  1  0.356936  0.934880  0.354092  1
  Tm  Tm11  1  0.934880  0.356936  0.354092  1
  Tm  Tm12  1  0.811021  0.188873  0.189943  1
  Tm  Tm13  1  0.188873  0.811021  0.810163  1
  Tm  Tm14  1  0.188873  0.811021  0.189943  1
  Tm  Tm15  1  0.811021  0.188873  0.810163  1
  Cd  Cd16  1  0.580563  0.254024  0.582707  1
  Cd  Cd17  1  0.254024  0.580563  0.582707  1
  Hg  Hg18  1  0.584892  0.584892  0.587954  1
  Hg  Hg19  1  0.584892  0.584892  0.242264  1
  Pt  Pt20  1  0.143288  0.143288  0.146511  1
  Pt  Pt21  1  0.143288  0.143288  0.566913  1
  Pt  Pt22  1  0.141983  0.569680  0.144168  1
  Pt  Pt23  1  0.569680  0.141983  0.144168  1
