# generated using pymatgen
data_TbYEr2(CuPt)2
_symmetry_space_group_name_H-M   'P 1'
_cell_length_a   4.45194000
_cell_length_b   5.49785535
_cell_length_c   7.12586645
_cell_angle_alpha   90.02355450
_cell_angle_beta   90.00000000
_cell_angle_gamma   90.00000000
_symmetry_Int_Tables_number   1
_chemical_formula_structural   TbYEr2(CuPt)2
_chemical_formula_sum   'Tb1 Y1 Er2 Cu2 Pt2'
_cell_volume   174.41356278
_cell_formula_units_Z   1
loop_
 _symmetry_equiv_pos_site_id
 _symmetry_equiv_pos_as_xyz
  1  'x, y, z'
loop_
 _atom_site_type_symbol
 _atom_site_label
 _atom_site_symmetry_multiplicity
 _atom_site_fract_x
 _atom_site_fract_y
 _atom_site_fract_z
 _atom_site_occupancy
  Tb  Tb0  1  0.500000  0.606101  0.816297  1
  Y  Y1  1  0.000000  0.115891  0.683378  1
  Er  Er2  1  0.000000  0.884647  0.184904  1
  Er  Er3  1  0.500000  0.394358  0.315926  1
  Cu  Cu4  1  0.500000  0.892811  0.461677  1
  Cu  Cu5  1  0.500000  0.107076  0.966028  1
  Pt  Pt6  1  0.000000  0.615053  0.531726  1
  Pt  Pt7  1  0.000000  0.384063  0.040067  1
