# generated using pymatgen
data_Tb3Er(Tm2C7)2
_symmetry_space_group_name_H-M   'P 1'
_cell_length_a   13.72510953
_cell_length_b   3.67849935
_cell_length_c   6.44042614
_cell_angle_alpha   74.42019304
_cell_angle_beta   89.91855593
_cell_angle_gamma   89.98788610
_symmetry_Int_Tables_number   1
_chemical_formula_structural   Tb3Er(Tm2C7)2
_chemical_formula_sum   'Tb3 Er1 Tm4 C14'
_cell_volume   313.21529598
_cell_formula_units_Z   1
loop_
 _symmetry_equiv_pos_site_id
 _symmetry_equiv_pos_as_xyz
  1  'x, y, z'
loop_
 _atom_site_type_symbol
 _atom_site_label
 _atom_site_symmetry_multiplicity
 _atom_site_fract_x
 _atom_site_fract_y
 _atom_site_fract_z
 _atom_site_occupancy
  Tb  Tb0  1  0.057320  0.634421  0.737979  1
  Tb  Tb1  1  0.943560  0.367181  0.261905  1
  Tb  Tb2  1  0.556526  0.364646  0.761773  1
  Er  Er3  1  0.444376  0.632224  0.240367  1
  Tm  Tm4  1  0.340329  0.940422  0.662295  1
  Tm  Tm5  1  0.659906  0.059231  0.336114  1
  Tm  Tm6  1  0.840337  0.061948  0.837169  1
  Tm  Tm7  1  0.161421  0.940747  0.162163  1
  C  C8  1  0.895184  0.734218  0.556702  1
  C  C9  1  0.105152  0.269091  0.441989  1
  C  C10  1  0.395435  0.259835  0.950217  1
  C  C11  1  0.602331  0.729891  0.059507  1
  C  C12  1  0.216951  0.538168  0.932811  1
  C  C13  1  0.781878  0.466982  0.063670  1
  C  C14  1  0.716496  0.461881  0.564713  1
  C  C15  1  0.284535  0.536366  0.432571  1
  C  C16  1  0.803325  0.624546  0.542306  1
  C  C17  1  0.197385  0.375731  0.455897  1
  C  C18  1  0.303803  0.375714  0.958608  1
  C  C19  1  0.694661  0.626413  0.042148  1
  C  C20  1  0.499255  0.000458  0.499001  1
  C  C21  1  0.999834  0.999887  0.000094  1
