# generated using pymatgen
data_TbYLu2(WO6)2
_symmetry_space_group_name_H-M   'P 1'
_cell_length_a   5.37811700
_cell_length_b   7.66131184
_cell_length_c   11.34486511
_cell_angle_alpha   75.63404158
_cell_angle_beta   90.00000000
_cell_angle_gamma   90.00000000
_symmetry_Int_Tables_number   1
_chemical_formula_structural   TbYLu2(WO6)2
_chemical_formula_sum   'Tb2 Y2 Lu4 W4 O24'
_cell_volume   452.83064112
_cell_formula_units_Z   2
loop_
 _symmetry_equiv_pos_site_id
 _symmetry_equiv_pos_as_xyz
  1  'x, y, z'
loop_
 _atom_site_type_symbol
 _atom_site_label
 _atom_site_symmetry_multiplicity
 _atom_site_fract_x
 _atom_site_fract_y
 _atom_site_fract_z
 _atom_site_occupancy
  Tb  Tb0  1  0.315749  0.500000  0.750000  1
  Tb  Tb1  1  0.684251  0.500000  0.250000  1
  Y  Y2  1  0.256853  0.000000  0.750000  1
  Y  Y3  1  0.743147  0.000000  0.250000  1
  Lu  Lu4  1  0.182637  0.793352  0.079221  1
  Lu  Lu5  1  0.182637  0.206648  0.420779  1
  Lu  Lu6  1  0.817363  0.206648  0.920779  1
  Lu  Lu7  1  0.817363  0.793352  0.579221  1
  W  W8  1  0.743708  0.724080  0.886184  1
  W  W9  1  0.256292  0.724080  0.386184  1
  W  W10  1  0.743708  0.275920  0.613816  1
  W  W11  1  0.256292  0.275920  0.113816  1
  O  O12  1  0.540307  0.158273  0.066511  1
  O  O13  1  0.049123  0.058087  0.102176  1
  O  O14  1  0.017816  0.713141  0.770158  1
  O  O15  1  0.459693  0.158273  0.566511  1
  O  O16  1  0.356187  0.488081  0.386793  1
  O  O17  1  0.950877  0.058087  0.602176  1
  O  O18  1  0.545789  0.792013  0.725300  1
  O  O19  1  0.454211  0.792013  0.225300  1
  O  O20  1  0.145141  0.635753  0.549649  1
  O  O21  1  0.049123  0.941913  0.397824  1
  O  O22  1  0.459693  0.841727  0.933489  1
  O  O23  1  0.454211  0.207987  0.274700  1
  O  O24  1  0.854859  0.364247  0.450351  1
  O  O25  1  0.643813  0.488081  0.886793  1
  O  O26  1  0.356187  0.511919  0.113207  1
  O  O27  1  0.950877  0.941913  0.897824  1
  O  O28  1  0.540307  0.841727  0.433489  1
  O  O29  1  0.982184  0.286859  0.229842  1
  O  O30  1  0.545789  0.207987  0.774700  1
  O  O31  1  0.854859  0.635753  0.049649  1
  O  O32  1  0.017816  0.286859  0.729842  1
  O  O33  1  0.145141  0.364247  0.950351  1
  O  O34  1  0.982184  0.713141  0.270158  1
  O  O35  1  0.643813  0.511919  0.613207  1
