# generated using pymatgen
data_Ac2Nd2P7Rh8
_symmetry_space_group_name_H-M   'P 1'
_cell_length_a   4.02192500
_cell_length_b   13.02618692
_cell_length_c   13.37992800
_cell_angle_alpha   81.09591031
_cell_angle_beta   90.00000000
_cell_angle_gamma   90.00000000
_symmetry_Int_Tables_number   1
_chemical_formula_structural   Ac2Nd2P7Rh8
_chemical_formula_sum   'Ac4 Nd4 P14 Rh16'
_cell_volume   692.53144370
_cell_formula_units_Z   2
loop_
 _symmetry_equiv_pos_site_id
 _symmetry_equiv_pos_as_xyz
  1  'x, y, z'
loop_
 _atom_site_type_symbol
 _atom_site_label
 _atom_site_symmetry_multiplicity
 _atom_site_fract_x
 _atom_site_fract_y
 _atom_site_fract_z
 _atom_site_occupancy
  Ac  Ac0  1  0.250000  0.106766  0.786696  1
  Ac  Ac1  1  0.750000  0.893234  0.213304  1
  Ac  Ac2  1  0.250000  0.280689  0.104175  1
  Ac  Ac3  1  0.750000  0.719311  0.895825  1
  Nd  Nd4  1  0.250000  0.518323  0.292860  1
  Nd  Nd5  1  0.750000  0.481677  0.707140  1
  Nd  Nd6  1  0.250000  0.210246  0.440656  1
  Nd  Nd7  1  0.750000  0.789754  0.559344  1
  P  P8  1  0.250000  0.051368  0.097891  1
  P  P9  1  0.750000  0.948632  0.902109  1
  P  P10  1  0.250000  0.320704  0.683699  1
  P  P11  1  0.750000  0.679296  0.316301  1
  P  P12  1  0.250000  0.606259  0.562132  1
  P  P13  1  0.750000  0.393741  0.437868  1
  P  P14  1  0.250000  0.843921  0.713900  1
  P  P15  1  0.750000  0.156079  0.286100  1
  P  P16  1  0.750000  0.259569  0.917369  1
  P  P17  1  0.250000  0.740431  0.082631  1
  P  P18  1  0.750000  0.090731  0.586328  1
  P  P19  1  0.250000  0.909269  0.413672  1
  P  P20  1  0.750000  0.474771  0.128186  1
  P  P21  1  0.250000  0.525229  0.871814  1
  Rh  Rh22  1  0.250000  0.986676  0.574240  1
  Rh  Rh23  1  0.750000  0.013324  0.425760  1
  Rh  Rh24  1  0.250000  0.662571  0.725822  1
  Rh  Rh25  1  0.750000  0.337429  0.274178  1
  Rh  Rh26  1  0.250000  0.550138  0.048927  1
  Rh  Rh27  1  0.750000  0.449862  0.951073  1
  Rh  Rh28  1  0.250000  0.062379  0.276695  1
  Rh  Rh29  1  0.750000  0.937621  0.723305  1
  Rh  Rh30  1  0.250000  0.425762  0.525387  1
  Rh  Rh31  1  0.750000  0.574238  0.474613  1
  Rh  Rh32  1  0.250000  0.916917  0.998268  1
  Rh  Rh33  1  0.750000  0.083083  0.001732  1
  Rh  Rh34  1  0.250000  0.724027  0.399269  1
  Rh  Rh35  1  0.750000  0.275973  0.600731  1
  Rh  Rh36  1  0.250000  0.344547  0.857303  1
  Rh  Rh37  1  0.750000  0.655453  0.142697  1
