# generated using pymatgen
data_Ac2Mo2Se2O13
_symmetry_space_group_name_H-M   'P 1'
_cell_length_a   6.87700546
_cell_length_b   7.13942233
_cell_length_c   12.24921481
_cell_angle_alpha   89.79266049
_cell_angle_beta   82.42064125
_cell_angle_gamma   87.74475875
_symmetry_Int_Tables_number   1
_chemical_formula_structural   Ac2Mo2Se2O13
_chemical_formula_sum   'Ac4 Mo4 Se4 O26'
_cell_volume   595.69311236
_cell_formula_units_Z   2
loop_
 _symmetry_equiv_pos_site_id
 _symmetry_equiv_pos_as_xyz
  1  'x, y, z'
loop_
 _atom_site_type_symbol
 _atom_site_label
 _atom_site_symmetry_multiplicity
 _atom_site_fract_x
 _atom_site_fract_y
 _atom_site_fract_z
 _atom_site_occupancy
  Ac  Ac0  1  0.221012  0.862278  0.885034  1
  Ac  Ac1  1  0.778988  0.137722  0.114966  1
  Ac  Ac2  1  0.646510  0.624294  0.635883  1
  Ac  Ac3  1  0.353490  0.375706  0.364117  1
  Mo  Mo4  1  0.756019  0.112088  0.809080  1
  Mo  Mo5  1  0.243981  0.887912  0.190920  1
  Mo  Mo6  1  0.116867  0.360271  0.699472  1
  Mo  Mo7  1  0.883133  0.639729  0.300528  1
  Se  Se8  1  0.186832  0.790663  0.567917  1
  Se  Se9  1  0.813168  0.209337  0.432083  1
  Se  Se10  1  0.238653  0.415267  0.066194  1
  Se  Se11  1  0.761347  0.584733  0.933806  1
  O  O12  1  0.371311  0.657275  0.494609  1
  O  O13  1  0.628689  0.342725  0.505391  1
  O  O14  1  0.027473  0.610326  0.620507  1
  O  O15  1  0.972527  0.389674  0.379493  1
  O  O16  1  0.312237  0.842638  0.675976  1
  O  O17  1  0.687763  0.157362  0.324024  1
  O  O18  1  0.405971  0.344510  0.152789  1
  O  O19  1  0.594029  0.655490  0.847211  1
  O  O20  1  0.263848  0.658725  0.054855  1
  O  O21  1  0.736152  0.341275  0.945145  1
  O  O22  1  0.991486  0.585943  0.852966  1
  O  O23  1  0.008514  0.414057  0.147034  1
  O  O24  1  0.498816  0.101035  0.846021  1
  O  O25  1  0.501184  0.898965  0.153979  1
  O  O26  1  0.844791  0.974937  0.926393  1
  O  O27  1  0.155209  0.025063  0.073607  1
  O  O28  1  0.089851  0.164745  0.797247  1
  O  O29  1  0.910149  0.835255  0.202753  1
  O  O30  1  0.796423  0.945197  0.699872  1
  O  O31  1  0.203577  0.054803  0.300128  1
  O  O32  1  0.184939  0.249697  0.570286  1
  O  O33  1  0.815061  0.750303  0.429714  1
  O  O34  1  0.810301  0.335633  0.716414  1
  O  O35  1  0.189699  0.664367  0.283586  1
  O  O36  1  0.338056  0.459635  0.726461  1
  O  O37  1  0.661944  0.540365  0.273539  1
