# generated using pymatgen
data_Y12Th4Mg2AgHgIr4
_symmetry_space_group_name_H-M   'P 1'
_cell_length_a   9.77782891
_cell_length_b   9.77782962
_cell_length_c   9.80561900
_cell_angle_alpha   59.90594349
_cell_angle_beta   59.90594110
_cell_angle_gamma   59.98220752
_symmetry_Int_Tables_number   1
_chemical_formula_structural   Y12Th4Mg2AgHgIr4
_chemical_formula_sum   'Y12 Th4 Mg2 Ag1 Hg1 Ir4'
_cell_volume   661.86247141
_cell_formula_units_Z   1
loop_
 _symmetry_equiv_pos_site_id
 _symmetry_equiv_pos_as_xyz
  1  'x, y, z'
loop_
 _atom_site_type_symbol
 _atom_site_label
 _atom_site_symmetry_multiplicity
 _atom_site_fract_x
 _atom_site_fract_y
 _atom_site_fract_z
 _atom_site_occupancy
  Y  Y0  1  0.061544  0.437303  0.439145  1
  Y  Y1  1  0.437338  0.061827  0.062207  1
  Y  Y2  1  0.437303  0.061544  0.439145  1
  Y  Y3  1  0.061827  0.437338  0.062207  1
  Y  Y4  1  0.437923  0.437923  0.062191  1
  Y  Y5  1  0.059963  0.059963  0.440093  1
  Y  Y6  1  0.183049  0.813748  0.815388  1
  Y  Y7  1  0.813676  0.184226  0.187046  1
  Y  Y8  1  0.813748  0.183049  0.815388  1
  Y  Y9  1  0.184226  0.813676  0.187046  1
  Y  Y10  1  0.814114  0.814114  0.184167  1
  Y  Y11  1  0.185091  0.185091  0.814697  1
  Th  Th12  1  0.598380  0.598380  0.598167  1
  Th  Th13  1  0.598390  0.598390  0.204927  1
  Th  Th14  1  0.600384  0.200493  0.599670  1
  Th  Th15  1  0.200493  0.600384  0.599670  1
  Mg  Mg16  1  0.830226  0.517605  0.826537  1
  Mg  Mg17  1  0.517605  0.830226  0.826537  1
  Ag  Ag18  1  0.833233  0.833233  0.840172  1
  Hg  Hg19  1  0.833931  0.833931  0.492866  1
  Ir  Ir20  1  0.393246  0.393246  0.394353  1
  Ir  Ir21  1  0.393099  0.393099  0.819554  1
  Ir  Ir22  1  0.392496  0.818713  0.394414  1
  Ir  Ir23  1  0.818713  0.392496  0.394414  1
