# generated using pymatgen
data_TiNb(VAs)2
_symmetry_space_group_name_H-M   'P 1'
_cell_length_a   3.50001200
_cell_length_b   6.57781343
_cell_length_c   7.93265022
_cell_angle_alpha   90.48795291
_cell_angle_beta   90.00000000
_cell_angle_gamma   90.00000000
_symmetry_Int_Tables_number   1
_chemical_formula_structural   TiNb(VAs)2
_chemical_formula_sum   'Ti2 Nb2 V4 As4'
_cell_volume   182.62222949
_cell_formula_units_Z   2
loop_
 _symmetry_equiv_pos_site_id
 _symmetry_equiv_pos_as_xyz
  1  'x, y, z'
loop_
 _atom_site_type_symbol
 _atom_site_label
 _atom_site_symmetry_multiplicity
 _atom_site_fract_x
 _atom_site_fract_y
 _atom_site_fract_z
 _atom_site_occupancy
  Ti  Ti0  1  0.750000  0.955931  0.667990  1
  Ti  Ti1  1  0.250000  0.044069  0.332010  1
  Nb  Nb2  1  0.250000  0.545941  0.166703  1
  Nb  Nb3  1  0.750000  0.454059  0.833297  1
  V  V4  1  0.250000  0.626328  0.555877  1
  V  V5  1  0.750000  0.373672  0.444123  1
  V  V6  1  0.750000  0.868311  0.057601  1
  V  V7  1  0.250000  0.131689  0.942399  1
  As  As8  1  0.250000  0.758282  0.854432  1
  As  As9  1  0.750000  0.241718  0.145568  1
  As  As10  1  0.750000  0.756103  0.362846  1
  As  As11  1  0.250000  0.243897  0.637154  1
