# generated using pymatgen
data_Ho3Ga4Co9C2
_symmetry_space_group_name_H-M   'P 1'
_cell_length_a   5.16137600
_cell_length_b   5.16137536
_cell_length_c   10.36172400
_cell_angle_alpha   90.00000000
_cell_angle_beta   90.00000000
_cell_angle_gamma   120.00000408
_symmetry_Int_Tables_number   1
_chemical_formula_structural   Ho3Ga4Co9C2
_chemical_formula_sum   'Ho3 Ga4 Co9 C2'
_cell_volume   239.05265774
_cell_formula_units_Z   1
loop_
 _symmetry_equiv_pos_site_id
 _symmetry_equiv_pos_as_xyz
  1  'x, y, z'
loop_
 _atom_site_type_symbol
 _atom_site_label
 _atom_site_symmetry_multiplicity
 _atom_site_fract_x
 _atom_site_fract_y
 _atom_site_fract_z
 _atom_site_occupancy
  Ho  Ho0  1  0.000000  0.000000  0.000000  1
  Ho  Ho1  1  0.000000  0.000000  0.665149  1
  Ho  Ho2  1  0.000000  0.000000  0.334851  1
  Ga  Ga3  1  0.666667  0.333333  0.687837  1
  Ga  Ga4  1  0.333333  0.666667  0.687837  1
  Ga  Ga5  1  0.333333  0.666667  0.312163  1
  Ga  Ga6  1  0.666667  0.333333  0.312163  1
  Co  Co7  1  0.500000  0.500000  0.500000  1
  Co  Co8  1  0.500000  0.000000  0.500000  1
  Co  Co9  1  0.000000  0.500000  0.500000  1
  Co  Co10  1  0.500000  0.500000  0.878197  1
  Co  Co11  1  0.500000  0.000000  0.878197  1
  Co  Co12  1  0.000000  0.500000  0.878197  1
  Co  Co13  1  0.500000  0.500000  0.121803  1
  Co  Co14  1  0.500000  0.000000  0.121803  1
  Co  Co15  1  0.000000  0.500000  0.121803  1
  C  C16  1  0.666667  0.333333  0.000000  1
  C  C17  1  0.333333  0.666667  0.000000  1
