# generated using pymatgen
data_CaYAlSe4
_symmetry_space_group_name_H-M   'P 1'
_cell_length_a   14.52930100
_cell_length_b   8.46668300
_cell_length_c   6.61423200
_cell_angle_alpha   90.00000000
_cell_angle_beta   90.00000000
_cell_angle_gamma   90.00000000
_symmetry_Int_Tables_number   1
_chemical_formula_structural   CaYAlSe4
_chemical_formula_sum   'Ca4 Y4 Al4 Se16'
_cell_volume   813.64965542
_cell_formula_units_Z   4
loop_
 _symmetry_equiv_pos_site_id
 _symmetry_equiv_pos_as_xyz
  1  'x, y, z'
loop_
 _atom_site_type_symbol
 _atom_site_label
 _atom_site_symmetry_multiplicity
 _atom_site_fract_x
 _atom_site_fract_y
 _atom_site_fract_z
 _atom_site_occupancy
  Ca  Ca0  1  0.736381  0.750001  0.008564  1
  Ca  Ca1  1  0.236381  0.750001  0.491436  1
  Ca  Ca2  1  0.763619  0.250000  0.508564  1
  Ca  Ca3  1  0.263619  0.250000  0.991435  1
  Y  Y4  1  0.000000  0.000000  0.000000  1
  Y  Y5  1  0.000000  0.499999  0.000000  1
  Y  Y6  1  0.500000  0.000000  0.500000  1
  Y  Y7  1  0.500000  0.499999  0.500000  1
  Al  Al8  1  0.585802  0.250000  0.099639  1
  Al  Al9  1  0.085802  0.250000  0.400361  1
  Al  Al10  1  0.914198  0.750001  0.599640  1
  Al  Al11  1  0.414198  0.750001  0.900361  1
  Se  Se12  1  0.914277  0.750001  0.237365  1
  Se  Se13  1  0.160494  0.022812  0.254021  1
  Se  Se14  1  0.160494  0.477188  0.254021  1
  Se  Se15  1  0.931802  0.250000  0.252020  1
  Se  Se16  1  0.431802  0.250000  0.247980  1
  Se  Se17  1  0.660494  0.022812  0.245979  1
  Se  Se18  1  0.660494  0.477188  0.245979  1
  Se  Se19  1  0.414276  0.750001  0.262634  1
  Se  Se20  1  0.585723  0.250000  0.737365  1
  Se  Se21  1  0.339506  0.522813  0.754021  1
  Se  Se22  1  0.339506  0.977187  0.754021  1
  Se  Se23  1  0.568198  0.750001  0.752019  1
  Se  Se24  1  0.068198  0.750001  0.747980  1
  Se  Se25  1  0.839506  0.522813  0.745978  1
  Se  Se26  1  0.839506  0.977187  0.745978  1
  Se  Se27  1  0.085724  0.250000  0.762634  1
