# generated using pymatgen
data_TbEr5Pa2(ReB6)4
_symmetry_space_group_name_H-M   'P 1'
_cell_length_a   3.68887800
_cell_length_b   9.14095659
_cell_length_c   11.51127277
_cell_angle_alpha   90.33106555
_cell_angle_beta   90.00000000
_cell_angle_gamma   90.00000000
_symmetry_Int_Tables_number   1
_chemical_formula_structural   TbEr5Pa2(ReB6)4
_chemical_formula_sum   'Tb1 Er5 Pa2 Re4 B24'
_cell_volume   388.15218401
_cell_formula_units_Z   1
loop_
 _symmetry_equiv_pos_site_id
 _symmetry_equiv_pos_as_xyz
  1  'x, y, z'
loop_
 _atom_site_type_symbol
 _atom_site_label
 _atom_site_symmetry_multiplicity
 _atom_site_fract_x
 _atom_site_fract_y
 _atom_site_fract_z
 _atom_site_occupancy
  Tb  Tb0  1  0.000000  0.823553  0.085657  1
  Er  Er1  1  0.000000  0.175878  0.914702  1
  Er  Er2  1  0.000000  0.944792  0.372301  1
  Er  Er3  1  0.000000  0.055300  0.627344  1
  Er  Er4  1  0.000000  0.443702  0.126610  1
  Er  Er5  1  0.000000  0.556140  0.873299  1
  Pa  Pa6  1  0.000000  0.321214  0.413272  1
  Pa  Pa7  1  0.000000  0.678804  0.586840  1
  Re  Re8  1  0.000000  0.635183  0.324638  1
  Re  Re9  1  0.000000  0.364448  0.675815  1
  Re  Re10  1  0.000000  0.140967  0.181625  1
  Re  Re11  1  0.000000  0.859860  0.818011  1
  B  B12  1  0.500000  0.553409  0.433163  1
  B  B13  1  0.500000  0.446318  0.567301  1
  B  B14  1  0.500000  0.054030  0.067047  1
  B  B15  1  0.500000  0.946880  0.932505  1
  B  B16  1  0.500000  0.748632  0.419504  1
  B  B17  1  0.500000  0.251292  0.580670  1
  B  B18  1  0.500000  0.248698  0.079882  1
  B  B19  1  0.500000  0.751541  0.919339  1
  B  B20  1  0.500000  0.791449  0.265684  1
  B  B21  1  0.500000  0.208179  0.734875  1
  B  B22  1  0.500000  0.292350  0.233766  1
  B  B23  1  0.500000  0.707939  0.765974  1
  B  B24  1  0.500000  0.630675  0.185575  1
  B  B25  1  0.500000  0.368643  0.814966  1
  B  B26  1  0.500000  0.132119  0.314105  1
  B  B27  1  0.500000  0.868313  0.685648  1
  B  B28  1  0.500000  0.982554  0.212315  1
  B  B29  1  0.500000  0.018352  0.787709  1
  B  B30  1  0.500000  0.482619  0.286821  1
  B  B31  1  0.500000  0.517143  0.713552  1
  B  B32  1  0.500000  0.602632  0.028844  1
  B  B33  1  0.500000  0.396298  0.970986  1
  B  B34  1  0.500000  0.109348  0.469606  1
  B  B35  1  0.500000  0.890746  0.530047  1
