# generated using pymatgen
data_AcYCd(Si3Pd10)2
_symmetry_space_group_name_H-M   'P 1'
_cell_length_a   8.75114670
_cell_length_b   8.75146022
_cell_length_c   8.75050701
_cell_angle_alpha   59.99650667
_cell_angle_beta   59.99761863
_cell_angle_gamma   59.99870542
_symmetry_Int_Tables_number   1
_chemical_formula_structural   AcYCd(Si3Pd10)2
_chemical_formula_sum   'Ac1 Y1 Cd1 Si6 Pd20'
_cell_volume   473.84922452
_cell_formula_units_Z   1
loop_
 _symmetry_equiv_pos_site_id
 _symmetry_equiv_pos_as_xyz
  1  'x, y, z'
loop_
 _atom_site_type_symbol
 _atom_site_label
 _atom_site_symmetry_multiplicity
 _atom_site_fract_x
 _atom_site_fract_y
 _atom_site_fract_z
 _atom_site_occupancy
  Ac  Ac0  1  0.250009  0.249994  0.250002  1
  Y  Y1  1  0.750008  0.750008  0.749975  1
  Cd  Cd2  1  0.999980  0.999991  0.000034  1
  Si  Si3  1  0.733217  0.733274  0.266766  1
  Si  Si4  1  0.266780  0.266718  0.733231  1
  Si  Si5  1  0.733236  0.266759  0.733251  1
  Si  Si6  1  0.266774  0.733240  0.266739  1
  Si  Si7  1  0.266780  0.733272  0.733236  1
  Si  Si8  1  0.733215  0.266743  0.266762  1
  Pd  Pd9  1  0.616807  0.616788  0.616763  1
  Pd  Pd10  1  0.387962  0.387987  0.388084  1
  Pd  Pd11  1  0.149627  0.616798  0.616774  1
  Pd  Pd12  1  0.616807  0.149636  0.616763  1
  Pd  Pd13  1  0.835976  0.387976  0.388068  1
  Pd  Pd14  1  0.387958  0.835973  0.388085  1
  Pd  Pd15  1  0.616820  0.616805  0.149569  1
  Pd  Pd16  1  0.387984  0.388020  0.835980  1
  Pd  Pd17  1  0.997795  0.997790  0.658284  1
  Pd  Pd18  1  0.997783  0.997776  0.346147  1
  Pd  Pd19  1  0.346171  0.658322  0.997743  1
  Pd  Pd20  1  0.658266  0.346114  0.997794  1
  Pd  Pd21  1  0.997794  0.658294  0.997764  1
  Pd  Pd22  1  0.658291  0.997795  0.346116  1
  Pd  Pd23  1  0.997819  0.346127  0.997777  1
  Pd  Pd24  1  0.346134  0.997777  0.658319  1
  Pd  Pd25  1  0.658287  0.997811  0.997792  1
  Pd  Pd26  1  0.346143  0.997784  0.997747  1
  Pd  Pd27  1  0.997768  0.658304  0.346159  1
  Pd  Pd28  1  0.997811  0.346123  0.658276  1
