# generated using pymatgen
data_Tb8Ge(PdPt)12
_symmetry_space_group_name_H-M   'P 1'
_cell_length_a   8.35588000
_cell_length_b   8.36212700
_cell_length_c   8.42479800
_cell_angle_alpha   90.00000000
_cell_angle_beta   90.00000000
_cell_angle_gamma   90.00000000
_symmetry_Int_Tables_number   1
_chemical_formula_structural   Tb8Ge(PdPt)12
_chemical_formula_sum   'Tb8 Ge1 Pd12 Pt12'
_cell_volume   588.66531887
_cell_formula_units_Z   1
loop_
 _symmetry_equiv_pos_site_id
 _symmetry_equiv_pos_as_xyz
  1  'x, y, z'
loop_
 _atom_site_type_symbol
 _atom_site_label
 _atom_site_symmetry_multiplicity
 _atom_site_fract_x
 _atom_site_fract_y
 _atom_site_fract_z
 _atom_site_occupancy
  Tb  Tb0  1  0.253283  0.254339  0.252878  1
  Tb  Tb1  1  0.746717  0.745661  0.747122  1
  Tb  Tb2  1  0.746717  0.745661  0.252878  1
  Tb  Tb3  1  0.746717  0.254339  0.747122  1
  Tb  Tb4  1  0.253283  0.254339  0.747122  1
  Tb  Tb5  1  0.253283  0.745661  0.252878  1
  Tb  Tb6  1  0.253283  0.745661  0.747122  1
  Tb  Tb7  1  0.746717  0.254339  0.252878  1
  Ge  Ge8  1  0.000000  0.000000  0.000000  1
  Pd  Pd9  1  0.500000  0.000000  0.260830  1
  Pd  Pd10  1  0.259990  0.000000  0.500000  1
  Pd  Pd11  1  0.500000  0.000000  0.739170  1
  Pd  Pd12  1  0.740010  0.000000  0.500000  1
  Pd  Pd13  1  0.000000  0.500000  0.258664  1
  Pd  Pd14  1  0.000000  0.500000  0.741336  1
  Pd  Pd15  1  0.500000  0.500000  0.252841  1
  Pd  Pd16  1  0.500000  0.500000  0.747159  1
  Pd  Pd17  1  0.000000  0.289722  0.000000  1
  Pd  Pd18  1  0.000000  0.710278  0.000000  1
  Pd  Pd19  1  0.000000  0.000000  0.289686  1
  Pd  Pd20  1  0.000000  0.000000  0.710314  1
  Pt  Pt21  1  0.259280  0.500000  0.000000  1
  Pt  Pt22  1  0.740720  0.500000  0.000000  1
  Pt  Pt23  1  0.000000  0.260475  0.500000  1
  Pt  Pt24  1  0.500000  0.260384  0.000000  1
  Pt  Pt25  1  0.000000  0.739525  0.500000  1
  Pt  Pt26  1  0.500000  0.739616  0.000000  1
  Pt  Pt27  1  0.251867  0.500000  0.500000  1
  Pt  Pt28  1  0.748133  0.500000  0.500000  1
  Pt  Pt29  1  0.500000  0.253259  0.500000  1
  Pt  Pt30  1  0.500000  0.746741  0.500000  1
  Pt  Pt31  1  0.290068  0.000000  0.000000  1
  Pt  Pt32  1  0.709932  0.000000  0.000000  1
