# generated using pymatgen
data_Nd6YTmO12
_symmetry_space_group_name_H-M   'P 1'
_cell_length_a   6.99753078
_cell_length_b   6.99753078
_cell_length_c   6.99753200
_cell_angle_alpha   91.99177997
_cell_angle_beta   91.99178817
_cell_angle_gamma   91.99177910
_symmetry_Int_Tables_number   1
_chemical_formula_structural   Nd6YTmO12
_chemical_formula_sum   'Nd6 Y1 Tm1 O12'
_cell_volume   342.00138310
_cell_formula_units_Z   1
loop_
 _symmetry_equiv_pos_site_id
 _symmetry_equiv_pos_as_xyz
  1  'x, y, z'
loop_
 _atom_site_type_symbol
 _atom_site_label
 _atom_site_symmetry_multiplicity
 _atom_site_fract_x
 _atom_site_fract_y
 _atom_site_fract_z
 _atom_site_occupancy
  Nd  Nd0  1  0.746310  0.935626  0.442935  1
  Nd  Nd1  1  0.442935  0.746310  0.935626  1
  Nd  Nd2  1  0.064374  0.557065  0.253690  1
  Nd  Nd3  1  0.935626  0.442935  0.746310  1
  Nd  Nd4  1  0.557065  0.253690  0.064374  1
  Nd  Nd5  1  0.253690  0.064374  0.557065  1
  Y  Y6  1  0.000000  0.000000  0.000000  1
  Tm  Tm7  1  0.500000  0.500000  0.500000  1
  O  O8  1  0.066095  0.908919  0.310143  1
  O  O9  1  0.689857  0.933905  0.091081  1
  O  O10  1  0.466287  0.807070  0.595171  1
  O  O11  1  0.091081  0.689857  0.933905  1
  O  O12  1  0.807070  0.595171  0.466287  1
  O  O13  1  0.404829  0.533713  0.192930  1
  O  O14  1  0.595171  0.466287  0.807070  1
  O  O15  1  0.192930  0.404829  0.533713  1
  O  O16  1  0.908919  0.310143  0.066095  1
  O  O17  1  0.533713  0.192930  0.404829  1
  O  O18  1  0.310143  0.066095  0.908919  1
  O  O19  1  0.933905  0.091081  0.689857  1
