# generated using pymatgen
data_Pr3In3Cu2Rh
_symmetry_space_group_name_H-M   'P 1'
_cell_length_a   7.69855500
_cell_length_b   7.69855557
_cell_length_c   4.08014200
_cell_angle_alpha   90.00000000
_cell_angle_beta   90.00000000
_cell_angle_gamma   120.00001042
_symmetry_Int_Tables_number   1
_chemical_formula_structural   Pr3In3Cu2Rh
_chemical_formula_sum   'Pr3 In3 Cu2 Rh1'
_cell_volume   209.42297758
_cell_formula_units_Z   1
loop_
 _symmetry_equiv_pos_site_id
 _symmetry_equiv_pos_as_xyz
  1  'x, y, z'
loop_
 _atom_site_type_symbol
 _atom_site_label
 _atom_site_symmetry_multiplicity
 _atom_site_fract_x
 _atom_site_fract_y
 _atom_site_fract_z
 _atom_site_occupancy
  Pr  Pr0  1  0.419651  0.408782  0.500000  1
  Pr  Pr1  1  0.591218  0.010869  0.500000  1
  Pr  Pr2  1  0.989131  0.580349  0.500000  1
  In  In3  1  0.754284  0.754337  0.000000  1
  In  In4  1  0.245663  0.999947  0.000000  1
  In  In5  1  0.000053  0.245716  0.000000  1
  Cu  Cu6  1  0.333333  0.666667  0.000000  1
  Cu  Cu7  1  0.000000  0.000000  0.500000  1
  Rh  Rh8  1  0.666667  0.333333  0.000000  1
