# generated using pymatgen
data_KPr6RhI12
_symmetry_space_group_name_H-M   'P 1'
_cell_length_a   10.13341444
_cell_length_b   10.13341455
_cell_length_c   10.13341527
_cell_angle_alpha   105.66341465
_cell_angle_beta   105.66341965
_cell_angle_gamma   105.66342430
_symmetry_Int_Tables_number   1
_chemical_formula_structural   KPr6RhI12
_chemical_formula_sum   'K1 Pr6 Rh1 I12'
_cell_volume   896.31087477
_cell_formula_units_Z   1
loop_
 _symmetry_equiv_pos_site_id
 _symmetry_equiv_pos_as_xyz
  1  'x, y, z'
loop_
 _atom_site_type_symbol
 _atom_site_label
 _atom_site_symmetry_multiplicity
 _atom_site_fract_x
 _atom_site_fract_y
 _atom_site_fract_z
 _atom_site_occupancy
  K  K0  1  0.500000  0.500000  0.500000  1
  Pr  Pr1  1  0.904034  0.982412  0.698257  1
  Pr  Pr2  1  0.982412  0.698257  0.904034  1
  Pr  Pr3  1  0.698257  0.904034  0.982412  1
  Pr  Pr4  1  0.095966  0.017588  0.301743  1
  Pr  Pr5  1  0.017588  0.301743  0.095966  1
  Pr  Pr6  1  0.301743  0.095966  0.017588  1
  Rh  Rh7  1  0.000000  0.000000  0.000000  1
  I  I8  1  0.562984  0.879970  0.648061  1
  I  I9  1  0.879970  0.648061  0.562984  1
  I  I10  1  0.648061  0.562984  0.879970  1
  I  I11  1  0.437016  0.120030  0.351939  1
  I  I12  1  0.120030  0.351939  0.437016  1
  I  I13  1  0.351939  0.437016  0.120030  1
  I  I14  1  0.673765  0.223639  0.074469  1
  I  I15  1  0.223639  0.074469  0.673765  1
  I  I16  1  0.074469  0.673765  0.223639  1
  I  I17  1  0.326235  0.776361  0.925531  1
  I  I18  1  0.776361  0.925531  0.326235  1
  I  I19  1  0.925531  0.326235  0.776361  1
