# generated using pymatgen
data_Li3Ho4Co6P12Rh11
_symmetry_space_group_name_H-M   'P 1'
_cell_length_a   3.79184200
_cell_length_b   10.64755359
_cell_length_c   12.42310754
_cell_angle_alpha   90.03593689
_cell_angle_beta   90.00000000
_cell_angle_gamma   90.00000000
_symmetry_Int_Tables_number   1
_chemical_formula_structural   Li3Ho4Co6P12Rh11
_chemical_formula_sum   'Li3 Ho4 Co6 P12 Rh11'
_cell_volume   501.56846854
_cell_formula_units_Z   1
loop_
 _symmetry_equiv_pos_site_id
 _symmetry_equiv_pos_as_xyz
  1  'x, y, z'
loop_
 _atom_site_type_symbol
 _atom_site_label
 _atom_site_symmetry_multiplicity
 _atom_site_fract_x
 _atom_site_fract_y
 _atom_site_fract_z
 _atom_site_occupancy
  Li  Li0  1  0.250000  0.702296  0.986307  1
  Li  Li1  1  0.250000  0.797515  0.486901  1
  Li  Li2  1  0.750000  0.291971  0.009268  1
  Ho  Ho3  1  0.250000  0.577926  0.709444  1
  Ho  Ho4  1  0.250000  0.922963  0.210483  1
  Ho  Ho5  1  0.750000  0.421228  0.294636  1
  Ho  Ho6  1  0.750000  0.081543  0.793502  1
  Co  Co7  1  0.750000  0.118202  0.305126  1
  Co  Co8  1  0.750000  0.377905  0.802919  1
  Co  Co9  1  0.250000  0.460963  0.932241  1
  Co  Co10  1  0.250000  0.040453  0.433380  1
  Co  Co11  1  0.750000  0.531366  0.061744  1
  Co  Co12  1  0.750000  0.964579  0.562890  1
  P  P13  1  0.250000  0.424721  0.107793  1
  P  P14  1  0.250000  0.074190  0.606645  1
  P  P15  1  0.750000  0.563982  0.885929  1
  P  P16  1  0.750000  0.933540  0.387191  1
  P  P17  1  0.250000  0.271394  0.863847  1
  P  P18  1  0.250000  0.228612  0.366566  1
  P  P19  1  0.750000  0.730515  0.134536  1
  P  P20  1  0.750000  0.768905  0.634528  1
  P  P21  1  0.250000  0.602586  0.389054  1
  P  P22  1  0.250000  0.899418  0.890735  1
  P  P23  1  0.750000  0.400630  0.616437  1
  P  P24  1  0.750000  0.101059  0.118492  1
  Rh  Rh25  1  0.750000  0.210846  0.510105  1
  Rh  Rh26  1  0.250000  0.405690  0.478222  1
  Rh  Rh27  1  0.250000  0.097094  0.980387  1
  Rh  Rh28  1  0.750000  0.594225  0.522318  1
  Rh  Rh29  1  0.750000  0.905031  0.022242  1
  Rh  Rh30  1  0.250000  0.223196  0.179096  1
  Rh  Rh31  1  0.250000  0.274680  0.676246  1
  Rh  Rh32  1  0.750000  0.771381  0.826968  1
  Rh  Rh33  1  0.750000  0.727731  0.325801  1
  Rh  Rh34  1  0.250000  0.882139  0.695512  1
  Rh  Rh35  1  0.250000  0.619523  0.192515  1
