# generated using pymatgen
data_Li5AlAg2
_symmetry_space_group_name_H-M   'P 1'
_cell_length_a   4.59759513
_cell_length_b   6.12013996
_cell_length_c   4.59958749
_cell_angle_alpha   89.85512265
_cell_angle_beta   89.99979396
_cell_angle_gamma   89.98981970
_symmetry_Int_Tables_number   1
_chemical_formula_structural   Li5AlAg2
_chemical_formula_sum   'Li5 Al1 Ag2'
_cell_volume   129.42243515
_cell_formula_units_Z   1
loop_
 _symmetry_equiv_pos_site_id
 _symmetry_equiv_pos_as_xyz
  1  'x, y, z'
loop_
 _atom_site_type_symbol
 _atom_site_label
 _atom_site_symmetry_multiplicity
 _atom_site_fract_x
 _atom_site_fract_y
 _atom_site_fract_z
 _atom_site_occupancy
  Li  Li0  1  0.129950  0.952197  0.190061  1
  Li  Li1  1  0.630674  0.452139  0.676496  1
  Li  Li2  1  0.630626  0.952213  0.675858  1
  Li  Li3  1  0.130856  0.194663  0.691930  1
  Li  Li4  1  0.629902  0.709745  0.171439  1
  Al  Al5  1  0.129873  0.452361  0.191384  1
  Ag  Ag6  1  0.130494  0.685779  0.691467  1
  Ag  Ag7  1  0.630003  0.218531  0.179031  1
