# generated using pymatgen
data_Y2Ga2IrPd
_symmetry_space_group_name_H-M   'P 1'
_cell_length_a   4.44825000
_cell_length_b   6.89758000
_cell_length_c   7.68786200
_cell_angle_alpha   90.00000000
_cell_angle_beta   90.00000000
_cell_angle_gamma   90.00000000
_symmetry_Int_Tables_number   1
_chemical_formula_structural   Y2Ga2IrPd
_chemical_formula_sum   'Y4 Ga4 Ir2 Pd2'
_cell_volume   235.88021375
_cell_formula_units_Z   2
loop_
 _symmetry_equiv_pos_site_id
 _symmetry_equiv_pos_as_xyz
  1  'x, y, z'
loop_
 _atom_site_type_symbol
 _atom_site_label
 _atom_site_symmetry_multiplicity
 _atom_site_fract_x
 _atom_site_fract_y
 _atom_site_fract_z
 _atom_site_occupancy
  Y  Y0  1  0.250000  0.986680  0.303516  1
  Y  Y1  1  0.250000  0.486680  0.196484  1
  Y  Y2  1  0.750000  0.022897  0.689706  1
  Y  Y3  1  0.750000  0.522897  0.810294  1
  Ga  Ga4  1  0.250000  0.331627  0.569937  1
  Ga  Ga5  1  0.250000  0.831627  0.930063  1
  Ga  Ga6  1  0.750000  0.663078  0.424112  1
  Ga  Ga7  1  0.750000  0.163078  0.075888  1
  Ir  Ir8  1  0.750000  0.774457  0.102089  1
  Ir  Ir9  1  0.750000  0.274457  0.397911  1
  Pd  Pd10  1  0.250000  0.221261  0.897378  1
  Pd  Pd11  1  0.250000  0.721261  0.602622  1
