# generated using pymatgen
data_Dy6YTh(ReB6)4
_symmetry_space_group_name_H-M   'P 1'
_cell_length_a   3.71117800
_cell_length_b   9.20231951
_cell_length_c   11.60150402
_cell_angle_alpha   90.03654479
_cell_angle_beta   90.00000000
_cell_angle_gamma   90.00000000
_symmetry_Int_Tables_number   1
_chemical_formula_structural   Dy6YTh(ReB6)4
_chemical_formula_sum   'Dy6 Y1 Th1 Re4 B24'
_cell_volume   396.20805433
_cell_formula_units_Z   1
loop_
 _symmetry_equiv_pos_site_id
 _symmetry_equiv_pos_as_xyz
  1  'x, y, z'
loop_
 _atom_site_type_symbol
 _atom_site_label
 _atom_site_symmetry_multiplicity
 _atom_site_fract_x
 _atom_site_fract_y
 _atom_site_fract_z
 _atom_site_occupancy
  Dy  Dy0  1  0.000000  0.823287  0.085085  1
  Dy  Dy1  1  0.000000  0.176102  0.914052  1
  Dy  Dy2  1  0.000000  0.941574  0.369321  1
  Dy  Dy3  1  0.000000  0.056513  0.631400  1
  Dy  Dy4  1  0.000000  0.443042  0.128410  1
  Dy  Dy5  1  0.000000  0.557815  0.870468  1
  Y  Y6  1  0.000000  0.677934  0.587141  1
  Th  Th7  1  0.000000  0.322261  0.414133  1
  Re  Re8  1  0.000000  0.638432  0.320556  1
  Re  Re9  1  0.000000  0.362279  0.680142  1
  Re  Re10  1  0.000000  0.137837  0.178261  1
  Re  Re11  1  0.000000  0.862107  0.821119  1
  B  B12  1  0.500000  0.555405  0.432050  1
  B  B13  1  0.500000  0.447062  0.569573  1
  B  B14  1  0.500000  0.052837  0.066436  1
  B  B15  1  0.500000  0.946735  0.932874  1
  B  B16  1  0.500000  0.749484  0.417830  1
  B  B17  1  0.500000  0.251525  0.585229  1
  B  B18  1  0.500000  0.248126  0.080404  1
  B  B19  1  0.500000  0.751479  0.918280  1
  B  B20  1  0.500000  0.791379  0.264994  1
  B  B21  1  0.500000  0.208852  0.736140  1
  B  B22  1  0.500000  0.289711  0.232144  1
  B  B23  1  0.500000  0.708837  0.765882  1
  B  B24  1  0.500000  0.631639  0.184659  1
  B  B25  1  0.500000  0.369949  0.815090  1
  B  B26  1  0.500000  0.128937  0.312063  1
  B  B27  1  0.500000  0.869378  0.686389  1
  B  B28  1  0.500000  0.981904  0.210821  1
  B  B29  1  0.500000  0.017231  0.788735  1
  B  B30  1  0.500000  0.485326  0.286325  1
  B  B31  1  0.500000  0.518115  0.713515  1
  B  B32  1  0.500000  0.601410  0.027811  1
  B  B33  1  0.500000  0.399311  0.971429  1
  B  B34  1  0.500000  0.097212  0.472795  1
  B  B35  1  0.500000  0.898973  0.528443  1
