# generated using pymatgen
data_Tb7Dy3Si5Sn
_symmetry_space_group_name_H-M   'P 1'
_cell_length_a   8.55515600
_cell_length_b   8.58213349
_cell_length_c   6.42484200
_cell_angle_alpha   89.99784836
_cell_angle_beta   89.99994642
_cell_angle_gamma   119.89309691
_symmetry_Int_Tables_number   1
_chemical_formula_structural   Tb7Dy3Si5Sn
_chemical_formula_sum   'Tb7 Dy3 Si5 Sn1'
_cell_volume   408.96214320
_cell_formula_units_Z   1
loop_
 _symmetry_equiv_pos_site_id
 _symmetry_equiv_pos_as_xyz
  1  'x, y, z'
loop_
 _atom_site_type_symbol
 _atom_site_label
 _atom_site_symmetry_multiplicity
 _atom_site_fract_x
 _atom_site_fract_y
 _atom_site_fract_z
 _atom_site_occupancy
  Tb  Tb0  1  0.989421  0.748636  0.749971  1
  Tb  Tb1  1  0.998972  0.242989  0.250024  1
  Tb  Tb2  1  0.755956  0.757039  0.250029  1
  Tb  Tb3  1  0.764692  0.999976  0.749976  1
  Tb  Tb4  1  0.240756  0.251392  0.749981  1
  Tb  Tb5  1  0.241544  0.999976  0.250025  1
  Tb  Tb6  1  0.673367  0.341779  0.003198  1
  Dy  Dy7  1  0.331590  0.658221  0.496821  1
  Dy  Dy8  1  0.331586  0.658218  0.003179  1
  Dy  Dy9  1  0.673372  0.341786  0.496808  1
  Si  Si10  1  0.393565  0.392395  0.250067  1
  Si  Si11  1  0.001346  0.607688  0.250080  1
  Si  Si12  1  0.998828  0.394361  0.749926  1
  Si  Si13  1  0.604375  0.605714  0.749928  1
  Si  Si14  1  0.605693  0.999924  0.250059  1
  Sn  Sn15  1  0.394935  0.999906  0.749930  1
