# generated using pymatgen
data_Gd3HoC2Cl3
_symmetry_space_group_name_H-M   'P 1'
_cell_length_a   3.66002300
_cell_length_b   10.54109900
_cell_length_c   19.68314000
_cell_angle_alpha   90.00000000
_cell_angle_beta   90.00000000
_cell_angle_gamma   90.00000000
_symmetry_Int_Tables_number   1
_chemical_formula_structural   Gd3HoC2Cl3
_chemical_formula_sum   'Gd12 Ho4 C8 Cl12'
_cell_volume   759.38862626
_cell_formula_units_Z   4
loop_
 _symmetry_equiv_pos_site_id
 _symmetry_equiv_pos_as_xyz
  1  'x, y, z'
loop_
 _atom_site_type_symbol
 _atom_site_label
 _atom_site_symmetry_multiplicity
 _atom_site_fract_x
 _atom_site_fract_y
 _atom_site_fract_z
 _atom_site_occupancy
  Gd  Gd0  1  0.250000  0.139924  0.571814  1
  Gd  Gd1  1  0.250000  0.639924  0.928186  1
  Gd  Gd2  1  0.750000  0.860076  0.428186  1
  Gd  Gd3  1  0.750000  0.360076  0.071814  1
  Gd  Gd4  1  0.250000  0.638312  0.754945  1
  Gd  Gd5  1  0.250000  0.138312  0.745055  1
  Gd  Gd6  1  0.750000  0.361688  0.245055  1
  Gd  Gd7  1  0.750000  0.861688  0.254945  1
  Gd  Gd8  1  0.250000  0.100882  0.332699  1
  Gd  Gd9  1  0.250000  0.600882  0.167301  1
  Gd  Gd10  1  0.750000  0.899118  0.667301  1
  Gd  Gd11  1  0.750000  0.399118  0.832699  1
  Ho  Ho12  1  0.250000  0.124360  0.163957  1
  Ho  Ho13  1  0.250000  0.624360  0.336043  1
  Ho  Ho14  1  0.750000  0.875640  0.836043  1
  Ho  Ho15  1  0.750000  0.375640  0.663957  1
  C  C16  1  0.250000  0.862106  0.348278  1
  C  C17  1  0.250000  0.362106  0.151722  1
  C  C18  1  0.750000  0.137894  0.651722  1
  C  C19  1  0.750000  0.637894  0.848278  1
  C  C20  1  0.250000  0.388128  0.748856  1
  C  C21  1  0.250000  0.888128  0.751144  1
  C  C22  1  0.750000  0.611872  0.251144  1
  C  C23  1  0.750000  0.111872  0.248856  1
  Cl  Cl24  1  0.250000  0.375289  0.951908  1
  Cl  Cl25  1  0.250000  0.875289  0.548092  1
  Cl  Cl26  1  0.750000  0.624711  0.048092  1
  Cl  Cl27  1  0.750000  0.124711  0.451908  1
  Cl  Cl28  1  0.250000  0.891529  0.944085  1
  Cl  Cl29  1  0.250000  0.391529  0.555915  1
  Cl  Cl30  1  0.750000  0.108471  0.055915  1
  Cl  Cl31  1  0.750000  0.608471  0.444085  1
  Cl  Cl32  1  0.250000  0.363332  0.356335  1
  Cl  Cl33  1  0.250000  0.863332  0.143665  1
  Cl  Cl34  1  0.750000  0.636668  0.643665  1
  Cl  Cl35  1  0.750000  0.136668  0.856335  1
