# generated using pymatgen
data_LuZr3(Al3Ir)6
_symmetry_space_group_name_H-M   'P 1'
_cell_length_a   7.48747203
_cell_length_b   7.48123752
_cell_length_c   9.30595700
_cell_angle_alpha   90.00000000
_cell_angle_beta   90.00000000
_cell_angle_gamma   119.81166402
_symmetry_Int_Tables_number   1
_chemical_formula_structural   LuZr3(Al3Ir)6
_chemical_formula_sum   'Lu1 Zr3 Al18 Ir6'
_cell_volume   452.29460583
_cell_formula_units_Z   1
loop_
 _symmetry_equiv_pos_site_id
 _symmetry_equiv_pos_as_xyz
  1  'x, y, z'
loop_
 _atom_site_type_symbol
 _atom_site_label
 _atom_site_symmetry_multiplicity
 _atom_site_fract_x
 _atom_site_fract_y
 _atom_site_fract_z
 _atom_site_occupancy
  Lu  Lu0  1  0.329242  0.005372  0.750000  1
  Zr  Zr1  1  0.994825  0.671516  0.250000  1
  Zr  Zr2  1  0.005588  0.329709  0.750000  1
  Zr  Zr3  1  0.670895  0.994478  0.250000  1
  Al  Al4  1  0.123289  0.124177  0.250000  1
  Al  Al5  1  0.873089  0.875653  0.750000  1
  Al  Al6  1  0.997974  0.334405  0.076361  1
  Al  Al7  1  0.000323  0.663597  0.924734  1
  Al  Al8  1  0.000323  0.663597  0.575266  1
  Al  Al9  1  0.334697  0.998592  0.421296  1
  Al  Al10  1  0.997974  0.334405  0.423639  1
  Al  Al11  1  0.667304  0.001868  0.575360  1
  Al  Al12  1  0.667304  0.001868  0.924640  1
  Al  Al13  1  0.334697  0.998592  0.078704  1
  Al  Al14  1  0.331558  0.333214  0.557613  1
  Al  Al15  1  0.668015  0.667907  0.440497  1
  Al  Al16  1  0.668015  0.667907  0.059503  1
  Al  Al17  1  0.331558  0.333214  0.942387  1
  Al  Al18  1  0.338240  0.551971  0.250000  1
  Al  Al19  1  0.665102  0.451436  0.750000  1
  Al  Al20  1  0.552871  0.339062  0.250000  1
  Al  Al21  1  0.447429  0.658042  0.750000  1
  Ir  Ir22  1  0.672039  0.327411  0.000675  1
  Ir  Ir23  1  0.328106  0.673353  0.001034  1
  Ir  Ir24  1  0.328106  0.673353  0.498966  1
  Ir  Ir25  1  0.672039  0.327411  0.499325  1
  Ir  Ir26  1  0.999698  0.998944  0.000824  1
  Ir  Ir27  1  0.999698  0.998944  0.499176  1
