# generated using pymatgen
data_Dy8Ga3Os
_symmetry_space_group_name_H-M   'P 1'
_cell_length_a   10.03843900
_cell_length_b   10.03855451
_cell_length_c   7.07526900
_cell_angle_alpha   90.00000000
_cell_angle_beta   90.00000000
_cell_angle_gamma   119.99993406
_symmetry_Int_Tables_number   1
_chemical_formula_structural   Dy8Ga3Os
_chemical_formula_sum   'Dy16 Ga6 Os2'
_cell_volume   617.46343191
_cell_formula_units_Z   2
loop_
 _symmetry_equiv_pos_site_id
 _symmetry_equiv_pos_as_xyz
  1  'x, y, z'
loop_
 _atom_site_type_symbol
 _atom_site_label
 _atom_site_symmetry_multiplicity
 _atom_site_fract_x
 _atom_site_fract_y
 _atom_site_fract_z
 _atom_site_occupancy
  Dy  Dy0  1  0.171267  0.828735  0.510929  1
  Dy  Dy1  1  0.657468  0.828733  0.510921  1
  Dy  Dy2  1  0.171265  0.342528  0.510929  1
  Dy  Dy3  1  0.828733  0.171265  0.010929  1
  Dy  Dy4  1  0.342532  0.171267  0.010921  1
  Dy  Dy5  1  0.828735  0.657472  0.010929  1
  Dy  Dy6  1  0.333333  0.666665  0.838436  1
  Dy  Dy7  1  0.666667  0.333335  0.338436  1
  Dy  Dy8  1  0.464736  0.535254  0.204845  1
  Dy  Dy9  1  0.070523  0.535258  0.204851  1
  Dy  Dy10  1  0.464744  0.929492  0.204845  1
  Dy  Dy11  1  0.535264  0.464746  0.704845  1
  Dy  Dy12  1  0.929477  0.464742  0.704851  1
  Dy  Dy13  1  0.535256  0.070508  0.704845  1
  Dy  Dy14  1  0.000006  0.000006  0.234478  1
  Dy  Dy15  1  0.999994  0.999994  0.734478  1
  Ga  Ga16  1  0.163836  0.836167  0.957064  1
  Ga  Ga17  1  0.672331  0.836168  0.957069  1
  Ga  Ga18  1  0.163834  0.327669  0.957065  1
  Ga  Ga19  1  0.836164  0.163833  0.457064  1
  Ga  Ga20  1  0.327669  0.163832  0.457069  1
  Ga  Ga21  1  0.836166  0.672331  0.457065  1
  Os  Os22  1  0.333342  0.666675  0.445988  1
  Os  Os23  1  0.666658  0.333325  0.945988  1
