# generated using pymatgen
data_V6Si6Tc7Os5
_symmetry_space_group_name_H-M   'P 1'
_cell_length_a   4.25074700
_cell_length_b   5.97628561
_cell_length_c   12.64598729
_cell_angle_alpha   90.05164704
_cell_angle_beta   90.00032929
_cell_angle_gamma   90.00039386
_symmetry_Int_Tables_number   1
_chemical_formula_structural   V6Si6Tc7Os5
_chemical_formula_sum   'V6 Si6 Tc7 Os5'
_cell_volume   321.25445990
_cell_formula_units_Z   1
loop_
 _symmetry_equiv_pos_site_id
 _symmetry_equiv_pos_as_xyz
  1  'x, y, z'
loop_
 _atom_site_type_symbol
 _atom_site_label
 _atom_site_symmetry_multiplicity
 _atom_site_fract_x
 _atom_site_fract_y
 _atom_site_fract_z
 _atom_site_occupancy
  V  V0  1  0.000006  0.499951  0.004452  1
  V  V1  1  0.499847  0.999443  0.166900  1
  V  V2  1  0.999857  0.498783  0.331077  1
  V  V3  1  0.499998  0.005112  0.494242  1
  V  V4  1  0.000131  0.495009  0.662972  1
  V  V5  1  0.500125  0.000372  0.840226  1
  Si  Si6  1  0.000018  0.998902  0.999857  1
  Si  Si7  1  0.499877  0.501372  0.166820  1
  Si  Si8  1  0.999884  0.999612  0.333193  1
  Si  Si9  1  0.500001  0.501184  0.500630  1
  Si  Si10  1  0.000124  0.998318  0.666901  1
  Si  Si11  1  0.500122  0.501148  0.832632  1
  Tc  Tc12  1  0.500003  0.249852  0.997670  1
  Tc  Tc13  1  0.499999  0.748400  0.997290  1
  Tc  Tc14  1  0.999899  0.251225  0.166136  1
  Tc  Tc15  1  0.999887  0.751299  0.166307  1
  Tc  Tc16  1  0.499908  0.249390  0.334816  1
  Tc  Tc17  1  0.499900  0.748923  0.335413  1
  Tc  Tc18  1  0.999998  0.251228  0.502683  1
  Os  Os19  1  0.999996  0.752069  0.502416  1
  Os  Os20  1  0.500104  0.248749  0.668281  1
  Os  Os21  1  0.500107  0.749457  0.667068  1
  Os  Os22  1  0.000110  0.250414  0.831527  1
  Os  Os23  1  0.000103  0.749792  0.830491  1
