# generated using pymatgen
data_Li4MgUS6
_symmetry_space_group_name_H-M   'P 1'
_cell_length_a   6.42954821
_cell_length_b   6.42954815
_cell_length_c   6.46125100
_cell_angle_alpha   99.62101099
_cell_angle_beta   99.62101412
_cell_angle_gamma   119.94697984
_symmetry_Int_Tables_number   1
_chemical_formula_structural   Li4MgUS6
_chemical_formula_sum   'Li4 Mg1 U1 S6'
_cell_volume   218.15044310
_cell_formula_units_Z   1
loop_
 _symmetry_equiv_pos_site_id
 _symmetry_equiv_pos_as_xyz
  1  'x, y, z'
loop_
 _atom_site_type_symbol
 _atom_site_label
 _atom_site_symmetry_multiplicity
 _atom_site_fract_x
 _atom_site_fract_y
 _atom_site_fract_z
 _atom_site_occupancy
  Li  Li0  1  0.499627  0.500371  0.000000  1
  Li  Li1  1  0.003899  0.996101  0.499998  1
  Li  Li2  1  0.665359  0.334639  0.500000  1
  Li  Li3  1  0.330820  0.669178  0.500000  1
  Mg  Mg4  1  0.833929  0.166069  0.000000  1
  U  U5  1  0.166657  0.833340  0.000000  1
  S  S6  1  0.924142  0.585503  0.240491  1
  S  S7  1  0.241956  0.236603  0.245843  1
  S  S8  1  0.575425  0.919712  0.244737  1
  S  S9  1  0.080290  0.424577  0.755265  1
  S  S10  1  0.763400  0.758046  0.754159  1
  S  S11  1  0.414498  0.075860  0.759510  1
