# generated using pymatgen
data_Tb8Y2(SnBi)3
_symmetry_space_group_name_H-M   'P 1'
_cell_length_a   9.09400075
_cell_length_b   9.13010183
_cell_length_c   6.49662300
_cell_angle_alpha   90.00000000
_cell_angle_beta   90.00000000
_cell_angle_gamma   119.88346945
_symmetry_Int_Tables_number   1
_chemical_formula_structural   Tb8Y2(SnBi)3
_chemical_formula_sum   'Tb8 Y2 Sn3 Bi3'
_cell_volume   467.68955708
_cell_formula_units_Z   1
loop_
 _symmetry_equiv_pos_site_id
 _symmetry_equiv_pos_as_xyz
  1  'x, y, z'
loop_
 _atom_site_type_symbol
 _atom_site_label
 _atom_site_symmetry_multiplicity
 _atom_site_fract_x
 _atom_site_fract_y
 _atom_site_fract_z
 _atom_site_occupancy
  Tb  Tb0  1  0.759307  0.753592  0.250000  1
  Tb  Tb1  1  0.765039  0.005777  0.750000  1
  Tb  Tb2  1  0.325768  0.659433  0.498603  1
  Tb  Tb3  1  0.671738  0.337831  0.498698  1
  Tb  Tb4  1  0.999989  0.755914  0.750000  1
  Tb  Tb5  1  0.325768  0.659433  0.001397  1
  Tb  Tb6  1  0.237751  0.243292  0.750000  1
  Tb  Tb7  1  0.671738  0.337831  0.001302  1
  Y  Y8  1  0.005279  0.245832  0.250000  1
  Y  Y9  1  0.236206  0.999714  0.250000  1
  Sn  Sn10  1  0.997675  0.392533  0.750000  1
  Sn  Sn11  1  0.392541  0.389780  0.250000  1
  Sn  Sn12  1  0.001422  0.608649  0.250000  1
  Bi  Bi13  1  0.608789  0.611275  0.750000  1
  Bi  Bi14  1  0.392056  0.000328  0.750000  1
  Bi  Bi15  1  0.608934  0.998787  0.250000  1
