# generated using pymatgen
data_LaNd3Zn4Pd3Ru
_symmetry_space_group_name_H-M   'P 1'
_cell_length_a   7.19135090
_cell_length_b   4.29188500
_cell_length_c   8.21581508
_cell_angle_alpha   90.00000000
_cell_angle_beta   90.25227403
_cell_angle_gamma   90.00000000
_symmetry_Int_Tables_number   1
_chemical_formula_structural   LaNd3Zn4Pd3Ru
_chemical_formula_sum   'La1 Nd3 Zn4 Pd3 Ru1'
_cell_volume   253.57416426
_cell_formula_units_Z   1
loop_
 _symmetry_equiv_pos_site_id
 _symmetry_equiv_pos_as_xyz
  1  'x, y, z'
loop_
 _atom_site_type_symbol
 _atom_site_label
 _atom_site_symmetry_multiplicity
 _atom_site_fract_x
 _atom_site_fract_y
 _atom_site_fract_z
 _atom_site_occupancy
  La  La0  1  0.460188  0.750000  0.794352  1
  Nd  Nd1  1  0.039938  0.250000  0.317882  1
  Nd  Nd2  1  0.532889  0.250000  0.193595  1
  Nd  Nd3  1  0.974981  0.750000  0.693184  1
  Zn  Zn4  1  0.649176  0.250000  0.563959  1
  Zn  Zn5  1  0.149503  0.250000  0.930980  1
  Zn  Zn6  1  0.346106  0.750000  0.428818  1
  Zn  Zn7  1  0.851192  0.750000  0.070890  1
  Pd  Pd8  1  0.769121  0.250000  0.891673  1
  Pd  Pd9  1  0.732842  0.750000  0.387722  1
  Pd  Pd10  1  0.229559  0.750000  0.111601  1
  Ru  Ru11  1  0.264505  0.250000  0.615345  1
