# generated using pymatgen
data_Al3Pd2Pt3
_symmetry_space_group_name_H-M   'P 1'
_cell_length_a   4.09164500
_cell_length_b   5.43616224
_cell_length_c   10.65770646
_cell_angle_alpha   88.55490091
_cell_angle_beta   90.00000000
_cell_angle_gamma   90.00000000
_symmetry_Int_Tables_number   1
_chemical_formula_structural   Al3Pd2Pt3
_chemical_formula_sum   'Al6 Pd4 Pt6'
_cell_volume   236.98232760
_cell_formula_units_Z   2
loop_
 _symmetry_equiv_pos_site_id
 _symmetry_equiv_pos_as_xyz
  1  'x, y, z'
loop_
 _atom_site_type_symbol
 _atom_site_label
 _atom_site_symmetry_multiplicity
 _atom_site_fract_x
 _atom_site_fract_y
 _atom_site_fract_z
 _atom_site_occupancy
  Al  Al0  1  0.000000  0.000000  0.000000  1
  Al  Al1  1  0.000000  0.500000  0.500000  1
  Al  Al2  1  0.500000  0.161268  0.357674  1
  Al  Al3  1  0.500000  0.838732  0.642326  1
  Al  Al4  1  0.500000  0.664411  0.142131  1
  Al  Al5  1  0.500000  0.335589  0.857869  1
  Pd  Pd6  1  0.000000  0.000000  0.500000  1
  Pd  Pd7  1  0.000000  0.500000  0.000000  1
  Pd  Pd8  1  0.000000  0.404365  0.268409  1
  Pd  Pd9  1  0.000000  0.595635  0.731591  1
  Pt  Pt10  1  0.500000  0.191813  0.106002  1
  Pt  Pt11  1  0.500000  0.808187  0.893998  1
  Pt  Pt12  1  0.500000  0.687250  0.394681  1
  Pt  Pt13  1  0.500000  0.312750  0.605319  1
  Pt  Pt14  1  0.000000  0.905500  0.232639  1
  Pt  Pt15  1  0.000000  0.094500  0.767361  1
