# generated using pymatgen
data_Ta4Al3VB
_symmetry_space_group_name_H-M   'P 1'
_cell_length_a   7.79649300
_cell_length_b   7.79649275
_cell_length_c   5.23250400
_cell_angle_alpha   90.00000000
_cell_angle_beta   90.00000000
_cell_angle_gamma   119.99999681
_symmetry_Int_Tables_number   1
_chemical_formula_structural   Ta4Al3VB
_chemical_formula_sum   'Ta8 Al6 V2 B2'
_cell_volume   275.44746981
_cell_formula_units_Z   2
loop_
 _symmetry_equiv_pos_site_id
 _symmetry_equiv_pos_as_xyz
  1  'x, y, z'
loop_
 _atom_site_type_symbol
 _atom_site_label
 _atom_site_symmetry_multiplicity
 _atom_site_fract_x
 _atom_site_fract_y
 _atom_site_fract_z
 _atom_site_occupancy
  Ta  Ta0  1  0.241976  0.000000  0.255909  1
  Ta  Ta1  1  0.758024  0.000000  0.744091  1
  Ta  Ta2  1  0.000000  0.241976  0.255909  1
  Ta  Ta3  1  0.000000  0.758024  0.744091  1
  Ta  Ta4  1  0.758024  0.758024  0.255909  1
  Ta  Ta5  1  0.241976  0.241976  0.744091  1
  Ta  Ta6  1  0.666667  0.333333  0.500000  1
  Ta  Ta7  1  0.333333  0.666667  0.500000  1
  Al  Al8  1  0.593939  0.000000  0.233173  1
  Al  Al9  1  0.406061  0.000000  0.766827  1
  Al  Al10  1  0.000000  0.593939  0.233173  1
  Al  Al11  1  0.000000  0.406061  0.766827  1
  Al  Al12  1  0.406061  0.406061  0.233173  1
  Al  Al13  1  0.593939  0.593939  0.766827  1
  V  V14  1  0.333333  0.666667  0.000000  1
  V  V15  1  0.666667  0.333333  0.000000  1
  B  B16  1  0.000000  0.000000  0.000000  1
  B  B17  1  0.000000  0.000000  0.500000  1
