# generated using pymatgen
data_Tb2Dy3MoRhO12
_symmetry_space_group_name_H-M   'P 1'
_cell_length_a   6.86291306
_cell_length_b   6.86291312
_cell_length_c   7.49311835
_cell_angle_alpha   73.97403294
_cell_angle_beta   73.97403501
_cell_angle_gamma   49.86870193
_symmetry_Int_Tables_number   1
_chemical_formula_structural   Tb2Dy3MoRhO12
_chemical_formula_sum   'Tb2 Dy3 Mo1 Rh1 O12'
_cell_volume   257.02440725
_cell_formula_units_Z   1
loop_
 _symmetry_equiv_pos_site_id
 _symmetry_equiv_pos_as_xyz
  1  'x, y, z'
loop_
 _atom_site_type_symbol
 _atom_site_label
 _atom_site_symmetry_multiplicity
 _atom_site_fract_x
 _atom_site_fract_y
 _atom_site_fract_z
 _atom_site_occupancy
  Tb  Tb0  1  0.318006  0.287492  0.358258  1
  Tb  Tb1  1  0.712508  0.681994  0.641742  1
  Dy  Dy2  1  0.318264  0.305406  0.828081  1
  Dy  Dy3  1  0.694594  0.681736  0.171919  1
  Dy  Dy4  1  0.007982  0.992018  0.500000  1
  Mo  Mo5  1  0.203874  0.796126  0.000000  1
  Rh  Rh6  1  0.754595  0.245405  0.000000  1
  O  O7  1  0.911865  0.435845  0.915053  1
  O  O8  1  0.412404  0.904814  0.916406  1
  O  O9  1  0.095186  0.587596  0.083594  1
  O  O10  1  0.564155  0.088135  0.084947  1
  O  O11  1  0.109056  0.591550  0.570131  1
  O  O12  1  0.601150  0.087677  0.577874  1
  O  O13  1  0.912323  0.398850  0.422126  1
  O  O14  1  0.408450  0.890944  0.429869  1
  O  O15  1  0.998516  0.998741  0.801178  1
  O  O16  1  0.001259  0.001484  0.198822  1
  O  O17  1  0.487764  0.511950  0.822248  1
  O  O18  1  0.488050  0.512236  0.177752  1
