# generated using pymatgen
data_Ga2Ni11Se4
_symmetry_space_group_name_H-M   'P 1'
_cell_length_a   3.61798900
_cell_length_b   3.61798900
_cell_length_c   18.42778600
_cell_angle_alpha   90.00000000
_cell_angle_beta   90.00000000
_cell_angle_gamma   90.00000000
_symmetry_Int_Tables_number   1
_chemical_formula_structural   Ga2Ni11Se4
_chemical_formula_sum   'Ga2 Ni11 Se4'
_cell_volume   241.21685145
_cell_formula_units_Z   1
loop_
 _symmetry_equiv_pos_site_id
 _symmetry_equiv_pos_as_xyz
  1  'x, y, z'
loop_
 _atom_site_type_symbol
 _atom_site_label
 _atom_site_symmetry_multiplicity
 _atom_site_fract_x
 _atom_site_fract_y
 _atom_site_fract_z
 _atom_site_occupancy
  Ga  Ga0  1  0.000000  0.000000  0.000262  1
  Ga  Ga1  1  0.500000  0.500000  0.500856  1
  Ni  Ni2  1  0.000000  0.500000  0.404887  1
  Ni  Ni3  1  0.500000  0.000000  0.903462  1
  Ni  Ni4  1  0.500000  0.000000  0.404887  1
  Ni  Ni5  1  0.000000  0.500000  0.903462  1
  Ni  Ni6  1  0.500000  0.000000  0.096776  1
  Ni  Ni7  1  0.000000  0.500000  0.597647  1
  Ni  Ni8  1  0.000000  0.500000  0.096776  1
  Ni  Ni9  1  0.500000  0.000000  0.597647  1
  Ni  Ni10  1  0.000000  0.000000  0.501553  1
  Ni  Ni11  1  0.500000  0.500000  0.000144  1
  Ni  Ni12  1  0.500000  0.500000  0.299928  1
  Se  Se13  1  0.000000  0.000000  0.317079  1
  Se  Se14  1  0.500000  0.500000  0.823995  1
  Se  Se15  1  0.500000  0.500000  0.175775  1
  Se  Se16  1  0.000000  0.000000  0.676362  1
