# generated using pymatgen
data_TaTiMnB2
_symmetry_space_group_name_H-M   'P 1'
_cell_length_a   5.82144300
_cell_length_b   5.81778400
_cell_length_c   3.20227100
_cell_angle_alpha   90.00000000
_cell_angle_beta   90.00000000
_cell_angle_gamma   90.00000000
_symmetry_Int_Tables_number   1
_chemical_formula_structural   TaTiMnB2
_chemical_formula_sum   'Ta2 Ti2 Mn2 B4'
_cell_volume   108.45418741
_cell_formula_units_Z   2
loop_
 _symmetry_equiv_pos_site_id
 _symmetry_equiv_pos_as_xyz
  1  'x, y, z'
loop_
 _atom_site_type_symbol
 _atom_site_label
 _atom_site_symmetry_multiplicity
 _atom_site_fract_x
 _atom_site_fract_y
 _atom_site_fract_z
 _atom_site_occupancy
  Ta  Ta0  1  0.819271  0.678806  0.500000  1
  Ta  Ta1  1  0.319271  0.821194  0.500000  1
  Ti  Ti2  1  0.180396  0.318134  0.500000  1
  Ti  Ti3  1  0.680396  0.181866  0.500000  1
  Mn  Mn4  1  0.498813  0.495955  0.000000  1
  Mn  Mn5  1  0.998813  0.004045  0.000000  1
  B  B6  1  0.112088  0.606575  0.000000  1
  B  B7  1  0.612088  0.893425  0.000000  1
  B  B8  1  0.389431  0.115329  0.000000  1
  B  B9  1  0.889431  0.384671  0.000000  1
