# generated using pymatgen
data_Ca3TlRuRh3O14
_symmetry_space_group_name_H-M   'P 1'
_cell_length_a   7.31742415
_cell_length_b   7.20529261
_cell_length_c   7.35168886
_cell_angle_alpha   59.73195431
_cell_angle_beta   60.15406640
_cell_angle_gamma   59.48386897
_symmetry_Int_Tables_number   1
_chemical_formula_structural   Ca3TlRuRh3O14
_chemical_formula_sum   'Ca3 Tl1 Ru1 Rh3 O14'
_cell_volume   272.75677139
_cell_formula_units_Z   1
loop_
 _symmetry_equiv_pos_site_id
 _symmetry_equiv_pos_as_xyz
  1  'x, y, z'
loop_
 _atom_site_type_symbol
 _atom_site_label
 _atom_site_symmetry_multiplicity
 _atom_site_fract_x
 _atom_site_fract_y
 _atom_site_fract_z
 _atom_site_occupancy
  Ca  Ca0  1  0.625000  0.625000  0.125000  1
  Ca  Ca1  1  0.125000  0.625000  0.625000  1
  Ca  Ca2  1  0.625000  0.625000  0.625000  1
  Tl  Tl3  1  0.625000  0.125000  0.625000  1
  Ru  Ru4  1  0.125000  0.125000  0.625000  1
  Rh  Rh5  1  0.625000  0.125000  0.125000  1
  Rh  Rh6  1  0.125000  0.625000  0.125000  1
  Rh  Rh7  1  0.125000  0.125000  0.125000  1
  O  O8  1  0.193056  0.195060  0.802276  1
  O  O9  1  0.200410  0.794698  0.208785  1
  O  O10  1  0.450902  0.054077  0.044121  1
  O  O11  1  0.198905  0.803655  0.798535  1
  O  O12  1  0.051095  0.446345  0.451465  1
  O  O13  1  0.796106  0.794698  0.208785  1
  O  O14  1  0.453894  0.455302  0.041215  1
  O  O15  1  0.507314  0.476210  0.509161  1
  O  O16  1  0.056944  0.054940  0.447724  1
  O  O17  1  0.440393  0.054940  0.447724  1
  O  O18  1  0.049590  0.455302  0.041215  1
  O  O19  1  0.742686  0.773790  0.740839  1
  O  O20  1  0.809607  0.195060  0.802276  1
  O  O21  1  0.799098  0.195923  0.205879  1
