# generated using pymatgen
data_Nb3GaOsN
_symmetry_space_group_name_H-M   'P 1'
_cell_length_a   7.03938300
_cell_length_b   7.03938300
_cell_length_c   7.03938300
_cell_angle_alpha   90.00000000
_cell_angle_beta   90.00000000
_cell_angle_gamma   90.00000000
_symmetry_Int_Tables_number   1
_chemical_formula_structural   Nb3GaOsN
_chemical_formula_sum   'Nb12 Ga4 Os4 N4'
_cell_volume   348.82193352
_cell_formula_units_Z   4
loop_
 _symmetry_equiv_pos_site_id
 _symmetry_equiv_pos_as_xyz
  1  'x, y, z'
loop_
 _atom_site_type_symbol
 _atom_site_label
 _atom_site_symmetry_multiplicity
 _atom_site_fract_x
 _atom_site_fract_y
 _atom_site_fract_z
 _atom_site_occupancy
  Nb  Nb0  1  0.801038  0.957566  0.371379  1
  Nb  Nb1  1  0.698962  0.042434  0.871379  1
  Nb  Nb2  1  0.198962  0.457566  0.128621  1
  Nb  Nb3  1  0.301038  0.542434  0.628621  1
  Nb  Nb4  1  0.957566  0.371379  0.801038  1
  Nb  Nb5  1  0.042434  0.871379  0.698962  1
  Nb  Nb6  1  0.457566  0.128621  0.198962  1
  Nb  Nb7  1  0.542434  0.628621  0.301038  1
  Nb  Nb8  1  0.371379  0.801038  0.957566  1
  Nb  Nb9  1  0.871379  0.698962  0.042434  1
  Nb  Nb10  1  0.128621  0.198962  0.457566  1
  Nb  Nb11  1  0.628621  0.301038  0.542434  1
  Ga  Ga12  1  0.567257  0.432743  0.932743  1
  Ga  Ga13  1  0.432743  0.932743  0.567257  1
  Ga  Ga14  1  0.932743  0.567257  0.432743  1
  Ga  Ga15  1  0.067257  0.067257  0.067257  1
  Os  Os16  1  0.175907  0.824093  0.324093  1
  Os  Os17  1  0.324093  0.175907  0.824093  1
  Os  Os18  1  0.824093  0.324093  0.175907  1
  Os  Os19  1  0.675907  0.675907  0.675907  1
  N  N20  1  0.874636  0.125364  0.625364  1
  N  N21  1  0.625364  0.874636  0.125364  1
  N  N22  1  0.125364  0.625364  0.874636  1
  N  N23  1  0.374636  0.374636  0.374636  1
