# generated using pymatgen
data_Ho6Sc4(SnBi)3
_symmetry_space_group_name_H-M   'P 1'
_cell_length_a   8.87586600
_cell_length_b   8.87230217
_cell_length_c   6.21680000
_cell_angle_alpha   90.00000000
_cell_angle_beta   90.00000000
_cell_angle_gamma   120.01328839
_symmetry_Int_Tables_number   1
_chemical_formula_structural   Ho6Sc4(SnBi)3
_chemical_formula_sum   'Ho6 Sc4 Sn3 Bi3'
_cell_volume   423.92245364
_cell_formula_units_Z   1
loop_
 _symmetry_equiv_pos_site_id
 _symmetry_equiv_pos_as_xyz
  1  'x, y, z'
loop_
 _atom_site_type_symbol
 _atom_site_label
 _atom_site_symmetry_multiplicity
 _atom_site_fract_x
 _atom_site_fract_y
 _atom_site_fract_z
 _atom_site_occupancy
  Ho  Ho0  1  0.995878  0.757268  0.750000  1
  Ho  Ho1  1  0.995904  0.236424  0.250000  1
  Ho  Ho2  1  0.759480  0.763576  0.250000  1
  Ho  Ho3  1  0.762275  0.000000  0.750000  1
  Ho  Ho4  1  0.238610  0.242732  0.750000  1
  Ho  Ho5  1  0.241416  0.000000  0.250000  1
  Sc  Sc6  1  0.334700  0.666555  0.501899  1
  Sc  Sc7  1  0.668146  0.333445  0.998101  1
  Sc  Sc8  1  0.668146  0.333445  0.501899  1
  Sc  Sc9  1  0.334700  0.666555  0.998101  1
  Sn  Sn10  1  0.000515  0.398635  0.750000  1
  Sn  Sn11  1  0.601880  0.601365  0.750000  1
  Sn  Sn12  1  0.601124  0.000000  0.250000  1
  Bi  Bi13  1  0.397972  0.000000  0.750000  1
  Bi  Bi14  1  0.398825  0.398395  0.250000  1
  Bi  Bi15  1  0.000430  0.601605  0.250000  1
