# generated using pymatgen
data_Na(AcSn)4
_symmetry_space_group_name_H-M   'P 1'
_cell_length_a   8.37326100
_cell_length_b   8.98515500
_cell_length_c   17.02495600
_cell_angle_alpha   90.00000000
_cell_angle_beta   90.00000000
_cell_angle_gamma   90.00000000
_symmetry_Int_Tables_number   1
_chemical_formula_structural   Na(AcSn)4
_chemical_formula_sum   'Na4 Ac16 Sn16'
_cell_volume   1280.87338084
_cell_formula_units_Z   4
loop_
 _symmetry_equiv_pos_site_id
 _symmetry_equiv_pos_as_xyz
  1  'x, y, z'
loop_
 _atom_site_type_symbol
 _atom_site_label
 _atom_site_symmetry_multiplicity
 _atom_site_fract_x
 _atom_site_fract_y
 _atom_site_fract_z
 _atom_site_occupancy
  Na  Na0  1  0.836428  0.520300  0.750000  1
  Na  Na1  1  0.336428  0.979700  0.750000  1
  Na  Na2  1  0.163572  0.479700  0.250000  1
  Na  Na3  1  0.663572  0.020300  0.250000  1
  Ac  Ac4  1  0.666670  0.176199  0.627286  1
  Ac  Ac5  1  0.166670  0.323801  0.872714  1
  Ac  Ac6  1  0.333330  0.823801  0.127286  1
  Ac  Ac7  1  0.833330  0.676199  0.372714  1
  Ac  Ac8  1  0.333330  0.823801  0.372714  1
  Ac  Ac9  1  0.833330  0.676199  0.127286  1
  Ac  Ac10  1  0.666670  0.176199  0.872714  1
  Ac  Ac11  1  0.166670  0.323801  0.627286  1
  Ac  Ac12  1  0.512350  0.689494  0.599042  1
  Ac  Ac13  1  0.012350  0.810506  0.900958  1
  Ac  Ac14  1  0.487650  0.310506  0.099042  1
  Ac  Ac15  1  0.987650  0.189494  0.400958  1
  Ac  Ac16  1  0.487650  0.310506  0.400958  1
  Ac  Ac17  1  0.987650  0.189494  0.099042  1
  Ac  Ac18  1  0.512350  0.689494  0.900958  1
  Ac  Ac19  1  0.012350  0.810506  0.599042  1
  Sn  Sn20  1  0.668869  0.965756  0.464869  1
  Sn  Sn21  1  0.168869  0.534244  0.035131  1
  Sn  Sn22  1  0.331131  0.034244  0.964869  1
  Sn  Sn23  1  0.831131  0.465756  0.535131  1
  Sn  Sn24  1  0.331131  0.034244  0.535131  1
  Sn  Sn25  1  0.831131  0.465756  0.964869  1
  Sn  Sn26  1  0.668869  0.965756  0.035131  1
  Sn  Sn27  1  0.168869  0.534244  0.464869  1
  Sn  Sn28  1  0.475586  0.415649  0.750000  1
  Sn  Sn29  1  0.975586  0.084351  0.750000  1
  Sn  Sn30  1  0.524414  0.584351  0.250000  1
  Sn  Sn31  1  0.024414  0.915649  0.250000  1
  Sn  Sn32  1  0.713972  0.864640  0.750000  1
  Sn  Sn33  1  0.213972  0.635360  0.750000  1
  Sn  Sn34  1  0.286028  0.135360  0.250000  1
  Sn  Sn35  1  0.786028  0.364640  0.250000  1
