# generated using pymatgen
data_LaB(PtRh)2
_symmetry_space_group_name_H-M   'P 1'
_cell_length_a   5.50864400
_cell_length_b   5.50762936
_cell_length_c   7.55176300
_cell_angle_alpha   90.00000000
_cell_angle_beta   90.00000000
_cell_angle_gamma   120.00609430
_symmetry_Int_Tables_number   1
_chemical_formula_structural   LaB(PtRh)2
_chemical_formula_sum   'La2 B2 Pt4 Rh4'
_cell_volume   198.40916211
_cell_formula_units_Z   2
loop_
 _symmetry_equiv_pos_site_id
 _symmetry_equiv_pos_as_xyz
  1  'x, y, z'
loop_
 _atom_site_type_symbol
 _atom_site_label
 _atom_site_symmetry_multiplicity
 _atom_site_fract_x
 _atom_site_fract_y
 _atom_site_fract_z
 _atom_site_occupancy
  La  La0  1  0.000000  0.000000  0.500000  1
  La  La1  1  0.000000  0.000000  0.000000  1
  B  B2  1  0.335999  0.671999  0.000000  1
  B  B3  1  0.664001  0.328001  0.000000  1
  Pt  Pt4  1  0.317240  0.634482  0.500000  1
  Pt  Pt5  1  0.682760  0.365518  0.500000  1
  Pt  Pt6  1  0.500000  0.000000  0.209644  1
  Pt  Pt7  1  0.500000  0.000000  0.790356  1
  Rh  Rh8  1  0.000000  0.500000  0.192569  1
  Rh  Rh9  1  0.000000  0.500000  0.807431  1
  Rh  Rh10  1  0.500000  0.500000  0.192569  1
  Rh  Rh11  1  0.500000  0.500000  0.807431  1
