# generated using pymatgen
data_Y5Ge6P6Ir19
_symmetry_space_group_name_H-M   'P 1'
_cell_length_a   12.97524600
_cell_length_b   12.97524716
_cell_length_c   3.98667500
_cell_angle_alpha   90.00000000
_cell_angle_beta   90.00000000
_cell_angle_gamma   119.99999703
_symmetry_Int_Tables_number   1
_chemical_formula_structural   Y5Ge6P6Ir19
_chemical_formula_sum   'Y5 Ge6 P6 Ir19'
_cell_volume   581.26305120
_cell_formula_units_Z   1
loop_
 _symmetry_equiv_pos_site_id
 _symmetry_equiv_pos_as_xyz
  1  'x, y, z'
loop_
 _atom_site_type_symbol
 _atom_site_label
 _atom_site_symmetry_multiplicity
 _atom_site_fract_x
 _atom_site_fract_y
 _atom_site_fract_z
 _atom_site_occupancy
  Y  Y0  1  0.333333  0.666667  0.500000  1
  Y  Y1  1  0.666667  0.333333  0.500000  1
  Y  Y2  1  0.001496  0.818853  0.000000  1
  Y  Y3  1  0.181147  0.182643  0.000000  1
  Y  Y4  1  0.817357  0.998504  0.000000  1
  Ge  Ge5  1  0.998749  0.638909  0.500000  1
  Ge  Ge6  1  0.361091  0.359839  0.500000  1
  Ge  Ge7  1  0.640161  0.001251  0.500000  1
  Ge  Ge8  1  0.518767  0.678270  0.000000  1
  Ge  Ge9  1  0.321730  0.840495  0.000000  1
  Ge  Ge10  1  0.159505  0.481233  0.000000  1
  P  P11  1  0.483761  0.178323  0.000000  1
  P  P12  1  0.694560  0.516239  0.000000  1
  P  P13  1  0.821677  0.305440  0.000000  1
  P  P14  1  0.994923  0.175451  0.500000  1
  P  P15  1  0.824549  0.819472  0.500000  1
  P  P16  1  0.180528  0.005077  0.500000  1
  Ir  Ir17  1  0.520833  0.870363  0.000000  1
  Ir  Ir18  1  0.129637  0.650471  0.000000  1
  Ir  Ir19  1  0.349529  0.479167  0.000000  1
  Ir  Ir20  1  0.499923  0.368805  0.000000  1
  Ir  Ir21  1  0.868883  0.500077  0.000000  1
  Ir  Ir22  1  0.631195  0.131117  0.000000  1
  Ir  Ir23  1  0.007942  0.453805  0.500000  1
  Ir  Ir24  1  0.546195  0.554137  0.500000  1
  Ir  Ir25  1  0.445863  0.992058  0.500000  1
  Ir  Ir26  1  0.989658  0.270907  0.000000  1
  Ir  Ir27  1  0.729093  0.718751  0.000000  1
  Ir  Ir28  1  0.281249  0.010342  0.000000  1
  Ir  Ir29  1  0.638727  0.808810  0.500000  1
  Ir  Ir30  1  0.191190  0.829917  0.500000  1
  Ir  Ir31  1  0.170083  0.361273  0.500000  1
  Ir  Ir32  1  0.386281  0.179848  0.500000  1
  Ir  Ir33  1  0.793567  0.613719  0.500000  1
  Ir  Ir34  1  0.820152  0.206433  0.500000  1
  Ir  Ir35  1  0.000000  0.000000  0.500000  1
