# generated using pymatgen
data_YTm15MgAg3Rh4
_symmetry_space_group_name_H-M   'P 1'
_cell_length_a   9.44756790
_cell_length_b   9.46144629
_cell_length_c   9.45401600
_cell_angle_alpha   60.02540724
_cell_angle_beta   59.97714256
_cell_angle_gamma   59.92382478
_symmetry_Int_Tables_number   1
_chemical_formula_structural   YTm15MgAg3Rh4
_chemical_formula_sum   'Y1 Tm15 Mg1 Ag3 Rh4'
_cell_volume   597.22289106
_cell_formula_units_Z   1
loop_
 _symmetry_equiv_pos_site_id
 _symmetry_equiv_pos_as_xyz
  1  'x, y, z'
loop_
 _atom_site_type_symbol
 _atom_site_label
 _atom_site_symmetry_multiplicity
 _atom_site_fract_x
 _atom_site_fract_y
 _atom_site_fract_z
 _atom_site_occupancy
  Y  Y0  1  0.184342  0.184802  0.815427  1
  Tm  Tm1  1  0.601325  0.598794  0.598142  1
  Tm  Tm2  1  0.601324  0.598790  0.201741  1
  Tm  Tm3  1  0.601334  0.203473  0.597594  1
  Tm  Tm4  1  0.185844  0.605546  0.604311  1
  Tm  Tm5  1  0.060132  0.438578  0.438317  1
  Tm  Tm6  1  0.436020  0.063178  0.064592  1
  Tm  Tm7  1  0.436018  0.063180  0.436208  1
  Tm  Tm8  1  0.060145  0.438572  0.062974  1
  Tm  Tm9  1  0.435414  0.436144  0.064223  1
  Tm  Tm10  1  0.060335  0.061736  0.438965  1
  Tm  Tm11  1  0.184097  0.812935  0.814807  1
  Tm  Tm12  1  0.813967  0.185269  0.185652  1
  Tm  Tm13  1  0.813961  0.185269  0.815111  1
  Tm  Tm14  1  0.184095  0.812934  0.188162  1
  Tm  Tm15  1  0.814737  0.815899  0.184680  1
  Mg  Mg16  1  0.537239  0.820935  0.820909  1
  Ag  Ag17  1  0.833342  0.835150  0.834753  1
  Ag  Ag18  1  0.833340  0.835160  0.496745  1
  Ag  Ag19  1  0.831974  0.498220  0.834900  1
  Rh  Rh20  1  0.389505  0.396295  0.393312  1
  Rh  Rh21  1  0.389532  0.396295  0.820888  1
  Rh  Rh22  1  0.389939  0.819871  0.395094  1
  Rh  Rh23  1  0.822041  0.392977  0.392492  1
