# generated using pymatgen
data_Pr12FeRuI17
_symmetry_space_group_name_H-M   'P 1'
_cell_length_a   10.09280837
_cell_length_b   12.13695907
_cell_length_c   12.18598893
_cell_angle_alpha   93.56528318
_cell_angle_beta   104.62315951
_cell_angle_gamma   114.38297510
_symmetry_Int_Tables_number   1
_chemical_formula_structural   Pr12FeRuI17
_chemical_formula_sum   'Pr12 Fe1 Ru1 I17'
_cell_volume   1291.88626747
_cell_formula_units_Z   1
loop_
 _symmetry_equiv_pos_site_id
 _symmetry_equiv_pos_as_xyz
  1  'x, y, z'
loop_
 _atom_site_type_symbol
 _atom_site_label
 _atom_site_symmetry_multiplicity
 _atom_site_fract_x
 _atom_site_fract_y
 _atom_site_fract_z
 _atom_site_occupancy
  Pr  Pr0  1  0.053980  0.505657  0.320598  1
  Pr  Pr1  1  0.988290  0.812595  0.578596  1
  Pr  Pr2  1  0.648809  0.240879  0.282753  1
  Pr  Pr3  1  0.009558  0.190898  0.414048  1
  Pr  Pr4  1  0.225395  0.668484  0.992946  1
  Pr  Pr5  1  0.262572  0.990558  0.893510  1
  Pr  Pr6  1  0.353377  0.759972  0.716392  1
  Pr  Pr7  1  0.938598  0.485154  0.675639  1
  Pr  Pr8  1  0.743727  0.019035  0.110095  1
  Pr  Pr9  1  0.147747  0.287053  0.152347  1
  Pr  Pr10  1  0.778603  0.328730  0.014663  1
  Pr  Pr11  1  0.850324  0.711853  0.848386  1
  Fe  Fe12  1  0.896158  0.261757  0.214472  1
  Ru  Ru13  1  0.104216  0.738331  0.785554  1
  I  I14  1  0.784530  0.528466  0.418100  1
  I  I15  1  0.641775  0.418894  0.759692  1
  I  I16  1  0.842650  0.895286  0.324117  1
  I  I17  1  0.325222  0.212313  0.369194  1
  I  I18  1  0.156712  0.105147  0.675204  1
  I  I19  1  0.587972  0.052635  0.843884  1
  I  I20  1  0.755281  0.183429  0.537157  1
  I  I21  1  0.548778  0.708026  0.953278  1
  I  I22  1  0.358445  0.580864  0.241353  1
  I  I23  1  0.214381  0.471345  0.581911  1
  I  I24  1  0.055090  0.367325  0.897304  1
  I  I25  1  0.451424  0.292359  0.046719  1
  I  I26  1  0.999367  0.999342  0.999553  1
  I  I27  1  0.244419  0.815713  0.462402  1
  I  I28  1  0.412534  0.947602  0.156512  1
  I  I29  1  0.674821  0.787961  0.630634  1
  I  I30  1  0.945245  0.632339  0.102987  1
