# generated using pymatgen
data_K5Rb7(AsS3)4
_symmetry_space_group_name_H-M   'P 1'
_cell_length_a   9.36510015
_cell_length_b   9.36510056
_cell_length_c   9.36510100
_cell_angle_alpha   91.34131880
_cell_angle_beta   88.65868114
_cell_angle_gamma   91.34131825
_symmetry_Int_Tables_number   1
_chemical_formula_structural   K5Rb7(AsS3)4
_chemical_formula_sum   'K5 Rb7 As4 S12'
_cell_volume   820.70232917
_cell_formula_units_Z   1
loop_
 _symmetry_equiv_pos_site_id
 _symmetry_equiv_pos_as_xyz
  1  'x, y, z'
loop_
 _atom_site_type_symbol
 _atom_site_label
 _atom_site_symmetry_multiplicity
 _atom_site_fract_x
 _atom_site_fract_y
 _atom_site_fract_z
 _atom_site_occupancy
  K  K0  1  0.692345  0.807655  0.192345  1
  K  K1  1  0.817914  0.818349  0.809673  1
  K  K2  1  0.681651  0.190327  0.317914  1
  K  K3  1  0.309673  0.682086  0.181651  1
  K  K4  1  0.183780  0.316220  0.683780  1
  Rb  Rb5  1  0.573797  0.568676  0.569343  1
  Rb  Rb6  1  0.931324  0.430657  0.073797  1
  Rb  Rb7  1  0.069343  0.926203  0.431324  1
  Rb  Rb8  1  0.429111  0.070889  0.929111  1
  Rb  Rb9  1  0.305234  0.298396  0.298467  1
  Rb  Rb10  1  0.201604  0.701533  0.805234  1
  Rb  Rb11  1  0.798467  0.194766  0.701604  1
  As  As12  1  0.975877  0.524123  0.475877  1
  As  As13  1  0.470030  0.966568  0.522639  1
  As  As14  1  0.022639  0.029970  0.033432  1
  As  As15  1  0.533432  0.477361  0.970030  1
  S  S16  1  0.789362  0.089874  0.023453  1
  S  S17  1  0.704136  0.905087  0.511186  1
  S  S18  1  0.299251  0.406692  0.977449  1
  S  S19  1  0.093308  0.022551  0.799251  1
  S  S20  1  0.210613  0.591326  0.481308  1
  S  S21  1  0.477449  0.200749  0.593308  1
  S  S22  1  0.594913  0.488814  0.204136  1
  S  S23  1  0.908674  0.518692  0.710613  1
  S  S24  1  0.981308  0.289387  0.408674  1
  S  S25  1  0.410126  0.976547  0.289362  1
  S  S26  1  0.011186  0.795864  0.094913  1
  S  S27  1  0.523453  0.710638  0.910126  1
