# generated using pymatgen
data_Sr4PrPa5O18
_symmetry_space_group_name_H-M   'P 1'
_cell_length_a   7.00558243
_cell_length_b   7.85876562
_cell_length_c   8.83736538
_cell_angle_alpha   101.34436337
_cell_angle_beta   98.20017799
_cell_angle_gamma   107.04195328
_symmetry_Int_Tables_number   1
_chemical_formula_structural   Sr4PrPa5O18
_chemical_formula_sum   'Sr4 Pr1 Pa5 O18'
_cell_volume   445.55957563
_cell_formula_units_Z   1
loop_
 _symmetry_equiv_pos_site_id
 _symmetry_equiv_pos_as_xyz
  1  'x, y, z'
loop_
 _atom_site_type_symbol
 _atom_site_label
 _atom_site_symmetry_multiplicity
 _atom_site_fract_x
 _atom_site_fract_y
 _atom_site_fract_z
 _atom_site_occupancy
  Sr  Sr0  1  0.801220  0.105182  0.586086  1
  Sr  Sr1  1  0.596853  0.695912  0.196484  1
  Sr  Sr2  1  0.403147  0.304088  0.803516  1
  Sr  Sr3  1  0.198780  0.894818  0.413914  1
  Pr  Pr4  1  0.000000  0.500000  0.000000  1
  Pa  Pa5  1  0.000000  0.000000  0.000000  1
  Pa  Pa6  1  0.791661  0.577610  0.586426  1
  Pa  Pa7  1  0.628209  0.197933  0.195257  1
  Pa  Pa8  1  0.371791  0.802067  0.804743  1
  Pa  Pa9  1  0.208339  0.422390  0.413574  1
  O  O10  1  0.824065  0.786671  0.472505  1
  O  O11  1  0.992317  0.238573  0.176704  1
  O  O12  1  0.674476  0.401613  0.068346  1
  O  O13  1  0.454464  0.999034  0.684054  1
  O  O14  1  0.858774  0.348082  0.425309  1
  O  O15  1  0.499913  0.392821  0.347439  1
  O  O16  1  0.238421  0.602577  0.266887  1
  O  O17  1  0.975885  0.810908  0.141126  1
  O  O18  1  0.664045  0.941285  0.993903  1
  O  O19  1  0.335955  0.058715  0.006097  1
  O  O20  1  0.024115  0.189092  0.858874  1
  O  O21  1  0.761579  0.397423  0.733113  1
  O  O22  1  0.500087  0.607179  0.652561  1
  O  O23  1  0.141226  0.651918  0.574691  1
  O  O24  1  0.545536  0.000966  0.315946  1
  O  O25  1  0.325524  0.598387  0.931654  1
  O  O26  1  0.007683  0.761427  0.823296  1
  O  O27  1  0.175935  0.213329  0.527495  1
