# generated using pymatgen
data_Yb2Tm(BPt2)3
_symmetry_space_group_name_H-M   'P 1'
_cell_length_a   5.40839900
_cell_length_b   5.42729345
_cell_length_c   7.65924300
_cell_angle_alpha   90.00000000
_cell_angle_beta   90.00000000
_cell_angle_gamma   119.88489759
_symmetry_Int_Tables_number   1
_chemical_formula_structural   Yb2Tm(BPt2)3
_chemical_formula_sum   'Yb2 Tm1 B3 Pt6'
_cell_volume   194.92657680
_cell_formula_units_Z   1
loop_
 _symmetry_equiv_pos_site_id
 _symmetry_equiv_pos_as_xyz
  1  'x, y, z'
loop_
 _atom_site_type_symbol
 _atom_site_label
 _atom_site_symmetry_multiplicity
 _atom_site_fract_x
 _atom_site_fract_y
 _atom_site_fract_z
 _atom_site_occupancy
  Yb  Yb0  1  0.500000  0.500000  0.836010  1
  Yb  Yb1  1  0.000000  0.500000  0.163990  1
  Tm  Tm2  1  0.500000  0.000000  0.500000  1
  B  B3  1  0.500000  0.500000  0.331404  1
  B  B4  1  0.500000  0.000000  0.000000  1
  B  B5  1  0.000000  0.500000  0.668596  1
  Pt  Pt6  1  0.153693  0.858265  0.830257  1
  Pt  Pt7  1  0.149228  0.298454  0.500000  1
  Pt  Pt8  1  0.704573  0.858265  0.169743  1
  Pt  Pt9  1  0.846307  0.141735  0.830257  1
  Pt  Pt10  1  0.850772  0.701546  0.500000  1
  Pt  Pt11  1  0.295427  0.141735  0.169743  1
