# generated using pymatgen
data_Er6Al24Fe2Ru5Rh
_symmetry_space_group_name_H-M   'P 1'
_cell_length_a   8.74296425
_cell_length_b   8.74296390
_cell_length_c   9.50749424
_cell_angle_alpha   89.86854222
_cell_angle_beta   90.13145140
_cell_angle_gamma   119.89758101
_symmetry_Int_Tables_number   1
_chemical_formula_structural   Er6Al24Fe2Ru5Rh
_chemical_formula_sum   'Er6 Al24 Fe2 Ru5 Rh1'
_cell_volume   630.02799922
_cell_formula_units_Z   1
loop_
 _symmetry_equiv_pos_site_id
 _symmetry_equiv_pos_as_xyz
  1  'x, y, z'
loop_
 _atom_site_type_symbol
 _atom_site_label
 _atom_site_symmetry_multiplicity
 _atom_site_fract_x
 _atom_site_fract_y
 _atom_site_fract_z
 _atom_site_occupancy
  Er  Er0  1  0.191585  0.386805  0.250950  1
  Er  Er1  1  0.808415  0.613195  0.749050  1
  Er  Er2  1  0.613195  0.808415  0.250950  1
  Er  Er3  1  0.386805  0.191585  0.749050  1
  Er  Er4  1  0.193924  0.806076  0.250480  1
  Er  Er5  1  0.806076  0.193924  0.749520  1
  Al  Al6  1  0.332596  0.667404  0.018919  1
  Al  Al7  1  0.667404  0.332596  0.981081  1
  Al  Al8  1  0.666585  0.333415  0.518200  1
  Al  Al9  1  0.333415  0.666585  0.481800  1
  Al  Al10  1  0.159796  0.318989  0.576449  1
  Al  Al11  1  0.840204  0.681011  0.423551  1
  Al  Al12  1  0.681011  0.840204  0.576449  1
  Al  Al13  1  0.842148  0.681732  0.076570  1
  Al  Al14  1  0.318989  0.159796  0.423551  1
  Al  Al15  1  0.157852  0.318268  0.923430  1
  Al  Al16  1  0.159748  0.840252  0.575955  1
  Al  Al17  1  0.318268  0.157852  0.076570  1
  Al  Al18  1  0.840252  0.159748  0.424045  1
  Al  Al19  1  0.681732  0.842148  0.923430  1
  Al  Al20  1  0.840471  0.159529  0.076283  1
  Al  Al21  1  0.159529  0.840471  0.923717  1
  Al  Al22  1  0.561249  0.123877  0.249728  1
  Al  Al23  1  0.438751  0.876123  0.750272  1
  Al  Al24  1  0.876123  0.438751  0.249728  1
  Al  Al25  1  0.123877  0.561249  0.750272  1
  Al  Al26  1  0.561353  0.438647  0.250675  1
  Al  Al27  1  0.438647  0.561353  0.749325  1
  Al  Al28  1  0.999803  0.000197  0.250090  1
  Al  Al29  1  0.000197  0.999803  0.749910  1
  Fe  Fe30  1  0.000000  0.000000  0.000000  1
  Fe  Fe31  1  0.000000  0.000000  0.500000  1
  Ru  Ru32  1  0.500000  0.000000  0.000000  1
  Ru  Ru33  1  0.000000  0.500000  0.000000  1
  Ru  Ru34  1  0.500000  0.000000  0.500000  1
  Ru  Ru35  1  0.000000  0.500000  0.500000  1
  Ru  Ru36  1  0.500000  0.500000  0.500000  1
  Rh  Rh37  1  0.500000  0.500000  0.000000  1
