# generated using pymatgen
data_TcP2PbO8
_symmetry_space_group_name_H-M   'P 1'
_cell_length_a   8.94758196
_cell_length_b   8.94758256
_cell_length_c   8.38394573
_cell_angle_alpha   64.73615707
_cell_angle_beta   64.73615783
_cell_angle_gamma   34.05527641
_symmetry_Int_Tables_number   1
_chemical_formula_structural   TcP2PbO8
_chemical_formula_sum   'Tc2 P4 Pb2 O16'
_cell_volume   336.35313206
_cell_formula_units_Z   2
loop_
 _symmetry_equiv_pos_site_id
 _symmetry_equiv_pos_as_xyz
  1  'x, y, z'
loop_
 _atom_site_type_symbol
 _atom_site_label
 _atom_site_symmetry_multiplicity
 _atom_site_fract_x
 _atom_site_fract_y
 _atom_site_fract_z
 _atom_site_occupancy
  Tc  Tc0  1  0.000000  0.500000  0.500000  1
  Tc  Tc1  1  0.500000  0.000000  0.000000  1
  P  P2  1  0.618595  0.094818  0.256511  1
  P  P3  1  0.905182  0.381405  0.243489  1
  P  P4  1  0.381405  0.905182  0.743489  1
  P  P5  1  0.094818  0.618595  0.756511  1
  Pb  Pb6  1  0.659816  0.340184  0.750000  1
  Pb  Pb7  1  0.340184  0.659816  0.250000  1
  O  O8  1  0.380436  0.289811  0.400685  1
  O  O9  1  0.710189  0.619564  0.099315  1
  O  O10  1  0.619564  0.710189  0.599315  1
  O  O11  1  0.289811  0.380436  0.900685  1
  O  O12  1  0.660112  0.238521  0.111216  1
  O  O13  1  0.761479  0.339888  0.388784  1
  O  O14  1  0.339888  0.761479  0.888784  1
  O  O15  1  0.238521  0.660112  0.611216  1
  O  O16  1  0.878592  0.831156  0.349133  1
  O  O17  1  0.168844  0.121408  0.150867  1
  O  O18  1  0.121408  0.168844  0.650867  1
  O  O19  1  0.831156  0.878592  0.849133  1
  O  O20  1  0.552564  0.016406  0.195544  1
  O  O21  1  0.983594  0.447436  0.304456  1
  O  O22  1  0.447436  0.983594  0.804456  1
  O  O23  1  0.016406  0.552564  0.695544  1
