# generated using pymatgen
data_Zr2Sc2TaRe7
_symmetry_space_group_name_H-M   'P 1'
_cell_length_a   5.33883741
_cell_length_b   5.31504476
_cell_length_c   8.71554165
_cell_angle_alpha   90.00000031
_cell_angle_beta   90.06126625
_cell_angle_gamma   119.85268457
_symmetry_Int_Tables_number   1
_chemical_formula_structural   Zr2Sc2TaRe7
_chemical_formula_sum   'Zr2 Sc2 Ta1 Re7'
_cell_volume   214.49693001
_cell_formula_units_Z   1
loop_
 _symmetry_equiv_pos_site_id
 _symmetry_equiv_pos_as_xyz
  1  'x, y, z'
loop_
 _atom_site_type_symbol
 _atom_site_label
 _atom_site_symmetry_multiplicity
 _atom_site_fract_x
 _atom_site_fract_y
 _atom_site_fract_z
 _atom_site_occupancy
  Zr  Zr0  1  0.332373  0.666187  0.435081  1
  Zr  Zr1  1  0.667793  0.333896  0.943845  1
  Sc  Sc2  1  0.667207  0.333603  0.557491  1
  Sc  Sc3  1  0.332744  0.666373  0.064088  1
  Ta  Ta4  1  0.658779  0.829390  0.749336  1
  Re  Re5  1  0.342026  0.171013  0.250121  1
  Re  Re6  1  0.827847  0.171163  0.249863  1
  Re  Re7  1  0.164718  0.339496  0.750042  1
  Re  Re8  1  0.164718  0.825222  0.750042  1
  Re  Re9  1  0.827847  0.656683  0.249863  1
  Re  Re10  1  0.007230  0.003615  0.496234  1
  Re  Re11  1  0.006717  0.003359  0.003994  1
