# generated using pymatgen
data_LiNd16In3Rh4
_symmetry_space_group_name_H-M   'P 1'
_cell_length_a   9.99587240
_cell_length_b   9.99587081
_cell_length_c   9.99587015
_cell_angle_alpha   59.82601515
_cell_angle_beta   59.82601163
_cell_angle_gamma   59.82601207
_symmetry_Int_Tables_number   1
_chemical_formula_structural   LiNd16In3Rh4
_chemical_formula_sum   'Li1 Nd16 In3 Rh4'
_cell_volume   703.44235587
_cell_formula_units_Z   1
loop_
 _symmetry_equiv_pos_site_id
 _symmetry_equiv_pos_as_xyz
  1  'x, y, z'
loop_
 _atom_site_type_symbol
 _atom_site_label
 _atom_site_symmetry_multiplicity
 _atom_site_fract_x
 _atom_site_fract_y
 _atom_site_fract_z
 _atom_site_occupancy
  Li  Li0  1  0.429058  0.429058  0.429058  1
  Nd  Nd1  1  0.807884  0.807884  0.191678  1
  Nd  Nd2  1  0.807884  0.191678  0.807884  1
  Nd  Nd3  1  0.188136  0.188136  0.812697  1
  Nd  Nd4  1  0.650541  0.046714  0.650541  1
  Nd  Nd5  1  0.059511  0.059511  0.440685  1
  Nd  Nd6  1  0.438049  0.438049  0.059418  1
  Nd  Nd7  1  0.651268  0.651268  0.651268  1
  Nd  Nd8  1  0.812697  0.188136  0.188136  1
  Nd  Nd9  1  0.191678  0.807884  0.807884  1
  Nd  Nd10  1  0.046714  0.650541  0.650541  1
  Nd  Nd11  1  0.440685  0.059511  0.059511  1
  Nd  Nd12  1  0.438049  0.059418  0.438049  1
  Nd  Nd13  1  0.059511  0.440685  0.059511  1
  Nd  Nd14  1  0.650541  0.650541  0.046714  1
  Nd  Nd15  1  0.188136  0.812697  0.188136  1
  Nd  Nd16  1  0.059418  0.438049  0.438049  1
  In  In17  1  0.419255  0.419255  0.742956  1
  In  In18  1  0.419255  0.742956  0.419255  1
  In  In19  1  0.742956  0.419255  0.419255  1
  Rh  Rh20  1  0.857916  0.425718  0.857916  1
  Rh  Rh21  1  0.857227  0.857227  0.857227  1
  Rh  Rh22  1  0.857916  0.857916  0.425718  1
  Rh  Rh23  1  0.425718  0.857916  0.857916  1
