# generated using pymatgen
data_TaNb5Al16Ir7
_symmetry_space_group_name_H-M   'P 1'
_cell_length_a   8.58832789
_cell_length_b   8.58832786
_cell_length_c   8.58663400
_cell_angle_alpha   60.00652404
_cell_angle_beta   60.00652414
_cell_angle_gamma   59.98695921
_symmetry_Int_Tables_number   1
_chemical_formula_structural   TaNb5Al16Ir7
_chemical_formula_sum   'Ta1 Nb5 Al16 Ir7'
_cell_volume   447.84236683
_cell_formula_units_Z   1
loop_
 _symmetry_equiv_pos_site_id
 _symmetry_equiv_pos_as_xyz
  1  'x, y, z'
loop_
 _atom_site_type_symbol
 _atom_site_label
 _atom_site_symmetry_multiplicity
 _atom_site_fract_x
 _atom_site_fract_y
 _atom_site_fract_z
 _atom_site_occupancy
  Ta  Ta0  1  0.176834  0.176834  0.823166  1
  Nb  Nb1  1  0.184004  0.817944  0.815996  1
  Nb  Nb2  1  0.817944  0.184004  0.182056  1
  Nb  Nb3  1  0.817944  0.184004  0.815996  1
  Nb  Nb4  1  0.816604  0.816604  0.183396  1
  Nb  Nb5  1  0.184004  0.817944  0.182056  1
  Al  Al6  1  0.838609  0.838609  0.838709  1
  Al  Al7  1  0.838609  0.838609  0.484074  1
  Al  Al8  1  0.487555  0.836557  0.837944  1
  Al  Al9  1  0.836557  0.487555  0.837944  1
  Al  Al10  1  0.162056  0.162056  0.163443  1
  Al  Al11  1  0.162056  0.162056  0.512445  1
  Al  Al12  1  0.161291  0.515926  0.161391  1
  Al  Al13  1  0.515926  0.161291  0.161391  1
  Al  Al14  1  0.620006  0.620006  0.619551  1
  Al  Al15  1  0.620006  0.620006  0.140437  1
  Al  Al16  1  0.140484  0.619764  0.619875  1
  Al  Al17  1  0.619764  0.140484  0.619875  1
  Al  Al18  1  0.380125  0.380125  0.380236  1
  Al  Al19  1  0.380125  0.380125  0.859516  1
  Al  Al20  1  0.380449  0.859563  0.379994  1
  Al  Al21  1  0.859563  0.380449  0.379994  1
  Ir  Ir22  1  0.500456  0.500456  0.499544  1
  Ir  Ir23  1  0.000842  0.498967  0.501033  1
  Ir  Ir24  1  0.498967  0.000842  0.999158  1
  Ir  Ir25  1  0.498967  0.000842  0.501033  1
  Ir  Ir26  1  0.499706  0.499706  0.000294  1
  Ir  Ir27  1  0.000842  0.498967  0.999158  1
  Ir  Ir28  1  0.999706  0.999706  0.500294  1
