# generated using pymatgen
data_SmHoCI
_symmetry_space_group_name_H-M   'P 1'
_cell_length_a   3.78758700
_cell_length_b   3.78758626
_cell_length_c   14.99405600
_cell_angle_alpha   90.00000000
_cell_angle_beta   90.00000000
_cell_angle_gamma   119.99999769
_symmetry_Int_Tables_number   1
_chemical_formula_structural   SmHoCI
_chemical_formula_sum   'Sm2 Ho2 C2 I2'
_cell_volume   186.28372792
_cell_formula_units_Z   2
loop_
 _symmetry_equiv_pos_site_id
 _symmetry_equiv_pos_as_xyz
  1  'x, y, z'
loop_
 _atom_site_type_symbol
 _atom_site_label
 _atom_site_symmetry_multiplicity
 _atom_site_fract_x
 _atom_site_fract_y
 _atom_site_fract_z
 _atom_site_occupancy
  Sm  Sm0  1  0.666667  0.333333  0.586323  1
  Sm  Sm1  1  0.333333  0.666667  0.086323  1
  Ho  Ho2  1  0.333333  0.666667  0.414782  1
  Ho  Ho3  1  0.666667  0.333333  0.914782  1
  C  C4  1  0.000000  0.000000  0.494980  1
  C  C5  1  0.000000  0.000000  0.994980  1
  I  I6  1  0.666667  0.333333  0.253915  1
  I  I7  1  0.333333  0.666667  0.753915  1
