# generated using pymatgen
data_CsMg(AgTe2)4
_symmetry_space_group_name_H-M   'P 1'
_cell_length_a   12.31544332
_cell_length_b   12.31544260
_cell_length_c   10.64363600
_cell_angle_alpha   84.23606722
_cell_angle_beta   84.23606756
_cell_angle_gamma   14.59374779
_symmetry_Int_Tables_number   1
_chemical_formula_structural   CsMg(AgTe2)4
_chemical_formula_sum   'Cs1 Mg1 Ag4 Te8'
_cell_volume   404.66028164
_cell_formula_units_Z   1
loop_
 _symmetry_equiv_pos_site_id
 _symmetry_equiv_pos_as_xyz
  1  'x, y, z'
loop_
 _atom_site_type_symbol
 _atom_site_label
 _atom_site_symmetry_multiplicity
 _atom_site_fract_x
 _atom_site_fract_y
 _atom_site_fract_z
 _atom_site_occupancy
  Cs  Cs0  1  0.000000  0.000000  0.000000  1
  Mg  Mg1  1  0.500000  0.500000  0.500000  1
  Ag  Ag2  1  0.225930  0.225930  0.113958  1
  Ag  Ag3  1  0.840651  0.840651  0.485884  1
  Ag  Ag4  1  0.159349  0.159349  0.514116  1
  Ag  Ag5  1  0.774070  0.774070  0.886042  1
  Te  Te6  1  0.924200  0.924200  0.667138  1
  Te  Te7  1  0.075800  0.075800  0.332862  1
  Te  Te8  1  0.584955  0.584955  0.706553  1
  Te  Te9  1  0.415045  0.415045  0.293447  1
  Te  Te10  1  0.649439  0.649439  0.965005  1
  Te  Te11  1  0.350561  0.350561  0.034995  1
  Te  Te12  1  0.739993  0.739993  0.340191  1
  Te  Te13  1  0.260007  0.260007  0.659809  1
