# generated using pymatgen
data_Th8Co3ReSi12
_symmetry_space_group_name_H-M   'P 1'
_cell_length_a   8.11800300
_cell_length_b   8.11800290
_cell_length_c   8.42869300
_cell_angle_alpha   90.00000000
_cell_angle_beta   90.00000000
_cell_angle_gamma   119.99999633
_symmetry_Int_Tables_number   1
_chemical_formula_structural   Th8Co3ReSi12
_chemical_formula_sum   'Th8 Co3 Re1 Si12'
_cell_volume   481.04897446
_cell_formula_units_Z   1
loop_
 _symmetry_equiv_pos_site_id
 _symmetry_equiv_pos_as_xyz
  1  'x, y, z'
loop_
 _atom_site_type_symbol
 _atom_site_label
 _atom_site_symmetry_multiplicity
 _atom_site_fract_x
 _atom_site_fract_y
 _atom_site_fract_z
 _atom_site_occupancy
  Th  Th0  1  0.000000  0.000000  0.747888  1
  Th  Th1  1  0.000000  0.000000  0.252250  1
  Th  Th2  1  0.498610  0.501390  0.752992  1
  Th  Th3  1  0.498610  0.997222  0.752992  1
  Th  Th4  1  0.002778  0.501390  0.752992  1
  Th  Th5  1  0.498999  0.501001  0.247174  1
  Th  Th6  1  0.002002  0.501001  0.247174  1
  Th  Th7  1  0.498999  0.997998  0.247174  1
  Co  Co8  1  0.666667  0.333333  0.998266  1
  Co  Co9  1  0.666667  0.333333  0.501681  1
  Co  Co10  1  0.333333  0.666667  0.498223  1
  Re  Re11  1  0.333333  0.666667  0.000987  1
  Si  Si12  1  0.827789  0.172211  0.999764  1
  Si  Si13  1  0.827789  0.655578  0.999764  1
  Si  Si14  1  0.344422  0.172211  0.999764  1
  Si  Si15  1  0.829346  0.170654  0.500288  1
  Si  Si16  1  0.829346  0.658693  0.500288  1
  Si  Si17  1  0.341307  0.170654  0.500288  1
  Si  Si18  1  0.171441  0.828559  0.499774  1
  Si  Si19  1  0.657118  0.828559  0.499774  1
  Si  Si20  1  0.171441  0.342882  0.499774  1
  Si  Si21  1  0.163090  0.836910  0.000246  1
  Si  Si22  1  0.673820  0.836910  0.000246  1
  Si  Si23  1  0.163090  0.326180  0.000246  1
