# generated using pymatgen
data_LaSmMgCoO6
_symmetry_space_group_name_H-M   'P 1'
_cell_length_a   5.43202679
_cell_length_b   5.53360000
_cell_length_c   7.73571739
_cell_angle_alpha   90.00000000
_cell_angle_beta   89.92371189
_cell_angle_gamma   90.00000000
_symmetry_Int_Tables_number   1
_chemical_formula_structural   LaSmMgCoO6
_chemical_formula_sum   'La2 Sm2 Mg2 Co2 O12'
_cell_volume   232.52511931
_cell_formula_units_Z   2
loop_
 _symmetry_equiv_pos_site_id
 _symmetry_equiv_pos_as_xyz
  1  'x, y, z'
loop_
 _atom_site_type_symbol
 _atom_site_label
 _atom_site_symmetry_multiplicity
 _atom_site_fract_x
 _atom_site_fract_y
 _atom_site_fract_z
 _atom_site_occupancy
  La  La0  1  0.508635  0.540771  0.249706  1
  La  La1  1  0.991365  0.040771  0.250294  1
  Sm  Sm2  1  0.487238  0.445988  0.750956  1
  Sm  Sm3  1  0.012762  0.945988  0.749044  1
  Mg  Mg4  1  0.500228  0.997537  0.996504  1
  Mg  Mg5  1  0.999772  0.497537  0.503496  1
  Co  Co6  1  0.503113  0.000224  0.504489  1
  Co  Co7  1  0.996887  0.500224  0.995511  1
  O  O8  1  0.429569  0.986091  0.260290  1
  O  O9  1  0.070431  0.486091  0.239710  1
  O  O10  1  0.586855  0.023957  0.740564  1
  O  O11  1  0.913145  0.523957  0.759436  1
  O  O12  1  0.803790  0.778906  0.036678  1
  O  O13  1  0.696210  0.278906  0.463322  1
  O  O14  1  0.221674  0.202224  0.548577  1
  O  O15  1  0.278326  0.702224  0.951423  1
  O  O16  1  0.198031  0.223725  0.951600  1
  O  O17  1  0.301969  0.723725  0.548400  1
  O  O18  1  0.783321  0.800577  0.466001  1
  O  O19  1  0.716679  0.300577  0.033999  1
