# generated using pymatgen
data_Y3Ho17(Sn3Bi)4
_symmetry_space_group_name_H-M   'P 1'
_cell_length_a   8.18085013
_cell_length_b   8.22036349
_cell_length_c   15.54144800
_cell_angle_alpha   90.00660754
_cell_angle_beta   89.94986789
_cell_angle_gamma   89.98134715
_symmetry_Int_Tables_number   1
_chemical_formula_structural   Y3Ho17(Sn3Bi)4
_chemical_formula_sum   'Y3 Ho17 Sn12 Bi4'
_cell_volume   1045.15510441
_cell_formula_units_Z   1
loop_
 _symmetry_equiv_pos_site_id
 _symmetry_equiv_pos_as_xyz
  1  'x, y, z'
loop_
 _atom_site_type_symbol
 _atom_site_label
 _atom_site_symmetry_multiplicity
 _atom_site_fract_x
 _atom_site_fract_y
 _atom_site_fract_z
 _atom_site_occupancy
  Y  Y0  1  0.395882  0.838887  0.879092  1
  Y  Y1  1  0.896004  0.661125  0.620996  1
  Y  Y2  1  0.603466  0.160953  0.379026  1
  Ho  Ho3  1  0.103393  0.339091  0.121437  1
  Ho  Ho4  1  0.612113  0.162657  0.119716  1
  Ho  Ho5  1  0.111815  0.337197  0.380139  1
  Ho  Ho6  1  0.388323  0.837260  0.619851  1
  Ho  Ho7  1  0.888236  0.662952  0.880127  1
  Ho  Ho8  1  0.565984  0.329431  0.889678  1
  Ho  Ho9  1  0.066272  0.170580  0.610481  1
  Ho  Ho10  1  0.433797  0.670384  0.389425  1
  Ho  Ho11  1  0.934281  0.829349  0.110216  1
  Ho  Ho12  1  0.452171  0.667469  0.109530  1
  Ho  Ho13  1  0.952038  0.832345  0.390279  1
  Ho  Ho14  1  0.548150  0.332636  0.609795  1
  Ho  Ho15  1  0.047627  0.167690  0.890629  1
  Ho  Ho16  1  0.225258  0.500729  0.746911  1
  Ho  Ho17  1  0.725222  0.999332  0.753207  1
  Ho  Ho18  1  0.774860  0.499142  0.246609  1
  Ho  Ho19  1  0.274711  0.000728  0.253150  1
  Sn  Sn20  1  0.729940  0.978968  0.955450  1
  Sn  Sn21  1  0.229991  0.520870  0.544608  1
  Sn  Sn22  1  0.269906  0.020658  0.455430  1
  Sn  Sn23  1  0.770748  0.478795  0.044449  1
  Sn  Sn24  1  0.589770  0.629153  0.748604  1
  Sn  Sn25  1  0.089801  0.870980  0.751470  1
  Sn  Sn26  1  0.409901  0.370826  0.248241  1
  Sn  Sn27  1  0.910473  0.129197  0.251239  1
  Sn  Sn28  1  0.361337  0.143509  0.751305  1
  Sn  Sn29  1  0.861344  0.356527  0.748950  1
  Sn  Sn30  1  0.638722  0.856483  0.251014  1
  Sn  Sn31  1  0.138690  0.643157  0.248540  1
  Bi  Bi32  1  0.265338  0.016519  0.045990  1
  Bi  Bi33  1  0.765187  0.484389  0.454070  1
  Bi  Bi34  1  0.734879  0.984429  0.545795  1
  Bi  Bi35  1  0.234368  0.515600  0.954552  1
