# generated using pymatgen
data_LaErB2Pt7Au
_symmetry_space_group_name_H-M   'P 1'
_cell_length_a   5.50169100
_cell_length_b   5.50169060
_cell_length_c   7.74265100
_cell_angle_alpha   90.00000000
_cell_angle_beta   90.00000000
_cell_angle_gamma   119.99999637
_symmetry_Int_Tables_number   1
_chemical_formula_structural   LaErB2Pt7Au
_chemical_formula_sum   'La1 Er1 B2 Pt7 Au1'
_cell_volume   202.96104470
_cell_formula_units_Z   1
loop_
 _symmetry_equiv_pos_site_id
 _symmetry_equiv_pos_as_xyz
  1  'x, y, z'
loop_
 _atom_site_type_symbol
 _atom_site_label
 _atom_site_symmetry_multiplicity
 _atom_site_fract_x
 _atom_site_fract_y
 _atom_site_fract_z
 _atom_site_occupancy
  La  La0  1  0.000000  0.000000  0.500000  1
  Er  Er1  1  0.000000  0.000000  0.000000  1
  B  B2  1  0.333333  0.666667  0.000000  1
  B  B3  1  0.666667  0.333333  0.000000  1
  Pt  Pt4  1  0.666667  0.333333  0.500000  1
  Pt  Pt5  1  0.500652  0.001303  0.194722  1
  Pt  Pt6  1  0.500652  0.001303  0.805278  1
  Pt  Pt7  1  0.998697  0.499348  0.194722  1
  Pt  Pt8  1  0.998697  0.499348  0.805278  1
  Pt  Pt9  1  0.500652  0.499348  0.194722  1
  Pt  Pt10  1  0.500652  0.499348  0.805278  1
  Au  Au11  1  0.333333  0.666667  0.500000  1
