# generated using pymatgen
data_TmRuI18
_symmetry_space_group_name_H-M   'P 1'
_cell_length_a   10.21294769
_cell_length_b   10.25054149
_cell_length_c   10.22639751
_cell_angle_alpha   88.00807332
_cell_angle_beta   88.08953183
_cell_angle_gamma   87.97232102
_symmetry_Int_Tables_number   1
_chemical_formula_structural   TmRuI18
_chemical_formula_sum   'Tm1 Ru1 I18'
_cell_volume   1068.71407552
_cell_formula_units_Z   1
loop_
 _symmetry_equiv_pos_site_id
 _symmetry_equiv_pos_as_xyz
  1  'x, y, z'
loop_
 _atom_site_type_symbol
 _atom_site_label
 _atom_site_symmetry_multiplicity
 _atom_site_fract_x
 _atom_site_fract_y
 _atom_site_fract_z
 _atom_site_occupancy
  Tm  Tm0  1  0.000000  0.000000  0.000000  1
  Ru  Ru1  1  0.500000  0.500000  0.500000  1
  I  I2  1  0.764442  0.483477  0.499190  1
  I  I3  1  0.498128  0.763360  0.482897  1
  I  I4  1  0.483522  0.499350  0.763900  1
  I  I5  1  0.235558  0.516523  0.500810  1
  I  I6  1  0.501872  0.236640  0.517103  1
  I  I7  1  0.516478  0.500650  0.236100  1
  I  I8  1  0.878516  0.379893  0.740236  1
  I  I9  1  0.739452  0.877199  0.380140  1
  I  I10  1  0.380411  0.739538  0.877545  1
  I  I11  1  0.121484  0.620107  0.259764  1
  I  I12  1  0.260548  0.122801  0.619860  1
  I  I13  1  0.619589  0.260462  0.122455  1
  I  I14  1  0.024391  0.974437  0.707780  1
  I  I15  1  0.708122  0.025162  0.972816  1
  I  I16  1  0.973121  0.708421  0.023845  1
  I  I17  1  0.975609  0.025563  0.292220  1
  I  I18  1  0.291878  0.974838  0.027184  1
  I  I19  1  0.026879  0.291579  0.976155  1
