# generated using pymatgen
data_Tm12In2Os3
_symmetry_space_group_name_H-M   'P 1'
_cell_length_a   8.36521710
_cell_length_b   8.36521708
_cell_length_c   8.36521746
_cell_angle_alpha   109.37567656
_cell_angle_beta   109.37567874
_cell_angle_gamma   109.66247089
_symmetry_Int_Tables_number   1
_chemical_formula_structural   Tm12In2Os3
_chemical_formula_sum   'Tm12 In2 Os3'
_cell_volume   450.61554914
_cell_formula_units_Z   1
loop_
 _symmetry_equiv_pos_site_id
 _symmetry_equiv_pos_as_xyz
  1  'x, y, z'
loop_
 _atom_site_type_symbol
 _atom_site_label
 _atom_site_symmetry_multiplicity
 _atom_site_fract_x
 _atom_site_fract_y
 _atom_site_fract_z
 _atom_site_occupancy
  Tm  Tm0  1  0.184413  0.425753  0.241340  1
  Tm  Tm1  1  0.815587  0.574247  0.758660  1
  Tm  Tm2  1  0.184413  0.943074  0.758660  1
  Tm  Tm3  1  0.943074  0.184413  0.758660  1
  Tm  Tm4  1  0.815587  0.056926  0.241340  1
  Tm  Tm5  1  0.056926  0.815587  0.241340  1
  Tm  Tm6  1  0.425753  0.184413  0.241340  1
  Tm  Tm7  1  0.574247  0.815587  0.758660  1
  Tm  Tm8  1  0.318592  0.318592  0.637186  1
  Tm  Tm9  1  0.681408  0.681408  0.362814  1
  Tm  Tm10  1  0.681408  0.318592  0.000000  1
  Tm  Tm11  1  0.318592  0.681408  0.000000  1
  In  In12  1  0.000000  0.500000  0.500000  1
  In  In13  1  0.500000  0.000000  0.500000  1
  Os  Os14  1  0.345100  0.345100  0.000000  1
  Os  Os15  1  0.654900  0.654900  0.000000  1
  Os  Os16  1  0.000000  0.000000  0.000000  1
