# generated using pymatgen
data_La8YbDyRu4
_symmetry_space_group_name_H-M   'P 1'
_cell_length_a   9.00636151
_cell_length_b   9.00636351
_cell_length_c   7.34032279
_cell_angle_alpha   85.66088475
_cell_angle_beta   85.66087705
_cell_angle_gamma   43.62676965
_symmetry_Int_Tables_number   1
_chemical_formula_structural   La8YbDyRu4
_chemical_formula_sum   'La8 Yb1 Dy1 Ru4'
_cell_volume   409.43934809
_cell_formula_units_Z   1
loop_
 _symmetry_equiv_pos_site_id
 _symmetry_equiv_pos_as_xyz
  1  'x, y, z'
loop_
 _atom_site_type_symbol
 _atom_site_label
 _atom_site_symmetry_multiplicity
 _atom_site_fract_x
 _atom_site_fract_y
 _atom_site_fract_z
 _atom_site_occupancy
  La  La0  1  0.207224  0.975141  0.593256  1
  La  La1  1  0.024859  0.792776  0.906744  1
  La  La2  1  0.208828  0.366154  0.316163  1
  La  La3  1  0.633846  0.791172  0.183837  1
  La  La4  1  0.791793  0.632198  0.685073  1
  La  La5  1  0.367802  0.208207  0.814927  1
  La  La6  1  0.979196  0.201778  0.092196  1
  La  La7  1  0.798222  0.020804  0.407804  1
  Yb  Yb8  1  0.574385  0.425615  0.750000  1
  Dy  Dy9  1  0.430159  0.569841  0.250000  1
  Ru  Ru10  1  0.164311  0.610725  0.575491  1
  Ru  Ru11  1  0.389275  0.835689  0.924509  1
  Ru  Ru12  1  0.827587  0.397487  0.412607  1
  Ru  Ru13  1  0.602513  0.172413  0.087393  1
