# generated using pymatgen
data_Nd3In3HgIrRh
_symmetry_space_group_name_H-M   'P 1'
_cell_length_a   7.95987200
_cell_length_b   7.95987255
_cell_length_c   3.94446400
_cell_angle_alpha   90.00000000
_cell_angle_beta   90.00000000
_cell_angle_gamma   119.99999771
_symmetry_Int_Tables_number   1
_chemical_formula_structural   Nd3In3HgIrRh
_chemical_formula_sum   'Nd3 In3 Hg1 Ir1 Rh1'
_cell_volume   216.43666662
_cell_formula_units_Z   1
loop_
 _symmetry_equiv_pos_site_id
 _symmetry_equiv_pos_as_xyz
  1  'x, y, z'
loop_
 _atom_site_type_symbol
 _atom_site_label
 _atom_site_symmetry_multiplicity
 _atom_site_fract_x
 _atom_site_fract_y
 _atom_site_fract_z
 _atom_site_occupancy
  Nd  Nd0  1  0.391313  0.418905  0.500000  1
  Nd  Nd1  1  0.581095  0.972407  0.500000  1
  Nd  Nd2  1  0.027593  0.608687  0.500000  1
  In  In3  1  0.749536  0.751200  0.000000  1
  In  In4  1  0.248800  0.998336  0.000000  1
  In  In5  1  0.001664  0.250464  0.000000  1
  Hg  Hg6  1  0.666667  0.333333  0.000000  1
  Ir  Ir7  1  0.333333  0.666667  0.000000  1
  Rh  Rh8  1  0.000000  0.000000  0.500000  1
