# generated using pymatgen
data_Li3La2YPt3
_symmetry_space_group_name_H-M   'P 1'
_cell_length_a   7.33671375
_cell_length_b   7.33524022
_cell_length_c   4.14038500
_cell_angle_alpha   90.00000000
_cell_angle_beta   90.00000000
_cell_angle_gamma   119.99333955
_symmetry_Int_Tables_number   1
_chemical_formula_structural   Li3La2YPt3
_chemical_formula_sum   'Li3 La2 Y1 Pt3'
_cell_volume   192.98182896
_cell_formula_units_Z   1
loop_
 _symmetry_equiv_pos_site_id
 _symmetry_equiv_pos_as_xyz
  1  'x, y, z'
loop_
 _atom_site_type_symbol
 _atom_site_label
 _atom_site_symmetry_multiplicity
 _atom_site_fract_x
 _atom_site_fract_y
 _atom_site_fract_z
 _atom_site_occupancy
  Li  Li0  1  0.777433  0.770189  0.500000  1
  Li  Li1  1  0.222567  0.992755  0.500000  1
  Li  Li2  1  0.000000  0.230978  0.500000  1
  La  La3  1  0.410158  0.411820  0.000000  1
  La  La4  1  0.589842  0.001662  0.000000  1
  Y  Y5  1  0.000000  0.593079  0.000000  1
  Pt  Pt6  1  0.000000  0.994185  0.000000  1
  Pt  Pt7  1  0.676460  0.340895  0.500000  1
  Pt  Pt8  1  0.323540  0.664435  0.500000  1
