# generated using pymatgen
data_Ce2Y(InNi)3
_symmetry_space_group_name_H-M   'P 1'
_cell_length_a   7.44636611
_cell_length_b   7.37579762
_cell_length_c   3.92116900
_cell_angle_alpha   90.00000000
_cell_angle_beta   90.00000000
_cell_angle_gamma   119.68699715
_symmetry_Int_Tables_number   1
_chemical_formula_structural   Ce2Y(InNi)3
_chemical_formula_sum   'Ce2 Y1 In3 Ni3'
_cell_volume   187.09437133
_cell_formula_units_Z   1
loop_
 _symmetry_equiv_pos_site_id
 _symmetry_equiv_pos_as_xyz
  1  'x, y, z'
loop_
 _atom_site_type_symbol
 _atom_site_label
 _atom_site_symmetry_multiplicity
 _atom_site_fract_x
 _atom_site_fract_y
 _atom_site_fract_z
 _atom_site_occupancy
  Ce  Ce0  1  0.415389  0.415345  0.000000  1
  Ce  Ce1  1  0.584611  0.999956  0.000000  1
  Y  Y2  1  0.000000  0.589288  0.000000  1
  In  In3  1  0.755698  0.750280  0.500000  1
  In  In4  1  0.000000  0.255111  0.500000  1
  In  In5  1  0.244302  0.994582  0.500000  1
  Ni  Ni6  1  0.345440  0.668081  0.500000  1
  Ni  Ni7  1  0.000000  0.004717  0.000000  1
  Ni  Ni8  1  0.654560  0.322640  0.500000  1
