# generated using pymatgen
data_Tm5HfSbO12
_symmetry_space_group_name_H-M   'P 1'
_cell_length_a   6.34624896
_cell_length_b   6.35246961
_cell_length_c   6.37633100
_cell_angle_alpha   99.47150669
_cell_angle_beta   98.68962624
_cell_angle_gamma   98.88530223
_symmetry_Int_Tables_number   1
_chemical_formula_structural   Tm5HfSbO12
_chemical_formula_sum   'Tm5 Hf1 Sb1 O12'
_cell_volume   246.36777062
_cell_formula_units_Z   1
loop_
 _symmetry_equiv_pos_site_id
 _symmetry_equiv_pos_as_xyz
  1  'x, y, z'
loop_
 _atom_site_type_symbol
 _atom_site_label
 _atom_site_symmetry_multiplicity
 _atom_site_fract_x
 _atom_site_fract_y
 _atom_site_fract_z
 _atom_site_occupancy
  Tm  Tm0  1  0.390723  0.688856  0.855713  1
  Tm  Tm1  1  0.859637  0.388413  0.689910  1
  Tm  Tm2  1  0.313696  0.143097  0.609026  1
  Tm  Tm3  1  0.609701  0.313092  0.139429  1
  Tm  Tm4  1  0.140288  0.610406  0.309122  1
  Hf  Hf5  1  0.684727  0.857057  0.388817  1
  Sb  Sb6  1  0.997519  0.996697  0.000889  1
  O  O7  1  0.441518  0.604971  0.183628  1
  O  O8  1  0.176641  0.431683  0.582158  1
  O  O9  1  0.597057  0.167697  0.425363  1
  O  O10  1  0.566732  0.409911  0.820450  1
  O  O11  1  0.816543  0.583937  0.415952  1
  O  O12  1  0.432879  0.823775  0.566581  1
  O  O13  1  0.909911  0.028816  0.688287  1
  O  O14  1  0.955717  0.307097  0.071029  1
  O  O15  1  0.303696  0.075062  0.952858  1
  O  O16  1  0.067163  0.956727  0.311886  1
  O  O17  1  0.044048  0.689693  0.929731  1
  O  O18  1  0.691803  0.923013  0.059169  1
