# generated using pymatgen
data_SrCaP2O7
_symmetry_space_group_name_H-M   'P 1'
_cell_length_a   6.91043997
_cell_length_b   6.95943201
_cell_length_c   6.96151295
_cell_angle_alpha   65.54966976
_cell_angle_beta   83.77318903
_cell_angle_gamma   88.05400474
_symmetry_Int_Tables_number   1
_chemical_formula_structural   SrCaP2O7
_chemical_formula_sum   'Sr2 Ca2 P4 O14'
_cell_volume   302.95345827
_cell_formula_units_Z   2
loop_
 _symmetry_equiv_pos_site_id
 _symmetry_equiv_pos_as_xyz
  1  'x, y, z'
loop_
 _atom_site_type_symbol
 _atom_site_label
 _atom_site_symmetry_multiplicity
 _atom_site_fract_x
 _atom_site_fract_y
 _atom_site_fract_z
 _atom_site_occupancy
  Sr  Sr0  1  0.866587  0.690861  0.269821  1
  Sr  Sr1  1  0.133413  0.309139  0.730179  1
  Ca  Ca2  1  0.347892  0.736106  0.894834  1
  Ca  Ca3  1  0.652108  0.263894  0.105166  1
  P  P4  1  0.853248  0.767006  0.769071  1
  P  P5  1  0.146752  0.232994  0.230929  1
  P  P6  1  0.359232  0.822596  0.362432  1
  P  P7  1  0.640768  0.177404  0.637568  1
  O  O8  1  0.013501  0.828005  0.872132  1
  O  O9  1  0.986499  0.171995  0.127868  1
  O  O10  1  0.756443  0.978647  0.607231  1
  O  O11  1  0.243557  0.021353  0.392769  1
  O  O12  1  0.564423  0.908200  0.258576  1
  O  O13  1  0.435577  0.091800  0.741424  1
  O  O14  1  0.927285  0.650775  0.633674  1
  O  O15  1  0.072715  0.349225  0.366326  1
  O  O16  1  0.689323  0.644211  0.946278  1
  O  O17  1  0.310677  0.355789  0.053722  1
  O  O18  1  0.754189  0.237620  0.781239  1
  O  O19  1  0.245811  0.762380  0.218761  1
  O  O20  1  0.358232  0.655856  0.590507  1
  O  O21  1  0.641768  0.344144  0.409493  1
