# generated using pymatgen
data_Dy19YCd6CoNi
_symmetry_space_group_name_H-M   'P 1'
_cell_length_a   9.60674300
_cell_length_b   9.60662623
_cell_length_c   9.74693000
_cell_angle_alpha   90.00000000
_cell_angle_beta   90.00000000
_cell_angle_gamma   119.99958677
_symmetry_Int_Tables_number   1
_chemical_formula_structural   Dy19YCd6CoNi
_chemical_formula_sum   'Dy19 Y1 Cd6 Co1 Ni1'
_cell_volume   779.01775016
_cell_formula_units_Z   1
loop_
 _symmetry_equiv_pos_site_id
 _symmetry_equiv_pos_as_xyz
  1  'x, y, z'
loop_
 _atom_site_type_symbol
 _atom_site_label
 _atom_site_symmetry_multiplicity
 _atom_site_fract_x
 _atom_site_fract_y
 _atom_site_fract_z
 _atom_site_occupancy
  Dy  Dy0  1  0.000006  0.000003  0.499819  1
  Dy  Dy1  1  0.000006  0.000003  0.000181  1
  Dy  Dy2  1  0.542746  0.457227  0.250000  1
  Dy  Dy3  1  0.542746  0.085518  0.250000  1
  Dy  Dy4  1  0.456418  0.543560  0.750000  1
  Dy  Dy5  1  0.456418  0.912858  0.750000  1
  Dy  Dy6  1  0.087155  0.543577  0.750000  1
  Dy  Dy7  1  0.211773  0.788332  0.435801  1
  Dy  Dy8  1  0.211773  0.423442  0.435801  1
  Dy  Dy9  1  0.576554  0.788278  0.435776  1
  Dy  Dy10  1  0.789316  0.210611  0.563045  1
  Dy  Dy11  1  0.789316  0.578704  0.563045  1
  Dy  Dy12  1  0.421330  0.210665  0.563003  1
  Dy  Dy13  1  0.789316  0.210611  0.936955  1
  Dy  Dy14  1  0.789316  0.578704  0.936955  1
  Dy  Dy15  1  0.421330  0.210665  0.936997  1
  Dy  Dy16  1  0.211773  0.788332  0.064199  1
  Dy  Dy17  1  0.211773  0.423442  0.064199  1
  Dy  Dy18  1  0.576554  0.788278  0.064224  1
  Y  Y19  1  0.914403  0.457201  0.250000  1
  Cd  Cd20  1  0.884516  0.115435  0.250000  1
  Cd  Cd21  1  0.884516  0.769081  0.250000  1
  Cd  Cd22  1  0.230973  0.115487  0.250000  1
  Cd  Cd23  1  0.115616  0.884367  0.750000  1
  Cd  Cd24  1  0.115616  0.231248  0.750000  1
  Cd  Cd25  1  0.768757  0.884379  0.750000  1
  Co  Co26  1  0.333335  0.666668  0.250000  1
  Ni  Ni27  1  0.666651  0.333325  0.750000  1
