# generated using pymatgen
data_K3Ba(Ni3N2)2
_symmetry_space_group_name_H-M   'P 1'
_cell_length_a   6.32463267
_cell_length_b   6.33817893
_cell_length_c   7.43831586
_cell_angle_alpha   88.99268748
_cell_angle_beta   90.74902404
_cell_angle_gamma   113.22290198
_symmetry_Int_Tables_number   1
_chemical_formula_structural   K3Ba(Ni3N2)2
_chemical_formula_sum   'K3 Ba1 Ni6 N4'
_cell_volume   273.96975423
_cell_formula_units_Z   1
loop_
 _symmetry_equiv_pos_site_id
 _symmetry_equiv_pos_as_xyz
  1  'x, y, z'
loop_
 _atom_site_type_symbol
 _atom_site_label
 _atom_site_symmetry_multiplicity
 _atom_site_fract_x
 _atom_site_fract_y
 _atom_site_fract_z
 _atom_site_occupancy
  K  K0  1  0.673534  0.329382  0.413443  1
  K  K1  1  0.334050  0.672167  0.590904  1
  K  K2  1  0.829419  0.174798  0.899625  1
  Ba  Ba3  1  0.166997  0.835205  0.089207  1
  Ni  Ni4  1  0.176397  0.317246  0.258716  1
  Ni  Ni5  1  0.319482  0.178652  0.743347  1
  Ni  Ni6  1  0.817805  0.677387  0.761683  1
  Ni  Ni7  1  0.676865  0.817559  0.237716  1
  Ni  Ni8  1  0.033358  0.026869  0.500612  1
  Ni  Ni9  1  0.533558  0.533135  0.000753  1
  N  N10  1  0.924362  0.062902  0.279441  1
  N  N11  1  0.069526  0.922786  0.724447  1
  N  N12  1  0.563999  0.426520  0.781350  1
  N  N13  1  0.421650  0.566395  0.218758  1
