# generated using pymatgen
data_Y3Tm7Pt18
_symmetry_space_group_name_H-M   'P 1'
_cell_length_a   9.74597120
_cell_length_b   9.72812623
_cell_length_c   5.76306600
_cell_angle_alpha   90.00000000
_cell_angle_beta   90.00000000
_cell_angle_gamma   90.18151934
_symmetry_Int_Tables_number   1
_chemical_formula_structural   Y3Tm7Pt18
_chemical_formula_sum   'Y3 Tm7 Pt18'
_cell_volume   546.39376492
_cell_formula_units_Z   1
loop_
 _symmetry_equiv_pos_site_id
 _symmetry_equiv_pos_as_xyz
  1  'x, y, z'
loop_
 _atom_site_type_symbol
 _atom_site_label
 _atom_site_symmetry_multiplicity
 _atom_site_fract_x
 _atom_site_fract_y
 _atom_site_fract_z
 _atom_site_occupancy
  Y  Y0  1  0.452752  0.809252  0.000000  1
  Y  Y1  1  0.547461  0.191078  0.000000  1
  Y  Y2  1  0.190595  0.547242  0.000000  1
  Tm  Tm3  1  0.809024  0.452688  0.000000  1
  Tm  Tm4  1  0.500124  0.499955  0.500000  1
  Tm  Tm5  1  0.308678  0.047608  0.500000  1
  Tm  Tm6  1  0.691386  0.952402  0.500000  1
  Tm  Tm7  1  0.952378  0.691124  0.500000  1
  Tm  Tm8  1  0.047415  0.308804  0.500000  1
  Tm  Tm9  1  0.999946  0.999922  0.000000  1
  Pt  Pt10  1  0.190622  0.809302  0.252198  1
  Pt  Pt11  1  0.809258  0.191841  0.748608  1
  Pt  Pt12  1  0.809258  0.191841  0.251392  1
  Pt  Pt13  1  0.190622  0.809302  0.747802  1
  Pt  Pt14  1  0.441478  0.782092  0.500000  1
  Pt  Pt15  1  0.558659  0.217768  0.500000  1
  Pt  Pt16  1  0.217896  0.558596  0.500000  1
  Pt  Pt17  1  0.782341  0.441575  0.500000  1
  Pt  Pt18  1  0.307533  0.307657  0.250772  1
  Pt  Pt19  1  0.692757  0.691421  0.749820  1
  Pt  Pt20  1  0.692757  0.691421  0.250180  1
  Pt  Pt21  1  0.307533  0.307657  0.749228  1
  Pt  Pt22  1  0.280349  0.058885  0.000000  1
  Pt  Pt23  1  0.719663  0.941129  0.000000  1
  Pt  Pt24  1  0.940749  0.718312  0.000000  1
  Pt  Pt25  1  0.057810  0.281207  0.000000  1
  Pt  Pt26  1  0.999923  0.000140  0.500000  1
  Pt  Pt27  1  0.501033  0.499780  0.000000  1
