# generated using pymatgen
data_Dy3Tm(GaRh)4
_symmetry_space_group_name_H-M   'P 1'
_cell_length_a   4.28785500
_cell_length_b   6.85761842
_cell_length_c   7.81738400
_cell_angle_alpha   90.39796283
_cell_angle_beta   90.00000000
_cell_angle_gamma   90.00000000
_symmetry_Int_Tables_number   1
_chemical_formula_structural   Dy3Tm(GaRh)4
_chemical_formula_sum   'Dy3 Tm1 Ga4 Rh4'
_cell_volume   229.86051528
_cell_formula_units_Z   1
loop_
 _symmetry_equiv_pos_site_id
 _symmetry_equiv_pos_as_xyz
  1  'x, y, z'
loop_
 _atom_site_type_symbol
 _atom_site_label
 _atom_site_symmetry_multiplicity
 _atom_site_fract_x
 _atom_site_fract_y
 _atom_site_fract_z
 _atom_site_occupancy
  Dy  Dy0  1  0.250000  0.971201  0.311263  1
  Dy  Dy1  1  0.250000  0.471254  0.187853  1
  Dy  Dy2  1  0.750000  0.028782  0.689454  1
  Tm  Tm3  1  0.750000  0.529743  0.810865  1
  Ga  Ga4  1  0.250000  0.348636  0.569712  1
  Ga  Ga5  1  0.250000  0.847176  0.930812  1
  Ga  Ga6  1  0.750000  0.652395  0.431712  1
  Ga  Ga7  1  0.750000  0.152664  0.068786  1
  Rh  Rh8  1  0.250000  0.236505  0.888557  1
  Rh  Rh9  1  0.250000  0.732966  0.612052  1
  Rh  Rh10  1  0.750000  0.764224  0.109757  1
  Rh  Rh11  1  0.750000  0.264457  0.389178  1
