# generated using pymatgen
data_K3Bi(BPt3)2
_symmetry_space_group_name_H-M   'P 1'
_cell_length_a   8.45995459
_cell_length_b   8.45995386
_cell_length_c   8.45995319
_cell_angle_alpha   40.17073537
_cell_angle_beta   40.17073918
_cell_angle_gamma   40.17073824
_symmetry_Int_Tables_number   1
_chemical_formula_structural   K3Bi(BPt3)2
_chemical_formula_sum   'K3 Bi1 B2 Pt6'
_cell_volume   227.08839379
_cell_formula_units_Z   1
loop_
 _symmetry_equiv_pos_site_id
 _symmetry_equiv_pos_as_xyz
  1  'x, y, z'
loop_
 _atom_site_type_symbol
 _atom_site_label
 _atom_site_symmetry_multiplicity
 _atom_site_fract_x
 _atom_site_fract_y
 _atom_site_fract_z
 _atom_site_occupancy
  K  K0  1  0.861681  0.861681  0.861681  1
  K  K1  1  0.138319  0.138319  0.138319  1
  K  K2  1  0.000000  0.000000  0.000000  1
  Bi  Bi3  1  0.500000  0.500000  0.500000  1
  B  B4  1  0.668241  0.668241  0.668241  1
  B  B5  1  0.331759  0.331759  0.331759  1
  Pt  Pt6  1  0.438771  0.938855  0.438771  1
  Pt  Pt7  1  0.438771  0.438771  0.938855  1
  Pt  Pt8  1  0.938855  0.438771  0.438771  1
  Pt  Pt9  1  0.561229  0.061145  0.561229  1
  Pt  Pt10  1  0.561229  0.561229  0.061145  1
  Pt  Pt11  1  0.061145  0.561229  0.561229  1
