# generated using pymatgen
data_HoErBi4(SbO7)2
_symmetry_space_group_name_H-M   'P 1'
_cell_length_a   6.49282194
_cell_length_b   6.78923798
_cell_length_c   7.64288404
_cell_angle_alpha   106.37262632
_cell_angle_beta   89.63329563
_cell_angle_gamma   98.97999209
_symmetry_Int_Tables_number   1
_chemical_formula_structural   HoErBi4(SbO7)2
_chemical_formula_sum   'Ho1 Er1 Bi4 Sb2 O14'
_cell_volume   319.03286999
_cell_formula_units_Z   1
loop_
 _symmetry_equiv_pos_site_id
 _symmetry_equiv_pos_as_xyz
  1  'x, y, z'
loop_
 _atom_site_type_symbol
 _atom_site_label
 _atom_site_symmetry_multiplicity
 _atom_site_fract_x
 _atom_site_fract_y
 _atom_site_fract_z
 _atom_site_occupancy
  Ho  Ho0  1  0.542813  0.995768  0.752491  1
  Er  Er1  1  0.457274  0.004381  0.247591  1
  Bi  Bi2  1  0.256240  0.512448  0.878713  1
  Bi  Bi3  1  0.743668  0.487801  0.121447  1
  Bi  Bi4  1  0.730534  0.461273  0.608403  1
  Bi  Bi5  1  0.269524  0.538517  0.391264  1
  Sb  Sb6  1  0.999981  0.000063  0.499738  1
  Sb  Sb7  1  0.999847  0.000032  0.000322  1
  O  O8  1  0.458545  0.660679  0.180028  1
  O  O9  1  0.541488  0.340573  0.820309  1
  O  O10  1  0.293768  0.953632  0.954854  1
  O  O11  1  0.706236  0.046266  0.046200  1
  O  O12  1  0.288093  0.927702  0.514257  1
  O  O13  1  0.711869  0.072221  0.484795  1
  O  O14  1  0.528087  0.347815  0.347788  1
  O  O15  1  0.471487  0.651009  0.651786  1
  O  O16  1  0.917111  0.688132  0.954486  1
  O  O17  1  0.082786  0.311815  0.045455  1
  O  O18  1  0.098228  0.306845  0.612230  1
  O  O19  1  0.901648  0.693068  0.387806  1
  O  O20  1  0.900063  0.955254  0.738455  1
  O  O21  1  0.100711  0.044706  0.261583  1
