# generated using pymatgen
data_BiP4WO14
_symmetry_space_group_name_H-M   'P 1'
_cell_length_a   8.75024853
_cell_length_b   5.09671268
_cell_length_c   7.23023282
_cell_angle_alpha   72.27813891
_cell_angle_beta   90.10636452
_cell_angle_gamma   90.58852067
_symmetry_Int_Tables_number   1
_chemical_formula_structural   BiP4WO14
_chemical_formula_sum   'Bi1 P4 W1 O14'
_cell_volume   307.13210245
_cell_formula_units_Z   1
loop_
 _symmetry_equiv_pos_site_id
 _symmetry_equiv_pos_as_xyz
  1  'x, y, z'
loop_
 _atom_site_type_symbol
 _atom_site_label
 _atom_site_symmetry_multiplicity
 _atom_site_fract_x
 _atom_site_fract_y
 _atom_site_fract_z
 _atom_site_occupancy
  Bi  Bi0  1  0.742838  0.791308  0.731472  1
  P  P1  1  0.989559  0.226444  0.907218  1
  P  P2  1  0.066009  0.602121  0.525054  1
  P  P3  1  0.558225  0.399241  0.469623  1
  P  P4  1  0.449219  0.776854  0.096744  1
  W  W5  1  0.243119  0.208546  0.284083  1
  O  O6  1  0.966992  0.970875  0.845636  1
  O  O7  1  0.523906  0.882060  0.902662  1
  O  O8  1  0.845105  0.376259  0.927832  1
  O  O9  1  0.103315  0.438165  0.745795  1
  O  O10  1  0.555486  0.569155  0.608305  1
  O  O11  1  0.903178  0.700083  0.500482  1
  O  O12  1  0.187982  0.833299  0.468861  1
  O  O13  1  0.687704  0.199365  0.488455  1
  O  O14  1  0.398724  0.253850  0.473734  1
  O  O15  1  0.096906  0.396818  0.406702  1
  O  O16  1  0.573827  0.612380  0.248705  1
  O  O17  1  0.310569  0.579261  0.105696  1
  O  O18  1  0.087971  0.164443  0.094758  1
  O  O19  1  0.393293  0.019473  0.168183  1
