# generated using pymatgen
data_Tb3Dy9TlCo5
_symmetry_space_group_name_H-M   'P 1'
_cell_length_a   8.30331621
_cell_length_b   8.30132961
_cell_length_c   8.30133100
_cell_angle_alpha   107.07333637
_cell_angle_beta   110.66814845
_cell_angle_gamma   110.68811726
_symmetry_Int_Tables_number   1
_chemical_formula_structural   Tb3Dy9TlCo5
_chemical_formula_sum   'Tb3 Dy9 Tl1 Co5'
_cell_volume   439.96068749
_cell_formula_units_Z   1
loop_
 _symmetry_equiv_pos_site_id
 _symmetry_equiv_pos_as_xyz
  1  'x, y, z'
loop_
 _atom_site_type_symbol
 _atom_site_label
 _atom_site_symmetry_multiplicity
 _atom_site_fract_x
 _atom_site_fract_y
 _atom_site_fract_z
 _atom_site_occupancy
  Tb  Tb0  1  0.480639  0.293864  0.186775  1
  Tb  Tb1  1  0.107386  0.293975  0.813410  1
  Tb  Tb2  1  0.892774  0.706666  0.186109  1
  Dy  Dy3  1  0.519809  0.706388  0.813422  1
  Dy  Dy4  1  0.306036  0.620319  0.314714  1
  Dy  Dy5  1  0.306036  0.991323  0.685716  1
  Dy  Dy6  1  0.694036  0.379751  0.685698  1
  Dy  Dy7  1  0.694036  0.008338  0.314285  1
  Dy  Dy8  1  0.191953  0.207494  0.399022  1
  Dy  Dy9  1  0.808503  0.793125  0.602053  1
  Dy  Dy10  1  0.191953  0.792931  0.984460  1
  Dy  Dy11  1  0.808503  0.206450  0.015379  1
  Tl  Tl12  1  0.000086  0.500064  0.500022  1
  Co  Co13  1  0.499674  0.612807  0.111926  1
  Co  Co14  1  0.499674  0.387749  0.886867  1
  Co  Co15  1  0.379202  0.000015  0.379185  1
  Co  Co16  1  0.619988  0.999438  0.620551  1
  Co  Co17  1  0.999709  0.999304  0.000406  1
