# generated using pymatgen
data_Li4Gd15HoSn16
_symmetry_space_group_name_H-M   'P 1'
_cell_length_a   8.03619001
_cell_length_b   8.18937698
_cell_length_c   15.49406400
_cell_angle_alpha   90.00731119
_cell_angle_beta   90.00285189
_cell_angle_gamma   90.02699157
_symmetry_Int_Tables_number   1
_chemical_formula_structural   Li4Gd15HoSn16
_chemical_formula_sum   'Li4 Gd15 Ho1 Sn16'
_cell_volume   1019.68575716
_cell_formula_units_Z   1
loop_
 _symmetry_equiv_pos_site_id
 _symmetry_equiv_pos_as_xyz
  1  'x, y, z'
loop_
 _atom_site_type_symbol
 _atom_site_label
 _atom_site_symmetry_multiplicity
 _atom_site_fract_x
 _atom_site_fract_y
 _atom_site_fract_z
 _atom_site_occupancy
  Li  Li0  1  0.165255  0.485992  0.751343  1
  Li  Li1  1  0.664967  0.013487  0.751405  1
  Li  Li2  1  0.835159  0.513901  0.249179  1
  Li  Li3  1  0.334256  0.985199  0.249621  1
  Gd  Gd4  1  0.833570  0.668257  0.629022  1
  Gd  Gd5  1  0.665181  0.167729  0.370848  1
  Gd  Gd6  1  0.165576  0.331743  0.128123  1
  Gd  Gd7  1  0.664662  0.167290  0.128023  1
  Gd  Gd8  1  0.166030  0.331693  0.370845  1
  Gd  Gd9  1  0.334338  0.832476  0.628795  1
  Gd  Gd10  1  0.834381  0.667965  0.871241  1
  Gd  Gd11  1  0.495586  0.316689  0.906728  1
  Gd  Gd12  1  0.993970  0.184618  0.594543  1
  Gd  Gd13  1  0.505752  0.683909  0.406536  1
  Gd  Gd14  1  0.006565  0.814989  0.093015  1
  Gd  Gd15  1  0.505321  0.684297  0.092986  1
  Gd  Gd16  1  0.006951  0.815218  0.406474  1
  Gd  Gd17  1  0.494017  0.315938  0.594471  1
  Gd  Gd18  1  0.995051  0.184861  0.907136  1
  Ho  Ho19  1  0.334188  0.832858  0.871091  1
  Sn  Sn20  1  0.326406  0.035012  0.039866  1
  Sn  Sn21  1  0.826995  0.463531  0.458614  1
  Sn  Sn22  1  0.672824  0.965034  0.541810  1
  Sn  Sn23  1  0.175594  0.537958  0.958055  1
  Sn  Sn24  1  0.670659  0.964397  0.957512  1
  Sn  Sn25  1  0.173064  0.535627  0.541283  1
  Sn  Sn26  1  0.326807  0.035940  0.458591  1
  Sn  Sn27  1  0.826396  0.464166  0.041234  1
  Sn  Sn28  1  0.519633  0.592216  0.750733  1
  Sn  Sn29  1  0.021741  0.908961  0.751063  1
  Sn  Sn30  1  0.479494  0.409875  0.249452  1
  Sn  Sn31  1  0.977930  0.090317  0.249601  1
  Sn  Sn32  1  0.295469  0.149518  0.750844  1
  Sn  Sn33  1  0.793859  0.349773  0.750528  1
  Sn  Sn34  1  0.705788  0.848982  0.249616  1
  Sn  Sn35  1  0.206567  0.649582  0.249775  1
