# generated using pymatgen
data_Tm6Lu3Th3Ru4
_symmetry_space_group_name_H-M   'P 1'
_cell_length_a   6.26037392
_cell_length_b   7.19408384
_cell_length_c   9.34592928
_cell_angle_alpha   89.96839991
_cell_angle_beta   90.05080680
_cell_angle_gamma   89.64322897
_symmetry_Int_Tables_number   1
_chemical_formula_structural   Tm6Lu3Th3Ru4
_chemical_formula_sum   'Tm6 Lu3 Th3 Ru4'
_cell_volume   420.91034605
_cell_formula_units_Z   1
loop_
 _symmetry_equiv_pos_site_id
 _symmetry_equiv_pos_as_xyz
  1  'x, y, z'
loop_
 _atom_site_type_symbol
 _atom_site_label
 _atom_site_symmetry_multiplicity
 _atom_site_fract_x
 _atom_site_fract_y
 _atom_site_fract_z
 _atom_site_occupancy
  Tm  Tm0  1  0.664449  0.325780  0.936737  1
  Tm  Tm1  1  0.835995  0.822535  0.562526  1
  Tm  Tm2  1  0.329392  0.676198  0.068968  1
  Tm  Tm3  1  0.166618  0.175860  0.433135  1
  Tm  Tm4  1  0.329435  0.676081  0.430967  1
  Tm  Tm5  1  0.664269  0.325721  0.563480  1
  Lu  Lu6  1  0.861399  0.536214  0.249638  1
  Lu  Lu7  1  0.166257  0.175652  0.066808  1
  Lu  Lu8  1  0.836310  0.822939  0.937390  1
  Th  Th9  1  0.649976  0.046512  0.249651  1
  Th  Th10  1  0.352180  0.952775  0.750270  1
  Th  Th11  1  0.146407  0.454498  0.750253  1
  Ru  Ru12  1  0.459613  0.368789  0.249614  1
  Ru  Ru13  1  0.541633  0.629916  0.750406  1
  Ru  Ru14  1  0.960888  0.130245  0.750786  1
  Ru  Ru15  1  0.035176  0.880285  0.249372  1
