# generated using pymatgen
data_Y4Al2Si8Ir5Rh
_symmetry_space_group_name_H-M   'P 1'
_cell_length_a   8.16927191
_cell_length_b   8.16927243
_cell_length_c   5.73019081
_cell_angle_alpha   71.58304328
_cell_angle_beta   71.58303984
_cell_angle_gamma   93.51109722
_symmetry_Int_Tables_number   1
_chemical_formula_structural   Y4Al2Si8Ir5Rh
_chemical_formula_sum   'Y4 Al2 Si8 Ir5 Rh1'
_cell_volume   338.69190535
_cell_formula_units_Z   1
loop_
 _symmetry_equiv_pos_site_id
 _symmetry_equiv_pos_as_xyz
  1  'x, y, z'
loop_
 _atom_site_type_symbol
 _atom_site_label
 _atom_site_symmetry_multiplicity
 _atom_site_fract_x
 _atom_site_fract_y
 _atom_site_fract_z
 _atom_site_occupancy
  Y  Y0  1  0.866967  0.599416  0.757383  1
  Y  Y1  1  0.133393  0.400254  0.242882  1
  Y  Y2  1  0.400584  0.133033  0.742617  1
  Y  Y3  1  0.599746  0.866607  0.257118  1
  Al  Al4  1  0.771774  0.228226  0.750000  1
  Al  Al5  1  0.228077  0.771923  0.250000  1
  Si  Si6  1  0.518893  0.481107  0.750000  1
  Si  Si7  1  0.481200  0.518800  0.250000  1
  Si  Si8  1  0.211452  0.788548  0.750000  1
  Si  Si9  1  0.788164  0.211836  0.250000  1
  Si  Si10  1  0.264712  0.060385  0.338685  1
  Si  Si11  1  0.734827  0.939221  0.662191  1
  Si  Si12  1  0.939615  0.735288  0.161315  1
  Si  Si13  1  0.060779  0.265173  0.837809  1
  Ir  Ir14  1  0.533437  0.259990  0.140851  1
  Ir  Ir15  1  0.740010  0.466563  0.359149  1
  Ir  Ir16  1  0.466153  0.739624  0.859386  1
  Ir  Ir17  1  0.260376  0.533847  0.640614  1
  Ir  Ir18  1  0.994477  0.005523  0.250000  1
  Rh  Rh19  1  0.005364  0.994636  0.750000  1
