# generated using pymatgen
data_CePr5Zn4Pt13
_symmetry_space_group_name_H-M   'P 1'
_cell_length_a   8.42099338
_cell_length_b   8.42099385
_cell_length_c   8.42099400
_cell_angle_alpha   109.45134757
_cell_angle_beta   109.48115254
_cell_angle_gamma   109.48115868
_symmetry_Int_Tables_number   1
_chemical_formula_structural   CePr5Zn4Pt13
_chemical_formula_sum   'Ce1 Pr5 Zn4 Pt13'
_cell_volume   459.69325380
_cell_formula_units_Z   1
loop_
 _symmetry_equiv_pos_site_id
 _symmetry_equiv_pos_as_xyz
  1  'x, y, z'
loop_
 _atom_site_type_symbol
 _atom_site_label
 _atom_site_symmetry_multiplicity
 _atom_site_fract_x
 _atom_site_fract_y
 _atom_site_fract_z
 _atom_site_occupancy
  Ce  Ce0  1  0.000000  0.695123  0.695123  1
  Pr  Pr1  1  0.697187  0.698237  0.001050  1
  Pr  Pr2  1  0.302813  0.001050  0.303865  1
  Pr  Pr3  1  0.000000  0.294107  0.294107  1
  Pr  Pr4  1  0.302813  0.303865  0.001050  1
  Pr  Pr5  1  0.697187  0.001050  0.698237  1
  Zn  Zn6  1  0.000000  0.001211  0.501229  1
  Zn  Zn7  1  0.000000  0.501229  0.001211  1
  Zn  Zn8  1  0.499982  0.001211  0.001211  1
  Zn  Zn9  1  0.500018  0.501229  0.501229  1
  Pt  Pt10  1  0.327596  0.327221  0.654815  1
  Pt  Pt11  1  0.672404  0.999624  0.327221  1
  Pt  Pt12  1  0.000000  0.668164  0.333448  1
  Pt  Pt13  1  0.672404  0.327221  0.999624  1
  Pt  Pt14  1  0.327596  0.654815  0.327221  1
  Pt  Pt15  1  0.000000  0.333448  0.668164  1
  Pt  Pt16  1  0.324138  0.674970  0.999107  1
  Pt  Pt17  1  0.324138  0.999107  0.674970  1
  Pt  Pt18  1  0.665283  0.333448  0.333448  1
  Pt  Pt19  1  0.675862  0.674970  0.350833  1
  Pt  Pt20  1  0.675862  0.350833  0.674970  1
  Pt  Pt21  1  0.334717  0.668164  0.668164  1
  Pt  Pt22  1  0.000000  0.989707  0.989707  1
