# generated using pymatgen
data_Tb3Pa(Pd3Pt)3
_symmetry_space_group_name_H-M   'P 1'
_cell_length_a   7.10310727
_cell_length_b   7.10310779
_cell_length_c   7.08283400
_cell_angle_alpha   109.65454627
_cell_angle_beta   109.65453920
_cell_angle_gamma   109.22165060
_symmetry_Int_Tables_number   1
_chemical_formula_structural   Tb3Pa(Pd3Pt)3
_chemical_formula_sum   'Tb3 Pa1 Pd9 Pt3'
_cell_volume   274.69242413
_cell_formula_units_Z   1
loop_
 _symmetry_equiv_pos_site_id
 _symmetry_equiv_pos_as_xyz
  1  'x, y, z'
loop_
 _atom_site_type_symbol
 _atom_site_label
 _atom_site_symmetry_multiplicity
 _atom_site_fract_x
 _atom_site_fract_y
 _atom_site_fract_z
 _atom_site_occupancy
  Tb  Tb0  1  0.749824  0.749824  0.499646  1
  Tb  Tb1  1  0.250529  0.749522  0.000051  1
  Tb  Tb2  1  0.749522  0.250529  0.000051  1
  Pa  Pa3  1  0.250403  0.250403  0.500806  1
  Pd  Pd4  1  0.497550  0.250501  0.252806  1
  Pd  Pd5  1  0.498497  0.746140  0.747400  1
  Pd  Pd6  1  0.001261  0.248902  0.747400  1
  Pd  Pd7  1  0.248902  0.001261  0.747400  1
  Pd  Pd8  1  0.002304  0.755257  0.252806  1
  Pd  Pd9  1  0.755257  0.002304  0.252806  1
  Pd  Pd10  1  0.250501  0.497550  0.252806  1
  Pd  Pd11  1  0.746140  0.498497  0.747400  1
  Pd  Pd12  1  0.002968  0.002968  0.005937  1
  Pt  Pt13  1  0.496170  0.003832  0.500002  1
  Pt  Pt14  1  0.003832  0.496170  0.500002  1
  Pt  Pt15  1  0.496342  0.496342  0.992684  1
