# generated using pymatgen
data_Tm9Pa(Sn3C)2
_symmetry_space_group_name_H-M   'P 1'
_cell_length_a   8.86684034
_cell_length_b   8.86684052
_cell_length_c   6.43011800
_cell_angle_alpha   90.00000000
_cell_angle_beta   90.00000000
_cell_angle_gamma   120.45967270
_symmetry_Int_Tables_number   1
_chemical_formula_structural   Tm9Pa(Sn3C)2
_chemical_formula_sum   'Tm9 Pa1 Sn6 C2'
_cell_volume   435.76969921
_cell_formula_units_Z   1
loop_
 _symmetry_equiv_pos_site_id
 _symmetry_equiv_pos_as_xyz
  1  'x, y, z'
loop_
 _atom_site_type_symbol
 _atom_site_label
 _atom_site_symmetry_multiplicity
 _atom_site_fract_x
 _atom_site_fract_y
 _atom_site_fract_z
 _atom_site_occupancy
  Tm  Tm0  1  0.667036  0.334196  0.500376  1
  Tm  Tm1  1  0.334196  0.667036  0.500376  1
  Tm  Tm2  1  0.334196  0.667036  0.999624  1
  Tm  Tm3  1  0.667036  0.334196  0.999624  1
  Tm  Tm4  1  0.222550  0.002890  0.250000  1
  Tm  Tm5  1  0.002890  0.222550  0.250000  1
  Tm  Tm6  1  0.213585  0.213585  0.750000  1
  Tm  Tm7  1  0.783953  0.999705  0.750000  1
  Tm  Tm8  1  0.999705  0.783953  0.750000  1
  Pa  Pa9  1  0.795379  0.795379  0.250000  1
  Sn  Sn10  1  0.407640  0.407640  0.250000  1
  Sn  Sn11  1  0.594437  0.002616  0.250000  1
  Sn  Sn12  1  0.002616  0.594437  0.250000  1
  Sn  Sn13  1  0.593613  0.593613  0.750000  1
  Sn  Sn14  1  0.402630  0.999994  0.750000  1
  Sn  Sn15  1  0.999994  0.402630  0.750000  1
  C  C16  1  0.989272  0.989272  0.493427  1
  C  C17  1  0.989272  0.989272  0.006573  1
