# generated using pymatgen
data_Dy15Tm5(Bi2Sb)4
_symmetry_space_group_name_H-M   'P 1'
_cell_length_a   8.17316053
_cell_length_b   9.43197603
_cell_length_c   11.97606208
_cell_angle_alpha   89.99243869
_cell_angle_beta   90.03794492
_cell_angle_gamma   89.99040298
_symmetry_Int_Tables_number   1
_chemical_formula_structural   Dy15Tm5(Bi2Sb)4
_chemical_formula_sum   'Dy15 Tm5 Bi8 Sb4'
_cell_volume   923.22307619
_cell_formula_units_Z   1
loop_
 _symmetry_equiv_pos_site_id
 _symmetry_equiv_pos_as_xyz
  1  'x, y, z'
loop_
 _atom_site_type_symbol
 _atom_site_label
 _atom_site_symmetry_multiplicity
 _atom_site_fract_x
 _atom_site_fract_y
 _atom_site_fract_z
 _atom_site_occupancy
  Dy  Dy0  1  0.352714  0.750300  0.213470  1
  Dy  Dy1  1  0.852530  0.750207  0.286550  1
  Dy  Dy2  1  0.647103  0.250403  0.786756  1
  Dy  Dy3  1  0.148056  0.250509  0.713674  1
  Dy  Dy4  1  0.810735  0.062119  0.557774  1
  Dy  Dy5  1  0.688759  0.937721  0.057443  1
  Dy  Dy6  1  0.189417  0.562038  0.442344  1
  Dy  Dy7  1  0.472332  0.250067  0.487878  1
  Dy  Dy8  1  0.972706  0.250208  0.012067  1
  Dy  Dy9  1  0.527699  0.750176  0.512326  1
  Dy  Dy10  1  0.027910  0.750020  0.987818  1
  Dy  Dy11  1  0.315172  0.250083  0.217976  1
  Dy  Dy12  1  0.815145  0.250333  0.281639  1
  Dy  Dy13  1  0.685116  0.749748  0.781794  1
  Dy  Dy14  1  0.184815  0.750308  0.718232  1
  Tm  Tm15  1  0.689130  0.563940  0.057493  1
  Tm  Tm16  1  0.188798  0.935940  0.442457  1
  Tm  Tm17  1  0.311144  0.063995  0.942675  1
  Tm  Tm18  1  0.811158  0.436014  0.557501  1
  Tm  Tm19  1  0.310472  0.436295  0.942356  1
  Bi  Bi20  1  0.565357  0.995715  0.325341  1
  Bi  Bi21  1  0.065356  0.504628  0.174402  1
  Bi  Bi22  1  0.434392  0.495707  0.674866  1
  Bi  Bi23  1  0.934647  0.004667  0.825456  1
  Bi  Bi24  1  0.433989  0.004685  0.674787  1
  Bi  Bi25  1  0.934470  0.495534  0.825558  1
  Bi  Bi26  1  0.565767  0.504647  0.325318  1
  Bi  Bi27  1  0.066038  0.995599  0.174535  1
  Sb  Sb28  1  0.406991  0.749364  0.957660  1
  Sb  Sb29  1  0.907640  0.748441  0.542001  1
  Sb  Sb30  1  0.592036  0.252221  0.041771  1
  Sb  Sb31  1  0.092406  0.248371  0.458084  1
