# generated using pymatgen
data_Gd4YGeSe4
_symmetry_space_group_name_H-M   'P 1'
_cell_length_a   7.24968119
_cell_length_b   7.24968116
_cell_length_c   7.24968100
_cell_angle_alpha   99.45834624
_cell_angle_beta   99.45835421
_cell_angle_gamma   132.17045787
_symmetry_Int_Tables_number   1
_chemical_formula_structural   Gd4YGeSe4
_chemical_formula_sum   'Gd4 Y1 Ge1 Se4'
_cell_volume   258.15503494
_cell_formula_units_Z   1
loop_
 _symmetry_equiv_pos_site_id
 _symmetry_equiv_pos_as_xyz
  1  'x, y, z'
loop_
 _atom_site_type_symbol
 _atom_site_label
 _atom_site_symmetry_multiplicity
 _atom_site_fract_x
 _atom_site_fract_y
 _atom_site_fract_z
 _atom_site_occupancy
  Gd  Gd0  1  0.400603  0.792332  0.192803  1
  Gd  Gd1  1  0.599397  0.207668  0.807197  1
  Gd  Gd2  1  0.207788  0.400543  0.608080  1
  Gd  Gd3  1  0.792212  0.599457  0.391920  1
  Y  Y4  1  0.000000  0.000000  0.000000  1
  Ge  Ge5  1  0.500000  0.500000  0.000000  1
  Se  Se6  1  0.097679  0.698095  0.795799  1
  Se  Se7  1  0.698495  0.902409  0.600400  1
  Se  Se8  1  0.301505  0.097591  0.399600  1
  Se  Se9  1  0.902321  0.301905  0.204201  1
