# generated using pymatgen
data_Er20Cd6RuRh
_symmetry_space_group_name_H-M   'P 1'
_cell_length_a   9.52087000
_cell_length_b   9.52086839
_cell_length_c   9.74477800
_cell_angle_alpha   90.00000000
_cell_angle_beta   90.00000000
_cell_angle_gamma   119.99999866
_symmetry_Int_Tables_number   1
_chemical_formula_structural   Er20Cd6RuRh
_chemical_formula_sum   'Er20 Cd6 Ru1 Rh1'
_cell_volume   764.99004597
_cell_formula_units_Z   1
loop_
 _symmetry_equiv_pos_site_id
 _symmetry_equiv_pos_as_xyz
  1  'x, y, z'
loop_
 _atom_site_type_symbol
 _atom_site_label
 _atom_site_symmetry_multiplicity
 _atom_site_fract_x
 _atom_site_fract_y
 _atom_site_fract_z
 _atom_site_occupancy
  Er  Er0  1  0.000000  0.000000  0.499620  1
  Er  Er1  1  0.000000  0.000000  0.000380  1
  Er  Er2  1  0.209303  0.790697  0.440903  1
  Er  Er3  1  0.209303  0.418606  0.440903  1
  Er  Er4  1  0.581394  0.790697  0.440903  1
  Er  Er5  1  0.790395  0.209605  0.559670  1
  Er  Er6  1  0.790395  0.580789  0.559670  1
  Er  Er7  1  0.419211  0.209605  0.559670  1
  Er  Er8  1  0.790395  0.209605  0.940330  1
  Er  Er9  1  0.790395  0.580789  0.940330  1
  Er  Er10  1  0.419211  0.209605  0.940330  1
  Er  Er11  1  0.209303  0.790697  0.059097  1
  Er  Er12  1  0.209303  0.418606  0.059097  1
  Er  Er13  1  0.581394  0.790697  0.059097  1
  Er  Er14  1  0.542047  0.457953  0.250000  1
  Er  Er15  1  0.542047  0.084095  0.250000  1
  Er  Er16  1  0.915905  0.457953  0.250000  1
  Er  Er17  1  0.458769  0.541231  0.750000  1
  Er  Er18  1  0.458769  0.917539  0.750000  1
  Er  Er19  1  0.082461  0.541231  0.750000  1
  Cd  Cd20  1  0.885263  0.114737  0.250000  1
  Cd  Cd21  1  0.885263  0.770529  0.250000  1
  Cd  Cd22  1  0.229471  0.114737  0.250000  1
  Cd  Cd23  1  0.114786  0.885214  0.750000  1
  Cd  Cd24  1  0.114786  0.229571  0.750000  1
  Cd  Cd25  1  0.770429  0.885214  0.750000  1
  Ru  Ru26  1  0.666667  0.333333  0.750000  1
  Rh  Rh27  1  0.333333  0.666667  0.250000  1
