# generated using pymatgen
data_Lu12Co7Si8Ru
_symmetry_space_group_name_H-M   'P 1'
_cell_length_a   5.42431061
_cell_length_b   7.48710476
_cell_length_c   12.49228461
_cell_angle_alpha   89.98502985
_cell_angle_beta   90.39783461
_cell_angle_gamma   90.28278642
_symmetry_Int_Tables_number   1
_chemical_formula_structural   Lu12Co7Si8Ru
_chemical_formula_sum   'Lu12 Co7 Si8 Ru1'
_cell_volume   507.32300919
_cell_formula_units_Z   1
loop_
 _symmetry_equiv_pos_site_id
 _symmetry_equiv_pos_as_xyz
  1  'x, y, z'
loop_
 _atom_site_type_symbol
 _atom_site_label
 _atom_site_symmetry_multiplicity
 _atom_site_fract_x
 _atom_site_fract_y
 _atom_site_fract_z
 _atom_site_occupancy
  Lu  Lu0  1  0.625118  0.252130  0.253530  1
  Lu  Lu1  1  0.373573  0.748150  0.748802  1
  Lu  Lu2  1  0.369331  0.755125  0.251787  1
  Lu  Lu3  1  0.629460  0.245438  0.748847  1
  Lu  Lu4  1  0.142468  0.396726  0.101803  1
  Lu  Lu5  1  0.863611  0.604703  0.897172  1
  Lu  Lu6  1  0.855876  0.602481  0.602443  1
  Lu  Lu7  1  0.854791  0.891679  0.400923  1
  Lu  Lu8  1  0.137712  0.399945  0.400616  1
  Lu  Lu9  1  0.140893  0.105331  0.601227  1
  Lu  Lu10  1  0.140008  0.106086  0.896684  1
  Lu  Lu11  1  0.855898  0.895454  0.102183  1
  Co  Co12  1  0.642726  0.968775  0.908562  1
  Co  Co13  1  0.637803  0.971953  0.587239  1
  Co  Co14  1  0.635759  0.529140  0.412479  1
  Co  Co15  1  0.358239  0.029059  0.415543  1
  Co  Co16  1  0.362258  0.471769  0.587701  1
  Co  Co17  1  0.366835  0.470530  0.909988  1
  Co  Co18  1  0.639978  0.526440  0.086890  1
  Si  Si19  1  0.137122  0.104295  0.257301  1
  Si  Si20  1  0.855235  0.896695  0.748002  1
  Si  Si21  1  0.849200  0.601483  0.249918  1
  Si  Si22  1  0.149646  0.397855  0.748866  1
  Si  Si23  1  0.622774  0.253981  0.994405  1
  Si  Si24  1  0.394588  0.743422  0.996462  1
  Si  Si25  1  0.386636  0.749475  0.500785  1
  Si  Si26  1  0.610005  0.251020  0.500939  1
  Ru  Ru27  1  0.362456  0.030864  0.088903  1
