# generated using pymatgen
data_LaYTh2(NiP)4
_symmetry_space_group_name_H-M   'P 1'
_cell_length_a   3.96166000
_cell_length_b   3.96166033
_cell_length_c   16.12158200
_cell_angle_alpha   90.00000000
_cell_angle_beta   90.00000000
_cell_angle_gamma   120.00001398
_symmetry_Int_Tables_number   1
_chemical_formula_structural   LaYTh2(NiP)4
_chemical_formula_sum   'La1 Y1 Th2 Ni4 P4'
_cell_volume   219.12537072
_cell_formula_units_Z   1
loop_
 _symmetry_equiv_pos_site_id
 _symmetry_equiv_pos_as_xyz
  1  'x, y, z'
loop_
 _atom_site_type_symbol
 _atom_site_label
 _atom_site_symmetry_multiplicity
 _atom_site_fract_x
 _atom_site_fract_y
 _atom_site_fract_z
 _atom_site_occupancy
  La  La0  1  0.000000  0.000000  0.750000  1
  Y  Y1  1  0.000000  0.000000  0.250000  1
  Th  Th2  1  0.000000  0.000000  0.495367  1
  Th  Th3  1  0.000000  0.000000  0.004633  1
  Ni  Ni4  1  0.333333  0.666667  0.374450  1
  Ni  Ni5  1  0.666667  0.333333  0.611402  1
  Ni  Ni6  1  0.666667  0.333333  0.888598  1
  Ni  Ni7  1  0.333333  0.666667  0.125550  1
  P  P8  1  0.333333  0.666667  0.876570  1
  P  P9  1  0.666667  0.333333  0.131871  1
  P  P10  1  0.666667  0.333333  0.368129  1
  P  P11  1  0.333333  0.666667  0.623430  1
