# generated using pymatgen
data_Y2V3Si7Ni9
_symmetry_space_group_name_H-M   'P 1'
_cell_length_a   3.75670800
_cell_length_b   9.28523578
_cell_length_c   9.28523600
_cell_angle_alpha   120.00000079
_cell_angle_beta   90.00000000
_cell_angle_gamma   90.00000000
_symmetry_Int_Tables_number   1
_chemical_formula_structural   Y2V3Si7Ni9
_chemical_formula_sum   'Y2 V3 Si7 Ni9'
_cell_volume   280.49424212
_cell_formula_units_Z   1
loop_
 _symmetry_equiv_pos_site_id
 _symmetry_equiv_pos_as_xyz
  1  'x, y, z'
loop_
 _atom_site_type_symbol
 _atom_site_label
 _atom_site_symmetry_multiplicity
 _atom_site_fract_x
 _atom_site_fract_y
 _atom_site_fract_z
 _atom_site_occupancy
  Y  Y0  1  0.000000  0.666667  0.333333  1
  Y  Y1  1  0.500000  0.333333  0.666667  1
  V  V2  1  0.500000  0.787001  0.899682  1
  V  V3  1  0.500000  0.112681  0.212999  1
  V  V4  1  0.500000  0.100318  0.887319  1
  Si  Si5  1  0.000000  0.000000  0.000000  1
  Si  Si6  1  0.500000  0.708250  0.112820  1
  Si  Si7  1  0.500000  0.404570  0.291750  1
  Si  Si8  1  0.500000  0.887180  0.595430  1
  Si  Si9  1  0.000000  0.592582  0.703751  1
  Si  Si10  1  0.000000  0.111169  0.407418  1
  Si  Si11  1  0.000000  0.296249  0.888831  1
  Ni  Ni12  1  0.000000  0.569700  0.942528  1
  Ni  Ni13  1  0.000000  0.372827  0.430300  1
  Ni  Ni14  1  0.000000  0.057472  0.627173  1
  Ni  Ni15  1  0.000000  0.873842  0.155505  1
  Ni  Ni16  1  0.000000  0.281663  0.126158  1
  Ni  Ni17  1  0.000000  0.844495  0.718337  1
  Ni  Ni18  1  0.500000  0.950868  0.383301  1
  Ni  Ni19  1  0.500000  0.432432  0.049132  1
  Ni  Ni20  1  0.500000  0.616699  0.567568  1
