# generated using pymatgen
data_Tb5Y2Er3Cd2(In3Pd2)2
_symmetry_space_group_name_H-M   'P 1'
_cell_length_a   3.63345900
_cell_length_b   8.16521534
_cell_length_c   18.25700000
_cell_angle_alpha   89.98337659
_cell_angle_beta   90.00000000
_cell_angle_gamma   90.00000000
_symmetry_Int_Tables_number   1
_chemical_formula_structural   Tb5Y2Er3Cd2(In3Pd2)2
_chemical_formula_sum   'Tb5 Y2 Er3 Cd2 In6 Pd4'
_cell_volume   541.64820002
_cell_formula_units_Z   1
loop_
 _symmetry_equiv_pos_site_id
 _symmetry_equiv_pos_as_xyz
  1  'x, y, z'
loop_
 _atom_site_type_symbol
 _atom_site_label
 _atom_site_symmetry_multiplicity
 _atom_site_fract_x
 _atom_site_fract_y
 _atom_site_fract_z
 _atom_site_occupancy
  Tb  Tb0  1  0.000000  0.739238  0.281424  1
  Tb  Tb1  1  0.000000  0.261087  0.718648  1
  Tb  Tb2  1  0.000000  0.759935  0.782003  1
  Tb  Tb3  1  0.000000  0.240172  0.218090  1
  Tb  Tb4  1  0.000000  0.614408  0.083333  1
  Y  Y5  1  0.000000  0.500134  0.500082  1
  Y  Y6  1  0.000000  0.000087  0.999905  1
  Er  Er7  1  0.000000  0.385692  0.915688  1
  Er  Er8  1  0.000000  0.883479  0.584140  1
  Er  Er9  1  0.000000  0.116612  0.415966  1
  Cd  Cd10  1  0.500000  0.706699  0.932699  1
  Cd  Cd11  1  0.500000  0.291816  0.066566  1
  In  In12  1  0.500000  0.794050  0.433955  1
  In  In13  1  0.500000  0.206261  0.565970  1
  In  In14  1  0.500000  0.581041  0.649400  1
  In  In15  1  0.500000  0.418794  0.350935  1
  In  In16  1  0.500000  0.921679  0.149610  1
  In  In17  1  0.500000  0.079805  0.850681  1
  Pd  Pd18  1  0.500000  0.522683  0.196588  1
  Pd  Pd19  1  0.500000  0.476215  0.804239  1
  Pd  Pd20  1  0.500000  0.976602  0.695043  1
  Pd  Pd21  1  0.500000  0.023507  0.305038  1
