# generated using pymatgen
data_Ta5NbAl4(PdC)2
_symmetry_space_group_name_H-M   'P 1'
_cell_length_a   8.36142433
_cell_length_b   8.35592561
_cell_length_c   8.36143140
_cell_angle_alpha   60.01569754
_cell_angle_beta   59.99464168
_cell_angle_gamma   60.01580864
_symmetry_Int_Tables_number   1
_chemical_formula_structural   Ta5NbAl4(PdC)2
_chemical_formula_sum   'Ta10 Nb2 Al8 Pd4 C4'
_cell_volume   413.16757541
_cell_formula_units_Z   2
loop_
 _symmetry_equiv_pos_site_id
 _symmetry_equiv_pos_as_xyz
  1  'x, y, z'
loop_
 _atom_site_type_symbol
 _atom_site_label
 _atom_site_symmetry_multiplicity
 _atom_site_fract_x
 _atom_site_fract_y
 _atom_site_fract_z
 _atom_site_occupancy
  Ta  Ta0  1  0.567458  0.932540  0.567455  1
  Ta  Ta1  1  0.318154  0.682113  0.681454  1
  Ta  Ta2  1  0.681460  0.318260  0.318141  1
  Ta  Ta3  1  0.317952  0.682040  0.317954  1
  Ta  Ta4  1  0.681442  0.682108  0.318164  1
  Ta  Ta5  1  0.318139  0.318258  0.681466  1
  Ta  Ta6  1  0.567982  0.568732  0.931592  1
  Ta  Ta7  1  0.931600  0.568726  0.567976  1
  Ta  Ta8  1  0.567957  0.931713  0.931630  1
  Ta  Ta9  1  0.931633  0.931712  0.567955  1
  Nb  Nb10  1  0.683174  0.316824  0.683170  1
  Nb  Nb11  1  0.933080  0.566945  0.933072  1
  Al  Al12  1  0.915874  0.915417  0.915880  1
  Al  Al13  1  0.997024  0.334364  0.334279  1
  Al  Al14  1  0.333984  0.997733  0.333985  1
  Al  Al15  1  0.334283  0.334361  0.997024  1
  Al  Al16  1  0.915863  0.252827  0.915867  1
  Al  Al17  1  0.915784  0.915887  0.252425  1
  Al  Al18  1  0.252425  0.915889  0.915782  1
  Al  Al19  1  0.333983  0.334306  0.333982  1
  Pd  Pd20  1  0.125676  0.123246  0.125676  1
  Pd  Pd21  1  0.624618  0.124370  0.126643  1
  Pd  Pd22  1  0.125679  0.625405  0.125677  1
  Pd  Pd23  1  0.126638  0.124369  0.624619  1
  C  C24  1  0.624506  0.626672  0.624506  1
  C  C25  1  0.125660  0.625431  0.623473  1
  C  C26  1  0.624503  0.124316  0.624501  1
  C  C27  1  0.623472  0.625433  0.125657  1
