# generated using pymatgen
data_Nd2ThAlIn2Pt3
_symmetry_space_group_name_H-M   'P 1'
_cell_length_a   7.70661771
_cell_length_b   7.58870018
_cell_length_c   4.04969900
_cell_angle_alpha   90.00000000
_cell_angle_beta   90.00000000
_cell_angle_gamma   119.49513378
_symmetry_Int_Tables_number   1
_chemical_formula_structural   Nd2ThAlIn2Pt3
_chemical_formula_sum   'Nd2 Th1 Al1 In2 Pt3'
_cell_volume   206.14442673
_cell_formula_units_Z   1
loop_
 _symmetry_equiv_pos_site_id
 _symmetry_equiv_pos_as_xyz
  1  'x, y, z'
loop_
 _atom_site_type_symbol
 _atom_site_label
 _atom_site_symmetry_multiplicity
 _atom_site_fract_x
 _atom_site_fract_y
 _atom_site_fract_z
 _atom_site_occupancy
  Nd  Nd0  1  0.594545  0.006405  0.500000  1
  Nd  Nd1  1  0.405455  0.411860  0.500000  1
  Th  Th2  1  0.000000  0.579969  0.500000  1
  Al  Al3  1  0.000000  0.236169  0.000000  1
  In  In4  1  0.256158  0.007258  0.000000  1
  In  In5  1  0.743842  0.751101  0.000000  1
  Pt  Pt6  1  0.000000  0.020413  0.500000  1
  Pt  Pt7  1  0.695433  0.341129  0.000000  1
  Pt  Pt8  1  0.304567  0.645698  0.000000  1
