# generated using pymatgen
data_La5Zn2Os2Rh
_symmetry_space_group_name_H-M   'P 1'
_cell_length_a   8.60933733
_cell_length_b   8.60933579
_cell_length_c   8.60933700
_cell_angle_alpha   109.72583666
_cell_angle_beta   109.46049795
_cell_angle_gamma   109.22771352
_symmetry_Int_Tables_number   1
_chemical_formula_structural   La5Zn2Os2Rh
_chemical_formula_sum   'La10 Zn4 Os4 Rh2'
_cell_volume   491.22329509
_cell_formula_units_Z   2
loop_
 _symmetry_equiv_pos_site_id
 _symmetry_equiv_pos_as_xyz
  1  'x, y, z'
loop_
 _atom_site_type_symbol
 _atom_site_label
 _atom_site_symmetry_multiplicity
 _atom_site_fract_x
 _atom_site_fract_y
 _atom_site_fract_z
 _atom_site_occupancy
  La  La0  1  0.250000  0.688937  0.438938  1
  La  La1  1  0.750000  0.811063  0.061063  1
  La  La2  1  0.436908  0.250000  0.686907  1
  La  La3  1  0.690564  0.440565  0.250000  1
  La  La4  1  0.063093  0.750000  0.813093  1
  La  La5  1  0.809436  0.059436  0.750000  1
  La  La6  1  0.218382  0.220225  0.221036  1
  La  La7  1  0.499191  0.997346  0.278964  1
  La  La8  1  0.281618  0.502655  0.001844  1
  La  La9  1  0.000810  0.279775  0.498157  1
  Zn  Zn10  1  0.501681  0.998475  0.912831  1
  Zn  Zn11  1  0.585643  0.588850  0.587169  1
  Zn  Zn12  1  0.914357  0.501526  0.003207  1
  Zn  Zn13  1  0.998320  0.911150  0.496794  1
  Os  Os14  1  0.874207  0.250001  0.124207  1
  Os  Os15  1  0.129379  0.879379  0.250001  1
  Os  Os16  1  0.625792  0.750000  0.375792  1
  Os  Os17  1  0.370620  0.620620  0.750000  1
  Rh  Rh18  1  0.250001  0.124423  0.874423  1
  Rh  Rh19  1  0.750000  0.375576  0.625576  1
