# generated using pymatgen
data_Hf5Ga6Tc
_symmetry_space_group_name_H-M   'P 1'
_cell_length_a   5.50057100
_cell_length_b   8.52622000
_cell_length_c   9.12418700
_cell_angle_alpha   90.00000000
_cell_angle_beta   90.00000000
_cell_angle_gamma   90.00000000
_symmetry_Int_Tables_number   1
_chemical_formula_structural   Hf5Ga6Tc
_chemical_formula_sum   'Hf10 Ga12 Tc2'
_cell_volume   427.91596210
_cell_formula_units_Z   2
loop_
 _symmetry_equiv_pos_site_id
 _symmetry_equiv_pos_as_xyz
  1  'x, y, z'
loop_
 _atom_site_type_symbol
 _atom_site_label
 _atom_site_symmetry_multiplicity
 _atom_site_fract_x
 _atom_site_fract_y
 _atom_site_fract_z
 _atom_site_occupancy
  Hf  Hf0  1  0.000000  0.250000  0.886427  1
  Hf  Hf1  1  0.500000  0.750000  0.113573  1
  Hf  Hf2  1  0.759715  0.471231  0.618535  1
  Hf  Hf3  1  0.259715  0.528769  0.381465  1
  Hf  Hf4  1  0.740285  0.971231  0.381465  1
  Hf  Hf5  1  0.240285  0.028769  0.618535  1
  Hf  Hf6  1  0.750412  0.365315  0.185072  1
  Hf  Hf7  1  0.250412  0.634685  0.814928  1
  Hf  Hf8  1  0.749588  0.865315  0.814928  1
  Hf  Hf9  1  0.249588  0.134685  0.185072  1
  Ga  Ga10  1  0.000000  0.750000  0.570249  1
  Ga  Ga11  1  0.500000  0.250000  0.429751  1
  Ga  Ga12  1  0.000000  0.250000  0.430748  1
  Ga  Ga13  1  0.500000  0.750000  0.569252  1
  Ga  Ga14  1  0.751744  0.046309  0.081399  1
  Ga  Ga15  1  0.251744  0.953691  0.918601  1
  Ga  Ga16  1  0.748256  0.546309  0.918601  1
  Ga  Ga17  1  0.248256  0.453691  0.081399  1
  Ga  Ga18  1  0.731324  0.133480  0.655201  1
  Ga  Ga19  1  0.231324  0.866520  0.344799  1
  Ga  Ga20  1  0.768676  0.633480  0.344799  1
  Ga  Ga21  1  0.268676  0.366520  0.655201  1
  Tc  Tc22  1  0.000000  0.750000  0.104996  1
  Tc  Tc23  1  0.500000  0.250000  0.895004  1
