# generated using pymatgen
data_Dy8Ta2Ti7Si16Mo3
_symmetry_space_group_name_H-M   'P 1'
_cell_length_a   7.01185078
_cell_length_b   7.00861340
_cell_length_c   12.90015172
_cell_angle_alpha   90.00013589
_cell_angle_beta   90.04863349
_cell_angle_gamma   90.05919627
_symmetry_Int_Tables_number   1
_chemical_formula_structural   Dy8Ta2Ti7Si16Mo3
_chemical_formula_sum   'Dy8 Ta2 Ti7 Si16 Mo3'
_cell_volume   633.95612124
_cell_formula_units_Z   1
loop_
 _symmetry_equiv_pos_site_id
 _symmetry_equiv_pos_as_xyz
  1  'x, y, z'
loop_
 _atom_site_type_symbol
 _atom_site_label
 _atom_site_symmetry_multiplicity
 _atom_site_fract_x
 _atom_site_fract_y
 _atom_site_fract_z
 _atom_site_occupancy
  Dy  Dy0  1  0.998509  0.660205  0.033063  1
  Dy  Dy1  1  0.000745  0.340804  0.532423  1
  Dy  Dy2  1  0.659812  0.998757  0.966873  1
  Dy  Dy3  1  0.157979  0.500784  0.782079  1
  Dy  Dy4  1  0.841596  0.499484  0.283166  1
  Dy  Dy5  1  0.501051  0.158671  0.218291  1
  Dy  Dy6  1  0.500258  0.841228  0.716758  1
  Dy  Dy7  1  0.340580  0.000951  0.467359  1
  Ta  Ta8  1  0.347237  0.508108  0.374865  1
  Ta  Ta9  1  0.327011  0.326617  0.000022  1
  Ti  Ti10  1  0.847177  0.990917  0.376649  1
  Ti  Ti11  1  0.008977  0.153658  0.124058  1
  Ti  Ti12  1  0.991780  0.847308  0.623360  1
  Ti  Ti13  1  0.508548  0.345912  0.625061  1
  Ti  Ti14  1  0.153227  0.009073  0.875919  1
  Ti  Ti15  1  0.492118  0.652302  0.126591  1
  Ti  Ti16  1  0.653124  0.491800  0.873412  1
  Si  Si17  1  0.045863  0.709778  0.435465  1
  Si  Si18  1  0.951554  0.291925  0.934247  1
  Si  Si19  1  0.708331  0.047031  0.565464  1
  Si  Si20  1  0.206731  0.452930  0.184525  1
  Si  Si21  1  0.790716  0.547474  0.684672  1
  Si  Si22  1  0.453660  0.207955  0.814248  1
  Si  Si23  1  0.548658  0.793341  0.315134  1
  Si  Si24  1  0.291718  0.951618  0.065714  1
  Si  Si25  1  0.799458  0.870171  0.184522  1
  Si  Si26  1  0.298101  0.630436  0.566565  1
  Si  Si27  1  0.702094  0.369050  0.065059  1
  Si  Si28  1  0.632505  0.297371  0.434045  1
  Si  Si29  1  0.369303  0.702295  0.934887  1
  Si  Si30  1  0.129184  0.200626  0.315847  1
  Si  Si31  1  0.200643  0.130266  0.684636  1
  Si  Si32  1  0.870129  0.799234  0.814936  1
  Mo  Mo33  1  0.672351  0.672489  0.499923  1
  Mo  Mo34  1  0.825709  0.173268  0.749359  1
  Mo  Mo35  1  0.173557  0.826160  0.250803  1
