# generated using pymatgen
data_Sr3Os6PbO19
_symmetry_space_group_name_H-M   'P 1'
_cell_length_a   8.05327546
_cell_length_b   8.05327550
_cell_length_c   8.05327464
_cell_angle_alpha   109.57646116
_cell_angle_beta   109.57646129
_cell_angle_gamma   109.57645198
_symmetry_Int_Tables_number   1
_chemical_formula_structural   Sr3Os6PbO19
_chemical_formula_sum   'Sr3 Os6 Pb1 O19'
_cell_volume   400.49027146
_cell_formula_units_Z   1
loop_
 _symmetry_equiv_pos_site_id
 _symmetry_equiv_pos_as_xyz
  1  'x, y, z'
loop_
 _atom_site_type_symbol
 _atom_site_label
 _atom_site_symmetry_multiplicity
 _atom_site_fract_x
 _atom_site_fract_y
 _atom_site_fract_z
 _atom_site_occupancy
  Sr  Sr0  1  0.302670  0.999560  0.999285  1
  Sr  Sr1  1  0.999285  0.302670  0.999560  1
  Sr  Sr2  1  0.999560  0.999285  0.302671  1
  Os  Os3  1  0.636936  0.500694  0.138339  1
  Os  Os4  1  0.498157  0.861986  0.361777  1
  Os  Os5  1  0.861988  0.361778  0.498157  1
  Os  Os6  1  0.138340  0.636936  0.500694  1
  Os  Os7  1  0.500694  0.138339  0.636936  1
  Os  Os8  1  0.361778  0.498157  0.861987  1
  Pb  Pb9  1  0.715315  0.715315  0.715316  1
  O  O10  1  0.992044  0.992044  0.992044  1
  O  O11  1  0.332030  0.332379  0.999914  1
  O  O12  1  0.665519  0.667892  0.001162  1
  O  O13  1  0.350368  0.706260  0.064332  1
  O  O14  1  0.934715  0.643460  0.288043  1
  O  O15  1  0.644616  0.355536  0.289396  1
  O  O16  1  0.332379  0.999914  0.332030  1
  O  O17  1  0.999914  0.332031  0.332379  1
  O  O18  1  0.706260  0.064334  0.350367  1
  O  O19  1  0.648179  0.715561  0.353868  1
  O  O20  1  0.289395  0.644614  0.355536  1
  O  O21  1  0.288043  0.934716  0.643461  1
  O  O22  1  0.355535  0.289396  0.644616  1
  O  O23  1  0.715560  0.353866  0.648179  1
  O  O24  1  0.667892  0.001162  0.665518  1
  O  O25  1  0.001162  0.665519  0.667893  1
  O  O26  1  0.064333  0.350368  0.706259  1
  O  O27  1  0.353867  0.648180  0.715561  1
  O  O28  1  0.643461  0.288043  0.934716  1
