# generated using pymatgen
data_Lu16In3Hg3Pt2
_symmetry_space_group_name_H-M   'P 1'
_cell_length_a   10.11698400
_cell_length_b   10.11697950
_cell_length_c   6.89211700
_cell_angle_alpha   90.00000000
_cell_angle_beta   90.00000000
_cell_angle_gamma   119.99996893
_symmetry_Int_Tables_number   1
_chemical_formula_structural   Lu16In3Hg3Pt2
_chemical_formula_sum   'Lu16 In3 Hg3 Pt2'
_cell_volume   610.92140547
_cell_formula_units_Z   1
loop_
 _symmetry_equiv_pos_site_id
 _symmetry_equiv_pos_as_xyz
  1  'x, y, z'
loop_
 _atom_site_type_symbol
 _atom_site_label
 _atom_site_symmetry_multiplicity
 _atom_site_fract_x
 _atom_site_fract_y
 _atom_site_fract_z
 _atom_site_occupancy
  Lu  Lu0  1  0.531699  0.063399  0.518697  1
  Lu  Lu1  1  0.936601  0.468300  0.518697  1
  Lu  Lu2  1  0.531700  0.468301  0.518697  1
  Lu  Lu3  1  0.467500  0.935001  0.015715  1
  Lu  Lu4  1  0.064999  0.532501  0.015715  1
  Lu  Lu5  1  0.467499  0.532500  0.015715  1
  Lu  Lu6  1  0.170775  0.341552  0.725041  1
  Lu  Lu7  1  0.658448  0.829225  0.725041  1
  Lu  Lu8  1  0.170775  0.829225  0.725041  1
  Lu  Lu9  1  0.824659  0.649317  0.210368  1
  Lu  Lu10  1  0.350683  0.175341  0.210368  1
  Lu  Lu11  1  0.824659  0.175341  0.210368  1
  Lu  Lu12  1  0.666667  0.333333  0.886988  1
  Lu  Lu13  1  0.333333  0.666667  0.390290  1
  Lu  Lu14  1  0.000000  0.000000  0.494830  1
  Lu  Lu15  1  0.000000  0.000000  0.997323  1
  In  In16  1  0.163616  0.327231  0.263812  1
  In  In17  1  0.672770  0.836385  0.263812  1
  In  In18  1  0.163616  0.836385  0.263812  1
  Hg  Hg19  1  0.834066  0.668132  0.767824  1
  Hg  Hg20  1  0.331867  0.165933  0.767824  1
  Hg  Hg21  1  0.834066  0.165933  0.767824  1
  Pt  Pt22  1  0.666667  0.333333  0.286222  1
  Pt  Pt23  1  0.333333  0.666667  0.784176  1
