# generated using pymatgen
data_Tm4BI6
_symmetry_space_group_name_H-M   'P 1'
_cell_length_a   4.06616100
_cell_length_b   13.75926400
_cell_length_c   14.23297700
_cell_angle_alpha   90.00000000
_cell_angle_beta   90.00000000
_cell_angle_gamma   90.00000000
_symmetry_Int_Tables_number   1
_chemical_formula_structural   Tm4BI6
_chemical_formula_sum   'Tm8 B2 I12'
_cell_volume   796.29781069
_cell_formula_units_Z   2
loop_
 _symmetry_equiv_pos_site_id
 _symmetry_equiv_pos_as_xyz
  1  'x, y, z'
loop_
 _atom_site_type_symbol
 _atom_site_label
 _atom_site_symmetry_multiplicity
 _atom_site_fract_x
 _atom_site_fract_y
 _atom_site_fract_z
 _atom_site_occupancy
  Tm  Tm0  1  0.000000  0.094647  0.075427  1
  Tm  Tm1  1  0.000000  0.905353  0.924573  1
  Tm  Tm2  1  0.000000  0.594647  0.424573  1
  Tm  Tm3  1  0.000000  0.405353  0.575427  1
  Tm  Tm4  1  0.500000  0.116173  0.863616  1
  Tm  Tm5  1  0.500000  0.883827  0.136384  1
  Tm  Tm6  1  0.500000  0.616173  0.636384  1
  Tm  Tm7  1  0.500000  0.383827  0.363616  1
  B  B8  1  0.500000  0.000000  0.000000  1
  B  B9  1  0.500000  0.500000  0.500000  1
  I  I10  1  0.500000  0.269113  0.681020  1
  I  I11  1  0.500000  0.730887  0.318980  1
  I  I12  1  0.500000  0.769113  0.818980  1
  I  I13  1  0.500000  0.230887  0.181020  1
  I  I14  1  0.000000  0.264461  0.932391  1
  I  I15  1  0.000000  0.735539  0.067609  1
  I  I16  1  0.000000  0.482054  0.235914  1
  I  I17  1  0.000000  0.517946  0.764086  1
  I  I18  1  0.000000  0.982054  0.264086  1
  I  I19  1  0.000000  0.017946  0.735914  1
  I  I20  1  0.000000  0.235539  0.432391  1
  I  I21  1  0.000000  0.764461  0.567609  1
