# generated using pymatgen
data_Rb2Ca(PSe3)2
_symmetry_space_group_name_H-M   'P 1'
_cell_length_a   12.83138900
_cell_length_b   6.95635489
_cell_length_c   9.90893998
_cell_angle_alpha   54.28779016
_cell_angle_beta   90.00000000
_cell_angle_gamma   90.00000000
_symmetry_Int_Tables_number   1
_chemical_formula_structural   Rb2Ca(PSe3)2
_chemical_formula_sum   'Rb4 Ca2 P4 Se12'
_cell_volume   718.15267473
_cell_formula_units_Z   2
loop_
 _symmetry_equiv_pos_site_id
 _symmetry_equiv_pos_as_xyz
  1  'x, y, z'
loop_
 _atom_site_type_symbol
 _atom_site_label
 _atom_site_symmetry_multiplicity
 _atom_site_fract_x
 _atom_site_fract_y
 _atom_site_fract_z
 _atom_site_occupancy
  Rb  Rb0  1  0.173658  0.278908  0.980619  1
  Rb  Rb1  1  0.673658  0.721092  0.519381  1
  Rb  Rb2  1  0.826342  0.721092  0.019381  1
  Rb  Rb3  1  0.326342  0.278908  0.480619  1
  Ca  Ca4  1  0.000000  0.000000  0.500000  1
  Ca  Ca5  1  0.500000  0.000000  0.000000  1
  P  P6  1  0.038486  0.647399  0.378037  1
  P  P7  1  0.538486  0.352601  0.121963  1
  P  P8  1  0.961514  0.352601  0.621963  1
  P  P9  1  0.461514  0.647399  0.878037  1
  Se  Se10  1  0.175503  0.756216  0.453154  1
  Se  Se11  1  0.675503  0.243784  0.046846  1
  Se  Se12  1  0.824497  0.243784  0.546846  1
  Se  Se13  1  0.324497  0.756216  0.953154  1
  Se  Se14  1  0.921963  0.935172  0.245564  1
  Se  Se15  1  0.421963  0.064828  0.254436  1
  Se  Se16  1  0.078037  0.064828  0.754436  1
  Se  Se17  1  0.578037  0.935172  0.745564  1
  Se  Se18  1  0.420518  0.489825  0.745761  1
  Se  Se19  1  0.920518  0.510175  0.754239  1
  Se  Se20  1  0.579482  0.510175  0.254239  1
  Se  Se21  1  0.079482  0.489825  0.245761  1
