# generated using pymatgen
data_Tb4Lu4Re(B8Ir)3
_symmetry_space_group_name_H-M   'P 1'
_cell_length_a   3.63699400
_cell_length_b   9.11981954
_cell_length_c   11.47759129
_cell_angle_alpha   90.11729927
_cell_angle_beta   90.00000000
_cell_angle_gamma   90.00000000
_symmetry_Int_Tables_number   1
_chemical_formula_structural   Tb4Lu4Re(B8Ir)3
_chemical_formula_sum   'Tb4 Lu4 Re1 B24 Ir3'
_cell_volume   380.69631688
_cell_formula_units_Z   1
loop_
 _symmetry_equiv_pos_site_id
 _symmetry_equiv_pos_as_xyz
  1  'x, y, z'
loop_
 _atom_site_type_symbol
 _atom_site_label
 _atom_site_symmetry_multiplicity
 _atom_site_fract_x
 _atom_site_fract_y
 _atom_site_fract_z
 _atom_site_occupancy
  Tb  Tb0  1  0.000000  0.320322  0.414112  1
  Tb  Tb1  1  0.000000  0.682972  0.589759  1
  Tb  Tb2  1  0.000000  0.820047  0.082723  1
  Tb  Tb3  1  0.000000  0.176526  0.912354  1
  Lu  Lu4  1  0.000000  0.944059  0.373422  1
  Lu  Lu5  1  0.000000  0.053140  0.626481  1
  Lu  Lu6  1  0.000000  0.443877  0.126190  1
  Lu  Lu7  1  0.000000  0.557079  0.874765  1
  Re  Re8  1  0.000000  0.861156  0.820069  1
  B  B9  1  0.500000  0.554578  0.433710  1
  B  B10  1  0.500000  0.446794  0.567104  1
  B  B11  1  0.500000  0.054358  0.066866  1
  B  B12  1  0.500000  0.945926  0.932559  1
  B  B13  1  0.500000  0.752204  0.419783  1
  B  B14  1  0.500000  0.248595  0.579993  1
  B  B15  1  0.500000  0.250999  0.079927  1
  B  B16  1  0.500000  0.749975  0.919066  1
  B  B17  1  0.500000  0.792838  0.265073  1
  B  B18  1  0.500000  0.207189  0.733600  1
  B  B19  1  0.500000  0.293666  0.235016  1
  B  B20  1  0.500000  0.707154  0.765821  1
  B  B21  1  0.500000  0.630181  0.183638  1
  B  B22  1  0.500000  0.369343  0.816484  1
  B  B23  1  0.500000  0.131125  0.316386  1
  B  B24  1  0.500000  0.869669  0.684600  1
  B  B25  1  0.500000  0.981930  0.214040  1
  B  B26  1  0.500000  0.017245  0.785722  1
  B  B27  1  0.500000  0.481634  0.286438  1
  B  B28  1  0.500000  0.517889  0.715013  1
  B  B29  1  0.500000  0.603825  0.029628  1
  B  B30  1  0.500000  0.393889  0.971715  1
  B  B31  1  0.500000  0.105341  0.470800  1
  B  B32  1  0.500000  0.895626  0.527336  1
  Ir  Ir33  1  0.000000  0.638456  0.321094  1
  Ir  Ir34  1  0.000000  0.361909  0.679103  1
  Ir  Ir35  1  0.000000  0.138479  0.179611  1
