# generated using pymatgen
data_Ba2SmCoO5
_symmetry_space_group_name_H-M   'P 1'
_cell_length_a   6.24077500
_cell_length_b   8.03956370
_cell_length_c   12.63940705
_cell_angle_alpha   91.29611466
_cell_angle_beta   90.00000000
_cell_angle_gamma   90.00000000
_symmetry_Int_Tables_number   1
_chemical_formula_structural   Ba2SmCoO5
_chemical_formula_sum   'Ba8 Sm4 Co4 O20'
_cell_volume   633.99608457
_cell_formula_units_Z   4
loop_
 _symmetry_equiv_pos_site_id
 _symmetry_equiv_pos_as_xyz
  1  'x, y, z'
loop_
 _atom_site_type_symbol
 _atom_site_label
 _atom_site_symmetry_multiplicity
 _atom_site_fract_x
 _atom_site_fract_y
 _atom_site_fract_z
 _atom_site_occupancy
  Ba  Ba0  1  0.774305  0.482753  0.353783  1
  Ba  Ba1  1  0.725695  0.982753  0.853783  1
  Ba  Ba2  1  0.225695  0.517247  0.646217  1
  Ba  Ba3  1  0.274305  0.017247  0.146217  1
  Ba  Ba4  1  0.766557  0.993800  0.381650  1
  Ba  Ba5  1  0.733443  0.493800  0.881650  1
  Ba  Ba6  1  0.233443  0.006200  0.618350  1
  Ba  Ba7  1  0.266557  0.506200  0.118350  1
  Sm  Sm8  1  0.741976  0.264728  0.626557  1
  Sm  Sm9  1  0.758024  0.764728  0.126557  1
  Sm  Sm10  1  0.258024  0.735272  0.373443  1
  Sm  Sm11  1  0.241976  0.235272  0.873443  1
  Co  Co12  1  0.734810  0.744883  0.589693  1
  Co  Co13  1  0.765190  0.244883  0.089693  1
  Co  Co14  1  0.265190  0.255117  0.410307  1
  Co  Co15  1  0.234810  0.755117  0.910307  1
  O  O16  1  0.764198  0.969378  0.630823  1
  O  O17  1  0.735802  0.469378  0.130823  1
  O  O18  1  0.235802  0.030622  0.369177  1
  O  O19  1  0.264198  0.530622  0.869177  1
  O  O20  1  0.728900  0.059064  0.171426  1
  O  O21  1  0.771100  0.559064  0.671426  1
  O  O22  1  0.271100  0.940936  0.828574  1
  O  O23  1  0.228900  0.440936  0.328574  1
  O  O24  1  0.566388  0.743501  0.280703  1
  O  O25  1  0.933612  0.243501  0.780703  1
  O  O26  1  0.433612  0.256499  0.719297  1
  O  O27  1  0.066388  0.756499  0.219297  1
  O  O28  1  0.546685  0.225402  0.983350  1
  O  O29  1  0.953315  0.725402  0.483350  1
  O  O30  1  0.453315  0.774598  0.016650  1
  O  O31  1  0.046685  0.274598  0.516650  1
  O  O32  1  0.046624  0.237404  0.033017  1
  O  O33  1  0.453376  0.737404  0.533017  1
  O  O34  1  0.953376  0.762596  0.966983  1
  O  O35  1  0.546624  0.262596  0.466983  1
