# generated using pymatgen
data_V3Co4Si4Mo
_symmetry_space_group_name_H-M   'P 1'
_cell_length_a   3.55764600
_cell_length_b   6.00246103
_cell_length_c   6.86766703
_cell_angle_alpha   89.98813553
_cell_angle_beta   90.00000000
_cell_angle_gamma   90.00000000
_symmetry_Int_Tables_number   1
_chemical_formula_structural   V3Co4Si4Mo
_chemical_formula_sum   'V3 Co4 Si4 Mo1'
_cell_volume   146.65649557
_cell_formula_units_Z   1
loop_
 _symmetry_equiv_pos_site_id
 _symmetry_equiv_pos_as_xyz
  1  'x, y, z'
loop_
 _atom_site_type_symbol
 _atom_site_label
 _atom_site_symmetry_multiplicity
 _atom_site_fract_x
 _atom_site_fract_y
 _atom_site_fract_z
 _atom_site_occupancy
  V  V0  1  0.250000  0.023634  0.176622  1
  V  V1  1  0.750000  0.973272  0.824534  1
  V  V2  1  0.250000  0.525636  0.323839  1
  Co  Co3  1  0.250000  0.645129  0.942034  1
  Co  Co4  1  0.250000  0.142631  0.559549  1
  Co  Co5  1  0.750000  0.857310  0.437824  1
  Co  Co6  1  0.750000  0.357143  0.061660  1
  Si  Si7  1  0.250000  0.773620  0.624612  1
  Si  Si8  1  0.250000  0.265466  0.878859  1
  Si  Si9  1  0.750000  0.230017  0.372345  1
  Si  Si10  1  0.750000  0.731982  0.124786  1
  Mo  Mo11  1  0.750000  0.474162  0.673338  1
