# generated using pymatgen
data_Tb4Pr16Si15Pd
_symmetry_space_group_name_H-M   'P 1'
_cell_length_a   7.88649133
_cell_length_b   7.85334686
_cell_length_c   15.25995476
_cell_angle_alpha   89.90566647
_cell_angle_beta   89.68232536
_cell_angle_gamma   90.23231040
_symmetry_Int_Tables_number   1
_chemical_formula_structural   Tb4Pr16Si15Pd
_chemical_formula_sum   'Tb4 Pr16 Si15 Pd1'
_cell_volume   945.10705668
_cell_formula_units_Z   1
loop_
 _symmetry_equiv_pos_site_id
 _symmetry_equiv_pos_as_xyz
  1  'x, y, z'
loop_
 _atom_site_type_symbol
 _atom_site_label
 _atom_site_symmetry_multiplicity
 _atom_site_fract_x
 _atom_site_fract_y
 _atom_site_fract_z
 _atom_site_occupancy
  Tb  Tb0  1  0.308973  0.308928  0.999868  1
  Tb  Tb1  1  0.188949  0.809630  0.249855  1
  Tb  Tb2  1  0.808057  0.187170  0.751526  1
  Tb  Tb3  1  0.689542  0.686711  0.499534  1
  Pr  Pr4  1  0.373886  0.010697  0.447027  1
  Pr  Pr5  1  0.490190  0.870888  0.698977  1
  Pr  Pr6  1  0.511058  0.123574  0.196312  1
  Pr  Pr7  1  0.875245  0.486471  0.300839  1
  Pr  Pr8  1  0.122328  0.511678  0.801522  1
  Pr  Pr9  1  0.628491  0.987781  0.949439  1
  Pr  Pr10  1  0.001885  0.376472  0.551542  1
  Pr  Pr11  1  0.988338  0.626280  0.052910  1
  Pr  Pr12  1  0.135439  0.986485  0.876014  1
  Pr  Pr13  1  0.520113  0.631700  0.126608  1
  Pr  Pr14  1  0.474522  0.366731  0.629648  1
  Pr  Pr15  1  0.628298  0.521212  0.873541  1
  Pr  Pr16  1  0.370896  0.479457  0.372083  1
  Pr  Pr17  1  0.873202  0.022948  0.377804  1
  Pr  Pr18  1  0.979601  0.126272  0.122983  1
  Pr  Pr19  1  0.021970  0.875774  0.621618  1
  Si  Si20  1  0.330142  0.691406  0.953540  1
  Si  Si21  1  0.664013  0.308145  0.455702  1
  Si  Si22  1  0.693601  0.334012  0.046520  1
  Si  Si23  1  0.309827  0.669727  0.544568  1
  Si  Si24  1  0.810034  0.830272  0.206783  1
  Si  Si25  1  0.170408  0.190983  0.293763  1
  Si  Si26  1  0.835001  0.809449  0.794931  1
  Si  Si27  1  0.286639  0.924175  0.061643  1
  Si  Si28  1  0.578191  0.785027  0.312771  1
  Si  Si29  1  0.436125  0.207739  0.816453  1
  Si  Si30  1  0.784731  0.579364  0.687310  1
  Si  Si31  1  0.213212  0.424691  0.187088  1
  Si  Si32  1  0.707433  0.074160  0.561605  1
  Si  Si33  1  0.923094  0.288518  0.938468  1
  Si  Si34  1  0.077692  0.714273  0.438001  1
  Pd  Pd35  1  0.188872  0.171199  0.701202  1
