# generated using pymatgen
data_Ho3ErIr8
_symmetry_space_group_name_H-M   'P 1'
_cell_length_a   5.35472000
_cell_length_b   5.35471852
_cell_length_c   8.69234000
_cell_angle_alpha   90.00000000
_cell_angle_beta   90.00000000
_cell_angle_gamma   119.99998441
_symmetry_Int_Tables_number   1
_chemical_formula_structural   Ho3ErIr8
_chemical_formula_sum   'Ho3 Er1 Ir8'
_cell_volume   215.84441627
_cell_formula_units_Z   1
loop_
 _symmetry_equiv_pos_site_id
 _symmetry_equiv_pos_as_xyz
  1  'x, y, z'
loop_
 _atom_site_type_symbol
 _atom_site_label
 _atom_site_symmetry_multiplicity
 _atom_site_fract_x
 _atom_site_fract_y
 _atom_site_fract_z
 _atom_site_occupancy
  Ho  Ho0  1  0.333333  0.666667  0.067344  1
  Ho  Ho1  1  0.666667  0.333333  0.566716  1
  Ho  Ho2  1  0.666667  0.333333  0.932765  1
  Er  Er3  1  0.333333  0.666667  0.432980  1
  Ir  Ir4  1  0.000000  0.000000  0.000030  1
  Ir  Ir5  1  0.000000  0.000000  0.500104  1
  Ir  Ir6  1  0.829861  0.659721  0.250267  1
  Ir  Ir7  1  0.170099  0.829901  0.749754  1
  Ir  Ir8  1  0.659802  0.829901  0.749754  1
  Ir  Ir9  1  0.340279  0.170139  0.250267  1
  Ir  Ir10  1  0.829861  0.170139  0.250267  1
  Ir  Ir11  1  0.170099  0.340198  0.749754  1
