# generated using pymatgen
data_Ti5Tc8W3
_symmetry_space_group_name_H-M   'P 1'
_cell_length_a   6.25496400
_cell_length_b   6.25496400
_cell_length_c   6.25496400
_cell_angle_alpha   90.00000000
_cell_angle_beta   90.00000000
_cell_angle_gamma   90.00000000
_symmetry_Int_Tables_number   1
_chemical_formula_structural   Ti5Tc8W3
_chemical_formula_sum   'Ti5 Tc8 W3'
_cell_volume   244.72280590
_cell_formula_units_Z   1
loop_
 _symmetry_equiv_pos_site_id
 _symmetry_equiv_pos_as_xyz
  1  'x, y, z'
loop_
 _atom_site_type_symbol
 _atom_site_label
 _atom_site_symmetry_multiplicity
 _atom_site_fract_x
 _atom_site_fract_y
 _atom_site_fract_z
 _atom_site_occupancy
  Ti  Ti0  1  0.000000  0.000000  0.000000  1
  Ti  Ti1  1  0.499999  0.499999  0.000000  1
  Ti  Ti2  1  0.499999  0.000000  0.499999  1
  Ti  Ti3  1  0.000000  0.499999  0.499999  1
  Ti  Ti4  1  0.499999  0.499999  0.499999  1
  Tc  Tc5  1  0.249167  0.249167  0.249167  1
  Tc  Tc6  1  0.750833  0.249167  0.249167  1
  Tc  Tc7  1  0.249167  0.750833  0.249167  1
  Tc  Tc8  1  0.750833  0.750833  0.249167  1
  Tc  Tc9  1  0.249167  0.249167  0.750833  1
  Tc  Tc10  1  0.750833  0.249167  0.750833  1
  Tc  Tc11  1  0.249167  0.750833  0.750833  1
  Tc  Tc12  1  0.750833  0.750833  0.750833  1
  W  W13  1  0.499999  0.000000  0.000000  1
  W  W14  1  0.000000  0.499999  0.000000  1
  W  W15  1  0.000000  0.000000  0.499999  1
