# generated using pymatgen
data_Li2Ta3Ni9As7
_symmetry_space_group_name_H-M   'P 1'
_cell_length_a   9.58428800
_cell_length_b   9.58428860
_cell_length_c   3.73425600
_cell_angle_alpha   90.00000000
_cell_angle_beta   90.00000000
_cell_angle_gamma   120.00000483
_symmetry_Int_Tables_number   1
_chemical_formula_structural   Li2Ta3Ni9As7
_chemical_formula_sum   'Li2 Ta3 Ni9 As7'
_cell_volume   297.06701752
_cell_formula_units_Z   1
loop_
 _symmetry_equiv_pos_site_id
 _symmetry_equiv_pos_as_xyz
  1  'x, y, z'
loop_
 _atom_site_type_symbol
 _atom_site_label
 _atom_site_symmetry_multiplicity
 _atom_site_fract_x
 _atom_site_fract_y
 _atom_site_fract_z
 _atom_site_occupancy
  Li  Li0  1  0.333333  0.666667  0.000000  1
  Li  Li1  1  0.000000  0.000000  0.500000  1
  Ta  Ta2  1  0.764651  0.558797  0.500000  1
  Ta  Ta3  1  0.441203  0.205855  0.500000  1
  Ta  Ta4  1  0.794145  0.235349  0.500000  1
  Ni  Ni5  1  0.282256  0.383669  0.500000  1
  Ni  Ni6  1  0.616331  0.898586  0.500000  1
  Ni  Ni7  1  0.101414  0.717744  0.500000  1
  Ni  Ni8  1  0.503585  0.454988  0.000000  1
  Ni  Ni9  1  0.545012  0.048597  0.000000  1
  Ni  Ni10  1  0.951403  0.496415  0.000000  1
  Ni  Ni11  1  0.723860  0.760279  0.000000  1
  Ni  Ni12  1  0.239721  0.963581  0.000000  1
  Ni  Ni13  1  0.036419  0.276140  0.000000  1
  As  As14  1  0.969278  0.760269  0.000000  1
  As  As15  1  0.239731  0.209009  0.000000  1
  As  As16  1  0.790991  0.030722  0.000000  1
  As  As17  1  0.666667  0.333333  0.000000  1
  As  As18  1  0.532628  0.626647  0.500000  1
  As  As19  1  0.373353  0.905981  0.500000  1
  As  As20  1  0.094019  0.467372  0.500000  1
