# generated using pymatgen
data_EuErTmTaO7
_symmetry_space_group_name_H-M   'P 1'
_cell_length_a   6.43763707
_cell_length_b   6.43282594
_cell_length_c   7.51483800
_cell_angle_alpha   90.00000000
_cell_angle_beta   90.00000000
_cell_angle_gamma   108.84816287
_symmetry_Int_Tables_number   1
_chemical_formula_structural   EuErTmTaO7
_chemical_formula_sum   'Eu2 Er2 Tm2 Ta2 O14'
_cell_volume   294.51848729
_cell_formula_units_Z   2
loop_
 _symmetry_equiv_pos_site_id
 _symmetry_equiv_pos_as_xyz
  1  'x, y, z'
loop_
 _atom_site_type_symbol
 _atom_site_label
 _atom_site_symmetry_multiplicity
 _atom_site_fract_x
 _atom_site_fract_y
 _atom_site_fract_z
 _atom_site_occupancy
  Eu  Eu0  1  0.501106  0.501132  0.500128  1
  Eu  Eu1  1  0.498894  0.498868  0.000128  1
  Er  Er2  1  0.533915  0.000656  0.750400  1
  Er  Er3  1  0.466085  0.999344  0.250400  1
  Tm  Tm4  1  0.999015  0.466311  0.749586  1
  Tm  Tm5  1  0.000985  0.533689  0.249586  1
  Ta  Ta6  1  0.999948  0.999939  0.499937  1
  Ta  Ta7  1  0.000052  0.000061  0.999937  1
  O  O8  1  0.643152  0.358767  0.750051  1
  O  O9  1  0.356848  0.641233  0.250051  1
  O  O10  1  0.932687  0.069808  0.749987  1
  O  O11  1  0.067313  0.930192  0.249987  1
  O  O12  1  0.934346  0.678594  0.534692  1
  O  O13  1  0.065654  0.321406  0.034692  1
  O  O14  1  0.322418  0.070058  0.966958  1
  O  O15  1  0.677582  0.929942  0.466958  1
  O  O16  1  0.362948  0.633848  0.749974  1
  O  O17  1  0.637052  0.366152  0.249974  1
  O  O18  1  0.935992  0.679804  0.964191  1
  O  O19  1  0.064008  0.320196  0.464191  1
  O  O20  1  0.321339  0.068716  0.534098  1
  O  O21  1  0.678661  0.931284  0.034098  1
