# generated using pymatgen
data_Ba7Lu(BO3)6
_symmetry_space_group_name_H-M   'P 1'
_cell_length_a   8.32767120
_cell_length_b   8.32767249
_cell_length_c   8.32767200
_cell_angle_alpha   105.56710632
_cell_angle_beta   105.56709451
_cell_angle_gamma   105.56708677
_symmetry_Int_Tables_number   1
_chemical_formula_structural   Ba7Lu(BO3)6
_chemical_formula_sum   'Ba7 Lu1 B6 O18'
_cell_volume   498.57577938
_cell_formula_units_Z   1
loop_
 _symmetry_equiv_pos_site_id
 _symmetry_equiv_pos_as_xyz
  1  'x, y, z'
loop_
 _atom_site_type_symbol
 _atom_site_label
 _atom_site_symmetry_multiplicity
 _atom_site_fract_x
 _atom_site_fract_y
 _atom_site_fract_z
 _atom_site_occupancy
  Ba  Ba0  1  0.354233  0.731436  0.843290  1
  Ba  Ba1  1  0.843290  0.354233  0.731436  1
  Ba  Ba2  1  0.731436  0.843290  0.354233  1
  Ba  Ba3  1  0.645767  0.268564  0.156710  1
  Ba  Ba4  1  0.156710  0.645767  0.268564  1
  Ba  Ba5  1  0.268564  0.156710  0.645767  1
  Ba  Ba6  1  0.000000  0.000000  0.000000  1
  Lu  Lu7  1  0.500000  0.500000  0.500000  1
  B  B8  1  0.695866  0.611380  0.950602  1
  B  B9  1  0.950602  0.695866  0.611380  1
  B  B10  1  0.611380  0.950602  0.695866  1
  B  B11  1  0.049398  0.304134  0.388620  1
  B  B12  1  0.388620  0.049398  0.304134  1
  B  B13  1  0.304134  0.388620  0.049398  1
  O  O14  1  0.052216  0.801493  0.545108  1
  O  O15  1  0.545108  0.052216  0.801493  1
  O  O16  1  0.424729  0.498386  0.224465  1
  O  O17  1  0.498386  0.224465  0.424729  1
  O  O18  1  0.224465  0.424729  0.498386  1
  O  O19  1  0.775535  0.575271  0.501614  1
  O  O20  1  0.575271  0.501614  0.775535  1
  O  O21  1  0.501614  0.775535  0.575271  1
  O  O22  1  0.295173  0.214298  0.981774  1
  O  O23  1  0.214298  0.981774  0.295173  1
  O  O24  1  0.981774  0.295173  0.214298  1
  O  O25  1  0.704827  0.785702  0.018226  1
  O  O26  1  0.785702  0.018226  0.704827  1
  O  O27  1  0.018226  0.704827  0.785702  1
  O  O28  1  0.198507  0.454892  0.947784  1
  O  O29  1  0.454892  0.947784  0.198507  1
  O  O30  1  0.947784  0.198507  0.454892  1
  O  O31  1  0.801493  0.545108  0.052216  1
