# generated using pymatgen
data_SrPr(PPd3)4
_symmetry_space_group_name_H-M   'P 1'
_cell_length_a   8.56708077
_cell_length_b   8.56573200
_cell_length_c   8.57039077
_cell_angle_alpha   90.00000000
_cell_angle_beta   90.23982876
_cell_angle_gamma   90.00000000
_symmetry_Int_Tables_number   1
_chemical_formula_structural   SrPr(PPd3)4
_chemical_formula_sum   'Sr2 Pr2 P8 Pd24'
_cell_volume   628.91820022
_cell_formula_units_Z   2
loop_
 _symmetry_equiv_pos_site_id
 _symmetry_equiv_pos_as_xyz
  1  'x, y, z'
loop_
 _atom_site_type_symbol
 _atom_site_label
 _atom_site_symmetry_multiplicity
 _atom_site_fract_x
 _atom_site_fract_y
 _atom_site_fract_z
 _atom_site_occupancy
  Sr  Sr0  1  0.000000  0.500000  0.500000  1
  Sr  Sr1  1  0.000000  0.000000  0.000000  1
  Pr  Pr2  1  0.500000  0.500000  0.000000  1
  Pr  Pr3  1  0.500000  0.000000  0.500000  1
  P  P4  1  0.807846  0.307662  0.191098  1
  P  P5  1  0.192154  0.807662  0.308902  1
  P  P6  1  0.691695  0.691368  0.693050  1
  P  P7  1  0.308305  0.191368  0.806950  1
  P  P8  1  0.192154  0.692338  0.808902  1
  P  P9  1  0.807846  0.192338  0.691098  1
  P  P10  1  0.308305  0.308632  0.306950  1
  P  P11  1  0.691695  0.808632  0.193050  1
  Pd  Pd12  1  0.420550  0.847290  0.163645  1
  Pd  Pd13  1  0.579450  0.347290  0.336355  1
  Pd  Pd14  1  0.078601  0.152938  0.662017  1
  Pd  Pd15  1  0.921399  0.652938  0.837983  1
  Pd  Pd16  1  0.166215  0.421522  0.850113  1
  Pd  Pd17  1  0.340178  0.579553  0.344511  1
  Pd  Pd18  1  0.659822  0.079553  0.155489  1
  Pd  Pd19  1  0.833785  0.921522  0.649887  1
  Pd  Pd20  1  0.844978  0.160210  0.420487  1
  Pd  Pd21  1  0.349626  0.334310  0.578236  1
  Pd  Pd22  1  0.155022  0.660210  0.079513  1
  Pd  Pd23  1  0.650374  0.834310  0.921764  1
  Pd  Pd24  1  0.579450  0.152710  0.836355  1
  Pd  Pd25  1  0.420550  0.652710  0.663645  1
  Pd  Pd26  1  0.921399  0.847062  0.337983  1
  Pd  Pd27  1  0.078601  0.347062  0.162017  1
  Pd  Pd28  1  0.833785  0.578478  0.149887  1
  Pd  Pd29  1  0.659822  0.420447  0.655489  1
  Pd  Pd30  1  0.340178  0.920447  0.844511  1
  Pd  Pd31  1  0.166215  0.078478  0.350113  1
  Pd  Pd32  1  0.155022  0.839790  0.579513  1
  Pd  Pd33  1  0.650374  0.665690  0.421764  1
  Pd  Pd34  1  0.844978  0.339790  0.920487  1
  Pd  Pd35  1  0.349626  0.165690  0.078236  1
