# generated using pymatgen
data_LuSc(Re2Si)4
_symmetry_space_group_name_H-M   'P 1'
_cell_length_a   7.35328420
_cell_length_b   7.35328382
_cell_length_c   4.13712300
_cell_angle_alpha   90.00000000
_cell_angle_beta   90.00000000
_cell_angle_gamma   89.26078605
_symmetry_Int_Tables_number   1
_chemical_formula_structural   LuSc(Re2Si)4
_chemical_formula_sum   'Lu1 Sc1 Re8 Si4'
_cell_volume   223.67887375
_cell_formula_units_Z   1
loop_
 _symmetry_equiv_pos_site_id
 _symmetry_equiv_pos_as_xyz
  1  'x, y, z'
loop_
 _atom_site_type_symbol
 _atom_site_label
 _atom_site_symmetry_multiplicity
 _atom_site_fract_x
 _atom_site_fract_y
 _atom_site_fract_z
 _atom_site_occupancy
  Lu  Lu0  1  0.500000  0.500000  0.000000  1
  Sc  Sc1  1  0.000000  0.000000  0.500000  1
  Re  Re2  1  0.658908  0.907674  0.000000  1
  Re  Re3  1  0.156931  0.597979  0.500000  1
  Re  Re4  1  0.092326  0.341092  0.000000  1
  Re  Re5  1  0.907674  0.658908  0.000000  1
  Re  Re6  1  0.402021  0.843069  0.500000  1
  Re  Re7  1  0.597979  0.156931  0.500000  1
  Re  Re8  1  0.341092  0.092326  0.000000  1
  Re  Re9  1  0.843069  0.402021  0.500000  1
  Si  Si10  1  0.203768  0.796232  0.000000  1
  Si  Si11  1  0.796232  0.203768  0.000000  1
  Si  Si12  1  0.710638  0.710638  0.500000  1
  Si  Si13  1  0.289362  0.289362  0.500000  1
