# generated using pymatgen
data_Er2UTc2
_symmetry_space_group_name_H-M   'P 1'
_cell_length_a   5.89593508
_cell_length_b   5.89593613
_cell_length_c   5.89593651
_cell_angle_alpha   138.51833595
_cell_angle_beta   122.53614216
_cell_angle_gamma   73.32160961
_symmetry_Int_Tables_number   1
_chemical_formula_structural   Er2UTc2
_chemical_formula_sum   'Er2 U1 Tc2'
_cell_volume   111.95777789
_cell_formula_units_Z   1
loop_
 _symmetry_equiv_pos_site_id
 _symmetry_equiv_pos_as_xyz
  1  'x, y, z'
loop_
 _atom_site_type_symbol
 _atom_site_label
 _atom_site_symmetry_multiplicity
 _atom_site_fract_x
 _atom_site_fract_y
 _atom_site_fract_z
 _atom_site_occupancy
  Er  Er0  1  0.698708  0.198709  0.500000  1
  Er  Er1  1  0.301291  0.801291  0.500000  1
  U  U2  1  0.000000  0.000000  0.000000  1
  Tc  Tc3  1  0.749719  0.500000  0.249719  1
  Tc  Tc4  1  0.250280  0.500000  0.750280  1
