# generated using pymatgen
data_Lu16Tl2In4CoCu
_symmetry_space_group_name_H-M   'P 1'
_cell_length_a   10.23355274
_cell_length_b   10.23355332
_cell_length_c   6.80234807
_cell_angle_alpha   90.01374618
_cell_angle_beta   89.98625296
_cell_angle_gamma   119.95873728
_symmetry_Int_Tables_number   1
_chemical_formula_structural   Lu16Tl2In4CoCu
_chemical_formula_sum   'Lu16 Tl2 In4 Co1 Cu1'
_cell_volume   617.19554045
_cell_formula_units_Z   1
loop_
 _symmetry_equiv_pos_site_id
 _symmetry_equiv_pos_as_xyz
  1  'x, y, z'
loop_
 _atom_site_type_symbol
 _atom_site_label
 _atom_site_symmetry_multiplicity
 _atom_site_fract_x
 _atom_site_fract_y
 _atom_site_fract_z
 _atom_site_occupancy
  Lu  Lu0  1  0.528281  0.056210  0.527139  1
  Lu  Lu1  1  0.943790  0.471719  0.527139  1
  Lu  Lu2  1  0.528112  0.471888  0.526916  1
  Lu  Lu3  1  0.465766  0.930789  0.023656  1
  Lu  Lu4  1  0.069211  0.534234  0.023656  1
  Lu  Lu5  1  0.465159  0.534841  0.024077  1
  Lu  Lu6  1  0.178840  0.357583  0.731352  1
  Lu  Lu7  1  0.642417  0.821160  0.731352  1
  Lu  Lu8  1  0.178775  0.821225  0.731219  1
  Lu  Lu9  1  0.824012  0.647923  0.229906  1
  Lu  Lu10  1  0.352077  0.175988  0.229906  1
  Lu  Lu11  1  0.823967  0.176033  0.230731  1
  Lu  Lu12  1  0.666787  0.333213  0.899148  1
  Lu  Lu13  1  0.333332  0.666668  0.413025  1
  Lu  Lu14  1  0.999759  0.000241  0.504092  1
  Lu  Lu15  1  0.999783  0.000217  0.008570  1
  Tl  Tl16  1  0.836598  0.673200  0.764923  1
  Tl  Tl17  1  0.326800  0.163402  0.764923  1
  In  In18  1  0.836592  0.163408  0.764424  1
  In  In19  1  0.162702  0.325445  0.267300  1
  In  In20  1  0.674555  0.837298  0.267300  1
  In  In21  1  0.162727  0.837273  0.267398  1
  Co  Co22  1  0.333321  0.666679  0.798307  1
  Cu  Cu23  1  0.666634  0.333366  0.299224  1
