# generated using pymatgen
data_Tb10DyY5(InIr)4
_symmetry_space_group_name_H-M   'P 1'
_cell_length_a   9.70182481
_cell_length_b   9.70182521
_cell_length_c   9.70381200
_cell_angle_alpha   59.99322553
_cell_angle_beta   59.99322416
_cell_angle_gamma   59.98996025
_symmetry_Int_Tables_number   1
_chemical_formula_structural   Tb10DyY5(InIr)4
_chemical_formula_sum   'Tb10 Dy1 Y5 In4 Ir4'
_cell_volume   645.73869506
_cell_formula_units_Z   1
loop_
 _symmetry_equiv_pos_site_id
 _symmetry_equiv_pos_as_xyz
  1  'x, y, z'
loop_
 _atom_site_type_symbol
 _atom_site_label
 _atom_site_symmetry_multiplicity
 _atom_site_fract_x
 _atom_site_fract_y
 _atom_site_fract_z
 _atom_site_occupancy
  Tb  Tb0  1  0.599225  0.599225  0.598170  1
  Tb  Tb1  1  0.599225  0.599225  0.203380  1
  Tb  Tb2  1  0.599763  0.202252  0.598993  1
  Tb  Tb3  1  0.202252  0.599763  0.598993  1
  Tb  Tb4  1  0.058846  0.440417  0.441228  1
  Tb  Tb5  1  0.440417  0.058846  0.059510  1
  Tb  Tb6  1  0.440417  0.058846  0.441228  1
  Tb  Tb7  1  0.058846  0.440417  0.059510  1
  Tb  Tb8  1  0.440657  0.440657  0.059343  1
  Tb  Tb9  1  0.059073  0.059073  0.440927  1
  Dy  Dy10  1  0.189685  0.189685  0.810315  1
  Y  Y11  1  0.189686  0.810802  0.810016  1
  Y  Y12  1  0.810802  0.189686  0.189496  1
  Y  Y13  1  0.810802  0.189686  0.810016  1
  Y  Y14  1  0.189686  0.810802  0.189496  1
  Y  Y15  1  0.810507  0.810507  0.189493  1
  In  In16  1  0.833168  0.833168  0.833369  1
  In  In17  1  0.833168  0.833168  0.500295  1
  In  In18  1  0.833045  0.500602  0.833176  1
  In  In19  1  0.500602  0.833045  0.833176  1
  Ir  Ir20  1  0.391469  0.391469  0.391424  1
  Ir  Ir21  1  0.391469  0.391469  0.825639  1
  Ir  Ir22  1  0.391539  0.825652  0.391405  1
  Ir  Ir23  1  0.825652  0.391539  0.391405  1
