# generated using pymatgen
data_TbTm3(Ga3Pt)2
_symmetry_space_group_name_H-M   'P 1'
_cell_length_a   8.81957900
_cell_length_b   8.81957984
_cell_length_c   6.94113600
_cell_angle_alpha   90.00000000
_cell_angle_beta   90.00000000
_cell_angle_gamma   120.00108083
_symmetry_Int_Tables_number   1
_chemical_formula_structural   TbTm3(Ga3Pt)2
_chemical_formula_sum   'Tb2 Tm6 Ga12 Pt4'
_cell_volume   467.57599415
_cell_formula_units_Z   2
loop_
 _symmetry_equiv_pos_site_id
 _symmetry_equiv_pos_as_xyz
  1  'x, y, z'
loop_
 _atom_site_type_symbol
 _atom_site_label
 _atom_site_symmetry_multiplicity
 _atom_site_fract_x
 _atom_site_fract_y
 _atom_site_fract_z
 _atom_site_occupancy
  Tb  Tb0  1  0.000068  0.999932  0.250000  1
  Tb  Tb1  1  0.999932  0.000068  0.750000  1
  Tm  Tm2  1  0.520205  0.040421  0.250000  1
  Tm  Tm3  1  0.520091  0.479909  0.250000  1
  Tm  Tm4  1  0.959579  0.479795  0.250000  1
  Tm  Tm5  1  0.479795  0.959579  0.750000  1
  Tm  Tm6  1  0.479909  0.520091  0.750000  1
  Tm  Tm7  1  0.040421  0.520205  0.750000  1
  Ga  Ga8  1  0.167438  0.335055  0.046184  1
  Ga  Ga9  1  0.167623  0.832377  0.454039  1
  Ga  Ga10  1  0.664945  0.832562  0.453816  1
  Ga  Ga11  1  0.664945  0.832562  0.046184  1
  Ga  Ga12  1  0.167623  0.832377  0.045961  1
  Ga  Ga13  1  0.832562  0.664945  0.953816  1
  Ga  Ga14  1  0.832377  0.167623  0.954039  1
  Ga  Ga15  1  0.335055  0.167438  0.953816  1
  Ga  Ga16  1  0.167438  0.335055  0.453816  1
  Ga  Ga17  1  0.335055  0.167438  0.546184  1
  Ga  Ga18  1  0.832562  0.664945  0.546184  1
  Ga  Ga19  1  0.832377  0.167623  0.545961  1
  Pt  Pt20  1  0.333381  0.666619  0.028635  1
  Pt  Pt21  1  0.333381  0.666619  0.471365  1
  Pt  Pt22  1  0.666619  0.333381  0.971365  1
  Pt  Pt23  1  0.666619  0.333381  0.528635  1
