# generated using pymatgen
data_LiU6TiP10
_symmetry_space_group_name_H-M   'P 1'
_cell_length_a   8.10574200
_cell_length_b   8.10574108
_cell_length_c   5.53709600
_cell_angle_alpha   90.00000000
_cell_angle_beta   90.00000000
_cell_angle_gamma   119.99999561
_symmetry_Int_Tables_number   1
_chemical_formula_structural   LiU6TiP10
_chemical_formula_sum   'Li1 U6 Ti1 P10'
_cell_volume   315.06358280
_cell_formula_units_Z   1
loop_
 _symmetry_equiv_pos_site_id
 _symmetry_equiv_pos_as_xyz
  1  'x, y, z'
loop_
 _atom_site_type_symbol
 _atom_site_label
 _atom_site_symmetry_multiplicity
 _atom_site_fract_x
 _atom_site_fract_y
 _atom_site_fract_z
 _atom_site_occupancy
  Li  Li0  1  0.000000  0.000000  0.000000  1
  U  U1  1  0.614028  0.000000  0.248585  1
  U  U2  1  0.614028  0.614028  0.751415  1
  U  U3  1  0.000000  0.385972  0.751415  1
  U  U4  1  0.000000  0.614028  0.248585  1
  U  U5  1  0.385972  0.385972  0.248585  1
  U  U6  1  0.385972  0.000000  0.751415  1
  Ti  Ti7  1  0.000000  0.000000  0.500000  1
  P  P8  1  0.259078  0.000000  0.251163  1
  P  P9  1  0.259078  0.259078  0.748837  1
  P  P10  1  0.000000  0.740922  0.748837  1
  P  P11  1  0.000000  0.259078  0.251163  1
  P  P12  1  0.740922  0.740922  0.251163  1
  P  P13  1  0.740922  0.000000  0.748837  1
  P  P14  1  0.333333  0.666667  0.000000  1
  P  P15  1  0.666667  0.333333  0.500000  1
  P  P16  1  0.666667  0.333333  0.000000  1
  P  P17  1  0.333333  0.666667  0.500000  1
