# generated using pymatgen
data_Dy2TiMoO8
_symmetry_space_group_name_H-M   'P 1'
_cell_length_a   5.48334800
_cell_length_b   5.08419117
_cell_length_c   5.30368253
_cell_angle_alpha   82.76540716
_cell_angle_beta   90.00000000
_cell_angle_gamma   90.00000000
_symmetry_Int_Tables_number   1
_chemical_formula_structural   Dy2TiMoO8
_chemical_formula_sum   'Dy2 Ti1 Mo1 O8'
_cell_volume   146.68100649
_cell_formula_units_Z   1
loop_
 _symmetry_equiv_pos_site_id
 _symmetry_equiv_pos_as_xyz
  1  'x, y, z'
loop_
 _atom_site_type_symbol
 _atom_site_label
 _atom_site_symmetry_multiplicity
 _atom_site_fract_x
 _atom_site_fract_y
 _atom_site_fract_z
 _atom_site_occupancy
  Dy  Dy0  1  0.268448  0.500000  0.750000  1
  Dy  Dy1  1  0.743107  0.500000  0.250000  1
  Ti  Ti2  1  0.796554  0.000000  0.750000  1
  Mo  Mo3  1  0.179213  0.000000  0.250000  1
  O  O4  1  0.070962  0.238276  0.485082  1
  O  O5  1  0.936461  0.223932  0.999470  1
  O  O6  1  0.591052  0.255828  0.607285  1
  O  O7  1  0.407865  0.240606  0.110801  1
  O  O8  1  0.591052  0.744172  0.892715  1
  O  O9  1  0.407865  0.759394  0.389199  1
  O  O10  1  0.070962  0.761724  0.014918  1
  O  O11  1  0.936461  0.776068  0.500530  1
