# generated using pymatgen
data_Ca5La11(MgRu)4
_symmetry_space_group_name_H-M   'P 1'
_cell_length_a   10.14183724
_cell_length_b   10.14183676
_cell_length_c   10.22871300
_cell_angle_alpha   59.71623126
_cell_angle_beta   59.71623286
_cell_angle_gamma   59.71574484
_symmetry_Int_Tables_number   1
_chemical_formula_structural   Ca5La11(MgRu)4
_chemical_formula_sum   'Ca5 La11 Mg4 Ru4'
_cell_volume   739.14474927
_cell_formula_units_Z   1
loop_
 _symmetry_equiv_pos_site_id
 _symmetry_equiv_pos_as_xyz
  1  'x, y, z'
loop_
 _atom_site_type_symbol
 _atom_site_label
 _atom_site_symmetry_multiplicity
 _atom_site_fract_x
 _atom_site_fract_y
 _atom_site_fract_z
 _atom_site_occupancy
  Ca  Ca0  1  0.938954  0.562455  0.558838  1
  Ca  Ca1  1  0.562456  0.938953  0.939754  1
  Ca  Ca2  1  0.562455  0.938954  0.558838  1
  Ca  Ca3  1  0.560470  0.560470  0.939531  1
  Ca  Ca4  1  0.938953  0.562456  0.939754  1
  La  La5  1  0.943630  0.943630  0.556371  1
  La  La6  1  0.812932  0.186109  0.188327  1
  La  La7  1  0.186109  0.812931  0.812633  1
  La  La8  1  0.186109  0.812932  0.188327  1
  La  La9  1  0.188486  0.188486  0.811515  1
  La  La10  1  0.812931  0.186109  0.812633  1
  La  La11  1  0.812934  0.812934  0.187066  1
  La  La12  1  0.343950  0.343950  0.342780  1
  La  La13  1  0.343950  0.343950  0.969321  1
  La  La14  1  0.970342  0.343648  0.343006  1
  La  La15  1  0.343648  0.970342  0.343006  1
  Mg  Mg16  1  0.577404  0.577404  0.578646  1
  Mg  Mg17  1  0.577404  0.577404  0.266547  1
  Mg  Mg18  1  0.265861  0.577593  0.578274  1
  Mg  Mg19  1  0.577593  0.265861  0.578274  1
  Ru  Ru20  1  0.132861  0.132861  0.139743  1
  Ru  Ru21  1  0.132861  0.132861  0.594538  1
  Ru  Ru22  1  0.592794  0.134923  0.136142  1
  Ru  Ru23  1  0.134923  0.592794  0.136142  1
