# generated using pymatgen
data_PrSmSc3Sn4
_symmetry_space_group_name_H-M   'P 1'
_cell_length_a   7.73199900
_cell_length_b   8.04240900
_cell_length_c   15.08079700
_cell_angle_alpha   90.00000000
_cell_angle_beta   90.00000000
_cell_angle_gamma   90.00000000
_symmetry_Int_Tables_number   1
_chemical_formula_structural   PrSmSc3Sn4
_chemical_formula_sum   'Pr4 Sm4 Sc12 Sn16'
_cell_volume   937.78274762
_cell_formula_units_Z   4
loop_
 _symmetry_equiv_pos_site_id
 _symmetry_equiv_pos_as_xyz
  1  'x, y, z'
loop_
 _atom_site_type_symbol
 _atom_site_label
 _atom_site_symmetry_multiplicity
 _atom_site_fract_x
 _atom_site_fract_y
 _atom_site_fract_z
 _atom_site_occupancy
  Pr  Pr0  1  0.509234  0.325932  0.905939  1
  Pr  Pr1  1  0.009234  0.174068  0.594061  1
  Pr  Pr2  1  0.490766  0.674068  0.405939  1
  Pr  Pr3  1  0.990766  0.825932  0.094061  1
  Sm  Sm4  1  0.492750  0.674338  0.095465  1
  Sm  Sm5  1  0.992750  0.825662  0.404535  1
  Sm  Sm6  1  0.507250  0.325662  0.595465  1
  Sm  Sm7  1  0.007250  0.174338  0.904535  1
  Sc  Sc8  1  0.339854  0.836577  0.872504  1
  Sc  Sc9  1  0.839854  0.663423  0.627496  1
  Sc  Sc10  1  0.660146  0.163423  0.372504  1
  Sc  Sc11  1  0.160146  0.336577  0.127496  1
  Sc  Sc12  1  0.660083  0.161238  0.127294  1
  Sc  Sc13  1  0.160083  0.338762  0.372706  1
  Sc  Sc14  1  0.339917  0.838762  0.627294  1
  Sc  Sc15  1  0.839917  0.661238  0.872706  1
  Sc  Sc16  1  0.173487  0.503281  0.750561  1
  Sc  Sc17  1  0.673487  0.996719  0.749439  1
  Sc  Sc18  1  0.826513  0.496719  0.250561  1
  Sc  Sc19  1  0.326513  0.003281  0.249439  1
  Sn  Sn20  1  0.322424  0.042795  0.042607  1
  Sn  Sn21  1  0.822424  0.457205  0.457393  1
  Sn  Sn22  1  0.677576  0.957205  0.542607  1
  Sn  Sn23  1  0.177576  0.542795  0.957393  1
  Sn  Sn24  1  0.676342  0.954097  0.956663  1
  Sn  Sn25  1  0.176342  0.545903  0.543337  1
  Sn  Sn26  1  0.323658  0.045903  0.456663  1
  Sn  Sn27  1  0.823658  0.454097  0.043337  1
  Sn  Sn28  1  0.534565  0.630170  0.749101  1
  Sn  Sn29  1  0.034565  0.869830  0.750899  1
  Sn  Sn30  1  0.465435  0.369830  0.249101  1
  Sn  Sn31  1  0.965435  0.130170  0.250899  1
  Sn  Sn32  1  0.314495  0.144201  0.750320  1
  Sn  Sn33  1  0.814495  0.355799  0.749680  1
  Sn  Sn34  1  0.685505  0.855799  0.250320  1
  Sn  Sn35  1  0.185505  0.644201  0.249680  1
