# generated using pymatgen
data_Dy2Ga10Os3
_symmetry_space_group_name_H-M   'P 1'
_cell_length_a   8.91758000
_cell_length_b   8.91758000
_cell_length_c   6.42090600
_cell_angle_alpha   90.00000000
_cell_angle_beta   90.00000000
_cell_angle_gamma   90.00000000
_symmetry_Int_Tables_number   1
_chemical_formula_structural   Dy2Ga10Os3
_chemical_formula_sum   'Dy4 Ga20 Os6'
_cell_volume   510.61120427
_cell_formula_units_Z   2
loop_
 _symmetry_equiv_pos_site_id
 _symmetry_equiv_pos_as_xyz
  1  'x, y, z'
loop_
 _atom_site_type_symbol
 _atom_site_label
 _atom_site_symmetry_multiplicity
 _atom_site_fract_x
 _atom_site_fract_y
 _atom_site_fract_z
 _atom_site_occupancy
  Dy  Dy0  1  0.183277  0.316723  0.000000  1
  Dy  Dy1  1  0.683277  0.183277  0.000000  1
  Dy  Dy2  1  0.816723  0.683277  0.000000  1
  Dy  Dy3  1  0.316723  0.816723  0.000000  1
  Ga  Ga4  1  0.500000  0.000000  0.285687  1
  Ga  Ga5  1  0.500000  0.000000  0.714313  1
  Ga  Ga6  1  0.293306  0.561194  0.706636  1
  Ga  Ga7  1  0.000000  0.500000  0.285687  1
  Ga  Ga8  1  0.000000  0.500000  0.714313  1
  Ga  Ga9  1  0.061194  0.793306  0.706636  1
  Ga  Ga10  1  0.206694  0.061194  0.293364  1
  Ga  Ga11  1  0.061194  0.793306  0.293364  1
  Ga  Ga12  1  0.706694  0.438806  0.706636  1
  Ga  Ga13  1  0.206694  0.061194  0.706636  1
  Ga  Ga14  1  0.938806  0.206694  0.706636  1
  Ga  Ga15  1  0.706694  0.438806  0.293364  1
  Ga  Ga16  1  0.561194  0.706694  0.293364  1
  Ga  Ga17  1  0.938806  0.206694  0.293364  1
  Ga  Ga18  1  0.561194  0.706694  0.706636  1
  Ga  Ga19  1  0.793306  0.938806  0.293364  1
  Ga  Ga20  1  0.438806  0.293306  0.706636  1
  Ga  Ga21  1  0.793306  0.938806  0.706636  1
  Ga  Ga22  1  0.438806  0.293306  0.293364  1
  Ga  Ga23  1  0.293306  0.561194  0.293364  1
  Os  Os24  1  0.178237  0.321763  0.500000  1
  Os  Os25  1  0.321763  0.821763  0.500000  1
  Os  Os26  1  0.821763  0.678237  0.500000  1
  Os  Os27  1  0.000000  0.000000  0.000000  1
  Os  Os28  1  0.678237  0.178237  0.500000  1
  Os  Os29  1  0.500000  0.500000  0.000000  1
