# generated using pymatgen
data_Ba4Li3In(Sn2Pb)2
_symmetry_space_group_name_H-M   'P 1'
_cell_length_a   11.20270386
_cell_length_b   11.20270258
_cell_length_c   7.85436569
_cell_angle_alpha   89.55367162
_cell_angle_beta   89.55367620
_cell_angle_gamma   27.34743426
_symmetry_Int_Tables_number   1
_chemical_formula_structural   Ba4Li3In(Sn2Pb)2
_chemical_formula_sum   'Ba4 Li3 In1 Sn4 Pb2'
_cell_volume   452.81384646
_cell_formula_units_Z   1
loop_
 _symmetry_equiv_pos_site_id
 _symmetry_equiv_pos_as_xyz
  1  'x, y, z'
loop_
 _atom_site_type_symbol
 _atom_site_label
 _atom_site_symmetry_multiplicity
 _atom_site_fract_x
 _atom_site_fract_y
 _atom_site_fract_z
 _atom_site_occupancy
  Ba  Ba0  1  0.658048  0.658048  0.248471  1
  Ba  Ba1  1  0.340701  0.340701  0.758821  1
  Ba  Ba2  1  0.448050  0.448050  0.253186  1
  Ba  Ba3  1  0.550746  0.550746  0.744850  1
  Li  Li4  1  0.189793  0.189793  0.558549  1
  Li  Li5  1  0.813270  0.813270  0.065965  1
  Li  Li6  1  0.188145  0.188145  0.933015  1
  In  In7  1  0.808452  0.808452  0.441239  1
  Sn  Sn8  1  0.938376  0.938376  0.939896  1
  Sn  Sn9  1  0.063368  0.063368  0.059637  1
  Sn  Sn10  1  0.939856  0.939856  0.573089  1
  Sn  Sn11  1  0.062732  0.062732  0.426247  1
  Pb  Pb12  1  0.278035  0.278035  0.235672  1
  Pb  Pb13  1  0.720427  0.720427  0.761361  1
