# generated using pymatgen
data_Ac8Zn2CuSi12Pd
_symmetry_space_group_name_H-M   'P 1'
_cell_length_a   8.37633300
_cell_length_b   8.37633310
_cell_length_c   9.33435900
_cell_angle_alpha   90.00000000
_cell_angle_beta   90.00000000
_cell_angle_gamma   120.00000354
_symmetry_Int_Tables_number   1
_chemical_formula_structural   Ac8Zn2CuSi12Pd
_chemical_formula_sum   'Ac8 Zn2 Cu1 Si12 Pd1'
_cell_volume   567.18271887
_cell_formula_units_Z   1
loop_
 _symmetry_equiv_pos_site_id
 _symmetry_equiv_pos_as_xyz
  1  'x, y, z'
loop_
 _atom_site_type_symbol
 _atom_site_label
 _atom_site_symmetry_multiplicity
 _atom_site_fract_x
 _atom_site_fract_y
 _atom_site_fract_z
 _atom_site_occupancy
  Ac  Ac0  1  0.500446  0.499554  0.750147  1
  Ac  Ac1  1  0.500702  0.499298  0.249905  1
  Ac  Ac2  1  0.999107  0.499554  0.750147  1
  Ac  Ac3  1  0.998595  0.499298  0.249905  1
  Ac  Ac4  1  0.500446  0.000893  0.750147  1
  Ac  Ac5  1  0.500702  0.001405  0.249905  1
  Ac  Ac6  1  0.000000  0.000000  0.751092  1
  Ac  Ac7  1  0.000000  0.000000  0.248834  1
  Zn  Zn8  1  0.333333  0.666667  0.001347  1
  Zn  Zn9  1  0.333333  0.666667  0.499388  1
  Cu  Cu10  1  0.666667  0.333333  0.999147  1
  Si  Si11  1  0.830439  0.169561  0.000490  1
  Si  Si12  1  0.164652  0.835348  0.999428  1
  Si  Si13  1  0.339122  0.169561  0.000490  1
  Si  Si14  1  0.162939  0.837061  0.499618  1
  Si  Si15  1  0.670697  0.835348  0.999428  1
  Si  Si16  1  0.832911  0.167089  0.500473  1
  Si  Si17  1  0.830439  0.660878  0.000490  1
  Si  Si18  1  0.674124  0.837061  0.499618  1
  Si  Si19  1  0.164652  0.329303  0.999428  1
  Si  Si20  1  0.334178  0.167089  0.500473  1
  Si  Si21  1  0.162939  0.325876  0.499618  1
  Si  Si22  1  0.832911  0.665822  0.500473  1
  Pd  Pd23  1  0.666667  0.333333  0.500015  1
