# generated using pymatgen
data_Hf4V5Fe3
_symmetry_space_group_name_H-M   'P 1'
_cell_length_a   5.08781557
_cell_length_b   5.05476730
_cell_length_c   8.24477000
_cell_angle_alpha   90.00000000
_cell_angle_beta   90.00000000
_cell_angle_gamma   119.45760041
_symmetry_Int_Tables_number   1
_chemical_formula_structural   Hf4V5Fe3
_chemical_formula_sum   'Hf4 V5 Fe3'
_cell_volume   184.62458024
_cell_formula_units_Z   1
loop_
 _symmetry_equiv_pos_site_id
 _symmetry_equiv_pos_as_xyz
  1  'x, y, z'
loop_
 _atom_site_type_symbol
 _atom_site_label
 _atom_site_symmetry_multiplicity
 _atom_site_fract_x
 _atom_site_fract_y
 _atom_site_fract_z
 _atom_site_occupancy
  Hf  Hf0  1  0.668256  0.334124  0.940220  1
  Hf  Hf1  1  0.334614  0.665697  0.066024  1
  Hf  Hf2  1  0.334614  0.665697  0.433976  1
  Hf  Hf3  1  0.668256  0.334124  0.559780  1
  V  V4  1  0.168584  0.826230  0.750000  1
  V  V5  1  0.822810  0.178667  0.250000  1
  V  V6  1  0.659316  0.824065  0.750000  1
  V  V7  1  0.006269  0.002491  0.007334  1
  V  V8  1  0.006269  0.002491  0.492666  1
  Fe  Fe9  1  0.334702  0.170303  0.250000  1
  Fe  Fe10  1  0.167893  0.333337  0.750000  1
  Fe  Fe11  1  0.828417  0.662774  0.250000  1
