# generated using pymatgen
data_Pr16Zn3Co4Ag
_symmetry_space_group_name_H-M   'P 1'
_cell_length_a   9.76956487
_cell_length_b   9.76956473
_cell_length_c   9.76956489
_cell_angle_alpha   59.81113243
_cell_angle_beta   59.81113289
_cell_angle_gamma   59.81113686
_symmetry_Int_Tables_number   1
_chemical_formula_structural   Pr16Zn3Co4Ag
_chemical_formula_sum   'Pr16 Zn3 Co4 Ag1'
_cell_volume   656.51519750
_cell_formula_units_Z   1
loop_
 _symmetry_equiv_pos_site_id
 _symmetry_equiv_pos_as_xyz
  1  'x, y, z'
loop_
 _atom_site_type_symbol
 _atom_site_label
 _atom_site_symmetry_multiplicity
 _atom_site_fract_x
 _atom_site_fract_y
 _atom_site_fract_z
 _atom_site_occupancy
  Pr  Pr0  1  0.348146  0.348146  0.348146  1
  Pr  Pr1  1  0.348436  0.348436  0.953523  1
  Pr  Pr2  1  0.348436  0.953523  0.348436  1
  Pr  Pr3  1  0.953523  0.348436  0.348436  1
  Pr  Pr4  1  0.808123  0.192088  0.192088  1
  Pr  Pr5  1  0.191251  0.808201  0.808201  1
  Pr  Pr6  1  0.192088  0.808123  0.192088  1
  Pr  Pr7  1  0.808201  0.191251  0.808201  1
  Pr  Pr8  1  0.192088  0.192088  0.808123  1
  Pr  Pr9  1  0.808201  0.808201  0.191251  1
  Pr  Pr10  1  0.939624  0.561604  0.561604  1
  Pr  Pr11  1  0.561184  0.938540  0.938540  1
  Pr  Pr12  1  0.561604  0.939624  0.561604  1
  Pr  Pr13  1  0.938540  0.561184  0.938540  1
  Pr  Pr14  1  0.561604  0.561604  0.939624  1
  Pr  Pr15  1  0.938540  0.938540  0.561184  1
  Zn  Zn16  1  0.577114  0.577114  0.267895  1
  Zn  Zn17  1  0.577114  0.267895  0.577114  1
  Zn  Zn18  1  0.267895  0.577114  0.577114  1
  Co  Co19  1  0.140669  0.140669  0.140669  1
  Co  Co20  1  0.141526  0.141526  0.577704  1
  Co  Co21  1  0.141526  0.577704  0.141526  1
  Co  Co22  1  0.577704  0.141526  0.141526  1
  Ag  Ag23  1  0.576860  0.576860  0.576860  1
