# generated using pymatgen
data_Tb6Y5HoRh4
_symmetry_space_group_name_H-M   'P 1'
_cell_length_a   6.28774470
_cell_length_b   7.20108701
_cell_length_c   9.57425922
_cell_angle_alpha   90.01185334
_cell_angle_beta   89.93249505
_cell_angle_gamma   90.07558960
_symmetry_Int_Tables_number   1
_chemical_formula_structural   Tb6Y5HoRh4
_chemical_formula_sum   'Tb6 Y5 Ho1 Rh4'
_cell_volume   433.50833425
_cell_formula_units_Z   1
loop_
 _symmetry_equiv_pos_site_id
 _symmetry_equiv_pos_as_xyz
  1  'x, y, z'
loop_
 _atom_site_type_symbol
 _atom_site_label
 _atom_site_symmetry_multiplicity
 _atom_site_fract_x
 _atom_site_fract_y
 _atom_site_fract_z
 _atom_site_occupancy
  Tb  Tb0  1  0.669765  0.322624  0.563464  1
  Tb  Tb1  1  0.830151  0.822837  0.936470  1
  Tb  Tb2  1  0.669978  0.322760  0.936582  1
  Tb  Tb3  1  0.830416  0.822817  0.563478  1
  Tb  Tb4  1  0.330280  0.677215  0.436176  1
  Tb  Tb5  1  0.169617  0.177191  0.063745  1
  Y  Y6  1  0.330594  0.677289  0.063153  1
  Y  Y7  1  0.865219  0.532148  0.249935  1
  Y  Y8  1  0.634732  0.032232  0.250054  1
  Y  Y9  1  0.135088  0.467905  0.749684  1
  Y  Y10  1  0.364743  0.968097  0.749834  1
  Ho  Ho11  1  0.169819  0.177071  0.436063  1
  Rh  Rh12  1  0.061355  0.883248  0.250885  1
  Rh  Rh13  1  0.438283  0.381553  0.250555  1
  Rh  Rh14  1  0.938101  0.117572  0.749659  1
  Rh  Rh15  1  0.561861  0.617443  0.750263  1
