# generated using pymatgen
data_Ba10(BeSi5)3
_symmetry_space_group_name_H-M   'P 1'
_cell_length_a   6.62224989
_cell_length_b   6.62224984
_cell_length_c   17.91054754
_cell_angle_alpha   82.33288985
_cell_angle_beta   82.33287884
_cell_angle_gamma   102.37079566
_symmetry_Int_Tables_number   1
_chemical_formula_structural   Ba10(BeSi5)3
_chemical_formula_sum   'Ba10 Be3 Si15'
_cell_volume   749.63416360
_cell_formula_units_Z   1
loop_
 _symmetry_equiv_pos_site_id
 _symmetry_equiv_pos_as_xyz
  1  'x, y, z'
loop_
 _atom_site_type_symbol
 _atom_site_label
 _atom_site_symmetry_multiplicity
 _atom_site_fract_x
 _atom_site_fract_y
 _atom_site_fract_z
 _atom_site_occupancy
  Ba  Ba0  1  0.749539  0.251167  0.999602  1
  Ba  Ba1  1  0.112421  0.575287  0.792613  1
  Ba  Ba2  1  0.292302  0.707483  0.500117  1
  Ba  Ba3  1  0.764735  0.764735  0.647556  1
  Ba  Ba4  1  0.236059  0.236059  0.351678  1
  Ba  Ba5  1  0.575287  0.112421  0.792613  1
  Ba  Ba6  1  0.251167  0.749539  0.999602  1
  Ba  Ba7  1  0.707483  0.292302  0.500117  1
  Ba  Ba8  1  0.426562  0.884399  0.208330  1
  Ba  Ba9  1  0.884399  0.426562  0.208330  1
  Be  Be10  1  0.222075  0.222075  0.067045  1
  Be  Be11  1  0.896405  0.896405  0.263690  1
  Be  Be12  1  0.098163  0.098163  0.734294  1
  Si  Si13  1  0.778346  0.778346  0.933532  1
  Si  Si14  1  0.350218  0.350218  0.648675  1
  Si  Si15  1  0.281032  0.281032  0.937239  1
  Si  Si16  1  0.956124  0.956124  0.133604  1
  Si  Si17  1  0.648615  0.648615  0.352745  1
  Si  Si18  1  0.424082  0.424082  0.137614  1
  Si  Si19  1  0.057124  0.057124  0.863399  1
  Si  Si20  1  0.819773  0.819773  0.450313  1
  Si  Si21  1  0.310735  0.972313  0.647706  1
  Si  Si22  1  0.691572  0.026437  0.352460  1
  Si  Si23  1  0.178808  0.178808  0.550656  1
  Si  Si24  1  0.972313  0.310735  0.647706  1
  Si  Si25  1  0.026437  0.691572  0.352460  1
  Si  Si26  1  0.716734  0.716734  0.069314  1
  Si  Si27  1  0.571489  0.571489  0.856990  1
