# generated using pymatgen
data_CaCe(Al5Ru)4
_symmetry_space_group_name_H-M   'P 1'
_cell_length_a   6.88785104
_cell_length_b   6.88785013
_cell_length_c   9.18727600
_cell_angle_alpha   90.00000000
_cell_angle_beta   90.00000000
_cell_angle_gamma   96.91815139
_symmetry_Int_Tables_number   1
_chemical_formula_structural   CaCe(Al5Ru)4
_chemical_formula_sum   'Ca1 Ce1 Al20 Ru4'
_cell_volume   432.69376225
_cell_formula_units_Z   1
loop_
 _symmetry_equiv_pos_site_id
 _symmetry_equiv_pos_as_xyz
  1  'x, y, z'
loop_
 _atom_site_type_symbol
 _atom_site_label
 _atom_site_symmetry_multiplicity
 _atom_site_fract_x
 _atom_site_fract_y
 _atom_site_fract_z
 _atom_site_occupancy
  Ca  Ca0  1  0.874801  0.125199  0.750000  1
  Ce  Ce1  1  0.123664  0.876336  0.250000  1
  Al  Al2  1  0.589599  0.861913  0.250000  1
  Al  Al3  1  0.779133  0.520035  0.250000  1
  Al  Al4  1  0.161106  0.838894  0.899084  1
  Al  Al5  1  0.412315  0.139976  0.750000  1
  Al  Al6  1  0.623134  0.376866  0.955130  1
  Al  Al7  1  0.842913  0.157087  0.400485  1
  Al  Al8  1  0.773229  0.775255  0.999249  1
  Al  Al9  1  0.860024  0.587685  0.750000  1
  Al  Al10  1  0.842913  0.157087  0.099515  1
  Al  Al11  1  0.219471  0.476916  0.750000  1
  Al  Al12  1  0.161106  0.838894  0.600916  1
  Al  Al13  1  0.773229  0.775255  0.500751  1
  Al  Al14  1  0.479965  0.220867  0.250000  1
  Al  Al15  1  0.623134  0.376866  0.544870  1
  Al  Al16  1  0.224745  0.226771  0.500751  1
  Al  Al17  1  0.377496  0.622504  0.446701  1
  Al  Al18  1  0.138087  0.410401  0.250000  1
  Al  Al19  1  0.523084  0.780529  0.750000  1
  Al  Al20  1  0.377496  0.622504  0.053299  1
  Al  Al21  1  0.224745  0.226771  0.999249  1
  Ru  Ru22  1  0.497385  0.000079  0.000508  1
  Ru  Ru23  1  0.497385  0.000079  0.499492  1
  Ru  Ru24  1  0.999921  0.502615  0.000508  1
  Ru  Ru25  1  0.999921  0.502615  0.499492  1
