# generated using pymatgen
data_NdDyFe2(TeO6)2
_symmetry_space_group_name_H-M   'P 1'
_cell_length_a   5.22859500
_cell_length_b   5.22851159
_cell_length_c   10.02790100
_cell_angle_alpha   90.00072466
_cell_angle_beta   89.99889620
_cell_angle_gamma   119.99989835
_symmetry_Int_Tables_number   1
_chemical_formula_structural   NdDyFe2(TeO6)2
_chemical_formula_sum   'Nd1 Dy1 Fe2 Te2 O12'
_cell_volume   237.41283427
_cell_formula_units_Z   1
loop_
 _symmetry_equiv_pos_site_id
 _symmetry_equiv_pos_as_xyz
  1  'x, y, z'
loop_
 _atom_site_type_symbol
 _atom_site_label
 _atom_site_symmetry_multiplicity
 _atom_site_fract_x
 _atom_site_fract_y
 _atom_site_fract_z
 _atom_site_occupancy
  Nd  Nd0  1  0.000000  0.000000  0.500000  1
  Dy  Dy1  1  0.000000  0.000000  0.000000  1
  Fe  Fe2  1  0.333280  0.666637  0.244771  1
  Fe  Fe3  1  0.666720  0.333363  0.755229  1
  Te  Te4  1  0.333380  0.666690  0.754739  1
  Te  Te5  1  0.666620  0.333310  0.245261  1
  O  O6  1  0.364596  0.350462  0.136920  1
  O  O7  1  0.649460  0.014125  0.136915  1
  O  O8  1  0.985791  0.635324  0.136914  1
  O  O9  1  0.635404  0.649538  0.863080  1
  O  O10  1  0.350540  0.985875  0.863085  1
  O  O11  1  0.014209  0.364676  0.863086  1
  O  O12  1  0.635166  0.623781  0.355530  1
  O  O13  1  0.376143  0.011388  0.355524  1
  O  O14  1  0.988528  0.364752  0.355528  1
  O  O15  1  0.364834  0.376219  0.644470  1
  O  O16  1  0.623857  0.988612  0.644476  1
  O  O17  1  0.011472  0.635248  0.644472  1
