# generated using pymatgen
data_Yb3Np2O10
_symmetry_space_group_name_H-M   'P 1'
_cell_length_a   6.75617768
_cell_length_b   7.23898372
_cell_length_c   8.30420719
_cell_angle_alpha   100.38482197
_cell_angle_beta   96.84382059
_cell_angle_gamma   106.48913622
_symmetry_Int_Tables_number   1
_chemical_formula_structural   Yb3Np2O10
_chemical_formula_sum   'Yb6 Np4 O20'
_cell_volume   376.76049442
_cell_formula_units_Z   2
loop_
 _symmetry_equiv_pos_site_id
 _symmetry_equiv_pos_as_xyz
  1  'x, y, z'
loop_
 _atom_site_type_symbol
 _atom_site_label
 _atom_site_symmetry_multiplicity
 _atom_site_fract_x
 _atom_site_fract_y
 _atom_site_fract_z
 _atom_site_occupancy
  Yb  Yb0  1  0.629981  0.706452  0.701405  1
  Yb  Yb1  1  0.370019  0.293548  0.298595  1
  Yb  Yb2  1  0.189298  0.891101  0.880728  1
  Yb  Yb3  1  0.000000  0.500000  0.500000  1
  Yb  Yb4  1  0.810702  0.108899  0.119272  1
  Yb  Yb5  1  0.000000  0.000000  0.500000  1
  Np  Np6  1  0.396228  0.803471  0.296630  1
  Np  Np7  1  0.199854  0.397674  0.890967  1
  Np  Np8  1  0.800146  0.602326  0.109033  1
  Np  Np9  1  0.603772  0.196529  0.703370  1
  O  O10  1  0.439631  0.542757  0.132628  1
  O  O11  1  0.560168  0.004418  0.840679  1
  O  O12  1  0.273221  0.157244  0.737826  1
  O  O13  1  0.368774  0.616990  0.437908  1
  O  O14  1  0.049146  0.723401  0.316708  1
  O  O15  1  0.439832  0.995582  0.159321  1
  O  O16  1  0.150770  0.197143  0.020079  1
  O  O17  1  0.560369  0.457243  0.867372  1
  O  O18  1  0.852420  0.347820  0.955139  1
  O  O19  1  0.266055  0.593930  0.760827  1
  O  O20  1  0.950861  0.768425  0.655812  1
  O  O21  1  0.345740  0.037253  0.446119  1
  O  O22  1  0.654260  0.962747  0.553881  1
  O  O23  1  0.049139  0.231575  0.344188  1
  O  O24  1  0.733945  0.406070  0.239173  1
  O  O25  1  0.147580  0.652180  0.044861  1
  O  O26  1  0.849230  0.802857  0.979921  1
  O  O27  1  0.950854  0.276599  0.683292  1
  O  O28  1  0.631226  0.383010  0.562092  1
  O  O29  1  0.726779  0.842756  0.262174  1
