# generated using pymatgen
data_Ho4Zr3TiF28
_symmetry_space_group_name_H-M   'P 1'
_cell_length_a   5.66150907
_cell_length_b   8.99984118
_cell_length_c   12.06291200
_cell_angle_alpha   62.60345607
_cell_angle_beta   89.99111444
_cell_angle_gamma   89.98251026
_symmetry_Int_Tables_number   1
_chemical_formula_structural   Ho4Zr3TiF28
_chemical_formula_sum   'Ho4 Zr3 Ti1 F28'
_cell_volume   545.70186353
_cell_formula_units_Z   1
loop_
 _symmetry_equiv_pos_site_id
 _symmetry_equiv_pos_as_xyz
  1  'x, y, z'
loop_
 _atom_site_type_symbol
 _atom_site_label
 _atom_site_symmetry_multiplicity
 _atom_site_fract_x
 _atom_site_fract_y
 _atom_site_fract_z
 _atom_site_occupancy
  Ho  Ho0  1  0.756966  0.818473  0.764205  1
  Ho  Ho1  1  0.257288  0.187075  0.726950  1
  Ho  Ho2  1  0.243686  0.186562  0.239974  1
  Ho  Ho3  1  0.743385  0.815859  0.267080  1
  Zr  Zr4  1  0.755712  0.273950  0.955485  1
  Zr  Zr5  1  0.254956  0.726180  0.543452  1
  Zr  Zr6  1  0.245234  0.726411  0.045031  1
  Ti  Ti7  1  0.743571  0.274904  0.454095  1
  F  F8  1  0.467175  0.707727  0.920019  1
  F  F9  1  0.942093  0.287318  0.574940  1
  F  F10  1  0.530244  0.290607  0.080611  1
  F  F11  1  0.033751  0.708990  0.418148  1
  F  F12  1  0.462808  0.278129  0.542013  1
  F  F13  1  0.947170  0.721760  0.950299  1
  F  F14  1  0.552645  0.715398  0.451463  1
  F  F15  1  0.049128  0.278477  0.053307  1
  F  F16  1  0.772606  0.526958  0.856950  1
  F  F17  1  0.265784  0.472347  0.638913  1
  F  F18  1  0.226592  0.472712  0.146600  1
  F  F19  1  0.732374  0.509854  0.363542  1
  F  F20  1  0.758610  0.020233  0.058761  1
  F  F21  1  0.262750  0.979409  0.444219  1
  F  F22  1  0.243119  0.978383  0.939850  1
  F  F23  1  0.742448  0.038747  0.549482  1
  F  F24  1  0.977186  0.734891  0.646919  1
  F  F25  1  0.485311  0.266960  0.846511  1
  F  F26  1  0.010202  0.266835  0.362142  1
  F  F27  1  0.519892  0.729365  0.153033  1
  F  F28  1  0.035074  0.746586  0.175732  1
  F  F29  1  0.548867  0.255372  0.331439  1
  F  F30  1  0.970825  0.252541  0.826003  1
  F  F31  1  0.466722  0.747340  0.673009  1
  F  F32  1  0.425546  0.974456  0.236616  1
  F  F33  1  0.925998  0.028522  0.268644  1
  F  F34  1  0.569580  0.027423  0.763494  1
  F  F35  1  0.074704  0.973245  0.731069  1
