# generated using pymatgen
data_Rb3Gd(BO3)2
_symmetry_space_group_name_H-M   'P 1'
_cell_length_a   5.72664200
_cell_length_b   7.16062400
_cell_length_c   9.63414400
_cell_angle_alpha   90.00000000
_cell_angle_beta   90.00000000
_cell_angle_gamma   90.00000000
_symmetry_Int_Tables_number   1
_chemical_formula_structural   Rb3Gd(BO3)2
_chemical_formula_sum   'Rb6 Gd2 B4 O12'
_cell_volume   395.06088952
_cell_formula_units_Z   2
loop_
 _symmetry_equiv_pos_site_id
 _symmetry_equiv_pos_as_xyz
  1  'x, y, z'
loop_
 _atom_site_type_symbol
 _atom_site_label
 _atom_site_symmetry_multiplicity
 _atom_site_fract_x
 _atom_site_fract_y
 _atom_site_fract_z
 _atom_site_occupancy
  Rb  Rb0  1  0.000000  0.234098  0.333161  1
  Rb  Rb1  1  0.000000  0.765902  0.666839  1
  Rb  Rb2  1  0.500000  0.734098  0.166839  1
  Rb  Rb3  1  0.500000  0.500000  0.500000  1
  Rb  Rb4  1  0.500000  0.265902  0.833161  1
  Rb  Rb5  1  0.000000  0.000000  0.000000  1
  Gd  Gd6  1  0.000000  0.500000  0.000000  1
  Gd  Gd7  1  0.500000  0.000000  0.500000  1
  B  B8  1  0.000000  0.767555  0.333305  1
  B  B9  1  0.000000  0.232445  0.666695  1
  B  B10  1  0.500000  0.732445  0.833305  1
  B  B11  1  0.500000  0.267555  0.166695  1
  O  O12  1  0.711169  0.310081  0.100314  1
  O  O13  1  0.211169  0.189919  0.600314  1
  O  O14  1  0.500000  0.184827  0.298627  1
  O  O15  1  0.711169  0.689919  0.899686  1
  O  O16  1  0.288831  0.310081  0.100314  1
  O  O17  1  0.211169  0.810081  0.399686  1
  O  O18  1  0.788831  0.189919  0.600314  1
  O  O19  1  0.288831  0.689919  0.899686  1
  O  O20  1  0.788831  0.810081  0.399686  1
  O  O21  1  0.000000  0.315173  0.798627  1
  O  O22  1  0.000000  0.684827  0.201373  1
  O  O23  1  0.500000  0.815173  0.701373  1
