# generated using pymatgen
data_CsTc12Cl25
_symmetry_space_group_name_H-M   'P 1'
_cell_length_a   10.03696226
_cell_length_b   10.77334442
_cell_length_c   11.52139274
_cell_angle_alpha   81.07708183
_cell_angle_beta   72.39819660
_cell_angle_gamma   86.24099768
_symmetry_Int_Tables_number   1
_chemical_formula_structural   CsTc12Cl25
_chemical_formula_sum   'Cs1 Tc12 Cl25'
_cell_volume   1172.89753596
_cell_formula_units_Z   1
loop_
 _symmetry_equiv_pos_site_id
 _symmetry_equiv_pos_as_xyz
  1  'x, y, z'
loop_
 _atom_site_type_symbol
 _atom_site_label
 _atom_site_symmetry_multiplicity
 _atom_site_fract_x
 _atom_site_fract_y
 _atom_site_fract_z
 _atom_site_occupancy
  Cs  Cs0  1  0.500000  0.000000  0.000000  1
  Tc  Tc1  1  0.837324  0.263264  0.125170  1
  Tc  Tc2  1  0.162676  0.736736  0.874830  1
  Tc  Tc3  1  0.763376  0.123187  0.289213  1
  Tc  Tc4  1  0.236624  0.876813  0.710787  1
  Tc  Tc5  1  0.068990  0.282785  0.189680  1
  Tc  Tc6  1  0.931010  0.717215  0.810320  1
  Tc  Tc7  1  0.847895  0.434332  0.266245  1
  Tc  Tc8  1  0.152105  0.565668  0.733755  1
  Tc  Tc9  1  0.773264  0.295507  0.431779  1
  Tc  Tc10  1  0.226736  0.704493  0.568221  1
  Tc  Tc11  1  0.993929  0.143465  0.354705  1
  Tc  Tc12  1  0.006071  0.856535  0.645295  1
  Cl  Cl13  1  0.948443  0.973061  0.265748  1
  Cl  Cl14  1  0.051557  0.026939  0.734252  1
  Cl  Cl15  1  0.966190  0.270708  0.510681  1
  Cl  Cl16  1  0.033810  0.729292  0.489319  1
  Cl  Cl17  1  0.666135  0.424588  0.175047  1
  Cl  Cl18  1  0.333865  0.575412  0.824953  1
  Cl  Cl19  1  0.075981  0.466423  0.276374  1
  Cl  Cl20  1  0.924019  0.533577  0.723626  1
  Cl  Cl21  1  0.000000  0.500000  0.000000  1
  Cl  Cl22  1  0.618758  0.975365  0.261491  1
  Cl  Cl23  1  0.381242  0.024635  0.738509  1
  Cl  Cl24  1  0.187478  0.034016  0.404548  1
  Cl  Cl25  1  0.812522  0.965984  0.595452  1
  Cl  Cl26  1  0.566005  0.223168  0.410733  1
  Cl  Cl27  1  0.433995  0.776832  0.589267  1
  Cl  Cl28  1  0.058233  0.172632  0.030158  1
  Cl  Cl29  1  0.941767  0.827368  0.969842  1
  Cl  Cl30  1  0.778227  0.636018  0.308679  1
  Cl  Cl31  1  0.221773  0.363982  0.691321  1
  Cl  Cl32  1  0.755406  0.228115  0.962285  1
  Cl  Cl33  1  0.244594  0.771885  0.037715  1
  Cl  Cl34  1  0.313795  0.278252  0.116419  1
  Cl  Cl35  1  0.686205  0.721748  0.883581  1
  Cl  Cl36  1  0.646271  0.393723  0.596730  1
  Cl  Cl37  1  0.353729  0.606277  0.403270  1
