# generated using pymatgen
data_Ca5P3F
_symmetry_space_group_name_H-M   'P 1'
_cell_length_a   6.51711800
_cell_length_b   8.27564046
_cell_length_c   8.27564100
_cell_angle_alpha   119.99999817
_cell_angle_beta   90.00000000
_cell_angle_gamma   90.00000000
_symmetry_Int_Tables_number   1
_chemical_formula_structural   Ca5P3F
_chemical_formula_sum   'Ca10 P6 F2'
_cell_volume   386.53558406
_cell_formula_units_Z   2
loop_
 _symmetry_equiv_pos_site_id
 _symmetry_equiv_pos_as_xyz
  1  'x, y, z'
loop_
 _atom_site_type_symbol
 _atom_site_label
 _atom_site_symmetry_multiplicity
 _atom_site_fract_x
 _atom_site_fract_y
 _atom_site_fract_z
 _atom_site_occupancy
  Ca  Ca0  1  0.500000  0.333333  0.666667  1
  Ca  Ca1  1  0.500000  0.666666  0.333333  1
  Ca  Ca2  1  0.000000  0.666667  0.333333  1
  Ca  Ca3  1  0.000000  0.333334  0.666667  1
  Ca  Ca4  1  0.750000  0.248421  0.000000  1
  Ca  Ca5  1  0.750000  0.751579  0.751579  1
  Ca  Ca6  1  0.750000  0.000000  0.248421  1
  Ca  Ca7  1  0.250000  0.751579  0.000000  1
  Ca  Ca8  1  0.250000  0.248421  0.248421  1
  Ca  Ca9  1  0.250000  0.000000  0.751579  1
  P  P10  1  0.750000  0.608327  0.000000  1
  P  P11  1  0.750000  0.391673  0.391673  1
  P  P12  1  0.750000  0.000000  0.608327  1
  P  P13  1  0.250000  0.391673  0.000000  1
  P  P14  1  0.250000  0.608327  0.608327  1
  P  P15  1  0.250000  0.000000  0.391673  1
  F  F16  1  0.500000  0.000000  0.000000  1
  F  F17  1  0.000000  0.000000  0.000000  1
