# generated using pymatgen
data_HoEr(Zr4Sn3)2
_symmetry_space_group_name_H-M   'P 1'
_cell_length_a   8.58480630
_cell_length_b   8.68050696
_cell_length_c   5.93085000
_cell_angle_alpha   90.00000000
_cell_angle_beta   90.00000000
_cell_angle_gamma   120.34568553
_symmetry_Int_Tables_number   1
_chemical_formula_structural   HoEr(Zr4Sn3)2
_chemical_formula_sum   'Ho1 Er1 Zr8 Sn6'
_cell_volume   381.41678040
_cell_formula_units_Z   1
loop_
 _symmetry_equiv_pos_site_id
 _symmetry_equiv_pos_as_xyz
  1  'x, y, z'
loop_
 _atom_site_type_symbol
 _atom_site_label
 _atom_site_symmetry_multiplicity
 _atom_site_fract_x
 _atom_site_fract_y
 _atom_site_fract_z
 _atom_site_occupancy
  Ho  Ho0  1  0.237724  0.999879  0.250000  1
  Er  Er1  1  0.238704  0.238861  0.750000  1
  Zr  Zr2  1  0.998349  0.745452  0.750000  1
  Zr  Zr3  1  0.998470  0.252878  0.250000  1
  Zr  Zr4  1  0.753567  0.754979  0.250000  1
  Zr  Zr5  1  0.754367  0.998657  0.750000  1
  Zr  Zr6  1  0.336632  0.668450  0.499988  1
  Zr  Zr7  1  0.668123  0.333946  0.999968  1
  Zr  Zr8  1  0.668123  0.333946  0.500032  1
  Zr  Zr9  1  0.336632  0.668450  0.000012  1
  Sn  Sn10  1  0.396180  0.997368  0.750000  1
  Sn  Sn11  1  0.396301  0.399116  0.250000  1
  Sn  Sn12  1  0.998237  0.604489  0.250000  1
  Sn  Sn13  1  0.998714  0.393622  0.750000  1
  Sn  Sn14  1  0.609818  0.609485  0.750000  1
  Sn  Sn15  1  0.610057  0.000425  0.250000  1
