# generated using pymatgen
data_Tm12Fe3Au2
_symmetry_space_group_name_H-M   'P 1'
_cell_length_a   8.07812311
_cell_length_b   8.07812289
_cell_length_c   8.07812308
_cell_angle_alpha   108.61720274
_cell_angle_beta   108.61719704
_cell_angle_gamma   111.19310529
_symmetry_Int_Tables_number   1
_chemical_formula_structural   Tm12Fe3Au2
_chemical_formula_sum   'Tm12 Fe3 Au2'
_cell_volume   405.52182038
_cell_formula_units_Z   1
loop_
 _symmetry_equiv_pos_site_id
 _symmetry_equiv_pos_as_xyz
  1  'x, y, z'
loop_
 _atom_site_type_symbol
 _atom_site_label
 _atom_site_symmetry_multiplicity
 _atom_site_fract_x
 _atom_site_fract_y
 _atom_site_fract_z
 _atom_site_occupancy
  Tm  Tm0  1  0.188489  0.432293  0.243803  1
  Tm  Tm1  1  0.811511  0.567707  0.756197  1
  Tm  Tm2  1  0.188489  0.944687  0.756197  1
  Tm  Tm3  1  0.944687  0.188489  0.756197  1
  Tm  Tm4  1  0.811511  0.055313  0.243803  1
  Tm  Tm5  1  0.055313  0.811511  0.243803  1
  Tm  Tm6  1  0.432293  0.188489  0.243803  1
  Tm  Tm7  1  0.567707  0.811511  0.756197  1
  Tm  Tm8  1  0.309982  0.309982  0.619964  1
  Tm  Tm9  1  0.690018  0.690018  0.380036  1
  Tm  Tm10  1  0.690018  0.309982  0.000000  1
  Tm  Tm11  1  0.309982  0.690018  0.000000  1
  Fe  Fe12  1  0.378580  0.378580  0.000000  1
  Fe  Fe13  1  0.621420  0.621420  0.000000  1
  Fe  Fe14  1  0.000000  0.000000  0.000000  1
  Au  Au15  1  0.000000  0.500000  0.500000  1
  Au  Au16  1  0.500000  0.000000  0.500000  1
