# generated using pymatgen
data_Th3Cd5Ir
_symmetry_space_group_name_H-M   'P 1'
_cell_length_a   8.18679000
_cell_length_b   8.18679163
_cell_length_c   3.96021300
_cell_angle_alpha   90.00000000
_cell_angle_beta   90.00000000
_cell_angle_gamma   119.99999341
_symmetry_Int_Tables_number   1
_chemical_formula_structural   Th3Cd5Ir
_chemical_formula_sum   'Th3 Cd5 Ir1'
_cell_volume   229.86698156
_cell_formula_units_Z   1
loop_
 _symmetry_equiv_pos_site_id
 _symmetry_equiv_pos_as_xyz
  1  'x, y, z'
loop_
 _atom_site_type_symbol
 _atom_site_label
 _atom_site_symmetry_multiplicity
 _atom_site_fract_x
 _atom_site_fract_y
 _atom_site_fract_z
 _atom_site_occupancy
  Th  Th0  1  0.573146  0.962641  0.000000  1
  Th  Th1  1  0.037359  0.610506  0.000000  1
  Th  Th2  1  0.389494  0.426854  0.000000  1
  Cd  Cd3  1  0.272466  0.013460  0.500000  1
  Cd  Cd4  1  0.986540  0.259006  0.500000  1
  Cd  Cd5  1  0.740994  0.727534  0.500000  1
  Cd  Cd6  1  0.666667  0.333333  0.500000  1
  Cd  Cd7  1  0.000000  0.000000  0.000000  1
  Ir  Ir8  1  0.333333  0.666667  0.500000  1
