# generated using pymatgen
data_Dy14Tm2InHg3RuRh3
_symmetry_space_group_name_H-M   'P 1'
_cell_length_a   9.60634954
_cell_length_b   9.60580690
_cell_length_c   9.59915313
_cell_angle_alpha   59.66156036
_cell_angle_beta   59.75136614
_cell_angle_gamma   59.76374971
_symmetry_Int_Tables_number   1
_chemical_formula_structural   Dy14Tm2InHg3RuRh3
_chemical_formula_sum   'Dy14 Tm2 In1 Hg3 Ru1 Rh3'
_cell_volume   622.43489830
_cell_formula_units_Z   1
loop_
 _symmetry_equiv_pos_site_id
 _symmetry_equiv_pos_as_xyz
  1  'x, y, z'
loop_
 _atom_site_type_symbol
 _atom_site_label
 _atom_site_symmetry_multiplicity
 _atom_site_fract_x
 _atom_site_fract_y
 _atom_site_fract_z
 _atom_site_occupancy
  Dy  Dy0  1  0.312687  0.686954  0.311346  1
  Dy  Dy1  1  0.936198  0.937238  0.560674  1
  Dy  Dy2  1  0.148836  0.149513  0.550258  1
  Dy  Dy3  1  0.561651  0.940425  0.559907  1
  Dy  Dy4  1  0.149678  0.149742  0.149736  1
  Dy  Dy5  1  0.312272  0.311149  0.687276  1
  Dy  Dy6  1  0.940120  0.561464  0.560423  1
  Dy  Dy7  1  0.561136  0.560171  0.940930  1
  Dy  Dy8  1  0.560841  0.936331  0.937089  1
  Dy  Dy9  1  0.935560  0.560894  0.937701  1
  Dy  Dy10  1  0.147932  0.550735  0.149307  1
  Dy  Dy11  1  0.311623  0.689534  0.689665  1
  Dy  Dy12  1  0.689785  0.311217  0.688579  1
  Dy  Dy13  1  0.551794  0.148067  0.149291  1
  Tm  Tm14  1  0.687359  0.312062  0.311401  1
  Tm  Tm15  1  0.689516  0.688984  0.310578  1
  In  In16  1  0.919884  0.920354  0.921184  1
  Hg  Hg17  1  0.914691  0.915226  0.256042  1
  Hg  Hg18  1  0.256289  0.915230  0.915032  1
  Hg  Hg19  1  0.914928  0.256203  0.915265  1
  Ru  Ru20  1  0.358019  0.357843  0.358283  1
  Rh  Rh21  1  0.925566  0.357488  0.356190  1
  Rh  Rh22  1  0.356142  0.356827  0.927275  1
  Rh  Rh23  1  0.357490  0.926346  0.356566  1
