# generated using pymatgen
data_Tm8B24IrRuW2
_symmetry_space_group_name_H-M   'P 1'
_cell_length_a   3.60632300
_cell_length_b   9.14935739
_cell_length_c   11.52590901
_cell_angle_alpha   90.03446166
_cell_angle_beta   90.00000000
_cell_angle_gamma   90.00000000
_symmetry_Int_Tables_number   1
_chemical_formula_structural   Tm8B24IrRuW2
_chemical_formula_sum   'Tm8 B24 Ir1 Ru1 W2'
_cell_volume   380.30350010
_cell_formula_units_Z   1
loop_
 _symmetry_equiv_pos_site_id
 _symmetry_equiv_pos_as_xyz
  1  'x, y, z'
loop_
 _atom_site_type_symbol
 _atom_site_label
 _atom_site_symmetry_multiplicity
 _atom_site_fract_x
 _atom_site_fract_y
 _atom_site_fract_z
 _atom_site_occupancy
  Tm  Tm0  1  0.000000  0.316429  0.414536  1
  Tm  Tm1  1  0.000000  0.678913  0.589256  1
  Tm  Tm2  1  0.000000  0.824486  0.083343  1
  Tm  Tm3  1  0.000000  0.179788  0.913201  1
  Tm  Tm4  1  0.000000  0.942795  0.373078  1
  Tm  Tm5  1  0.000000  0.053755  0.628660  1
  Tm  Tm6  1  0.000000  0.444138  0.126993  1
  Tm  Tm7  1  0.000000  0.559078  0.873032  1
  B  B8  1  0.500000  0.553821  0.433006  1
  B  B9  1  0.500000  0.449462  0.563213  1
  B  B10  1  0.500000  0.050632  0.063298  1
  B  B11  1  0.500000  0.946353  0.931744  1
  B  B12  1  0.500000  0.748767  0.420785  1
  B  B13  1  0.500000  0.247276  0.578124  1
  B  B14  1  0.500000  0.252275  0.078177  1
  B  B15  1  0.500000  0.752465  0.919416  1
  B  B16  1  0.500000  0.791557  0.265656  1
  B  B17  1  0.500000  0.205000  0.736615  1
  B  B18  1  0.500000  0.295065  0.236585  1
  B  B19  1  0.500000  0.709054  0.766346  1
  B  B20  1  0.500000  0.632688  0.183811  1
  B  B21  1  0.500000  0.369731  0.817395  1
  B  B22  1  0.500000  0.130303  0.317423  1
  B  B23  1  0.500000  0.867617  0.685394  1
  B  B24  1  0.500000  0.976867  0.212433  1
  B  B25  1  0.500000  0.016386  0.787087  1
  B  B26  1  0.500000  0.482847  0.286874  1
  B  B27  1  0.500000  0.523586  0.712805  1
  B  B28  1  0.500000  0.607233  0.029702  1
  B  B29  1  0.500000  0.399025  0.971805  1
  B  B30  1  0.500000  0.100635  0.471694  1
  B  B31  1  0.500000  0.892449  0.529460  1
  Ir  Ir32  1  0.000000  0.637984  0.321075  1
  Ru  Ru33  1  0.000000  0.861261  0.820580  1
  W  W34  1  0.000000  0.362594  0.678342  1
  W  W35  1  0.000000  0.137684  0.179058  1
