# generated using pymatgen
data_NdB2OsRu
_symmetry_space_group_name_H-M   'P 1'
_cell_length_a   6.79353765
_cell_length_b   6.00423124
_cell_length_c   5.63552113
_cell_angle_alpha   71.33521828
_cell_angle_beta   56.85955250
_cell_angle_gamma   51.80524679
_symmetry_Int_Tables_number   1
_chemical_formula_structural   NdB2OsRu
_chemical_formula_sum   'Nd2 B4 Os2 Ru2'
_cell_volume   151.21599960
_cell_formula_units_Z   2
loop_
 _symmetry_equiv_pos_site_id
 _symmetry_equiv_pos_as_xyz
  1  'x, y, z'
loop_
 _atom_site_type_symbol
 _atom_site_label
 _atom_site_symmetry_multiplicity
 _atom_site_fract_x
 _atom_site_fract_y
 _atom_site_fract_z
 _atom_site_occupancy
  Nd  Nd0  1  0.000000  0.000000  0.000000  1
  Nd  Nd1  1  0.250000  0.250000  0.250000  1
  B  B2  1  0.318517  0.681483  0.318517  1
  B  B3  1  0.681483  0.318517  0.681483  1
  B  B4  1  0.563441  0.936559  0.563441  1
  B  B5  1  0.936559  0.563441  0.936559  1
  Os  Os6  1  0.636933  0.636933  0.363067  1
  Os  Os7  1  0.363067  0.363067  0.636933  1
  Ru  Ru8  1  0.613620  0.613620  0.886380  1
  Ru  Ru9  1  0.886380  0.886380  0.613620  1
