# generated using pymatgen
data_Er3LuGa4PtRh3
_symmetry_space_group_name_H-M   'P 1'
_cell_length_a   4.29229800
_cell_length_b   6.79518910
_cell_length_c   7.77924533
_cell_angle_alpha   90.06605125
_cell_angle_beta   89.99988738
_cell_angle_gamma   90.00103496
_symmetry_Int_Tables_number   1
_chemical_formula_structural   Er3LuGa4PtRh3
_chemical_formula_sum   'Er3 Lu1 Ga4 Pt1 Rh3'
_cell_volume   226.89691546
_cell_formula_units_Z   1
loop_
 _symmetry_equiv_pos_site_id
 _symmetry_equiv_pos_as_xyz
  1  'x, y, z'
loop_
 _atom_site_type_symbol
 _atom_site_label
 _atom_site_symmetry_multiplicity
 _atom_site_fract_x
 _atom_site_fract_y
 _atom_site_fract_z
 _atom_site_occupancy
  Er  Er0  1  0.250002  0.972537  0.314577  1
  Er  Er1  1  0.249998  0.473881  0.189346  1
  Er  Er2  1  0.750002  0.530002  0.812896  1
  Lu  Lu3  1  0.750004  0.027681  0.684617  1
  Ga  Ga4  1  0.249996  0.351193  0.565034  1
  Ga  Ga5  1  0.250000  0.845210  0.931926  1
  Ga  Ga6  1  0.749993  0.651752  0.432794  1
  Ga  Ga7  1  0.750000  0.147997  0.070251  1
  Pt  Pt8  1  0.250001  0.233957  0.885179  1
  Rh  Rh9  1  0.249995  0.738223  0.612619  1
  Rh  Rh10  1  0.750003  0.763387  0.112215  1
  Rh  Rh11  1  0.750006  0.264182  0.388545  1
