# generated using pymatgen
data_Ca11Er9Pb16
_symmetry_space_group_name_H-M   'P 1'
_cell_length_a   7.94811942
_cell_length_b   16.16455595
_cell_length_c   8.60612391
_cell_angle_alpha   90.18274349
_cell_angle_beta   89.73917928
_cell_angle_gamma   90.00719875
_symmetry_Int_Tables_number   1
_chemical_formula_structural   Ca11Er9Pb16
_chemical_formula_sum   'Ca11 Er9 Pb16'
_cell_volume   1105.67896033
_cell_formula_units_Z   1
loop_
 _symmetry_equiv_pos_site_id
 _symmetry_equiv_pos_as_xyz
  1  'x, y, z'
loop_
 _atom_site_type_symbol
 _atom_site_label
 _atom_site_symmetry_multiplicity
 _atom_site_fract_x
 _atom_site_fract_y
 _atom_site_fract_z
 _atom_site_occupancy
  Ca  Ca0  1  0.677350  0.880097  0.155312  1
  Ca  Ca1  1  0.176916  0.619689  0.346451  1
  Ca  Ca2  1  0.495743  0.589447  0.690085  1
  Ca  Ca3  1  0.994881  0.910739  0.810001  1
  Ca  Ca4  1  0.503579  0.091725  0.308899  1
  Ca  Ca5  1  0.003323  0.410251  0.190165  1
  Ca  Ca6  1  0.503281  0.408492  0.310423  1
  Ca  Ca7  1  0.002415  0.089054  0.188530  1
  Ca  Ca8  1  0.496479  0.910355  0.689213  1
  Ca  Ca9  1  0.995511  0.590262  0.810795  1
  Ca  Ca10  1  0.669656  0.251192  0.008424  1
  Er  Er11  1  0.669830  0.623214  0.160353  1
  Er  Er12  1  0.169471  0.877025  0.341085  1
  Er  Er13  1  0.328618  0.121452  0.843113  1
  Er  Er14  1  0.829283  0.378075  0.659038  1
  Er  Er15  1  0.328248  0.377806  0.843581  1
  Er  Er16  1  0.828961  0.122537  0.657814  1
  Er  Er17  1  0.831032  0.748984  0.507044  1
  Er  Er18  1  0.331273  0.750897  0.993320  1
  Er  Er19  1  0.168456  0.248817  0.491714  1
  Pb  Pb20  1  0.681589  0.458514  0.961207  1
  Pb  Pb21  1  0.183097  0.044095  0.536988  1
  Pb  Pb22  1  0.313957  0.955659  0.035386  1
  Pb  Pb23  1  0.814629  0.543327  0.464837  1
  Pb  Pb24  1  0.323290  0.544830  0.035122  1
  Pb  Pb25  1  0.824232  0.955805  0.464747  1
  Pb  Pb26  1  0.676935  0.045753  0.957937  1
  Pb  Pb27  1  0.179688  0.451789  0.539772  1
  Pb  Pb28  1  0.474445  0.755047  0.372926  1
  Pb  Pb29  1  0.974776  0.745141  0.129571  1
  Pb  Pb30  1  0.526577  0.250515  0.629489  1
  Pb  Pb31  1  0.031020  0.249406  0.860366  1
  Pb  Pb32  1  0.703701  0.748178  0.856670  1
  Pb  Pb33  1  0.202243  0.752183  0.643956  1
  Pb  Pb34  1  0.286511  0.249571  0.141679  1
  Pb  Pb35  1  0.799001  0.250079  0.363987  1
