# generated using pymatgen
data_YGeBRh3
_symmetry_space_group_name_H-M   'P 1'
_cell_length_a   5.54201400
_cell_length_b   5.54201408
_cell_length_c   6.90730900
_cell_angle_alpha   90.00000000
_cell_angle_beta   90.00000000
_cell_angle_gamma   119.99999955
_symmetry_Int_Tables_number   1
_chemical_formula_structural   YGeBRh3
_chemical_formula_sum   'Y2 Ge2 B2 Rh6'
_cell_volume   183.72775207
_cell_formula_units_Z   2
loop_
 _symmetry_equiv_pos_site_id
 _symmetry_equiv_pos_as_xyz
  1  'x, y, z'
loop_
 _atom_site_type_symbol
 _atom_site_label
 _atom_site_symmetry_multiplicity
 _atom_site_fract_x
 _atom_site_fract_y
 _atom_site_fract_z
 _atom_site_occupancy
  Y  Y0  1  0.000000  0.000000  0.500000  1
  Y  Y1  1  0.000000  0.000000  0.000000  1
  Ge  Ge2  1  0.333333  0.666667  0.000000  1
  Ge  Ge3  1  0.666667  0.333333  0.000000  1
  B  B4  1  0.666667  0.333333  0.500000  1
  B  B5  1  0.333333  0.666667  0.500000  1
  Rh  Rh6  1  0.500000  0.000000  0.287842  1
  Rh  Rh7  1  0.500000  0.500000  0.287842  1
  Rh  Rh8  1  0.000000  0.500000  0.287842  1
  Rh  Rh9  1  0.500000  0.000000  0.712158  1
  Rh  Rh10  1  0.500000  0.500000  0.712158  1
  Rh  Rh11  1  0.000000  0.500000  0.712158  1
