# generated using pymatgen
data_Y6Ho11Er3Pb16
_symmetry_space_group_name_H-M   'P 1'
_cell_length_a   8.18554700
_cell_length_b   8.25723841
_cell_length_c   15.59082208
_cell_angle_alpha   90.01151420
_cell_angle_beta   90.00032652
_cell_angle_gamma   90.01555016
_symmetry_Int_Tables_number   1
_chemical_formula_structural   Y6Ho11Er3Pb16
_chemical_formula_sum   'Y6 Ho11 Er3 Pb16'
_cell_volume   1053.78380883
_cell_formula_units_Z   1
loop_
 _symmetry_equiv_pos_site_id
 _symmetry_equiv_pos_as_xyz
  1  'x, y, z'
loop_
 _atom_site_type_symbol
 _atom_site_label
 _atom_site_symmetry_multiplicity
 _atom_site_fract_x
 _atom_site_fract_y
 _atom_site_fract_z
 _atom_site_occupancy
  Y  Y0  1  0.464757  0.676219  0.399811  1
  Y  Y1  1  0.964729  0.823776  0.100117  1
  Y  Y2  1  0.464738  0.676226  0.100177  1
  Y  Y3  1  0.964716  0.823774  0.399885  1
  Y  Y4  1  0.535414  0.323633  0.600021  1
  Y  Y5  1  0.035117  0.176005  0.899980  1
  Ho  Ho6  1  0.377379  0.841137  0.879189  1
  Ho  Ho7  1  0.876976  0.659142  0.620794  1
  Ho  Ho8  1  0.622740  0.158995  0.379063  1
  Ho  Ho9  1  0.122734  0.340955  0.121042  1
  Ho  Ho10  1  0.622710  0.159037  0.120849  1
  Ho  Ho11  1  0.122710  0.340907  0.379041  1
  Ho  Ho12  1  0.377357  0.841123  0.620812  1
  Ho  Ho13  1  0.876956  0.659147  0.879211  1
  Ho  Ho14  1  0.535425  0.323629  0.899902  1
  Ho  Ho15  1  0.035129  0.176013  0.600105  1
  Ho  Ho16  1  0.208910  0.503815  0.749996  1
  Er  Er17  1  0.709037  0.996027  0.750014  1
  Er  Er18  1  0.791122  0.495890  0.249993  1
  Er  Er19  1  0.290920  0.004034  0.249985  1
  Pb  Pb20  1  0.281425  0.033269  0.043136  1
  Pb  Pb21  1  0.781505  0.466769  0.456864  1
  Pb  Pb22  1  0.718969  0.967175  0.543073  1
  Pb  Pb23  1  0.219040  0.533075  0.957142  1
  Pb  Pb24  1  0.718333  0.967080  0.956944  1
  Pb  Pb25  1  0.218413  0.533149  0.542850  1
  Pb  Pb26  1  0.281232  0.033442  0.457054  1
  Pb  Pb27  1  0.781298  0.466590  0.042946  1
  Pb  Pb28  1  0.572258  0.626863  0.750051  1
  Pb  Pb29  1  0.071843  0.873747  0.749954  1
  Pb  Pb30  1  0.428092  0.373225  0.249988  1
  Pb  Pb31  1  0.927968  0.126674  0.250012  1
  Pb  Pb32  1  0.347752  0.152863  0.750164  1
  Pb  Pb33  1  0.847180  0.346439  0.749836  1
  Pb  Pb34  1  0.652565  0.846965  0.249986  1
  Pb  Pb35  1  0.152546  0.653189  0.250011  1
