# generated using pymatgen
data_Hf11Sc(CoTc)6
_symmetry_space_group_name_H-M   'P 1'
_cell_length_a   4.53572700
_cell_length_b   6.42577300
_cell_length_c   13.62435800
_cell_angle_alpha   90.00000000
_cell_angle_beta   90.00098889
_cell_angle_gamma   90.00000000
_symmetry_Int_Tables_number   1
_chemical_formula_structural   Hf11Sc(CoTc)6
_chemical_formula_sum   'Hf11 Sc1 Co6 Tc6'
_cell_volume   397.08943578
_cell_formula_units_Z   1
loop_
 _symmetry_equiv_pos_site_id
 _symmetry_equiv_pos_as_xyz
  1  'x, y, z'
loop_
 _atom_site_type_symbol
 _atom_site_label
 _atom_site_symmetry_multiplicity
 _atom_site_fract_x
 _atom_site_fract_y
 _atom_site_fract_z
 _atom_site_occupancy
  Hf  Hf0  1  0.500001  0.750465  0.000000  1
  Hf  Hf1  1  0.999721  0.250533  0.165312  1
  Hf  Hf2  1  0.999735  0.749535  0.165674  1
  Hf  Hf3  1  0.499731  0.249048  0.332785  1
  Hf  Hf4  1  0.499732  0.750589  0.332849  1
  Hf  Hf5  1  0.000000  0.250471  0.500000  1
  Hf  Hf6  1  0.000000  0.749550  0.500000  1
  Hf  Hf7  1  0.500269  0.249048  0.667215  1
  Hf  Hf8  1  0.500268  0.750589  0.667151  1
  Hf  Hf9  1  0.000278  0.250533  0.834687  1
  Hf  Hf10  1  0.000264  0.749535  0.834325  1
  Sc  Sc11  1  0.500001  0.249924  0.000000  1
  Co  Co12  1  0.000000  0.998377  0.000000  1
  Co  Co13  1  0.499525  0.500703  0.167659  1
  Co  Co14  1  0.999530  0.000227  0.333409  1
  Co  Co15  1  0.500001  0.499947  0.500000  1
  Co  Co16  1  0.000470  0.000227  0.666591  1
  Co  Co17  1  0.500475  0.500703  0.832341  1
  Tc  Tc18  1  0.000000  0.502918  0.000000  1
  Tc  Tc19  1  0.499696  0.998707  0.168022  1
  Tc  Tc20  1  0.999697  0.499760  0.333497  1
  Tc  Tc21  1  0.500001  0.000147  0.500000  1
  Tc  Tc22  1  0.000303  0.499760  0.666503  1
  Tc  Tc23  1  0.500304  0.998707  0.831978  1
