# generated using pymatgen
data_Ba3TmCrO6
_symmetry_space_group_name_H-M   'P 1'
_cell_length_a   7.14823852
_cell_length_b   7.14821490
_cell_length_c   7.14817508
_cell_angle_alpha   93.73174234
_cell_angle_beta   93.73192049
_cell_angle_gamma   93.73307581
_symmetry_Int_Tables_number   1
_chemical_formula_structural   Ba3TmCrO6
_chemical_formula_sum   'Ba6 Tm2 Cr2 O12'
_cell_volume   362.82103600
_cell_formula_units_Z   2
loop_
 _symmetry_equiv_pos_site_id
 _symmetry_equiv_pos_as_xyz
  1  'x, y, z'
loop_
 _atom_site_type_symbol
 _atom_site_label
 _atom_site_symmetry_multiplicity
 _atom_site_fract_x
 _atom_site_fract_y
 _atom_site_fract_z
 _atom_site_occupancy
  Ba  Ba0  1  0.614430  0.885586  0.250008  1
  Ba  Ba1  1  0.885597  0.249998  0.614391  1
  Ba  Ba2  1  0.250025  0.614409  0.885617  1
  Ba  Ba3  1  0.114416  0.749998  0.385565  1
  Ba  Ba4  1  0.750030  0.385588  0.114440  1
  Ba  Ba5  1  0.385606  0.114407  0.750004  1
  Tm  Tm6  1  0.250008  0.249931  0.249964  1
  Tm  Tm7  1  0.750007  0.749933  0.749970  1
  Cr  Cr8  1  0.499759  0.500136  0.500234  1
  Cr  Cr9  1  0.999968  0.000106  0.999766  1
  O  O10  1  0.532107  0.222633  0.405908  1
  O  O11  1  0.222628  0.405895  0.532103  1
  O  O12  1  0.405918  0.532085  0.222604  1
  O  O13  1  0.032104  0.905883  0.722628  1
  O  O14  1  0.905907  0.722611  0.032088  1
  O  O15  1  0.722605  0.032053  0.905898  1
  O  O16  1  0.467950  0.777404  0.594116  1
  O  O17  1  0.777400  0.594094  0.467926  1
  O  O18  1  0.594125  0.467903  0.777371  1
  O  O19  1  0.967933  0.094083  0.277399  1
  O  O20  1  0.094108  0.277376  0.967906  1
  O  O21  1  0.277367  0.967888  0.094092  1
