# generated using pymatgen
data_Dy12InFe4Ni
_symmetry_space_group_name_H-M   'P 1'
_cell_length_a   8.31012335
_cell_length_b   8.31012384
_cell_length_c   8.31012326
_cell_angle_alpha   110.43755420
_cell_angle_beta   110.79527181
_cell_angle_gamma   107.20454744
_symmetry_Int_Tables_number   1
_chemical_formula_structural   Dy12InFe4Ni
_chemical_formula_sum   'Dy12 In1 Fe4 Ni1'
_cell_volume   441.25391710
_cell_formula_units_Z   1
loop_
 _symmetry_equiv_pos_site_id
 _symmetry_equiv_pos_as_xyz
  1  'x, y, z'
loop_
 _atom_site_type_symbol
 _atom_site_label
 _atom_site_symmetry_multiplicity
 _atom_site_fract_x
 _atom_site_fract_y
 _atom_site_fract_z
 _atom_site_occupancy
  Dy  Dy0  1  0.406827  0.211099  0.195729  1
  Dy  Dy1  1  0.593173  0.788901  0.804271  1
  Dy  Dy2  1  0.015371  0.211099  0.804271  1
  Dy  Dy3  1  0.984629  0.788901  0.195729  1
  Dy  Dy4  1  0.186935  0.291529  0.478464  1
  Dy  Dy5  1  0.813065  0.708471  0.521536  1
  Dy  Dy6  1  0.186935  0.708471  0.895406  1
  Dy  Dy7  1  0.813065  0.291529  0.104594  1
  Dy  Dy8  1  0.313458  0.614256  0.300798  1
  Dy  Dy9  1  0.686542  0.385744  0.699202  1
  Dy  Dy10  1  0.313458  0.012659  0.699202  1
  Dy  Dy11  1  0.686542  0.987341  0.300798  1
  In  In12  1  0.500000  0.500000  0.000000  1
  Fe  Fe13  1  0.384414  0.000000  0.384414  1
  Fe  Fe14  1  0.615586  0.000000  0.615586  1
  Fe  Fe15  1  0.108878  0.608878  0.500000  1
  Fe  Fe16  1  0.891122  0.391122  0.500000  1
  Ni  Ni17  1  0.000000  0.000000  0.000000  1
