# generated using pymatgen
data_Ho4AlIr6Os
_symmetry_space_group_name_H-M   'P 1'
_cell_length_a   5.46939700
_cell_length_b   5.46939610
_cell_length_c   8.31575700
_cell_angle_alpha   90.00000000
_cell_angle_beta   90.00000000
_cell_angle_gamma   119.99999937
_symmetry_Int_Tables_number   1
_chemical_formula_structural   Ho4AlIr6Os
_chemical_formula_sum   'Ho4 Al1 Ir6 Os1'
_cell_volume   215.43251404
_cell_formula_units_Z   1
loop_
 _symmetry_equiv_pos_site_id
 _symmetry_equiv_pos_as_xyz
  1  'x, y, z'
loop_
 _atom_site_type_symbol
 _atom_site_label
 _atom_site_symmetry_multiplicity
 _atom_site_fract_x
 _atom_site_fract_y
 _atom_site_fract_z
 _atom_site_occupancy
  Ho  Ho0  1  0.333333  0.666667  0.430691  1
  Ho  Ho1  1  0.666667  0.333333  0.569309  1
  Ho  Ho2  1  0.666667  0.333333  0.938665  1
  Ho  Ho3  1  0.333333  0.666667  0.061335  1
  Al  Al4  1  0.000000  0.000000  0.500000  1
  Ir  Ir5  1  0.829426  0.170574  0.251935  1
  Ir  Ir6  1  0.829426  0.658851  0.251935  1
  Ir  Ir7  1  0.341149  0.170574  0.251935  1
  Ir  Ir8  1  0.170574  0.829426  0.748065  1
  Ir  Ir9  1  0.170574  0.341149  0.748065  1
  Ir  Ir10  1  0.658851  0.829426  0.748065  1
  Os  Os11  1  0.000000  0.000000  0.000000  1
