# generated using pymatgen
data_La4Nd10Th2Cd3AgIr4
_symmetry_space_group_name_H-M   'P 1'
_cell_length_a   10.00850210
_cell_length_b   10.02765032
_cell_length_c   10.04124100
_cell_angle_alpha   59.82897289
_cell_angle_beta   60.01807131
_cell_angle_gamma   60.10952851
_symmetry_Int_Tables_number   1
_chemical_formula_structural   La4Nd10Th2Cd3AgIr4
_chemical_formula_sum   'La4 Nd10 Th2 Cd3 Ag1 Ir4'
_cell_volume   712.34875834
_cell_formula_units_Z   1
loop_
 _symmetry_equiv_pos_site_id
 _symmetry_equiv_pos_as_xyz
  1  'x, y, z'
loop_
 _atom_site_type_symbol
 _atom_site_label
 _atom_site_symmetry_multiplicity
 _atom_site_fract_x
 _atom_site_fract_y
 _atom_site_fract_z
 _atom_site_occupancy
  La  La0  1  0.350125  0.953736  0.346995  1
  La  La1  1  0.953645  0.350169  0.349611  1
  La  La2  1  0.811351  0.188737  0.189258  1
  La  La3  1  0.189322  0.810766  0.810370  1
  Nd  Nd4  1  0.190991  0.808613  0.191569  1
  Nd  Nd5  1  0.808164  0.191177  0.808763  1
  Nd  Nd6  1  0.191306  0.191382  0.808655  1
  Nd  Nd7  1  0.807598  0.807699  0.192683  1
  Nd  Nd8  1  0.937358  0.562666  0.564091  1
  Nd  Nd9  1  0.562291  0.938677  0.934507  1
  Nd  Nd10  1  0.562097  0.938097  0.563321  1
  Nd  Nd11  1  0.939564  0.561688  0.934974  1
  Nd  Nd12  1  0.562328  0.562357  0.936156  1
  Nd  Nd13  1  0.937355  0.937058  0.562265  1
  Th  Th14  1  0.343655  0.346824  0.346505  1
  Th  Th15  1  0.346942  0.344048  0.962519  1
  Cd  Cd16  1  0.578393  0.580326  0.260090  1
  Cd  Cd17  1  0.577055  0.259319  0.583350  1
  Cd  Cd18  1  0.259118  0.577079  0.581582  1
  Ag  Ag19  1  0.581000  0.579364  0.583595  1
  Ir  Ir20  1  0.143904  0.147332  0.138250  1
  Ir  Ir21  1  0.146959  0.143379  0.570834  1
  Ir  Ir22  1  0.151531  0.567940  0.138428  1
  Ir  Ir23  1  0.567948  0.151568  0.141626  1
