# generated using pymatgen
data_Tb2AlZn2Ga
_symmetry_space_group_name_H-M   'P 1'
_cell_length_a   4.47784100
_cell_length_b   4.47783983
_cell_length_c   7.19129500
_cell_angle_alpha   90.00000000
_cell_angle_beta   90.00000000
_cell_angle_gamma   120.00000124
_symmetry_Int_Tables_number   1
_chemical_formula_structural   Tb2AlZn2Ga
_chemical_formula_sum   'Tb2 Al1 Zn2 Ga1'
_cell_volume   124.87484284
_cell_formula_units_Z   1
loop_
 _symmetry_equiv_pos_site_id
 _symmetry_equiv_pos_as_xyz
  1  'x, y, z'
loop_
 _atom_site_type_symbol
 _atom_site_label
 _atom_site_symmetry_multiplicity
 _atom_site_fract_x
 _atom_site_fract_y
 _atom_site_fract_z
 _atom_site_occupancy
  Tb  Tb0  1  0.000000  0.000000  0.499606  1
  Tb  Tb1  1  0.000000  0.000000  0.003728  1
  Al  Al2  1  0.666667  0.333333  0.777700  1
  Zn  Zn3  1  0.666667  0.333333  0.209800  1
  Zn  Zn4  1  0.333333  0.666667  0.713785  1
  Ga  Ga5  1  0.333333  0.666667  0.282981  1
