# generated using pymatgen
data_Ho3Tc(P3Rh4)2
_symmetry_space_group_name_H-M   'P 1'
_cell_length_a   3.91542100
_cell_length_b   11.11335100
_cell_length_c   12.79173700
_cell_angle_alpha   90.00000000
_cell_angle_beta   90.00000000
_cell_angle_gamma   90.00000000
_symmetry_Int_Tables_number   1
_chemical_formula_structural   Ho3Tc(P3Rh4)2
_chemical_formula_sum   'Ho6 Tc2 P12 Rh16'
_cell_volume   556.61258132
_cell_formula_units_Z   2
loop_
 _symmetry_equiv_pos_site_id
 _symmetry_equiv_pos_as_xyz
  1  'x, y, z'
loop_
 _atom_site_type_symbol
 _atom_site_label
 _atom_site_symmetry_multiplicity
 _atom_site_fract_x
 _atom_site_fract_y
 _atom_site_fract_z
 _atom_site_occupancy
  Ho  Ho0  1  0.000000  0.500000  0.521177  1
  Ho  Ho1  1  0.500000  0.000000  0.478823  1
  Ho  Ho2  1  0.500000  0.815795  0.205654  1
  Ho  Ho3  1  0.500000  0.184205  0.205654  1
  Ho  Ho4  1  0.000000  0.684205  0.794346  1
  Ho  Ho5  1  0.000000  0.315795  0.794346  1
  Tc  Tc6  1  0.500000  0.500000  0.159091  1
  Tc  Tc7  1  0.000000  0.000000  0.840909  1
  P  P8  1  0.500000  0.315666  0.618819  1
  P  P9  1  0.500000  0.684334  0.618819  1
  P  P10  1  0.000000  0.184334  0.381181  1
  P  P11  1  0.000000  0.815666  0.381181  1
  P  P12  1  0.500000  0.500000  0.876288  1
  P  P13  1  0.000000  0.000000  0.123712  1
  P  P14  1  0.500000  0.848686  0.888286  1
  P  P15  1  0.500000  0.151314  0.888286  1
  P  P16  1  0.000000  0.651314  0.111714  1
  P  P17  1  0.000000  0.348686  0.111714  1
  P  P18  1  0.500000  0.500000  0.346949  1
  P  P19  1  0.000000  0.000000  0.653051  1
  Rh  Rh20  1  0.000000  0.500000  0.988022  1
  Rh  Rh21  1  0.500000  0.000000  0.011978  1
  Rh  Rh22  1  0.500000  0.296177  0.432242  1
  Rh  Rh23  1  0.500000  0.703823  0.432242  1
  Rh  Rh24  1  0.000000  0.203823  0.567758  1
  Rh  Rh25  1  0.000000  0.796177  0.567758  1
  Rh  Rh26  1  0.500000  0.875329  0.709235  1
  Rh  Rh27  1  0.500000  0.124671  0.709235  1
  Rh  Rh28  1  0.000000  0.624671  0.290765  1
  Rh  Rh29  1  0.000000  0.375329  0.290765  1
  Rh  Rh30  1  0.500000  0.331149  0.983766  1
  Rh  Rh31  1  0.500000  0.668851  0.983766  1
  Rh  Rh32  1  0.000000  0.168851  0.016234  1
  Rh  Rh33  1  0.000000  0.831149  0.016234  1
  Rh  Rh34  1  0.500000  0.500000  0.700351  1
  Rh  Rh35  1  0.000000  0.000000  0.299649  1
