# generated using pymatgen
data_CaPa5(Al3Ru)8
_symmetry_space_group_name_H-M   'P 1'
_cell_length_a   8.87786900
_cell_length_b   8.87787111
_cell_length_c   9.44746300
_cell_angle_alpha   90.00000000
_cell_angle_beta   90.00000000
_cell_angle_gamma   119.87935131
_symmetry_Int_Tables_number   1
_chemical_formula_structural   CaPa5(Al3Ru)8
_chemical_formula_sum   'Ca1 Pa5 Al24 Ru8'
_cell_volume   645.63951717
_cell_formula_units_Z   1
loop_
 _symmetry_equiv_pos_site_id
 _symmetry_equiv_pos_as_xyz
  1  'x, y, z'
loop_
 _atom_site_type_symbol
 _atom_site_label
 _atom_site_symmetry_multiplicity
 _atom_site_fract_x
 _atom_site_fract_y
 _atom_site_fract_z
 _atom_site_occupancy
  Ca  Ca0  1  0.804683  0.195317  0.750000  1
  Pa  Pa1  1  0.194974  0.394234  0.250000  1
  Pa  Pa2  1  0.798813  0.609099  0.750000  1
  Pa  Pa3  1  0.605766  0.805026  0.250000  1
  Pa  Pa4  1  0.390901  0.201187  0.750000  1
  Pa  Pa5  1  0.198707  0.801293  0.250000  1
  Al  Al6  1  0.335040  0.664960  0.013879  1
  Al  Al7  1  0.670333  0.329667  0.979228  1
  Al  Al8  1  0.670333  0.329667  0.520772  1
  Al  Al9  1  0.335040  0.664960  0.486121  1
  Al  Al10  1  0.160387  0.323208  0.578476  1
  Al  Al11  1  0.837890  0.676209  0.420455  1
  Al  Al12  1  0.676792  0.839613  0.578476  1
  Al  Al13  1  0.837890  0.676209  0.079545  1
  Al  Al14  1  0.323791  0.162110  0.420455  1
  Al  Al15  1  0.160387  0.323208  0.921524  1
  Al  Al16  1  0.161899  0.838101  0.582107  1
  Al  Al17  1  0.323791  0.162110  0.079545  1
  Al  Al18  1  0.838333  0.161667  0.422321  1
  Al  Al19  1  0.676792  0.839613  0.921524  1
  Al  Al20  1  0.838333  0.161667  0.077679  1
  Al  Al21  1  0.161899  0.838101  0.917893  1
  Al  Al22  1  0.564120  0.128206  0.250000  1
  Al  Al23  1  0.442319  0.882175  0.750000  1
  Al  Al24  1  0.871794  0.435880  0.250000  1
  Al  Al25  1  0.117825  0.557681  0.750000  1
  Al  Al26  1  0.561671  0.438329  0.250000  1
  Al  Al27  1  0.434534  0.565466  0.750000  1
  Al  Al28  1  0.000002  0.999998  0.250000  1
  Al  Al29  1  0.999700  0.000300  0.750000  1
  Ru  Ru30  1  0.494885  0.994412  0.006700  1
  Ru  Ru31  1  0.005588  0.505115  0.006700  1
  Ru  Ru32  1  0.494885  0.994412  0.493300  1
  Ru  Ru33  1  0.501672  0.498328  0.996946  1
  Ru  Ru34  1  0.005588  0.505115  0.493300  1
  Ru  Ru35  1  0.501672  0.498328  0.503054  1
  Ru  Ru36  1  0.000488  0.999512  0.000238  1
  Ru  Ru37  1  0.000488  0.999512  0.499762  1
