# generated using pymatgen
data_Dy5Zr2P12Ir16Ru
_symmetry_space_group_name_H-M   'P 1'
_cell_length_a   12.68529400
_cell_length_b   12.86922887
_cell_length_c   3.98376100
_cell_angle_alpha   90.00000000
_cell_angle_beta   90.00000000
_cell_angle_gamma   119.52831988
_symmetry_Int_Tables_number   1
_chemical_formula_structural   Dy5Zr2P12Ir16Ru
_chemical_formula_sum   'Dy5 Zr2 P12 Ir16 Ru1'
_cell_volume   565.87641516
_cell_formula_units_Z   1
loop_
 _symmetry_equiv_pos_site_id
 _symmetry_equiv_pos_as_xyz
  1  'x, y, z'
loop_
 _atom_site_type_symbol
 _atom_site_label
 _atom_site_symmetry_multiplicity
 _atom_site_fract_x
 _atom_site_fract_y
 _atom_site_fract_z
 _atom_site_occupancy
  Dy  Dy0  1  0.330864  0.663090  0.500000  1
  Dy  Dy1  1  0.667775  0.336910  0.500000  1
  Dy  Dy2  1  0.001216  0.816126  0.000000  1
  Dy  Dy3  1  0.185090  0.183874  0.000000  1
  Dy  Dy4  1  0.812188  0.000000  0.000000  1
  Zr  Zr5  1  0.997673  0.446628  0.500000  1
  Zr  Zr6  1  0.551045  0.553372  0.500000  1
  P  P7  1  0.006022  0.651408  0.500000  1
  P  P8  1  0.354614  0.348592  0.500000  1
  P  P9  1  0.640711  0.000000  0.500000  1
  P  P10  1  0.515254  0.687248  0.000000  1
  P  P11  1  0.312686  0.827787  0.000000  1
  P  P12  1  0.164843  0.480959  0.000000  1
  P  P13  1  0.484899  0.172213  0.000000  1
  P  P14  1  0.683884  0.519041  0.000000  1
  P  P15  1  0.828006  0.312752  0.000000  1
  P  P16  1  0.998633  0.173648  0.500000  1
  P  P17  1  0.824985  0.826352  0.500000  1
  P  P18  1  0.181478  0.000000  0.500000  1
  Ir  Ir19  1  0.506911  0.866525  0.000000  1
  Ir  Ir20  1  0.128902  0.644730  0.000000  1
  Ir  Ir21  1  0.354919  0.495618  0.000000  1
  Ir  Ir22  1  0.484172  0.355270  0.000000  1
  Ir  Ir23  1  0.859302  0.504382  0.000000  1
  Ir  Ir24  1  0.640387  0.133475  0.000000  1
  Ir  Ir25  1  0.997053  0.277253  0.000000  1
  Ir  Ir26  1  0.719800  0.722747  0.000000  1
  Ir  Ir27  1  0.290672  0.000000  0.000000  1
  Ir  Ir28  1  0.624727  0.808748  0.500000  1
  Ir  Ir29  1  0.203355  0.825903  0.500000  1
  Ir  Ir30  1  0.178183  0.366183  0.500000  1
  Ir  Ir31  1  0.377451  0.174097  0.500000  1
  Ir  Ir32  1  0.811999  0.633817  0.500000  1
  Ir  Ir33  1  0.815979  0.191252  0.500000  1
  Ir  Ir34  1  0.003821  0.000000  0.500000  1
  Ru  Ru35  1  0.460506  0.000000  0.500000  1
