# generated using pymatgen
data_La7Pr5(PtBr3)4
_symmetry_space_group_name_H-M   'P 1'
_cell_length_a   10.69445850
_cell_length_b   10.69385623
_cell_length_c   10.69373418
_cell_angle_alpha   109.35264487
_cell_angle_beta   109.42861856
_cell_angle_gamma   109.76769191
_symmetry_Int_Tables_number   1
_chemical_formula_structural   La7Pr5(PtBr3)4
_chemical_formula_sum   'La7 Pr5 Pt4 Br12'
_cell_volume   939.87158594
_cell_formula_units_Z   1
loop_
 _symmetry_equiv_pos_site_id
 _symmetry_equiv_pos_as_xyz
  1  'x, y, z'
loop_
 _atom_site_type_symbol
 _atom_site_label
 _atom_site_symmetry_multiplicity
 _atom_site_fract_x
 _atom_site_fract_y
 _atom_site_fract_z
 _atom_site_occupancy
  La  La0  1  0.471894  0.485119  0.236248  1
  La  La1  1  0.745513  0.234315  0.261963  1
  La  La2  1  0.753208  0.016442  0.487138  1
  La  La3  1  0.234857  0.472124  0.489247  1
  La  La4  1  0.266363  0.752843  0.235711  1
  La  La5  1  0.027531  0.263407  0.013470  1
  La  La6  1  0.014498  0.027244  0.262733  1
  Pr  Pr7  1  0.484074  0.747848  0.013277  1
  Pr  Pr8  1  0.483524  0.235417  0.468591  1
  Pr  Pr9  1  0.016991  0.485095  0.751109  1
  Pr  Pr10  1  0.265351  0.014243  0.029617  1
  Pr  Pr11  1  0.236023  0.266260  0.751862  1
  Pt  Pt12  1  0.248257  0.250911  0.249392  1
  Pt  Pt13  1  0.501569  0.999802  0.250211  1
  Pt  Pt14  1  0.998926  0.248675  0.497390  1
  Pt  Pt15  1  0.250660  0.499851  0.002627  1
  Br  Br16  1  0.250685  0.755527  0.749346  1
  Br  Br17  1  0.507032  0.501923  0.753988  1
  Br  Br18  1  0.993281  0.744546  0.992327  1
  Br  Br19  1  0.745252  0.252305  0.751175  1
  Br  Br20  1  0.000471  0.992869  0.748215  1
  Br  Br21  1  0.252238  0.000901  0.507144  1
  Br  Br22  1  0.755154  0.506904  0.507523  1
  Br  Br23  1  0.499699  0.247879  0.992369  1
  Br  Br24  1  0.753002  0.745483  0.247170  1
  Br  Br25  1  0.743478  0.993594  0.991807  1
  Br  Br26  1  0.996048  0.503999  0.250295  1
  Br  Br27  1  0.504422  0.754475  0.508055  1
