# generated using pymatgen
data_Zr3(ReMo2)2
_symmetry_space_group_name_H-M   'P 1'
_cell_length_a   5.38386098
_cell_length_b   5.37918875
_cell_length_c   13.08860071
_cell_angle_alpha   90.33577699
_cell_angle_beta   89.54883671
_cell_angle_gamma   119.96409529
_symmetry_Int_Tables_number   1
_chemical_formula_structural   Zr3(ReMo2)2
_chemical_formula_sum   'Zr6 Re4 Mo8'
_cell_volume   328.38018696
_cell_formula_units_Z   2
loop_
 _symmetry_equiv_pos_site_id
 _symmetry_equiv_pos_as_xyz
  1  'x, y, z'
loop_
 _atom_site_type_symbol
 _atom_site_label
 _atom_site_symmetry_multiplicity
 _atom_site_fract_x
 _atom_site_fract_y
 _atom_site_fract_z
 _atom_site_occupancy
  Zr  Zr0  1  0.335300  0.665354  0.917836  1
  Zr  Zr1  1  0.002325  0.001410  0.248339  1
  Zr  Zr2  1  0.668237  0.332356  0.583005  1
  Zr  Zr3  1  0.331763  0.667644  0.666995  1
  Zr  Zr4  1  0.997675  0.998590  0.001660  1
  Zr  Zr5  1  0.664700  0.334646  0.332164  1
  Re  Re6  1  0.500000  0.500000  0.125000  1
  Re  Re7  1  0.166344  0.833931  0.458294  1
  Re  Re8  1  0.833656  0.166069  0.791706  1
  Re  Re9  1  0.500000  0.000000  0.125000  1
  Mo  Mo10  1  0.166104  0.333287  0.457610  1
  Mo  Mo11  1  0.833896  0.666713  0.792390  1
  Mo  Mo12  1  0.333965  0.669170  0.291375  1
  Mo  Mo13  1  0.000000  0.000000  0.625000  1
  Mo  Mo14  1  0.666035  0.330830  0.958625  1
  Mo  Mo15  1  0.000000  0.500000  0.125000  1
  Mo  Mo16  1  0.666537  0.834102  0.457939  1
  Mo  Mo17  1  0.333463  0.165898  0.792061  1
