# generated using pymatgen
data_Nd4Sm6B2Cl15
_symmetry_space_group_name_H-M   'P 1'
_cell_length_a   8.99861458
_cell_length_b   9.77130010
_cell_length_c   10.56951299
_cell_angle_alpha   90.64765148
_cell_angle_beta   114.56242818
_cell_angle_gamma   111.20046629
_symmetry_Int_Tables_number   1
_chemical_formula_structural   Nd4Sm6B2Cl15
_chemical_formula_sum   'Nd4 Sm6 B2 Cl15'
_cell_volume   773.60458331
_cell_formula_units_Z   1
loop_
 _symmetry_equiv_pos_site_id
 _symmetry_equiv_pos_as_xyz
  1  'x, y, z'
loop_
 _atom_site_type_symbol
 _atom_site_label
 _atom_site_symmetry_multiplicity
 _atom_site_fract_x
 _atom_site_fract_y
 _atom_site_fract_z
 _atom_site_occupancy
  Nd  Nd0  1  0.810707  0.419390  0.279814  1
  Nd  Nd1  1  0.189293  0.580610  0.720186  1
  Nd  Nd2  1  0.681014  0.743757  0.817632  1
  Nd  Nd3  1  0.318986  0.256243  0.182368  1
  Sm  Sm4  1  0.526896  0.700498  0.101068  1
  Sm  Sm5  1  0.473104  0.299502  0.898932  1
  Sm  Sm6  1  0.590284  0.037941  0.332194  1
  Sm  Sm7  1  0.409716  0.962059  0.667806  1
  Sm  Sm8  1  0.732668  0.077989  0.049475  1
  Sm  Sm9  1  0.267332  0.922011  0.950525  1
  B  B10  1  0.466426  0.819527  0.876765  1
  B  B11  1  0.533574  0.180473  0.123235  1
  Cl  Cl12  1  0.000000  0.000000  0.000000  1
  Cl  Cl13  1  0.632449  0.886742  0.583961  1
  Cl  Cl14  1  0.367551  0.113258  0.416039  1
  Cl  Cl15  1  0.878952  0.294457  0.523572  1
  Cl  Cl16  1  0.121048  0.705543  0.476428  1
  Cl  Cl17  1  0.299047  0.767094  0.180660  1
  Cl  Cl18  1  0.700953  0.232906  0.819340  1
  Cl  Cl19  1  0.052915  0.342185  0.225426  1
  Cl  Cl20  1  0.172763  0.058666  0.707510  1
  Cl  Cl21  1  0.827237  0.941334  0.292490  1
  Cl  Cl22  1  0.239824  0.411931  0.946784  1
  Cl  Cl23  1  0.760176  0.588069  0.053216  1
  Cl  Cl24  1  0.407235  0.463413  0.661150  1
  Cl  Cl25  1  0.592765  0.536587  0.338850  1
  Cl  Cl26  1  0.947085  0.657815  0.774574  1
