# generated using pymatgen
data_Zr3Ga3RuAu2
_symmetry_space_group_name_H-M   'P 1'
_cell_length_a   7.35619500
_cell_length_b   7.35619447
_cell_length_c   7.06905200
_cell_angle_alpha   90.00000000
_cell_angle_beta   90.00000000
_cell_angle_gamma   119.99998889
_symmetry_Int_Tables_number   1
_chemical_formula_structural   Zr3Ga3RuAu2
_chemical_formula_sum   'Zr6 Ga6 Ru2 Au4'
_cell_volume   331.28234497
_cell_formula_units_Z   2
loop_
 _symmetry_equiv_pos_site_id
 _symmetry_equiv_pos_as_xyz
  1  'x, y, z'
loop_
 _atom_site_type_symbol
 _atom_site_label
 _atom_site_symmetry_multiplicity
 _atom_site_fract_x
 _atom_site_fract_y
 _atom_site_fract_z
 _atom_site_occupancy
  Zr  Zr0  1  0.404153  0.384290  0.750000  1
  Zr  Zr1  1  0.980137  0.595847  0.750000  1
  Zr  Zr2  1  0.615710  0.019863  0.750000  1
  Zr  Zr3  1  0.618463  0.024778  0.250000  1
  Zr  Zr4  1  0.975222  0.593685  0.250000  1
  Zr  Zr5  1  0.406315  0.381537  0.250000  1
  Ga  Ga6  1  0.275325  0.998549  0.999659  1
  Ga  Ga7  1  0.723224  0.724675  0.999659  1
  Ga  Ga8  1  0.001451  0.276776  0.999659  1
  Ga  Ga9  1  0.723224  0.724675  0.500341  1
  Ga  Ga10  1  0.275325  0.998549  0.500341  1
  Ga  Ga11  1  0.001451  0.276776  0.500341  1
  Ru  Ru12  1  0.666667  0.333333  0.996855  1
  Ru  Ru13  1  0.666667  0.333333  0.503145  1
  Au  Au14  1  0.000000  0.000000  0.750000  1
  Au  Au15  1  0.333333  0.666667  0.494487  1
  Au  Au16  1  0.333333  0.666667  0.005513  1
  Au  Au17  1  0.000000  0.000000  0.250000  1
