# generated using pymatgen
data_La5NdSm6(Si7Br3)2
_symmetry_space_group_name_H-M   'P 1'
_cell_length_a   4.07809500
_cell_length_b   11.82498400
_cell_length_c   16.48001700
_cell_angle_alpha   90.00000000
_cell_angle_beta   90.00000000
_cell_angle_gamma   90.00000000
_symmetry_Int_Tables_number   1
_chemical_formula_structural   La5NdSm6(Si7Br3)2
_chemical_formula_sum   'La5 Nd1 Sm6 Si14 Br6'
_cell_volume   794.72258571
_cell_formula_units_Z   1
loop_
 _symmetry_equiv_pos_site_id
 _symmetry_equiv_pos_as_xyz
  1  'x, y, z'
loop_
 _atom_site_type_symbol
 _atom_site_label
 _atom_site_symmetry_multiplicity
 _atom_site_fract_x
 _atom_site_fract_y
 _atom_site_fract_z
 _atom_site_occupancy
  La  La0  1  0.000000  0.662505  0.000000  1
  La  La1  1  0.500000  0.068019  0.878133  1
  La  La2  1  0.000000  0.932675  0.621302  1
  La  La3  1  0.500000  0.068019  0.121867  1
  La  La4  1  0.000000  0.932675  0.378698  1
  Nd  Nd5  1  0.500000  0.340702  0.500000  1
  Sm  Sm6  1  0.500000  0.362689  0.757594  1
  Sm  Sm7  1  0.000000  0.635844  0.740893  1
  Sm  Sm8  1  0.500000  0.362689  0.242406  1
  Sm  Sm9  1  0.000000  0.635844  0.259107  1
  Sm  Sm10  1  0.500000  0.360601  0.000000  1
  Sm  Sm11  1  0.000000  0.639769  0.500000  1
  Si  Si12  1  0.000000  0.158766  0.000000  1
  Si  Si13  1  0.500000  0.841535  0.500000  1
  Si  Si14  1  0.500000  0.568443  0.874775  1
  Si  Si15  1  0.000000  0.429392  0.624167  1
  Si  Si16  1  0.500000  0.568443  0.125225  1
  Si  Si17  1  0.000000  0.429392  0.375833  1
  Si  Si18  1  0.000000  0.258632  0.872992  1
  Si  Si19  1  0.500000  0.741302  0.626709  1
  Si  Si20  1  0.000000  0.258632  0.127008  1
  Si  Si21  1  0.500000  0.741302  0.373291  1
  Si  Si22  1  0.000000  0.460425  0.876692  1
  Si  Si23  1  0.500000  0.538988  0.622382  1
  Si  Si24  1  0.500000  0.538988  0.377618  1
  Si  Si25  1  0.000000  0.460425  0.123308  1
  Br  Br26  1  0.500000  0.116159  0.691431  1
  Br  Br27  1  0.000000  0.883102  0.808480  1
  Br  Br28  1  0.000000  0.139501  0.500000  1
  Br  Br29  1  0.500000  0.865281  0.000000  1
  Br  Br30  1  0.500000  0.116159  0.308569  1
  Br  Br31  1  0.000000  0.883102  0.191520  1
