# generated using pymatgen
data_Nd16HoTm3Sn16
_symmetry_space_group_name_H-M   'P 1'
_cell_length_a   8.21347600
_cell_length_b   8.37385800
_cell_length_c   15.89737400
_cell_angle_alpha   90.00000000
_cell_angle_beta   90.00000000
_cell_angle_gamma   90.00219694
_symmetry_Int_Tables_number   1
_chemical_formula_structural   Nd16HoTm3Sn16
_chemical_formula_sum   'Nd16 Ho1 Tm3 Sn16'
_cell_volume   1093.39724650
_cell_formula_units_Z   1
loop_
 _symmetry_equiv_pos_site_id
 _symmetry_equiv_pos_as_xyz
  1  'x, y, z'
loop_
 _atom_site_type_symbol
 _atom_site_label
 _atom_site_symmetry_multiplicity
 _atom_site_fract_x
 _atom_site_fract_y
 _atom_site_fract_z
 _atom_site_occupancy
  Nd  Nd0  1  0.017869  0.180883  0.401433  1
  Nd  Nd1  1  0.368003  0.837562  0.120900  1
  Nd  Nd2  1  0.132090  0.337475  0.620956  1
  Nd  Nd3  1  0.482078  0.680932  0.901416  1
  Nd  Nd4  1  0.867761  0.662643  0.120914  1
  Nd  Nd5  1  0.132090  0.337475  0.879044  1
  Nd  Nd6  1  0.482078  0.680932  0.598584  1
  Nd  Nd7  1  0.632080  0.162537  0.620922  1
  Nd  Nd8  1  0.867761  0.662643  0.379086  1
  Nd  Nd9  1  0.017869  0.180883  0.098567  1
  Nd  Nd10  1  0.982097  0.819059  0.901431  1
  Nd  Nd11  1  0.632080  0.162537  0.879078  1
  Nd  Nd12  1  0.517992  0.319011  0.098548  1
  Nd  Nd13  1  0.368003  0.837562  0.379100  1
  Nd  Nd14  1  0.982097  0.819059  0.598569  1
  Nd  Nd15  1  0.517992  0.319011  0.401452  1
  Ho  Ho16  1  0.199191  0.501993  0.250000  1
  Tm  Tm17  1  0.699443  0.997945  0.250000  1
  Tm  Tm18  1  0.300584  0.002007  0.750000  1
  Tm  Tm19  1  0.800574  0.497973  0.750000  1
  Sn  Sn20  1  0.791968  0.464948  0.543931  1
  Sn  Sn21  1  0.708035  0.964909  0.456095  1
  Sn  Sn22  1  0.675379  0.853238  0.750000  1
  Sn  Sn23  1  0.208030  0.535100  0.456218  1
  Sn  Sn24  1  0.291963  0.035078  0.956071  1
  Sn  Sn25  1  0.824594  0.353185  0.250000  1
  Sn  Sn26  1  0.791968  0.464948  0.956069  1
  Sn  Sn27  1  0.564468  0.616460  0.250000  1
  Sn  Sn28  1  0.208030  0.535100  0.043782  1
  Sn  Sn29  1  0.435869  0.383597  0.750000  1
  Sn  Sn30  1  0.175338  0.646806  0.750000  1
  Sn  Sn31  1  0.935855  0.116406  0.750000  1
  Sn  Sn32  1  0.291963  0.035078  0.543929  1
  Sn  Sn33  1  0.708035  0.964909  0.043905  1
  Sn  Sn34  1  0.324681  0.146441  0.250000  1
  Sn  Sn35  1  0.064092  0.883678  0.250000  1
