# generated using pymatgen
data_Dy10Bi6P
_symmetry_space_group_name_H-M   'P 1'
_cell_length_a   6.56947301
_cell_length_b   9.06875606
_cell_length_c   9.06852300
_cell_angle_alpha   120.00086062
_cell_angle_beta   89.99763647
_cell_angle_gamma   90.00471352
_symmetry_Int_Tables_number   1
_chemical_formula_structural   Dy10Bi6P
_chemical_formula_sum   'Dy10 Bi6 P1'
_cell_volume   467.88775036
_cell_formula_units_Z   1
loop_
 _symmetry_equiv_pos_site_id
 _symmetry_equiv_pos_as_xyz
  1  'x, y, z'
loop_
 _atom_site_type_symbol
 _atom_site_label
 _atom_site_symmetry_multiplicity
 _atom_site_fract_x
 _atom_site_fract_y
 _atom_site_fract_z
 _atom_site_occupancy
  Dy  Dy0  1  0.500000  0.333330  0.666661  1
  Dy  Dy1  1  0.500000  0.666669  0.333339  1
  Dy  Dy2  1  0.000000  0.666664  0.333329  1
  Dy  Dy3  1  0.000000  0.333337  0.666671  1
  Dy  Dy4  1  0.749352  0.244055  0.000000  1
  Dy  Dy5  1  0.749325  0.755979  0.755978  1
  Dy  Dy6  1  0.749325  0.000000  0.244022  1
  Dy  Dy7  1  0.250648  0.755945  0.000000  1
  Dy  Dy8  1  0.250675  0.244023  0.244022  1
  Dy  Dy9  1  0.250675  0.000001  0.755978  1
  Bi  Bi10  1  0.750396  0.604891  0.000000  1
  Bi  Bi11  1  0.750393  0.395114  0.395118  1
  Bi  Bi12  1  0.750393  0.999996  0.604882  1
  Bi  Bi13  1  0.249604  0.395109  0.000000  1
  Bi  Bi14  1  0.249607  0.604886  0.604882  1
  Bi  Bi15  1  0.249607  0.000004  0.395118  1
  P  P16  1  0.499999  0.000001  0.000000  1
