# generated using pymatgen
data_YbIn3PdPt3O14
_symmetry_space_group_name_H-M   'P 1'
_cell_length_a   7.20626276
_cell_length_b   7.15277948
_cell_length_c   7.15277900
_cell_angle_alpha   60.00000684
_cell_angle_beta   60.24521501
_cell_angle_gamma   60.24522222
_symmetry_Int_Tables_number   1
_chemical_formula_structural   YbIn3PdPt3O14
_chemical_formula_sum   'Yb1 In3 Pd1 Pt3 O14'
_cell_volume   261.66435141
_cell_formula_units_Z   1
loop_
 _symmetry_equiv_pos_site_id
 _symmetry_equiv_pos_as_xyz
  1  'x, y, z'
loop_
 _atom_site_type_symbol
 _atom_site_label
 _atom_site_symmetry_multiplicity
 _atom_site_fract_x
 _atom_site_fract_y
 _atom_site_fract_z
 _atom_site_occupancy
  Yb  Yb0  1  0.625000  0.125000  0.125000  1
  In  In1  1  0.125000  0.125000  0.125000  1
  In  In2  1  0.125000  0.625000  0.125000  1
  In  In3  1  0.125000  0.125000  0.625000  1
  Pd  Pd4  1  0.125000  0.625000  0.625000  1
  Pt  Pt5  1  0.625000  0.625000  0.125000  1
  Pt  Pt6  1  0.625000  0.125000  0.625000  1
  Pt  Pt7  1  0.625000  0.625000  0.625000  1
  O  O8  1  0.234397  0.255201  0.255201  1
  O  O9  1  0.719926  0.286703  0.286703  1
  O  O10  1  0.719926  0.286703  0.706667  1
  O  O11  1  0.286029  0.714762  0.284449  1
  O  O12  1  0.719926  0.706667  0.286703  1
  O  O13  1  0.286029  0.284449  0.714762  1
  O  O14  1  0.963971  0.535238  0.535238  1
  O  O15  1  0.286029  0.714762  0.714762  1
  O  O16  1  0.963971  0.965551  0.535238  1
  O  O17  1  0.530074  0.963297  0.543333  1
  O  O18  1  0.530074  0.543333  0.963297  1
  O  O19  1  0.963971  0.535238  0.965551  1
  O  O20  1  0.530074  0.963297  0.963297  1
  O  O21  1  0.015603  0.994799  0.994799  1
