# generated using pymatgen
data_Y12MgCo4Rh
_symmetry_space_group_name_H-M   'P 1'
_cell_length_a   8.38555650
_cell_length_b   8.38555645
_cell_length_c   8.38555669
_cell_angle_alpha   110.66949615
_cell_angle_beta   110.08850661
_cell_angle_gamma   107.67107749
_symmetry_Int_Tables_number   1
_chemical_formula_structural   Y12MgCo4Rh
_chemical_formula_sum   'Y12 Mg1 Co4 Rh1'
_cell_volume   453.56734004
_cell_formula_units_Z   1
loop_
 _symmetry_equiv_pos_site_id
 _symmetry_equiv_pos_as_xyz
  1  'x, y, z'
loop_
 _atom_site_type_symbol
 _atom_site_label
 _atom_site_symmetry_multiplicity
 _atom_site_fract_x
 _atom_site_fract_y
 _atom_site_fract_z
 _atom_site_occupancy
  Y  Y0  1  0.405521  0.208682  0.196838  1
  Y  Y1  1  0.594479  0.791318  0.803162  1
  Y  Y2  1  0.011845  0.208682  0.803162  1
  Y  Y3  1  0.988155  0.791318  0.196838  1
  Y  Y4  1  0.184486  0.292541  0.477027  1
  Y  Y5  1  0.815514  0.707459  0.522973  1
  Y  Y6  1  0.184486  0.707459  0.891945  1
  Y  Y7  1  0.815514  0.292541  0.108055  1
  Y  Y8  1  0.314095  0.620011  0.305916  1
  Y  Y9  1  0.685905  0.379989  0.694084  1
  Y  Y10  1  0.314095  0.008178  0.694084  1
  Y  Y11  1  0.685905  0.991822  0.305916  1
  Mg  Mg12  1  0.500000  0.500000  0.000000  1
  Co  Co13  1  0.381872  0.000000  0.381872  1
  Co  Co14  1  0.618128  0.000000  0.618128  1
  Co  Co15  1  0.110997  0.610997  0.500000  1
  Co  Co16  1  0.889003  0.389003  0.500000  1
  Rh  Rh17  1  0.000000  0.000000  0.000000  1
