# generated using pymatgen
data_Zr4Sc6Ag2BiPb5
_symmetry_space_group_name_H-M   'P 1'
_cell_length_a   8.90597612
_cell_length_b   8.90597555
_cell_length_c   6.05152700
_cell_angle_alpha   90.00000000
_cell_angle_beta   90.00000000
_cell_angle_gamma   119.98123980
_symmetry_Int_Tables_number   1
_chemical_formula_structural   Zr4Sc6Ag2BiPb5
_chemical_formula_sum   'Zr4 Sc6 Ag2 Bi1 Pb5'
_cell_volume   415.75808169
_cell_formula_units_Z   1
loop_
 _symmetry_equiv_pos_site_id
 _symmetry_equiv_pos_as_xyz
  1  'x, y, z'
loop_
 _atom_site_type_symbol
 _atom_site_label
 _atom_site_symmetry_multiplicity
 _atom_site_fract_x
 _atom_site_fract_y
 _atom_site_fract_z
 _atom_site_occupancy
  Zr  Zr0  1  0.666823  0.333410  0.999904  1
  Zr  Zr1  1  0.333410  0.666823  0.999904  1
  Zr  Zr2  1  0.333410  0.666823  0.500096  1
  Zr  Zr3  1  0.666823  0.333410  0.500096  1
  Sc  Sc4  1  0.720580  0.720580  0.750000  1
  Sc  Sc5  1  0.279151  0.999346  0.750000  1
  Sc  Sc6  1  0.999346  0.279151  0.750000  1
  Sc  Sc7  1  0.279139  0.279139  0.250000  1
  Sc  Sc8  1  0.720828  0.000330  0.250000  1
  Sc  Sc9  1  0.000330  0.720828  0.250000  1
  Ag  Ag10  1  0.999451  0.999451  0.000252  1
  Ag  Ag11  1  0.999451  0.999451  0.499748  1
  Bi  Bi12  1  0.377154  0.377154  0.750000  1
  Pb  Pb13  1  0.623381  0.000012  0.750000  1
  Pb  Pb14  1  0.000012  0.623381  0.750000  1
  Pb  Pb15  1  0.623571  0.623571  0.250000  1
  Pb  Pb16  1  0.376858  0.000283  0.250000  1
  Pb  Pb17  1  0.000283  0.376858  0.250000  1
