# generated using pymatgen
data_La8Er9Tm3Si15Au
_symmetry_space_group_name_H-M   'P 1'
_cell_length_a   7.51646371
_cell_length_b   7.85436651
_cell_length_c   14.90383800
_cell_angle_alpha   90.00000000
_cell_angle_beta   90.00000000
_cell_angle_gamma   90.58449718
_symmetry_Int_Tables_number   1
_chemical_formula_structural   La8Er9Tm3Si15Au
_chemical_formula_sum   'La8 Er9 Tm3 Si15 Au1'
_cell_volume   879.83300742
_cell_formula_units_Z   1
loop_
 _symmetry_equiv_pos_site_id
 _symmetry_equiv_pos_as_xyz
  1  'x, y, z'
loop_
 _atom_site_type_symbol
 _atom_site_label
 _atom_site_symmetry_multiplicity
 _atom_site_fract_x
 _atom_site_fract_y
 _atom_site_fract_z
 _atom_site_occupancy
  La  La0  1  0.022412  0.180723  0.399855  1
  La  La1  1  0.521420  0.323195  0.399869  1
  La  La2  1  0.483857  0.665287  0.908293  1
  La  La3  1  0.483857  0.665287  0.591707  1
  La  La4  1  0.978764  0.825165  0.594130  1
  La  La5  1  0.978764  0.825165  0.905870  1
  La  La6  1  0.521420  0.323195  0.100131  1
  La  La7  1  0.022412  0.180723  0.100145  1
  Er  Er8  1  0.318767  0.182634  0.622486  1
  Er  Er9  1  0.682270  0.827219  0.374976  1
  Er  Er10  1  0.646658  0.980148  0.750000  1
  Er  Er11  1  0.181862  0.675246  0.376614  1
  Er  Er12  1  0.820488  0.319897  0.878614  1
  Er  Er13  1  0.820488  0.319897  0.621386  1
  Er  Er14  1  0.318767  0.182634  0.877514  1
  Er  Er15  1  0.181862  0.675246  0.123386  1
  Er  Er16  1  0.682270  0.827219  0.125024  1
  Tm  Tm17  1  0.847519  0.496021  0.250000  1
  Tm  Tm18  1  0.348536  0.007749  0.250000  1
  Tm  Tm19  1  0.156805  0.508959  0.750000  1
  Si  Si20  1  0.476293  0.620656  0.250000  1
  Si  Si21  1  0.019375  0.123428  0.750000  1
  Si  Si22  1  0.530492  0.383068  0.750000  1
  Si  Si23  1  0.143452  0.470408  0.540437  1
  Si  Si24  1  0.981453  0.880204  0.250000  1
  Si  Si25  1  0.723450  0.125602  0.250000  1
  Si  Si26  1  0.851881  0.533302  0.041052  1
  Si  Si27  1  0.354663  0.967651  0.038927  1
  Si  Si28  1  0.143452  0.470408  0.959563  1
  Si  Si29  1  0.641941  0.030857  0.539455  1
  Si  Si30  1  0.354663  0.967651  0.461073  1
  Si  Si31  1  0.851881  0.533302  0.458948  1
  Si  Si32  1  0.770882  0.612650  0.750000  1
  Si  Si33  1  0.226891  0.381407  0.250000  1
  Si  Si34  1  0.641941  0.030857  0.960545  1
  Au  Au35  1  0.268094  0.876944  0.750000  1
