# generated using pymatgen
data_Sc3NiSn3IrPt
_symmetry_space_group_name_H-M   'P 1'
_cell_length_a   7.50407900
_cell_length_b   7.50407921
_cell_length_c   3.46051400
_cell_angle_alpha   90.00000000
_cell_angle_beta   90.00000000
_cell_angle_gamma   120.00000348
_symmetry_Int_Tables_number   1
_chemical_formula_structural   Sc3NiSn3IrPt
_chemical_formula_sum   'Sc3 Ni1 Sn3 Ir1 Pt1'
_cell_volume   168.75864674
_cell_formula_units_Z   1
loop_
 _symmetry_equiv_pos_site_id
 _symmetry_equiv_pos_as_xyz
  1  'x, y, z'
loop_
 _atom_site_type_symbol
 _atom_site_label
 _atom_site_symmetry_multiplicity
 _atom_site_fract_x
 _atom_site_fract_y
 _atom_site_fract_z
 _atom_site_occupancy
  Sc  Sc0  1  0.608187  0.005749  0.000000  1
  Sc  Sc1  1  0.994251  0.602438  0.000000  1
  Sc  Sc2  1  0.397562  0.391813  0.000000  1
  Ni  Ni3  1  0.000000  0.000000  0.000000  1
  Sn  Sn4  1  0.264439  0.998866  0.500000  1
  Sn  Sn5  1  0.001134  0.265573  0.500000  1
  Sn  Sn6  1  0.734427  0.735561  0.500000  1
  Ir  Ir7  1  0.666667  0.333333  0.500000  1
  Pt  Pt8  1  0.333333  0.666667  0.500000  1
