# generated using pymatgen
data_Ca9Sm(Si3H)2
_symmetry_space_group_name_H-M   'P 1'
_cell_length_a   9.03347954
_cell_length_b   9.03347940
_cell_length_c   9.03852211
_cell_angle_alpha   130.00217485
_cell_angle_beta   130.00217237
_cell_angle_gamma   73.43353554
_symmetry_Int_Tables_number   1
_chemical_formula_structural   Ca9Sm(Si3H)2
_chemical_formula_sum   'Ca9 Sm1 Si6 H2'
_cell_volume   422.36376358
_cell_formula_units_Z   1
loop_
 _symmetry_equiv_pos_site_id
 _symmetry_equiv_pos_as_xyz
  1  'x, y, z'
loop_
 _atom_site_type_symbol
 _atom_site_label
 _atom_site_symmetry_multiplicity
 _atom_site_fract_x
 _atom_site_fract_y
 _atom_site_fract_z
 _atom_site_occupancy
  Ca  Ca0  1  0.497944  0.504267  0.000214  1
  Ca  Ca1  1  0.004267  0.997944  0.000214  1
  Ca  Ca2  1  0.181175  0.681175  0.160792  1
  Ca  Ca3  1  0.018973  0.182526  0.500404  1
  Ca  Ca4  1  0.682526  0.518973  0.500404  1
  Ca  Ca5  1  0.481346  0.981346  0.168530  1
  Ca  Ca6  1  0.815431  0.315431  0.834718  1
  Ca  Ca7  1  0.979884  0.816018  0.497865  1
  Ca  Ca8  1  0.316018  0.479884  0.497865  1
  Sm  Sm9  1  0.526141  0.026141  0.844202  1
  Si  Si10  1  0.254379  0.244097  0.994016  1
  Si  Si11  1  0.744097  0.754379  0.994016  1
  Si  Si12  1  0.883753  0.383753  0.270989  1
  Si  Si13  1  0.109731  0.609731  0.719288  1
  Si  Si14  1  0.387811  0.112507  0.505503  1
  Si  Si15  1  0.612507  0.887811  0.505503  1
  H  H16  1  0.253984  0.753984  0.503781  1
  H  H17  1  0.750037  0.250037  0.501698  1
