# generated using pymatgen
data_TbHo5ReSb2
_symmetry_space_group_name_H-M   'P 1'
_cell_length_a   8.13058900
_cell_length_b   8.12927016
_cell_length_c   4.30674500
_cell_angle_alpha   90.00000000
_cell_angle_beta   90.00000000
_cell_angle_gamma   120.00536273
_symmetry_Int_Tables_number   1
_chemical_formula_structural   TbHo5ReSb2
_chemical_formula_sum   'Tb1 Ho5 Re1 Sb2'
_cell_volume   246.50735590
_cell_formula_units_Z   1
loop_
 _symmetry_equiv_pos_site_id
 _symmetry_equiv_pos_as_xyz
  1  'x, y, z'
loop_
 _atom_site_type_symbol
 _atom_site_label
 _atom_site_symmetry_multiplicity
 _atom_site_fract_x
 _atom_site_fract_y
 _atom_site_fract_z
 _atom_site_occupancy
  Tb  Tb0  1  0.604846  0.000000  0.500000  1
  Ho  Ho1  1  0.235569  0.000000  0.000000  1
  Ho  Ho2  1  0.764443  0.764112  0.000000  1
  Ho  Ho3  1  0.000331  0.235888  0.000000  1
  Ho  Ho4  1  0.394586  0.394676  0.500000  1
  Ho  Ho5  1  0.999910  0.605324  0.500000  1
  Re  Re6  1  0.000724  0.000000  0.500000  1
  Sb  Sb7  1  0.332914  0.666238  0.000000  1
  Sb  Sb8  1  0.666677  0.333762  0.000000  1
