# generated using pymatgen
data_Ca2Si7(NiRh3)3
_symmetry_space_group_name_H-M   'P 1'
_cell_length_a   9.58114400
_cell_length_b   9.58114268
_cell_length_c   3.85831800
_cell_angle_alpha   90.00000000
_cell_angle_beta   90.00000000
_cell_angle_gamma   120.00001146
_symmetry_Int_Tables_number   1
_chemical_formula_structural   Ca2Si7(NiRh3)3
_chemical_formula_sum   'Ca2 Si7 Ni3 Rh9'
_cell_volume   306.73495881
_cell_formula_units_Z   1
loop_
 _symmetry_equiv_pos_site_id
 _symmetry_equiv_pos_as_xyz
  1  'x, y, z'
loop_
 _atom_site_type_symbol
 _atom_site_label
 _atom_site_symmetry_multiplicity
 _atom_site_fract_x
 _atom_site_fract_y
 _atom_site_fract_z
 _atom_site_occupancy
  Ca  Ca0  1  0.000000  0.000000  0.000000  1
  Ca  Ca1  1  0.666667  0.333333  0.500000  1
  Si  Si2  1  0.620798  0.561471  0.000000  1
  Si  Si3  1  0.940672  0.379202  0.000000  1
  Si  Si4  1  0.438529  0.059328  0.000000  1
  Si  Si5  1  0.729577  0.957043  0.500000  1
  Si  Si6  1  0.227466  0.270423  0.500000  1
  Si  Si7  1  0.042957  0.772534  0.500000  1
  Si  Si8  1  0.333333  0.666667  0.000000  1
  Ni  Ni9  1  0.609493  0.791032  0.000000  1
  Ni  Ni10  1  0.181538  0.390507  0.000000  1
  Ni  Ni11  1  0.208968  0.818462  0.000000  1
  Rh  Rh12  1  0.396325  0.293996  0.000000  1
  Rh  Rh13  1  0.897669  0.603675  0.000000  1
  Rh  Rh14  1  0.706004  0.102331  0.000000  1
  Rh  Rh15  1  0.767751  0.722791  0.500000  1
  Rh  Rh16  1  0.955041  0.232249  0.500000  1
  Rh  Rh17  1  0.277209  0.044959  0.500000  1
  Rh  Rh18  1  0.425210  0.549931  0.500000  1
  Rh  Rh19  1  0.124721  0.574790  0.500000  1
  Rh  Rh20  1  0.450069  0.875279  0.500000  1
