# generated using pymatgen
data_Tb3Mn(P3Rh4)2
_symmetry_space_group_name_H-M   'P 1'
_cell_length_a   3.90243900
_cell_length_b   11.25598500
_cell_length_c   12.61547100
_cell_angle_alpha   90.00000000
_cell_angle_beta   90.00000000
_cell_angle_gamma   90.00000000
_symmetry_Int_Tables_number   1
_chemical_formula_structural   Tb3Mn(P3Rh4)2
_chemical_formula_sum   'Tb6 Mn2 P12 Rh16'
_cell_volume   554.14459105
_cell_formula_units_Z   2
loop_
 _symmetry_equiv_pos_site_id
 _symmetry_equiv_pos_as_xyz
  1  'x, y, z'
loop_
 _atom_site_type_symbol
 _atom_site_label
 _atom_site_symmetry_multiplicity
 _atom_site_fract_x
 _atom_site_fract_y
 _atom_site_fract_z
 _atom_site_occupancy
  Tb  Tb0  1  0.000000  0.500000  0.520174  1
  Tb  Tb1  1  0.500000  0.000000  0.479826  1
  Tb  Tb2  1  0.500000  0.820633  0.201380  1
  Tb  Tb3  1  0.500000  0.179367  0.201380  1
  Tb  Tb4  1  0.000000  0.679367  0.798620  1
  Tb  Tb5  1  0.000000  0.320633  0.798620  1
  Mn  Mn6  1  0.000000  0.500000  0.990719  1
  Mn  Mn7  1  0.500000  0.000000  0.009281  1
  P  P8  1  0.500000  0.500000  0.885605  1
  P  P9  1  0.000000  0.000000  0.114395  1
  P  P10  1  0.500000  0.500000  0.348203  1
  P  P11  1  0.000000  0.000000  0.651797  1
  P  P12  1  0.500000  0.313763  0.620449  1
  P  P13  1  0.500000  0.686237  0.620449  1
  P  P14  1  0.000000  0.186237  0.379551  1
  P  P15  1  0.000000  0.813763  0.379551  1
  P  P16  1  0.500000  0.849514  0.897068  1
  P  P17  1  0.500000  0.150486  0.897068  1
  P  P18  1  0.000000  0.650486  0.102932  1
  P  P19  1  0.000000  0.349514  0.102932  1
  Rh  Rh20  1  0.500000  0.500000  0.160811  1
  Rh  Rh21  1  0.000000  0.000000  0.839189  1
  Rh  Rh22  1  0.500000  0.500000  0.701005  1
  Rh  Rh23  1  0.000000  0.000000  0.298995  1
  Rh  Rh24  1  0.500000  0.333940  0.993051  1
  Rh  Rh25  1  0.500000  0.666060  0.993051  1
  Rh  Rh26  1  0.000000  0.166060  0.006949  1
  Rh  Rh27  1  0.000000  0.833940  0.006949  1
  Rh  Rh28  1  0.500000  0.294542  0.429843  1
  Rh  Rh29  1  0.500000  0.705458  0.429843  1
  Rh  Rh30  1  0.000000  0.205458  0.570157  1
  Rh  Rh31  1  0.000000  0.794542  0.570157  1
  Rh  Rh32  1  0.500000  0.873276  0.713602  1
  Rh  Rh33  1  0.500000  0.126724  0.713602  1
  Rh  Rh34  1  0.000000  0.626724  0.286398  1
  Rh  Rh35  1  0.000000  0.373276  0.286398  1
