# generated using pymatgen
data_Tm5(GeB4)2
_symmetry_space_group_name_H-M   'P 1'
_cell_length_a   7.18316500
_cell_length_b   7.18316500
_cell_length_c   8.00819200
_cell_angle_alpha   90.00000000
_cell_angle_beta   90.00000000
_cell_angle_gamma   90.00000000
_symmetry_Int_Tables_number   1
_chemical_formula_structural   Tm5(GeB4)2
_chemical_formula_sum   'Tm10 Ge4 B16'
_cell_volume   413.20556500
_cell_formula_units_Z   2
loop_
 _symmetry_equiv_pos_site_id
 _symmetry_equiv_pos_as_xyz
  1  'x, y, z'
loop_
 _atom_site_type_symbol
 _atom_site_label
 _atom_site_symmetry_multiplicity
 _atom_site_fract_x
 _atom_site_fract_y
 _atom_site_fract_z
 _atom_site_occupancy
  Tm  Tm0  1  0.680364  0.180364  0.220392  1
  Tm  Tm1  1  0.319636  0.819636  0.779608  1
  Tm  Tm2  1  0.319636  0.819636  0.220392  1
  Tm  Tm3  1  0.819636  0.680364  0.220392  1
  Tm  Tm4  1  0.819636  0.680364  0.779608  1
  Tm  Tm5  1  0.680364  0.180364  0.779608  1
  Tm  Tm6  1  0.180364  0.319636  0.779608  1
  Tm  Tm7  1  0.180364  0.319636  0.220392  1
  Tm  Tm8  1  0.000000  0.000000  0.500000  1
  Tm  Tm9  1  0.500000  0.500000  0.500000  1
  Ge  Ge10  1  0.121243  0.621243  0.500000  1
  Ge  Ge11  1  0.878757  0.378757  0.500000  1
  Ge  Ge12  1  0.378757  0.121243  0.500000  1
  Ge  Ge13  1  0.621243  0.878757  0.500000  1
  B  B14  1  0.172622  0.039419  0.000000  1
  B  B15  1  0.827378  0.960581  0.000000  1
  B  B16  1  0.960581  0.172622  0.000000  1
  B  B17  1  0.327378  0.539419  0.000000  1
  B  B18  1  0.039419  0.827378  0.000000  1
  B  B19  1  0.672622  0.460581  0.000000  1
  B  B20  1  0.539419  0.672622  0.000000  1
  B  B21  1  0.460581  0.327378  0.000000  1
  B  B22  1  0.090018  0.590018  0.000000  1
  B  B23  1  0.909982  0.409982  0.000000  1
  B  B24  1  0.409982  0.090018  0.000000  1
  B  B25  1  0.590018  0.909982  0.000000  1
  B  B26  1  0.000000  0.000000  0.165402  1
  B  B27  1  0.000000  0.000000  0.834598  1
  B  B28  1  0.500000  0.500000  0.834598  1
  B  B29  1  0.500000  0.500000  0.165402  1
