# generated using pymatgen
data_Cs4Tb9Y3S20
_symmetry_space_group_name_H-M   'P 1'
_cell_length_a   4.02802500
_cell_length_b   12.05794808
_cell_length_c   21.51415115
_cell_angle_alpha   90.01346831
_cell_angle_beta   90.00000000
_cell_angle_gamma   90.00000000
_symmetry_Int_Tables_number   1
_chemical_formula_structural   Cs4Tb9Y3S20
_chemical_formula_sum   'Cs4 Tb9 Y3 S20'
_cell_volume   1044.93618946
_cell_formula_units_Z   1
loop_
 _symmetry_equiv_pos_site_id
 _symmetry_equiv_pos_as_xyz
  1  'x, y, z'
loop_
 _atom_site_type_symbol
 _atom_site_label
 _atom_site_symmetry_multiplicity
 _atom_site_fract_x
 _atom_site_fract_y
 _atom_site_fract_z
 _atom_site_occupancy
  Cs  Cs0  1  0.250000  0.853863  0.093273  1
  Cs  Cs1  1  0.750000  0.146097  0.906713  1
  Cs  Cs2  1  0.750000  0.353875  0.406720  1
  Cs  Cs3  1  0.250000  0.646129  0.593274  1
  Tb  Tb4  1  0.750000  0.797426  0.825588  1
  Tb  Tb5  1  0.250000  0.202477  0.174451  1
  Tb  Tb6  1  0.250000  0.297431  0.674402  1
  Tb  Tb7  1  0.750000  0.702557  0.325587  1
  Tb  Tb8  1  0.250000  0.958110  0.697418  1
  Tb  Tb9  1  0.750000  0.041884  0.302577  1
  Tb  Tb10  1  0.750000  0.458135  0.802543  1
  Tb  Tb11  1  0.250000  0.541924  0.197440  1
  Tb  Tb12  1  0.750000  0.390940  0.052793  1
  Y  Y13  1  0.250000  0.609054  0.947099  1
  Y  Y14  1  0.250000  0.891050  0.447116  1
  Y  Y15  1  0.750000  0.108940  0.552878  1
  S  S16  1  0.250000  0.951681  0.568575  1
  S  S17  1  0.750000  0.048321  0.431432  1
  S  S18  1  0.750000  0.451807  0.931260  1
  S  S19  1  0.250000  0.548772  0.068616  1
  S  S20  1  0.750000  0.761514  0.951575  1
  S  S21  1  0.250000  0.237966  0.048462  1
  S  S22  1  0.250000  0.261513  0.548423  1
  S  S23  1  0.750000  0.738489  0.451585  1
  S  S24  1  0.250000  0.946692  0.824326  1
  S  S25  1  0.750000  0.053305  0.175684  1
  S  S26  1  0.750000  0.446688  0.675669  1
  S  S27  1  0.250000  0.553312  0.324326  1
  S  S28  1  0.750000  0.126195  0.682517  1
  S  S29  1  0.250000  0.873809  0.317487  1
  S  S30  1  0.250000  0.626200  0.817486  1
  S  S31  1  0.750000  0.373832  0.182682  1
  S  S32  1  0.750000  0.689754  0.198768  1
  S  S33  1  0.250000  0.310256  0.801257  1
  S  S34  1  0.250000  0.189750  0.301240  1
  S  S35  1  0.750000  0.810250  0.698758  1
