# generated using pymatgen
data_Lu5ReTcO12
_symmetry_space_group_name_H-M   'P 1'
_cell_length_a   6.71203260
_cell_length_b   6.71203351
_cell_length_c   7.35104200
_cell_angle_alpha   73.82691169
_cell_angle_beta   73.82690054
_cell_angle_gamma   49.26207957
_symmetry_Int_Tables_number   1
_chemical_formula_structural   Lu5ReTcO12
_chemical_formula_sum   'Lu5 Re1 Tc1 O12'
_cell_volume   238.86105978
_cell_formula_units_Z   1
loop_
 _symmetry_equiv_pos_site_id
 _symmetry_equiv_pos_as_xyz
  1  'x, y, z'
loop_
 _atom_site_type_symbol
 _atom_site_label
 _atom_site_symmetry_multiplicity
 _atom_site_fract_x
 _atom_site_fract_y
 _atom_site_fract_z
 _atom_site_occupancy
  Lu  Lu0  1  0.708186  0.687862  0.640153  1
  Lu  Lu1  1  0.312138  0.291814  0.359847  1
  Lu  Lu2  1  0.687935  0.681912  0.178643  1
  Lu  Lu3  1  0.318088  0.312065  0.821357  1
  Lu  Lu4  1  0.009345  0.990655  0.500000  1
  Re  Re5  1  0.206492  0.793508  0.000000  1
  Tc  Tc6  1  0.774592  0.225408  0.000000  1
  O  O7  1  0.003495  0.002716  0.209155  1
  O  O8  1  0.997284  0.996505  0.790845  1
  O  O9  1  0.568335  0.087276  0.086974  1
  O  O10  1  0.411781  0.915370  0.911424  1
  O  O11  1  0.912724  0.431665  0.913026  1
  O  O12  1  0.084630  0.588219  0.088576  1
  O  O13  1  0.488756  0.510076  0.184708  1
  O  O14  1  0.489924  0.511244  0.815292  1
  O  O15  1  0.410530  0.893392  0.430945  1
  O  O16  1  0.599529  0.090372  0.574930  1
  O  O17  1  0.106608  0.589470  0.569055  1
  O  O18  1  0.909628  0.400471  0.425070  1
