# generated using pymatgen
data_Ho4Sn5SbRh7
_symmetry_space_group_name_H-M   'P 1'
_cell_length_a   7.59683417
_cell_length_b   7.59683488
_cell_length_c   7.59683500
_cell_angle_alpha   109.39924252
_cell_angle_beta   109.39924085
_cell_angle_gamma   109.61527349
_symmetry_Int_Tables_number   1
_chemical_formula_structural   Ho4Sn5SbRh7
_chemical_formula_sum   'Ho4 Sn5 Sb1 Rh7'
_cell_volume   337.50023767
_cell_formula_units_Z   1
loop_
 _symmetry_equiv_pos_site_id
 _symmetry_equiv_pos_as_xyz
  1  'x, y, z'
loop_
 _atom_site_type_symbol
 _atom_site_label
 _atom_site_symmetry_multiplicity
 _atom_site_fract_x
 _atom_site_fract_y
 _atom_site_fract_z
 _atom_site_occupancy
  Ho  Ho0  1  0.495294  0.998602  0.000000  1
  Ho  Ho1  1  0.998602  0.495294  0.000000  1
  Ho  Ho2  1  0.998602  0.998602  0.503308  1
  Ho  Ho3  1  0.495294  0.495294  0.496692  1
  Sn  Sn4  1  0.312667  0.996869  0.315798  1
  Sn  Sn5  1  0.996869  0.681071  0.684202  1
  Sn  Sn6  1  0.691995  0.691995  0.000000  1
  Sn  Sn7  1  0.681071  0.996869  0.684202  1
  Sn  Sn8  1  0.996869  0.312667  0.315798  1
  Sb  Sb9  1  0.321271  0.321271  0.000000  1
  Rh  Rh10  1  0.252956  0.501766  0.751190  1
  Rh  Rh11  1  0.501766  0.252956  0.751190  1
  Rh  Rh12  1  0.747762  0.247762  0.500000  1
  Rh  Rh13  1  0.501766  0.750576  0.248810  1
  Rh  Rh14  1  0.008875  0.008875  0.000000  1
  Rh  Rh15  1  0.247762  0.747762  0.500000  1
  Rh  Rh16  1  0.750576  0.501766  0.248810  1
