# generated using pymatgen
data_TiV(Cu3Se4)2
_symmetry_space_group_name_H-M   'P 1'
_cell_length_a   8.00004900
_cell_length_b   8.00004900
_cell_length_c   5.66159000
_cell_angle_alpha   90.00000000
_cell_angle_beta   90.00000000
_cell_angle_gamma   90.00000000
_symmetry_Int_Tables_number   1
_chemical_formula_structural   TiV(Cu3Se4)2
_chemical_formula_sum   'Ti1 V1 Cu6 Se8'
_cell_volume   362.34619870
_cell_formula_units_Z   1
loop_
 _symmetry_equiv_pos_site_id
 _symmetry_equiv_pos_as_xyz
  1  'x, y, z'
loop_
 _atom_site_type_symbol
 _atom_site_label
 _atom_site_symmetry_multiplicity
 _atom_site_fract_x
 _atom_site_fract_y
 _atom_site_fract_z
 _atom_site_occupancy
  Ti  Ti0  1  0.000000  0.000000  0.000000  1
  V  V1  1  0.500000  0.500000  0.000000  1
  Cu  Cu2  1  0.251121  0.748879  0.000000  1
  Cu  Cu3  1  0.748879  0.251121  0.000000  1
  Cu  Cu4  1  0.251121  0.251121  0.000000  1
  Cu  Cu5  1  0.748879  0.748879  0.000000  1
  Cu  Cu6  1  0.000000  0.000000  0.500000  1
  Cu  Cu7  1  0.500000  0.500000  0.500000  1
  Se  Se8  1  0.500000  0.259372  0.758752  1
  Se  Se9  1  0.000000  0.751981  0.752058  1
  Se  Se10  1  0.500000  0.740628  0.758752  1
  Se  Se11  1  0.000000  0.248019  0.752058  1
  Se  Se12  1  0.751981  0.000000  0.247942  1
  Se  Se13  1  0.259372  0.500000  0.241248  1
  Se  Se14  1  0.248019  0.000000  0.247942  1
  Se  Se15  1  0.740628  0.500000  0.241248  1
