# generated using pymatgen
data_ZnBi3Ru2(PtO7)2
_symmetry_space_group_name_H-M   'P 1'
_cell_length_a   7.21083717
_cell_length_b   7.39631224
_cell_length_c   7.40647700
_cell_angle_alpha   59.95453254
_cell_angle_beta   59.09837342
_cell_angle_gamma   59.06272826
_symmetry_Int_Tables_number   1
_chemical_formula_structural   ZnBi3Ru2(PtO7)2
_chemical_formula_sum   'Zn1 Bi3 Ru2 Pt2 O14'
_cell_volume   275.28012301
_cell_formula_units_Z   1
loop_
 _symmetry_equiv_pos_site_id
 _symmetry_equiv_pos_as_xyz
  1  'x, y, z'
loop_
 _atom_site_type_symbol
 _atom_site_label
 _atom_site_symmetry_multiplicity
 _atom_site_fract_x
 _atom_site_fract_y
 _atom_site_fract_z
 _atom_site_occupancy
  Zn  Zn0  1  0.625000  0.125000  0.125000  1
  Bi  Bi1  1  0.125000  0.125000  0.625000  1
  Bi  Bi2  1  0.125000  0.625000  0.125000  1
  Bi  Bi3  1  0.125000  0.125000  0.125000  1
  Ru  Ru4  1  0.625000  0.625000  0.125000  1
  Ru  Ru5  1  0.625000  0.625000  0.625000  1
  Pt  Pt6  1  0.625000  0.125000  0.625000  1
  Pt  Pt7  1  0.125000  0.625000  0.625000  1
  O  O8  1  0.291963  0.237738  0.235149  1
  O  O9  1  0.958037  0.012262  0.014851  1
  O  O10  1  0.547425  0.951352  0.542369  1
  O  O11  1  0.289708  0.708237  0.290873  1
  O  O12  1  0.545597  0.567828  0.943287  1
  O  O13  1  0.960292  0.541763  0.538819  1
  O  O14  1  0.547425  0.951352  0.958853  1
  O  O15  1  0.966032  0.960346  0.536811  1
  O  O16  1  0.960292  0.541763  0.959127  1
  O  O17  1  0.702575  0.298648  0.291147  1
  O  O18  1  0.289708  0.708237  0.711181  1
  O  O19  1  0.702575  0.298648  0.707631  1
  O  O20  1  0.283968  0.289654  0.713189  1
  O  O21  1  0.704403  0.682172  0.306713  1
