# generated using pymatgen
data_Ba3NaRhO6
_symmetry_space_group_name_H-M   'P 1'
_cell_length_a   7.14892523
_cell_length_b   7.14892554
_cell_length_c   7.14892506
_cell_angle_alpha   91.50206808
_cell_angle_beta   91.50207057
_cell_angle_gamma   91.50207077
_symmetry_Int_Tables_number   1
_chemical_formula_structural   Ba3NaRhO6
_chemical_formula_sum   'Ba6 Na2 Rh2 O12'
_cell_volume   364.97771716
_cell_formula_units_Z   2
loop_
 _symmetry_equiv_pos_site_id
 _symmetry_equiv_pos_as_xyz
  1  'x, y, z'
loop_
 _atom_site_type_symbol
 _atom_site_label
 _atom_site_symmetry_multiplicity
 _atom_site_fract_x
 _atom_site_fract_y
 _atom_site_fract_z
 _atom_site_occupancy
  Ba  Ba0  1  0.250000  0.891346  0.608654  1
  Ba  Ba1  1  0.608654  0.250000  0.891346  1
  Ba  Ba2  1  0.891346  0.608654  0.250000  1
  Ba  Ba3  1  0.750000  0.108654  0.391346  1
  Ba  Ba4  1  0.391346  0.750000  0.108654  1
  Ba  Ba5  1  0.108654  0.391346  0.750000  1
  Na  Na6  1  0.750000  0.750000  0.750000  1
  Na  Na7  1  0.250000  0.250000  0.250000  1
  Rh  Rh8  1  0.500000  0.500000  0.500000  1
  Rh  Rh9  1  0.000000  0.000000  0.000000  1
  O  O10  1  0.051804  0.732038  0.919612  1
  O  O11  1  0.919612  0.051804  0.732038  1
  O  O12  1  0.732038  0.919612  0.051804  1
  O  O13  1  0.448196  0.580388  0.767962  1
  O  O14  1  0.767962  0.448196  0.580388  1
  O  O15  1  0.580388  0.767962  0.448196  1
  O  O16  1  0.948196  0.267962  0.080388  1
  O  O17  1  0.080388  0.948196  0.267962  1
  O  O18  1  0.267962  0.080388  0.948196  1
  O  O19  1  0.551804  0.419612  0.232038  1
  O  O20  1  0.419612  0.232038  0.551804  1
  O  O21  1  0.232038  0.551804  0.419612  1
