# generated using pymatgen
data_Dy6Re16N
_symmetry_space_group_name_H-M   'P 1'
_cell_length_a   8.12307614
_cell_length_b   8.12307678
_cell_length_c   8.12307600
_cell_angle_alpha   109.47121121
_cell_angle_beta   109.47121280
_cell_angle_gamma   109.47122687
_symmetry_Int_Tables_number   1
_chemical_formula_structural   Dy6Re16N
_chemical_formula_sum   'Dy6 Re16 N1'
_cell_volume   412.61001696
_cell_formula_units_Z   1
loop_
 _symmetry_equiv_pos_site_id
 _symmetry_equiv_pos_as_xyz
  1  'x, y, z'
loop_
 _atom_site_type_symbol
 _atom_site_label
 _atom_site_symmetry_multiplicity
 _atom_site_fract_x
 _atom_site_fract_y
 _atom_site_fract_z
 _atom_site_occupancy
  Dy  Dy0  1  0.257520  0.000000  0.257520  1
  Dy  Dy1  1  0.000000  0.257520  0.257520  1
  Dy  Dy2  1  0.000000  0.742480  0.742480  1
  Dy  Dy3  1  0.257520  0.257520  0.000000  1
  Dy  Dy4  1  0.742480  0.742480  0.000000  1
  Dy  Dy5  1  0.742480  0.000000  0.742480  1
  Re  Re6  1  0.000000  0.000000  0.500000  1
  Re  Re7  1  0.500000  0.000000  0.000000  1
  Re  Re8  1  0.000000  0.500000  0.000000  1
  Re  Re9  1  0.500000  0.500000  0.500000  1
  Re  Re10  1  0.340004  0.000000  0.659996  1
  Re  Re11  1  0.680010  0.340004  0.340004  1
  Re  Re12  1  0.000000  0.340004  0.659996  1
  Re  Re13  1  0.659996  0.659996  0.319990  1
  Re  Re14  1  0.340004  0.659996  0.000000  1
  Re  Re15  1  0.340004  0.680010  0.340004  1
  Re  Re16  1  0.659996  0.319990  0.659996  1
  Re  Re17  1  0.340004  0.340004  0.680010  1
  Re  Re18  1  0.319990  0.659996  0.659996  1
  Re  Re19  1  0.659996  0.340004  0.000000  1
  Re  Re20  1  0.000000  0.659996  0.340004  1
  Re  Re21  1  0.659996  0.000000  0.340004  1
  N  N22  1  0.000000  0.000000  0.000000  1
