# generated using pymatgen
data_LaNd4Dy(CI5)2
_symmetry_space_group_name_H-M   'P 1'
_cell_length_a   7.92951961
_cell_length_b   9.71687963
_cell_length_c   9.83110006
_cell_angle_alpha   107.16125709
_cell_angle_beta   96.97169742
_cell_angle_gamma   104.50260325
_symmetry_Int_Tables_number   1
_chemical_formula_structural   LaNd4Dy(CI5)2
_chemical_formula_sum   'La1 Nd4 Dy1 C2 I10'
_cell_volume   684.91159815
_cell_formula_units_Z   1
loop_
 _symmetry_equiv_pos_site_id
 _symmetry_equiv_pos_as_xyz
  1  'x, y, z'
loop_
 _atom_site_type_symbol
 _atom_site_label
 _atom_site_symmetry_multiplicity
 _atom_site_fract_x
 _atom_site_fract_y
 _atom_site_fract_z
 _atom_site_occupancy
  La  La0  1  0.378712  0.137540  0.185252  1
  Nd  Nd1  1  0.029876  0.735360  0.923026  1
  Nd  Nd2  1  0.104678  0.038881  0.777156  1
  Nd  Nd3  1  0.966677  0.263585  0.074596  1
  Nd  Nd4  1  0.891107  0.958406  0.220367  1
  Dy  Dy5  1  0.632554  0.867936  0.822089  1
  C  C6  1  0.086247  0.029849  0.041038  1
  C  C7  1  0.909963  0.969132  0.957814  1
  I  I8  1  0.200795  0.736391  0.649812  1
  I  I9  1  0.911425  0.630050  0.178356  1
  I  I10  1  0.086776  0.368987  0.819961  1
  I  I11  1  0.737937  0.911904  0.544946  1
  I  I12  1  0.248355  0.082973  0.464938  1
  I  I13  1  0.650269  0.550024  0.725817  1
  I  I14  1  0.460701  0.805858  0.081697  1
  I  I15  1  0.817373  0.268520  0.358223  1
  I  I16  1  0.341411  0.463005  0.273909  1
  I  I17  1  0.545142  0.181598  0.901001  1
