# generated using pymatgen
data_Ti2NbAl2PtC
_symmetry_space_group_name_H-M   'P 1'
_cell_length_a   8.29125312
_cell_length_b   8.27421754
_cell_length_c   8.29293045
_cell_angle_alpha   60.06121927
_cell_angle_beta   59.85743925
_cell_angle_gamma   60.08097116
_symmetry_Int_Tables_number   1
_chemical_formula_structural   Ti2NbAl2PtC
_chemical_formula_sum   'Ti8 Nb4 Al8 Pt4 C4'
_cell_volume   402.28595663
_cell_formula_units_Z   4
loop_
 _symmetry_equiv_pos_site_id
 _symmetry_equiv_pos_as_xyz
  1  'x, y, z'
loop_
 _atom_site_type_symbol
 _atom_site_label
 _atom_site_symmetry_multiplicity
 _atom_site_fract_x
 _atom_site_fract_y
 _atom_site_fract_z
 _atom_site_occupancy
  Ti  Ti0  1  0.686093  0.314053  0.685849  1
  Ti  Ti1  1  0.314053  0.686093  0.314005  1
  Ti  Ti2  1  0.564409  0.935702  0.563675  1
  Ti  Ti3  1  0.564570  0.935920  0.935828  1
  Ti  Ti4  1  0.935920  0.564570  0.563682  1
  Ti  Ti5  1  0.935702  0.564409  0.936215  1
  Ti  Ti6  1  0.314141  0.314141  0.685859  1
  Ti  Ti7  1  0.564106  0.564106  0.935894  1
  Nb  Nb8  1  0.935516  0.935516  0.564484  1
  Nb  Nb9  1  0.686285  0.313908  0.314522  1
  Nb  Nb10  1  0.313908  0.686285  0.685284  1
  Nb  Nb11  1  0.684862  0.684862  0.315138  1
  Al  Al12  1  0.915244  0.256098  0.914487  1
  Al  Al13  1  0.336181  0.333611  0.994876  1
  Al  Al14  1  0.996570  0.333808  0.335938  1
  Al  Al15  1  0.333611  0.336181  0.335331  1
  Al  Al16  1  0.256098  0.915244  0.914173  1
  Al  Al17  1  0.914546  0.914261  0.916450  1
  Al  Al18  1  0.914261  0.914546  0.254744  1
  Al  Al19  1  0.333808  0.996570  0.333683  1
  Pt  Pt20  1  0.126472  0.624458  0.125288  1
  Pt  Pt21  1  0.125062  0.126824  0.625501  1
  Pt  Pt22  1  0.624458  0.126472  0.123781  1
  Pt  Pt23  1  0.126824  0.125062  0.122612  1
  C  C24  1  0.618578  0.126480  0.630362  1
  C  C25  1  0.623181  0.629061  0.118295  1
  C  C26  1  0.126480  0.618578  0.624580  1
  C  C27  1  0.629061  0.623181  0.629462  1
