# generated using pymatgen
data_CsCe(PPt)2
_symmetry_space_group_name_H-M   'P 1'
_cell_length_a   4.12861200
_cell_length_b   4.12861311
_cell_length_c   9.72368200
_cell_angle_alpha   90.00000000
_cell_angle_beta   90.00000000
_cell_angle_gamma   120.00002317
_symmetry_Int_Tables_number   1
_chemical_formula_structural   CsCe(PPt)2
_chemical_formula_sum   'Cs1 Ce1 P2 Pt2'
_cell_volume   143.53887411
_cell_formula_units_Z   1
loop_
 _symmetry_equiv_pos_site_id
 _symmetry_equiv_pos_as_xyz
  1  'x, y, z'
loop_
 _atom_site_type_symbol
 _atom_site_label
 _atom_site_symmetry_multiplicity
 _atom_site_fract_x
 _atom_site_fract_y
 _atom_site_fract_z
 _atom_site_occupancy
  Cs  Cs0  1  0.000000  0.000000  0.500000  1
  Ce  Ce1  1  0.000000  0.000000  0.000000  1
  P  P2  1  0.333333  0.666667  0.806857  1
  P  P3  1  0.666667  0.333333  0.193143  1
  Pt  Pt4  1  0.333333  0.666667  0.208278  1
  Pt  Pt5  1  0.666667  0.333333  0.791722  1
