# generated using pymatgen
data_Tb5Dy5(Co2Au)2
_symmetry_space_group_name_H-M   'P 1'
_cell_length_a   8.54332290
_cell_length_b   8.54321242
_cell_length_c   8.54168786
_cell_angle_alpha   128.06278553
_cell_angle_beta   128.06255940
_cell_angle_gamma   76.46283310
_symmetry_Int_Tables_number   1
_chemical_formula_structural   Tb5Dy5(Co2Au)2
_chemical_formula_sum   'Tb5 Dy5 Co4 Au2'
_cell_volume   375.59197086
_cell_formula_units_Z   1
loop_
 _symmetry_equiv_pos_site_id
 _symmetry_equiv_pos_as_xyz
  1  'x, y, z'
loop_
 _atom_site_type_symbol
 _atom_site_label
 _atom_site_symmetry_multiplicity
 _atom_site_fract_x
 _atom_site_fract_y
 _atom_site_fract_z
 _atom_site_occupancy
  Tb  Tb0  1  0.803314  0.303295  0.835655  1
  Tb  Tb1  1  0.196885  0.696861  0.165095  1
  Tb  Tb2  1  0.467863  0.967835  0.164196  1
  Tb  Tb3  1  0.302837  0.468364  0.499854  1
  Tb  Tb4  1  0.031753  0.196977  0.499981  1
  Dy  Dy5  1  0.999575  0.999701  0.999493  1
  Dy  Dy6  1  0.500358  0.499831  0.000385  1
  Dy  Dy7  1  0.532462  0.032474  0.835510  1
  Dy  Dy8  1  0.697362  0.532442  0.500017  1
  Dy  Dy9  1  0.967702  0.802489  0.499892  1
  Co  Co10  1  0.123710  0.624405  0.748201  1
  Co  Co11  1  0.875296  0.375995  0.251433  1
  Co  Co12  1  0.624552  0.875502  0.500363  1
  Co  Co13  1  0.375857  0.124193  0.500361  1
  Au  Au14  1  0.250534  0.249526  0.999788  1
  Au  Au15  1  0.749941  0.750112  0.999779  1
