# generated using pymatgen
data_Yb2FeCoSi4
_symmetry_space_group_name_H-M   'P 1'
_cell_length_a   3.91008500
_cell_length_b   4.36635861
_cell_length_c   7.98414021
_cell_angle_alpha   76.06233401
_cell_angle_beta   90.00000000
_cell_angle_gamma   90.00000000
_symmetry_Int_Tables_number   1
_chemical_formula_structural   Yb2FeCoSi4
_chemical_formula_sum   'Yb2 Fe1 Co1 Si4'
_cell_volume   132.29864748
_cell_formula_units_Z   1
loop_
 _symmetry_equiv_pos_site_id
 _symmetry_equiv_pos_as_xyz
  1  'x, y, z'
loop_
 _atom_site_type_symbol
 _atom_site_label
 _atom_site_symmetry_multiplicity
 _atom_site_fract_x
 _atom_site_fract_y
 _atom_site_fract_z
 _atom_site_occupancy
  Yb  Yb0  1  0.250000  0.599438  0.797319  1
  Yb  Yb1  1  0.750000  0.401458  0.202872  1
  Fe  Fe2  1  0.750000  0.117001  0.607752  1
  Co  Co3  1  0.250000  0.884358  0.390240  1
  Si  Si4  1  0.250000  0.961802  0.094259  1
  Si  Si5  1  0.750000  0.039741  0.904293  1
  Si  Si6  1  0.250000  0.326785  0.493829  1
  Si  Si7  1  0.750000  0.669419  0.509437  1
