# generated using pymatgen
data_TbNd3Au5
_symmetry_space_group_name_H-M   'P 1'
_cell_length_a   8.24506025
_cell_length_b   8.24506045
_cell_length_c   8.24506103
_cell_angle_alpha   65.49256657
_cell_angle_beta   65.49256636
_cell_angle_gamma   65.49254546
_symmetry_Int_Tables_number   1
_chemical_formula_structural   TbNd3Au5
_chemical_formula_sum   'Tb2 Nd6 Au10'
_cell_volume   443.66808249
_cell_formula_units_Z   2
loop_
 _symmetry_equiv_pos_site_id
 _symmetry_equiv_pos_as_xyz
  1  'x, y, z'
loop_
 _atom_site_type_symbol
 _atom_site_label
 _atom_site_symmetry_multiplicity
 _atom_site_fract_x
 _atom_site_fract_y
 _atom_site_fract_z
 _atom_site_occupancy
  Tb  Tb0  1  0.657654  0.657654  0.657654  1
  Tb  Tb1  1  0.342346  0.342346  0.342346  1
  Nd  Nd2  1  0.892247  0.184354  0.621526  1
  Nd  Nd3  1  0.621526  0.892247  0.184354  1
  Nd  Nd4  1  0.184354  0.621526  0.892247  1
  Nd  Nd5  1  0.107753  0.815646  0.378474  1
  Nd  Nd6  1  0.378474  0.107753  0.815646  1
  Nd  Nd7  1  0.815646  0.378474  0.107753  1
  Au  Au8  1  0.000000  0.000000  0.000000  1
  Au  Au9  1  0.500000  0.500000  0.500000  1
  Au  Au10  1  0.805991  0.805991  0.805991  1
  Au  Au11  1  0.194009  0.194009  0.194009  1
  Au  Au12  1  0.940176  0.547338  0.318361  1
  Au  Au13  1  0.318361  0.940176  0.547338  1
  Au  Au14  1  0.547338  0.318361  0.940176  1
  Au  Au15  1  0.059824  0.452662  0.681639  1
  Au  Au16  1  0.681639  0.059824  0.452662  1
  Au  Au17  1  0.452662  0.681639  0.059824  1
