# generated using pymatgen
data_HoTm3(VB4)4
_symmetry_space_group_name_H-M   'P 1'
_cell_length_a   3.41666400
_cell_length_b   5.97278613
_cell_length_c   11.56812624
_cell_angle_alpha   89.97644204
_cell_angle_beta   90.00000000
_cell_angle_gamma   90.00000000
_symmetry_Int_Tables_number   1
_chemical_formula_structural   HoTm3(VB4)4
_chemical_formula_sum   'Ho1 Tm3 V4 B16'
_cell_volume   236.07077092
_cell_formula_units_Z   1
loop_
 _symmetry_equiv_pos_site_id
 _symmetry_equiv_pos_as_xyz
  1  'x, y, z'
loop_
 _atom_site_type_symbol
 _atom_site_label
 _atom_site_symmetry_multiplicity
 _atom_site_fract_x
 _atom_site_fract_y
 _atom_site_fract_z
 _atom_site_occupancy
  Ho  Ho0  1  0.500000  0.375670  0.151568  1
  Tm  Tm1  1  0.500000  0.124235  0.651600  1
  Tm  Tm2  1  0.500000  0.875735  0.348483  1
  Tm  Tm3  1  0.500000  0.624291  0.848383  1
  V  V4  1  0.500000  0.127684  0.916603  1
  V  V5  1  0.500000  0.872220  0.083114  1
  V  V6  1  0.500000  0.627820  0.583236  1
  V  V7  1  0.500000  0.372191  0.417000  1
  B  B8  1  0.000000  0.476947  0.692918  1
  B  B9  1  0.000000  0.523500  0.307550  1
  B  B10  1  0.000000  0.976942  0.807064  1
  B  B11  1  0.000000  0.022520  0.192929  1
  B  B12  1  0.000000  0.287229  0.813861  1
  B  B13  1  0.000000  0.713659  0.186231  1
  B  B14  1  0.000000  0.787222  0.686103  1
  B  B15  1  0.000000  0.212514  0.314281  1
  B  B16  1  0.000000  0.365129  0.967141  1
  B  B17  1  0.000000  0.635182  0.032211  1
  B  B18  1  0.000000  0.865265  0.532530  1
  B  B19  1  0.000000  0.134664  0.467561  1
  B  B20  1  0.000000  0.384534  0.547888  1
  B  B21  1  0.000000  0.615568  0.452240  1
  B  B22  1  0.000000  0.884535  0.952020  1
  B  B23  1  0.000000  0.114743  0.047484  1
