# generated using pymatgen
data_ScU2(GaRu2)3
_symmetry_space_group_name_H-M   'P 1'
_cell_length_a   4.54451700
_cell_length_b   6.36717100
_cell_length_c   13.51189100
_cell_angle_alpha   90.00000000
_cell_angle_beta   90.00000000
_cell_angle_gamma   90.00000000
_symmetry_Int_Tables_number   1
_chemical_formula_structural   ScU2(GaRu2)3
_chemical_formula_sum   'Sc2 U4 Ga6 Ru12'
_cell_volume   390.97625210
_cell_formula_units_Z   2
loop_
 _symmetry_equiv_pos_site_id
 _symmetry_equiv_pos_as_xyz
  1  'x, y, z'
loop_
 _atom_site_type_symbol
 _atom_site_label
 _atom_site_symmetry_multiplicity
 _atom_site_fract_x
 _atom_site_fract_y
 _atom_site_fract_z
 _atom_site_occupancy
  Sc  Sc0  1  0.000251  0.000000  0.669518  1
  Sc  Sc1  1  0.500252  0.499999  0.830483  1
  U  U2  1  0.000036  0.000000  0.992090  1
  U  U3  1  0.499699  0.499999  0.164345  1
  U  U4  1  0.999700  0.000000  0.335655  1
  U  U5  1  0.500037  0.499999  0.507910  1
  Ga  Ga6  1  0.999994  0.499999  0.992536  1
  Ga  Ga7  1  0.499785  0.000000  0.165814  1
  Ga  Ga8  1  0.999787  0.499999  0.334185  1
  Ga  Ga9  1  0.499995  0.000000  0.507464  1
  Ga  Ga10  1  0.000188  0.499999  0.675638  1
  Ga  Ga11  1  0.500188  0.000000  0.824361  1
  Ru  Ru12  1  0.500060  0.250636  0.998918  1
  Ru  Ru13  1  0.500060  0.749365  0.998918  1
  Ru  Ru14  1  0.999696  0.243065  0.163893  1
  Ru  Ru15  1  0.999696  0.756934  0.163893  1
  Ru  Ru16  1  0.499696  0.256934  0.336107  1
  Ru  Ru17  1  0.499696  0.743067  0.336107  1
  Ru  Ru18  1  0.000059  0.249364  0.501082  1
  Ru  Ru19  1  0.000059  0.750635  0.501082  1
  Ru  Ru20  1  0.500266  0.254656  0.663708  1
  Ru  Ru21  1  0.500266  0.745345  0.663708  1
  Ru  Ru22  1  0.000268  0.245343  0.836292  1
  Ru  Ru23  1  0.000268  0.754656  0.836292  1
