# generated using pymatgen
data_ZrPaPd5Pt
_symmetry_space_group_name_H-M   'P 1'
_cell_length_a   5.71334644
_cell_length_b   5.71334579
_cell_length_c   4.88658300
_cell_angle_alpha   90.00000000
_cell_angle_beta   90.00000000
_cell_angle_gamma   120.09861545
_symmetry_Int_Tables_number   1
_chemical_formula_structural   ZrPaPd5Pt
_chemical_formula_sum   'Zr1 Pa1 Pd5 Pt1'
_cell_volume   138.00173828
_cell_formula_units_Z   1
loop_
 _symmetry_equiv_pos_site_id
 _symmetry_equiv_pos_as_xyz
  1  'x, y, z'
loop_
 _atom_site_type_symbol
 _atom_site_label
 _atom_site_symmetry_multiplicity
 _atom_site_fract_x
 _atom_site_fract_y
 _atom_site_fract_z
 _atom_site_occupancy
  Zr  Zr0  1  0.332284  0.667716  0.750000  1
  Pa  Pa1  1  0.668743  0.331257  0.250000  1
  Pd  Pd2  1  0.325458  0.164577  0.750000  1
  Pd  Pd3  1  0.835423  0.674542  0.750000  1
  Pd  Pd4  1  0.167101  0.832899  0.250000  1
  Pd  Pd5  1  0.667011  0.830500  0.250000  1
  Pd  Pd6  1  0.169500  0.332989  0.250000  1
  Pt  Pt7  1  0.834480  0.165520  0.750000  1
