# generated using pymatgen
data_Nd6Er10Cd4RuPt3
_symmetry_space_group_name_H-M   'P 1'
_cell_length_a   9.73542745
_cell_length_b   9.73542891
_cell_length_c   9.73542815
_cell_angle_alpha   59.85482978
_cell_angle_beta   59.85483289
_cell_angle_gamma   59.85483238
_symmetry_Int_Tables_number   1
_chemical_formula_structural   Nd6Er10Cd4RuPt3
_chemical_formula_sum   'Nd6 Er10 Cd4 Ru1 Pt3'
_cell_volume   650.30501779
_cell_formula_units_Z   1
loop_
 _symmetry_equiv_pos_site_id
 _symmetry_equiv_pos_as_xyz
  1  'x, y, z'
loop_
 _atom_site_type_symbol
 _atom_site_label
 _atom_site_symmetry_multiplicity
 _atom_site_fract_x
 _atom_site_fract_y
 _atom_site_fract_z
 _atom_site_occupancy
  Nd  Nd0  1  0.938483  0.561885  0.561885  1
  Nd  Nd1  1  0.557458  0.939707  0.939707  1
  Nd  Nd2  1  0.561885  0.938483  0.561885  1
  Nd  Nd3  1  0.939707  0.557458  0.939707  1
  Nd  Nd4  1  0.561885  0.561885  0.938483  1
  Nd  Nd5  1  0.939707  0.939707  0.557458  1
  Er  Er6  1  0.350714  0.350714  0.350714  1
  Er  Er7  1  0.347589  0.347589  0.954274  1
  Er  Er8  1  0.347589  0.954274  0.347589  1
  Er  Er9  1  0.954274  0.347589  0.347589  1
  Er  Er10  1  0.817151  0.186384  0.186384  1
  Er  Er11  1  0.185161  0.811966  0.811966  1
  Er  Er12  1  0.186384  0.817151  0.186384  1
  Er  Er13  1  0.811966  0.185161  0.811966  1
  Er  Er14  1  0.186384  0.186384  0.817151  1
  Er  Er15  1  0.811966  0.811966  0.185161  1
  Cd  Cd16  1  0.579144  0.579144  0.579144  1
  Cd  Cd17  1  0.579527  0.579527  0.260148  1
  Cd  Cd18  1  0.579527  0.260148  0.579527  1
  Cd  Cd19  1  0.260148  0.579527  0.579527  1
  Ru  Ru20  1  0.142558  0.142558  0.142558  1
  Pt  Pt21  1  0.143376  0.143376  0.574042  1
  Pt  Pt22  1  0.143376  0.574042  0.143376  1
  Pt  Pt23  1  0.574042  0.143376  0.143376  1
