# generated using pymatgen
data_Hf7Ti3(CuSb3)2
_symmetry_space_group_name_H-M   'P 1'
_cell_length_a   8.48409100
_cell_length_b   8.48409046
_cell_length_c   5.65129300
_cell_angle_alpha   90.00000000
_cell_angle_beta   90.00000000
_cell_angle_gamma   119.99999820
_symmetry_Int_Tables_number   1
_chemical_formula_structural   Hf7Ti3(CuSb3)2
_chemical_formula_sum   'Hf7 Ti3 Cu2 Sb6'
_cell_volume   352.28088012
_cell_formula_units_Z   1
loop_
 _symmetry_equiv_pos_site_id
 _symmetry_equiv_pos_as_xyz
  1  'x, y, z'
loop_
 _atom_site_type_symbol
 _atom_site_label
 _atom_site_symmetry_multiplicity
 _atom_site_fract_x
 _atom_site_fract_y
 _atom_site_fract_z
 _atom_site_occupancy
  Hf  Hf0  1  0.666667  0.333333  0.500000  1
  Hf  Hf1  1  0.735198  0.733851  0.251688  1
  Hf  Hf2  1  0.266149  0.001347  0.251688  1
  Hf  Hf3  1  0.998653  0.264802  0.251688  1
  Hf  Hf4  1  0.266149  0.264802  0.748312  1
  Hf  Hf5  1  0.735198  0.001347  0.748312  1
  Hf  Hf6  1  0.998653  0.733851  0.748312  1
  Ti  Ti7  1  0.333333  0.666667  0.500000  1
  Ti  Ti8  1  0.333333  0.666667  0.000000  1
  Ti  Ti9  1  0.666667  0.333333  0.000000  1
  Cu  Cu10  1  0.000000  0.000000  0.000000  1
  Cu  Cu11  1  0.000000  0.000000  0.500000  1
  Sb  Sb12  1  0.386385  0.390706  0.246719  1
  Sb  Sb13  1  0.609294  0.995679  0.246719  1
  Sb  Sb14  1  0.004321  0.613615  0.246719  1
  Sb  Sb15  1  0.609294  0.613615  0.753281  1
  Sb  Sb16  1  0.386385  0.995679  0.753281  1
  Sb  Sb17  1  0.004321  0.390706  0.753281  1
