# generated using pymatgen
data_ScCo4Si2MoP
_symmetry_space_group_name_H-M   'P 1'
_cell_length_a   3.67162500
_cell_length_b   10.39715500
_cell_length_c   11.93357300
_cell_angle_alpha   90.00000000
_cell_angle_beta   90.00000000
_cell_angle_gamma   90.00000000
_symmetry_Int_Tables_number   1
_chemical_formula_structural   ScCo4Si2MoP
_chemical_formula_sum   'Sc4 Co16 Si8 Mo4 P4'
_cell_volume   455.55763625
_cell_formula_units_Z   4
loop_
 _symmetry_equiv_pos_site_id
 _symmetry_equiv_pos_as_xyz
  1  'x, y, z'
loop_
 _atom_site_type_symbol
 _atom_site_label
 _atom_site_symmetry_multiplicity
 _atom_site_fract_x
 _atom_site_fract_y
 _atom_site_fract_z
 _atom_site_occupancy
  Sc  Sc0  1  0.250000  0.574110  0.703436  1
  Sc  Sc1  1  0.250000  0.925890  0.203436  1
  Sc  Sc2  1  0.750000  0.425890  0.296564  1
  Sc  Sc3  1  0.750000  0.074110  0.796564  1
  Co  Co4  1  0.250000  0.411081  0.486179  1
  Co  Co5  1  0.250000  0.088919  0.986179  1
  Co  Co6  1  0.750000  0.588919  0.513821  1
  Co  Co7  1  0.750000  0.911081  0.013821  1
  Co  Co8  1  0.250000  0.211445  0.171171  1
  Co  Co9  1  0.250000  0.288556  0.671171  1
  Co  Co10  1  0.750000  0.788556  0.828829  1
  Co  Co11  1  0.750000  0.711444  0.328829  1
  Co  Co12  1  0.250000  0.883544  0.704064  1
  Co  Co13  1  0.250000  0.616456  0.204064  1
  Co  Co14  1  0.750000  0.116456  0.295936  1
  Co  Co15  1  0.750000  0.383544  0.795936  1
  Co  Co16  1  0.250000  0.464534  0.931647  1
  Co  Co17  1  0.250000  0.035466  0.431647  1
  Co  Co18  1  0.750000  0.535466  0.068353  1
  Co  Co19  1  0.750000  0.964534  0.568353  1
  Si  Si20  1  0.250000  0.419671  0.119442  1
  Si  Si21  1  0.250000  0.080329  0.619442  1
  Si  Si22  1  0.750000  0.580329  0.880558  1
  Si  Si23  1  0.750000  0.919671  0.380558  1
  Si  Si24  1  0.250000  0.261788  0.858760  1
  Si  Si25  1  0.250000  0.238212  0.358760  1
  Si  Si26  1  0.750000  0.738212  0.141240  1
  Si  Si27  1  0.750000  0.761788  0.641240  1
  Mo  Mo28  1  0.250000  0.704881  0.992392  1
  Mo  Mo29  1  0.250000  0.795119  0.492392  1
  Mo  Mo30  1  0.750000  0.295119  0.007608  1
  Mo  Mo31  1  0.750000  0.204881  0.507608  1
  P  P32  1  0.250000  0.594166  0.390697  1
  P  P33  1  0.250000  0.905834  0.890697  1
  P  P34  1  0.750000  0.405834  0.609303  1
  P  P35  1  0.750000  0.094166  0.109303  1
