# generated using pymatgen
data_Ca2Al(SiPd2)3
_symmetry_space_group_name_H-M   'P 1'
_cell_length_a   6.78261848
_cell_length_b   6.80119023
_cell_length_c   6.78291793
_cell_angle_alpha   129.77535548
_cell_angle_beta   115.08326471
_cell_angle_gamma   86.25920489
_symmetry_Int_Tables_number   1
_chemical_formula_structural   Ca2Al(SiPd2)3
_chemical_formula_sum   'Ca2 Al1 Si3 Pd6'
_cell_volume   208.04496884
_cell_formula_units_Z   1
loop_
 _symmetry_equiv_pos_site_id
 _symmetry_equiv_pos_as_xyz
  1  'x, y, z'
loop_
 _atom_site_type_symbol
 _atom_site_label
 _atom_site_symmetry_multiplicity
 _atom_site_fract_x
 _atom_site_fract_y
 _atom_site_fract_z
 _atom_site_occupancy
  Ca  Ca0  1  0.000360  0.976288  0.975905  1
  Ca  Ca1  1  0.501350  0.053036  0.551673  1
  Al  Al2  1  0.351668  0.408091  0.056408  1
  Si  Si3  1  0.810452  0.240524  0.430090  1
  Si  Si4  1  0.645206  0.704801  0.059620  1
  Si  Si5  1  0.193263  0.624717  0.431465  1
  Pd  Pd6  1  0.950145  0.502432  0.954027  1
  Pd  Pd7  1  0.548395  0.502419  0.552293  1
  Pd  Pd8  1  0.039588  0.997528  0.538783  1
  Pd  Pd9  1  0.790099  0.488806  0.278082  1
  Pd  Pd10  1  0.210721  0.488799  0.698696  1
  Pd  Pd11  1  0.458752  0.997559  0.957959  1
