# generated using pymatgen
data_K5Rb2TaIn3As5
_symmetry_space_group_name_H-M   'P 1'
_cell_length_a   8.46304189
_cell_length_b   9.48955856
_cell_length_c   14.21785591
_cell_angle_alpha   85.29659590
_cell_angle_beta   83.71286547
_cell_angle_gamma   87.86596944
_symmetry_Int_Tables_number   1
_chemical_formula_structural   K5Rb2TaIn3As5
_chemical_formula_sum   'K10 Rb4 Ta2 In6 As10'
_cell_volume   1130.69373856
_cell_formula_units_Z   2
loop_
 _symmetry_equiv_pos_site_id
 _symmetry_equiv_pos_as_xyz
  1  'x, y, z'
loop_
 _atom_site_type_symbol
 _atom_site_label
 _atom_site_symmetry_multiplicity
 _atom_site_fract_x
 _atom_site_fract_y
 _atom_site_fract_z
 _atom_site_occupancy
  K  K0  1  0.834528  0.363380  0.647812  1
  K  K1  1  0.815073  0.810039  0.133378  1
  K  K2  1  0.240727  0.007776  0.468348  1
  K  K3  1  0.270422  0.257782  0.251734  1
  K  K4  1  0.738118  0.498830  0.973644  1
  K  K5  1  0.261571  0.502031  0.025557  1
  K  K6  1  0.685511  0.084050  0.881568  1
  K  K7  1  0.757601  0.995498  0.533011  1
  K  K8  1  0.728343  0.741676  0.748132  1
  K  K9  1  0.332718  0.338541  0.606780  1
  Rb  Rb10  1  0.169833  0.635718  0.356381  1
  Rb  Rb11  1  0.181618  0.187888  0.871352  1
  Rb  Rb12  1  0.312342  0.920902  0.115952  1
  Rb  Rb13  1  0.681614  0.664022  0.397343  1
  Ta  Ta14  1  0.354389  0.603059  0.774172  1
  Ta  Ta15  1  0.646857  0.394804  0.223956  1
  In  In16  1  0.048220  0.815193  0.874298  1
  In  In17  1  0.950378  0.183377  0.126288  1
  In  In18  1  0.368275  0.958173  0.697994  1
  In  In19  1  0.083845  0.719512  0.618858  1
  In  In20  1  0.911590  0.279819  0.382312  1
  In  In21  1  0.629058  0.041737  0.300761  1
  As  As22  1  0.934807  0.457556  0.205937  1
  As  As23  1  0.616813  0.194733  0.119029  1
  As  As24  1  0.066056  0.540736  0.793729  1
  As  As25  1  0.572181  0.298891  0.394446  1
  As  As26  1  0.420483  0.701255  0.603915  1
  As  As27  1  0.018469  0.001003  0.698937  1
  As  As28  1  0.522130  0.397359  0.810803  1
  As  As29  1  0.486032  0.601858  0.182866  1
  As  As30  1  0.384728  0.804050  0.878139  1
  As  As31  1  0.975668  0.998753  0.302567  1
