# generated using pymatgen
data_V3AsBr4(OF8)4
_symmetry_space_group_name_H-M   'P 1'
_cell_length_a   8.86889753
_cell_length_b   8.85248271
_cell_length_c   8.93387447
_cell_angle_alpha   89.11090934
_cell_angle_beta   89.97720791
_cell_angle_gamma   89.80071794
_symmetry_Int_Tables_number   1
_chemical_formula_structural   V3AsBr4(OF8)4
_chemical_formula_sum   'V3 As1 Br4 O4 F32'
_cell_volume   701.32549560
_cell_formula_units_Z   1
loop_
 _symmetry_equiv_pos_site_id
 _symmetry_equiv_pos_as_xyz
  1  'x, y, z'
loop_
 _atom_site_type_symbol
 _atom_site_label
 _atom_site_symmetry_multiplicity
 _atom_site_fract_x
 _atom_site_fract_y
 _atom_site_fract_z
 _atom_site_occupancy
  V  V0  1  0.638953  0.888726  0.637589  1
  V  V1  1  0.862626  0.612567  0.137386  1
  V  V2  1  0.362239  0.386508  0.862088  1
  As  As3  1  0.136357  0.113817  0.364686  1
  Br  Br4  1  0.771572  0.455742  0.695919  1
  Br  Br5  1  0.199795  0.975952  0.795377  1
  Br  Br6  1  0.698675  0.021923  0.205152  1
  Br  Br7  1  0.272940  0.545769  0.300973  1
  O  O8  1  0.711362  0.378298  0.549059  1
  O  O9  1  0.052214  0.041985  0.870252  1
  O  O10  1  0.550825  0.959321  0.128806  1
  O  O11  1  0.209345  0.620143  0.448242  1
  F  F12  1  0.647113  0.673879  0.622871  1
  F  F13  1  0.883888  0.617315  0.935316  1
  F  F14  1  0.575980  0.368826  0.851858  1
  F  F15  1  0.355768  0.170435  0.871632  1
  F  F16  1  0.124269  0.110520  0.568863  1
  F  F17  1  0.434388  0.869505  0.636931  1
  F  F18  1  0.856732  0.827365  0.126136  1
  F  F19  1  0.628892  0.893795  0.425620  1
  F  F20  1  0.936244  0.129243  0.363757  1
  F  F21  1  0.140333  0.319427  0.379238  1
  F  F22  1  0.382744  0.382033  0.064369  1
  F  F23  1  0.078145  0.628275  0.148547  1
  F  F24  1  0.624041  0.087300  0.641253  1
  F  F25  1  0.859571  0.628580  0.335521  1
  F  F26  1  0.163830  0.391447  0.876196  1
  F  F27  1  0.379228  0.585133  0.855117  1
  F  F28  1  0.142023  0.130828  0.169603  1
  F  F29  1  0.838253  0.890892  0.621685  1
  F  F30  1  0.880187  0.414147  0.144361  1
  F  F31  1  0.644889  0.869360  0.834867  1
  F  F32  1  0.332792  0.110989  0.379371  1
  F  F33  1  0.124612  0.917015  0.363087  1
  F  F34  1  0.359375  0.371740  0.663826  1
  F  F35  1  0.664088  0.608303  0.123484  1
  F  F36  1  0.946336  0.535072  0.633672  1
  F  F37  1  0.870775  0.303580  0.786072  1
  F  F38  1  0.288155  0.877680  0.947197  1
  F  F39  1  0.133528  0.801604  0.722151  1
  F  F40  1  0.785219  0.122562  0.053410  1
  F  F41  1  0.633559  0.195428  0.282524  1
  F  F42  1  0.448608  0.468739  0.364819  1
  F  F43  1  0.369530  0.698232  0.211122  1
