# generated using pymatgen
data_Pr10BiP2Pb5
_symmetry_space_group_name_H-M   'P 1'
_cell_length_a   9.61011212
_cell_length_b   9.59904404
_cell_length_c   7.01760600
_cell_angle_alpha   90.00000000
_cell_angle_beta   90.00000000
_cell_angle_gamma   119.96190845
_symmetry_Int_Tables_number   1
_chemical_formula_structural   Pr10BiP2Pb5
_chemical_formula_sum   'Pr10 Bi1 P2 Pb5'
_cell_volume   560.84470194
_cell_formula_units_Z   1
loop_
 _symmetry_equiv_pos_site_id
 _symmetry_equiv_pos_as_xyz
  1  'x, y, z'
loop_
 _atom_site_type_symbol
 _atom_site_label
 _atom_site_symmetry_multiplicity
 _atom_site_fract_x
 _atom_site_fract_y
 _atom_site_fract_z
 _atom_site_occupancy
  Pr  Pr0  1  0.665278  0.332798  0.998982  1
  Pr  Pr1  1  0.334722  0.667521  0.998982  1
  Pr  Pr2  1  0.334722  0.667521  0.501018  1
  Pr  Pr3  1  0.665278  0.332798  0.501018  1
  Pr  Pr4  1  0.762249  0.761664  0.750000  1
  Pr  Pr5  1  0.237751  0.999415  0.750000  1
  Pr  Pr6  1  0.000000  0.238618  0.750000  1
  Pr  Pr7  1  0.238474  0.237389  0.250000  1
  Pr  Pr8  1  0.761526  0.998915  0.250000  1
  Pr  Pr9  1  0.000000  0.761559  0.250000  1
  Bi  Bi10  1  0.000000  0.396768  0.250000  1
  P  P11  1  0.000000  0.000272  0.000369  1
  P  P12  1  0.000000  0.000272  0.499631  1
  Pb  Pb13  1  0.397841  0.397837  0.750000  1
  Pb  Pb14  1  0.602159  0.999996  0.750000  1
  Pb  Pb15  1  0.000000  0.603632  0.750000  1
  Pb  Pb16  1  0.602113  0.602570  0.250000  1
  Pb  Pb17  1  0.397887  0.000456  0.250000  1
