# generated using pymatgen
data_Pr2Gd3(Sn5Ir2)2
_symmetry_space_group_name_H-M   'P 1'
_cell_length_a   14.18751600
_cell_length_b   14.18751600
_cell_length_c   4.69384500
_cell_angle_alpha   90.00000000
_cell_angle_beta   90.00000000
_cell_angle_gamma   90.00000000
_symmetry_Int_Tables_number   1
_chemical_formula_structural   Pr2Gd3(Sn5Ir2)2
_chemical_formula_sum   'Pr4 Gd6 Sn20 Ir8'
_cell_volume   944.80345525
_cell_formula_units_Z   2
loop_
 _symmetry_equiv_pos_site_id
 _symmetry_equiv_pos_as_xyz
  1  'x, y, z'
loop_
 _atom_site_type_symbol
 _atom_site_label
 _atom_site_symmetry_multiplicity
 _atom_site_fract_x
 _atom_site_fract_y
 _atom_site_fract_z
 _atom_site_occupancy
  Pr  Pr0  1  0.887384  0.387384  0.500000  1
  Pr  Pr1  1  0.112616  0.612616  0.500000  1
  Pr  Pr2  1  0.387384  0.112616  0.500000  1
  Pr  Pr3  1  0.612616  0.887384  0.500000  1
  Gd  Gd4  1  0.500000  0.500000  0.000000  1
  Gd  Gd5  1  0.000000  0.000000  0.000000  1
  Gd  Gd6  1  0.676486  0.176486  0.500000  1
  Gd  Gd7  1  0.323514  0.823514  0.500000  1
  Gd  Gd8  1  0.176486  0.323514  0.500000  1
  Gd  Gd9  1  0.823514  0.676486  0.500000  1
  Sn  Sn10  1  0.570271  0.070271  0.000000  1
  Sn  Sn11  1  0.429729  0.929729  0.000000  1
  Sn  Sn12  1  0.070271  0.429729  0.000000  1
  Sn  Sn13  1  0.929729  0.570271  0.000000  1
  Sn  Sn14  1  0.655004  0.698363  0.000000  1
  Sn  Sn15  1  0.344996  0.301637  0.000000  1
  Sn  Sn16  1  0.155004  0.801637  0.000000  1
  Sn  Sn17  1  0.844996  0.198363  0.000000  1
  Sn  Sn18  1  0.301637  0.655004  0.000000  1
  Sn  Sn19  1  0.698363  0.344996  0.000000  1
  Sn  Sn20  1  0.198363  0.155004  0.000000  1
  Sn  Sn21  1  0.801637  0.844996  0.000000  1
  Sn  Sn22  1  0.661951  0.505737  0.500000  1
  Sn  Sn23  1  0.338049  0.494263  0.500000  1
  Sn  Sn24  1  0.161951  0.994263  0.500000  1
  Sn  Sn25  1  0.838049  0.005737  0.500000  1
  Sn  Sn26  1  0.494263  0.661951  0.500000  1
  Sn  Sn27  1  0.505737  0.338049  0.500000  1
  Sn  Sn28  1  0.005737  0.161951  0.500000  1
  Sn  Sn29  1  0.994263  0.838049  0.500000  1
  Ir  Ir30  1  0.745649  0.529082  0.000000  1
  Ir  Ir31  1  0.254351  0.470918  0.000000  1
  Ir  Ir32  1  0.245649  0.970918  0.000000  1
  Ir  Ir33  1  0.754351  0.029082  0.000000  1
  Ir  Ir34  1  0.470918  0.745649  0.000000  1
  Ir  Ir35  1  0.529082  0.254351  0.000000  1
  Ir  Ir36  1  0.029082  0.245649  0.000000  1
  Ir  Ir37  1  0.970918  0.754351  0.000000  1
