# generated using pymatgen
data_Pa2AlOs2Pt
_symmetry_space_group_name_H-M   'P 1'
_cell_length_a   5.57934675
_cell_length_b   4.93366106
_cell_length_c   5.57934833
_cell_angle_alpha   59.51116516
_cell_angle_beta   61.43223153
_cell_angle_gamma   59.51115266
_symmetry_Int_Tables_number   1
_chemical_formula_structural   Pa2AlOs2Pt
_chemical_formula_sum   'Pa2 Al1 Os2 Pt1'
_cell_volume   108.88816834
_cell_formula_units_Z   1
loop_
 _symmetry_equiv_pos_site_id
 _symmetry_equiv_pos_as_xyz
  1  'x, y, z'
loop_
 _atom_site_type_symbol
 _atom_site_label
 _atom_site_symmetry_multiplicity
 _atom_site_fract_x
 _atom_site_fract_y
 _atom_site_fract_z
 _atom_site_occupancy
  Pa  Pa0  1  0.618556  0.633141  0.618556  1
  Pa  Pa1  1  0.381444  0.366859  0.381444  1
  Al  Al2  1  0.000000  0.500000  0.000000  1
  Os  Os3  1  0.500000  0.000000  0.000000  1
  Os  Os4  1  0.000000  0.000000  0.500000  1
  Pt  Pt5  1  0.000000  0.000000  0.000000  1
