# generated using pymatgen
data_Ho17Tm3Si15Ir
_symmetry_space_group_name_H-M   'P 1'
_cell_length_a   7.39142170
_cell_length_b   7.63790495
_cell_length_c   14.52537800
_cell_angle_alpha   89.79144271
_cell_angle_beta   89.63534400
_cell_angle_gamma   90.19610865
_symmetry_Int_Tables_number   1
_chemical_formula_structural   Ho17Tm3Si15Ir
_chemical_formula_sum   'Ho17 Tm3 Si15 Ir1'
_cell_volume   820.00296252
_cell_formula_units_Z   1
loop_
 _symmetry_equiv_pos_site_id
 _symmetry_equiv_pos_as_xyz
  1  'x, y, z'
loop_
 _atom_site_type_symbol
 _atom_site_label
 _atom_site_symmetry_multiplicity
 _atom_site_fract_x
 _atom_site_fract_y
 _atom_site_fract_z
 _atom_site_occupancy
  Ho  Ho0  1  0.353115  0.010134  0.752745  1
  Ho  Ho1  1  0.974277  0.814375  0.097420  1
  Ho  Ho2  1  0.471951  0.682662  0.401295  1
  Ho  Ho3  1  0.530785  0.324632  0.901746  1
  Ho  Ho4  1  0.028941  0.184500  0.599077  1
  Ho  Ho5  1  0.026945  0.187202  0.902250  1
  Ho  Ho6  1  0.529085  0.318387  0.598136  1
  Ho  Ho7  1  0.475863  0.680946  0.099643  1
  Ho  Ho8  1  0.970265  0.817388  0.400410  1
  Ho  Ho9  1  0.684556  0.810956  0.882561  1
  Ho  Ho10  1  0.178403  0.681514  0.621561  1
  Ho  Ho11  1  0.817350  0.334287  0.119099  1
  Ho  Ho12  1  0.315283  0.176961  0.375583  1
  Ho  Ho13  1  0.320750  0.178614  0.124281  1
  Ho  Ho14  1  0.818919  0.320191  0.377028  1
  Ho  Ho15  1  0.175249  0.674363  0.878214  1
  Ho  Ho16  1  0.682847  0.819863  0.622217  1
  Tm  Tm17  1  0.648313  0.993557  0.248878  1
  Tm  Tm18  1  0.148475  0.510288  0.247958  1
  Tm  Tm19  1  0.847065  0.487347  0.758043  1
  Si  Si20  1  0.766710  0.631514  0.252458  1
  Si  Si21  1  0.267349  0.870196  0.250775  1
  Si  Si22  1  0.732681  0.124283  0.748354  1
  Si  Si23  1  0.234678  0.373109  0.745840  1
  Si  Si24  1  0.017571  0.105293  0.248783  1
  Si  Si25  1  0.521471  0.397071  0.251807  1
  Si  Si26  1  0.472329  0.606387  0.745755  1
  Si  Si27  1  0.978030  0.898185  0.747915  1
  Si  Si28  1  0.353468  0.972320  0.539696  1
  Si  Si29  1  0.646918  0.026657  0.042853  1
  Si  Si30  1  0.148086  0.470385  0.459759  1
  Si  Si31  1  0.156359  0.472731  0.041899  1
  Si  Si32  1  0.643560  0.028498  0.458839  1
  Si  Si33  1  0.353094  0.968500  0.962279  1
  Si  Si34  1  0.853336  0.528646  0.539219  1
  Ir  Ir35  1  0.855927  0.518065  0.955626  1
