# generated using pymatgen
data_Tb4YMg(P2Ru3)6
_symmetry_space_group_name_H-M   'P 1'
_cell_length_a   12.64577627
_cell_length_b   12.48574873
_cell_length_c   3.98666200
_cell_angle_alpha   90.00000000
_cell_angle_beta   90.00000000
_cell_angle_gamma   119.58191761
_symmetry_Int_Tables_number   1
_chemical_formula_structural   Tb4YMg(P2Ru3)6
_chemical_formula_sum   'Tb4 Y1 Mg1 P12 Ru18'
_cell_volume   547.41209450
_cell_formula_units_Z   1
loop_
 _symmetry_equiv_pos_site_id
 _symmetry_equiv_pos_as_xyz
  1  'x, y, z'
loop_
 _atom_site_type_symbol
 _atom_site_label
 _atom_site_symmetry_multiplicity
 _atom_site_fract_x
 _atom_site_fract_y
 _atom_site_fract_z
 _atom_site_occupancy
  Tb  Tb0  1  0.000018  0.181310  0.500000  1
  Tb  Tb1  1  0.816108  0.817160  0.500000  1
  Tb  Tb2  1  0.660215  0.328837  0.000000  1
  Tb  Tb3  1  0.339742  0.668610  0.000000  1
  Y  Y4  1  0.183972  0.001106  0.500000  1
  Mg  Mg5  1  0.000010  0.561462  0.000000  1
  P  P6  1  0.999982  0.811374  0.000000  1
  P  P7  1  0.183052  0.183779  0.000000  1
  P  P8  1  0.816930  0.000724  0.000000  1
  P  P9  1  0.691228  0.171795  0.500000  1
  P  P10  1  0.818542  0.518762  0.500000  1
  P  P11  1  0.474332  0.306863  0.500000  1
  P  P12  1  0.181466  0.700195  0.500000  1
  P  P13  1  0.525672  0.832535  0.500000  1
  P  P14  1  0.308763  0.480532  0.500000  1
  P  P15  1  0.999995  0.360236  0.000000  1
  P  P16  1  0.625197  0.625342  0.000000  1
  P  P17  1  0.374826  0.000154  0.000000  1
  Ru  Ru18  1  0.444210  0.444727  0.000000  1
  Ru  Ru19  1  0.555801  0.000528  0.000000  1
  Ru  Ru20  1  0.000047  0.715861  0.500000  1
  Ru  Ru21  1  0.281675  0.283583  0.500000  1
  Ru  Ru22  1  0.718314  0.001943  0.500000  1
  Ru  Ru23  1  0.805132  0.184421  0.000000  1
  Ru  Ru24  1  0.813258  0.619710  0.000000  1
  Ru  Ru25  1  0.373279  0.189351  0.000000  1
  Ru  Ru26  1  0.186765  0.806539  0.000000  1
  Ru  Ru27  1  0.626661  0.816088  0.000000  1
  Ru  Ru28  1  0.194862  0.379278  0.000000  1
  Ru  Ru29  1  0.875180  0.365898  0.500000  1
  Ru  Ru30  1  0.630779  0.509488  0.500000  1
  Ru  Ru31  1  0.492278  0.128526  0.500000  1
  Ru  Ru32  1  0.369201  0.878706  0.500000  1
  Ru  Ru33  1  0.507699  0.636231  0.500000  1
  Ru  Ru34  1  0.124808  0.490692  0.500000  1
  Ru  Ru35  1  0.999999  0.997655  0.000000  1
