# generated using pymatgen
data_Tb3Nb(P3Ir4)2
_symmetry_space_group_name_H-M   'P 1'
_cell_length_a   3.99781400
_cell_length_b   11.20026500
_cell_length_c   12.87828800
_cell_angle_alpha   90.00000000
_cell_angle_beta   90.00000000
_cell_angle_gamma   90.00000000
_symmetry_Int_Tables_number   1
_chemical_formula_structural   Tb3Nb(P3Ir4)2
_chemical_formula_sum   'Tb6 Nb2 P12 Ir16'
_cell_volume   576.64564422
_cell_formula_units_Z   2
loop_
 _symmetry_equiv_pos_site_id
 _symmetry_equiv_pos_as_xyz
  1  'x, y, z'
loop_
 _atom_site_type_symbol
 _atom_site_label
 _atom_site_symmetry_multiplicity
 _atom_site_fract_x
 _atom_site_fract_y
 _atom_site_fract_z
 _atom_site_occupancy
  Tb  Tb0  1  0.000000  0.500000  0.521641  1
  Tb  Tb1  1  0.500000  0.000000  0.478359  1
  Tb  Tb2  1  0.500000  0.817736  0.202812  1
  Tb  Tb3  1  0.500000  0.182264  0.202812  1
  Tb  Tb4  1  0.000000  0.682264  0.797188  1
  Tb  Tb5  1  0.000000  0.317736  0.797188  1
  Nb  Nb6  1  0.500000  0.500000  0.158099  1
  Nb  Nb7  1  0.000000  0.000000  0.841901  1
  P  P8  1  0.500000  0.500000  0.875435  1
  P  P9  1  0.000000  0.000000  0.124565  1
  P  P10  1  0.500000  0.500000  0.350089  1
  P  P11  1  0.000000  0.000000  0.649911  1
  P  P12  1  0.500000  0.313113  0.617092  1
  P  P13  1  0.500000  0.686887  0.617092  1
  P  P14  1  0.000000  0.186887  0.382908  1
  P  P15  1  0.000000  0.813113  0.382908  1
  P  P16  1  0.500000  0.844974  0.886885  1
  P  P17  1  0.500000  0.155026  0.886885  1
  P  P18  1  0.000000  0.655026  0.113115  1
  P  P19  1  0.000000  0.344974  0.113115  1
  Ir  Ir20  1  0.500000  0.500000  0.697024  1
  Ir  Ir21  1  0.000000  0.000000  0.302976  1
  Ir  Ir22  1  0.000000  0.500000  0.991075  1
  Ir  Ir23  1  0.500000  0.000000  0.008925  1
  Ir  Ir24  1  0.500000  0.331032  0.981265  1
  Ir  Ir25  1  0.500000  0.668968  0.981265  1
  Ir  Ir26  1  0.000000  0.168968  0.018735  1
  Ir  Ir27  1  0.000000  0.831032  0.018735  1
  Ir  Ir28  1  0.500000  0.293903  0.431428  1
  Ir  Ir29  1  0.500000  0.706097  0.431428  1
  Ir  Ir30  1  0.000000  0.206097  0.568572  1
  Ir  Ir31  1  0.000000  0.793903  0.568572  1
  Ir  Ir32  1  0.500000  0.872089  0.709387  1
  Ir  Ir33  1  0.500000  0.127911  0.709387  1
  Ir  Ir34  1  0.000000  0.627911  0.290613  1
  Ir  Ir35  1  0.000000  0.372089  0.290613  1
