# generated using pymatgen
data_DyEr3(TiAl3)2
_symmetry_space_group_name_H-M   'P 1'
_cell_length_a   9.50426632
_cell_length_b   9.50426725
_cell_length_c   9.50426779
_cell_angle_alpha   34.79369343
_cell_angle_beta   34.79368574
_cell_angle_gamma   34.79369233
_symmetry_Int_Tables_number   1
_chemical_formula_structural   DyEr3(TiAl3)2
_chemical_formula_sum   'Dy1 Er3 Ti2 Al6'
_cell_volume   249.51427802
_cell_formula_units_Z   1
loop_
 _symmetry_equiv_pos_site_id
 _symmetry_equiv_pos_as_xyz
  1  'x, y, z'
loop_
 _atom_site_type_symbol
 _atom_site_label
 _atom_site_symmetry_multiplicity
 _atom_site_fract_x
 _atom_site_fract_y
 _atom_site_fract_z
 _atom_site_occupancy
  Dy  Dy0  1  0.686705  0.686705  0.686705  1
  Er  Er1  1  0.186601  0.186601  0.186601  1
  Er  Er2  1  0.813412  0.813412  0.813412  1
  Er  Er3  1  0.313312  0.313312  0.313312  1
  Ti  Ti4  1  0.999967  0.999967  0.999967  1
  Ti  Ti5  1  0.499989  0.499989  0.499989  1
  Al  Al6  1  0.749957  0.250023  0.250023  1
  Al  Al7  1  0.249967  0.750021  0.750021  1
  Al  Al8  1  0.250023  0.749957  0.250023  1
  Al  Al9  1  0.750021  0.249967  0.750021  1
  Al  Al10  1  0.250023  0.250023  0.749957  1
  Al  Al11  1  0.750021  0.750021  0.249967  1
