# generated using pymatgen
data_Hf18Re4Mo4PRu
_symmetry_space_group_name_H-M   'P 1'
_cell_length_a   8.65368242
_cell_length_b   8.65832936
_cell_length_c   8.54746500
_cell_angle_alpha   90.00000000
_cell_angle_beta   90.00000000
_cell_angle_gamma   120.01777312
_symmetry_Int_Tables_number   1
_chemical_formula_structural   Hf18Re4Mo4PRu
_chemical_formula_sum   'Hf18 Re4 Mo4 P1 Ru1'
_cell_volume   554.53020997
_cell_formula_units_Z   1
loop_
 _symmetry_equiv_pos_site_id
 _symmetry_equiv_pos_as_xyz
  1  'x, y, z'
loop_
 _atom_site_type_symbol
 _atom_site_label
 _atom_site_symmetry_multiplicity
 _atom_site_fract_x
 _atom_site_fract_y
 _atom_site_fract_z
 _atom_site_occupancy
  Hf  Hf0  1  0.198708  0.801203  0.445368  1
  Hf  Hf1  1  0.198708  0.397503  0.445368  1
  Hf  Hf2  1  0.603043  0.801520  0.446015  1
  Hf  Hf3  1  0.803557  0.195686  0.548526  1
  Hf  Hf4  1  0.803557  0.607872  0.548526  1
  Hf  Hf5  1  0.392962  0.196482  0.547733  1
  Hf  Hf6  1  0.803557  0.195686  0.951474  1
  Hf  Hf7  1  0.803557  0.607872  0.951474  1
  Hf  Hf8  1  0.392962  0.196482  0.952267  1
  Hf  Hf9  1  0.198708  0.801203  0.054632  1
  Hf  Hf10  1  0.198708  0.397503  0.054632  1
  Hf  Hf11  1  0.603043  0.801520  0.053985  1
  Hf  Hf12  1  0.542179  0.458348  0.250000  1
  Hf  Hf13  1  0.542179  0.083831  0.250000  1
  Hf  Hf14  1  0.915850  0.457925  0.250000  1
  Hf  Hf15  1  0.460874  0.541002  0.750000  1
  Hf  Hf16  1  0.460874  0.919871  0.750000  1
  Hf  Hf17  1  0.079570  0.539785  0.750000  1
  Re  Re18  1  0.888071  0.111505  0.250000  1
  Re  Re19  1  0.888071  0.776566  0.250000  1
  Re  Re20  1  0.223997  0.111999  0.250000  1
  Re  Re21  1  0.776254  0.888127  0.750000  1
  Mo  Mo22  1  0.110434  0.888495  0.750000  1
  Mo  Mo23  1  0.110434  0.221939  0.750000  1
  Mo  Mo24  1  0.999544  0.999772  0.499508  1
  Mo  Mo25  1  0.999544  0.999772  0.000492  1
  P  P26  1  0.667111  0.333555  0.750000  1
  Ru  Ru27  1  0.333949  0.666975  0.250000  1
