# generated using pymatgen
data_SmDy2U(Fe3Si5)2
_symmetry_space_group_name_H-M   'P 1'
_cell_length_a   5.51003460
_cell_length_b   7.93164831
_cell_length_c   7.90052899
_cell_angle_alpha   94.07415805
_cell_angle_beta   109.59600705
_cell_angle_gamma   109.47916689
_symmetry_Int_Tables_number   1
_chemical_formula_structural   SmDy2U(Fe3Si5)2
_chemical_formula_sum   'Sm1 Dy2 U1 Fe6 Si10'
_cell_volume   300.09325681
_cell_formula_units_Z   1
loop_
 _symmetry_equiv_pos_site_id
 _symmetry_equiv_pos_as_xyz
  1  'x, y, z'
loop_
 _atom_site_type_symbol
 _atom_site_label
 _atom_site_symmetry_multiplicity
 _atom_site_fract_x
 _atom_site_fract_y
 _atom_site_fract_z
 _atom_site_occupancy
  Sm  Sm0  1  0.237951  0.870325  0.595485  1
  Dy  Dy1  1  0.265007  0.402469  0.133060  1
  Dy  Dy2  1  0.764768  0.131721  0.403295  1
  U  U3  1  0.718154  0.586935  0.863687  1
  Fe  Fe4  1  0.390050  0.269724  0.552624  1
  Fe  Fe5  1  0.140988  0.459587  0.746471  1
  Fe  Fe6  1  0.623601  0.738166  0.453480  1
  Fe  Fe7  1  0.868997  0.545405  0.250789  1
  Fe  Fe8  1  0.248047  0.001975  0.998790  1
  Fe  Fe9  1  0.748127  0.994286  0.001746  1
  Si  Si10  1  0.168894  0.072080  0.263003  1
  Si  Si11  1  0.328135  0.742486  0.933400  1
  Si  Si12  1  0.832873  0.925940  0.740456  1
  Si  Si13  1  0.665706  0.259189  0.067611  1
  Si  Si14  1  0.247928  0.207613  0.790645  1
  Si  Si15  1  0.749492  0.791361  0.209943  1
  Si  Si16  1  0.242348  0.508133  0.486459  1
  Si  Si17  1  0.755024  0.494382  0.505458  1
  Si  Si18  1  0.247408  0.775323  0.222787  1
  Si  Si19  1  0.756505  0.222900  0.780812  1
