# generated using pymatgen
data_Tb11Cd9Ni3Pd
_symmetry_space_group_name_H-M   'P 1'
_cell_length_a   13.05236832
_cell_length_b   13.03539151
_cell_length_c   3.68687800
_cell_angle_alpha   90.00000000
_cell_angle_beta   90.00000000
_cell_angle_gamma   112.60009530
_symmetry_Int_Tables_number   1
_chemical_formula_structural   Tb11Cd9Ni3Pd
_chemical_formula_sum   'Tb11 Cd9 Ni3 Pd1'
_cell_volume   579.12520681
_cell_formula_units_Z   1
loop_
 _symmetry_equiv_pos_site_id
 _symmetry_equiv_pos_as_xyz
  1  'x, y, z'
loop_
 _atom_site_type_symbol
 _atom_site_label
 _atom_site_symmetry_multiplicity
 _atom_site_fract_x
 _atom_site_fract_y
 _atom_site_fract_z
 _atom_site_occupancy
  Tb  Tb0  1  0.416802  0.082584  0.000000  1
  Tb  Tb1  1  0.581842  0.917253  0.000000  1
  Tb  Tb2  1  0.084681  0.417398  0.000000  1
  Tb  Tb3  1  0.924077  0.583742  0.000000  1
  Tb  Tb4  1  0.163119  0.838556  0.000000  1
  Tb  Tb5  1  0.838443  0.161028  0.000000  1
  Tb  Tb6  1  0.374947  0.625269  0.000000  1
  Tb  Tb7  1  0.619198  0.368144  0.000000  1
  Tb  Tb8  1  0.310355  0.311018  0.000000  1
  Tb  Tb9  1  0.685818  0.694143  0.000000  1
  Tb  Tb10  1  0.000377  0.000673  0.000000  1
  Cd  Cd11  1  0.367863  0.840563  0.500000  1
  Cd  Cd12  1  0.632968  0.158686  0.500000  1
  Cd  Cd13  1  0.843339  0.366076  0.500000  1
  Cd  Cd14  1  0.160766  0.632055  0.500000  1
  Cd  Cd15  1  0.216625  0.073003  0.500000  1
  Cd  Cd16  1  0.783019  0.928173  0.500000  1
  Cd  Cd17  1  0.073489  0.216974  0.500000  1
  Cd  Cd18  1  0.929148  0.784943  0.500000  1
  Cd  Cd19  1  0.497141  0.499383  0.500000  1
  Ni  Ni20  1  0.450512  0.249762  0.500000  1
  Ni  Ni21  1  0.546241  0.749978  0.500000  1
  Ni  Ni22  1  0.251476  0.452730  0.500000  1
  Pd  Pd23  1  0.747755  0.547864  0.500000  1
