# generated using pymatgen
data_Zr10Al2Tl4BiPb
_symmetry_space_group_name_H-M   'P 1'
_cell_length_a   8.84758014
_cell_length_b   8.86942351
_cell_length_c   5.95742300
_cell_angle_alpha   90.00000000
_cell_angle_beta   90.00000000
_cell_angle_gamma   119.83779863
_symmetry_Int_Tables_number   1
_chemical_formula_structural   Zr10Al2Tl4BiPb
_chemical_formula_sum   'Zr10 Al2 Tl4 Bi1 Pb1'
_cell_volume   405.52392461
_cell_formula_units_Z   1
loop_
 _symmetry_equiv_pos_site_id
 _symmetry_equiv_pos_as_xyz
  1  'x, y, z'
loop_
 _atom_site_type_symbol
 _atom_site_label
 _atom_site_symmetry_multiplicity
 _atom_site_fract_x
 _atom_site_fract_y
 _atom_site_fract_z
 _atom_site_occupancy
  Zr  Zr0  1  0.667433  0.333598  0.000233  1
  Zr  Zr1  1  0.333601  0.668054  0.000350  1
  Zr  Zr2  1  0.333601  0.668054  0.499650  1
  Zr  Zr3  1  0.667433  0.333598  0.499767  1
  Zr  Zr4  1  0.734752  0.734179  0.750000  1
  Zr  Zr5  1  0.264858  0.998697  0.750000  1
  Zr  Zr6  1  0.999678  0.264187  0.750000  1
  Zr  Zr7  1  0.263901  0.263903  0.250000  1
  Zr  Zr8  1  0.734059  0.998630  0.250000  1
  Zr  Zr9  1  0.999019  0.734799  0.250000  1
  Al  Al10  1  0.998770  0.998189  0.000029  1
  Al  Al11  1  0.998770  0.998189  0.499971  1
  Tl  Tl12  1  0.614930  0.000451  0.750000  1
  Tl  Tl13  1  0.000579  0.615936  0.750000  1
  Tl  Tl14  1  0.615923  0.616281  0.250000  1
  Tl  Tl15  1  0.385729  0.000105  0.250000  1
  Bi  Bi16  1  0.387541  0.387170  0.750000  1
  Pb  Pb17  1  0.999425  0.385982  0.250000  1
