# generated using pymatgen
data_Tb(AgTe)3
_symmetry_space_group_name_H-M   'P 1'
_cell_length_a   7.26581500
_cell_length_b   8.20148500
_cell_length_c   13.85373600
_cell_angle_alpha   90.00000000
_cell_angle_beta   90.00000000
_cell_angle_gamma   90.00000000
_symmetry_Int_Tables_number   1
_chemical_formula_structural   Tb(AgTe)3
_chemical_formula_sum   'Tb4 Ag12 Te12'
_cell_volume   825.55067739
_cell_formula_units_Z   4
loop_
 _symmetry_equiv_pos_site_id
 _symmetry_equiv_pos_as_xyz
  1  'x, y, z'
loop_
 _atom_site_type_symbol
 _atom_site_label
 _atom_site_symmetry_multiplicity
 _atom_site_fract_x
 _atom_site_fract_y
 _atom_site_fract_z
 _atom_site_occupancy
  Tb  Tb0  1  0.243472  0.749346  0.832929  1
  Tb  Tb1  1  0.743472  0.250654  0.332929  1
  Tb  Tb2  1  0.743472  0.250654  0.667071  1
  Tb  Tb3  1  0.243472  0.749346  0.167071  1
  Ag  Ag4  1  0.381722  0.121796  0.833881  1
  Ag  Ag5  1  0.633746  0.601474  0.000000  1
  Ag  Ag6  1  0.881722  0.878204  0.666119  1
  Ag  Ag7  1  0.605022  0.624179  0.667102  1
  Ag  Ag8  1  0.858287  0.892592  0.000000  1
  Ag  Ag9  1  0.133746  0.398526  0.500000  1
  Ag  Ag10  1  0.605022  0.624179  0.332898  1
  Ag  Ag11  1  0.358287  0.107408  0.500000  1
  Ag  Ag12  1  0.881722  0.878204  0.333881  1
  Ag  Ag13  1  0.381722  0.121796  0.166119  1
  Ag  Ag14  1  0.105022  0.375821  0.832898  1
  Ag  Ag15  1  0.105022  0.375821  0.167102  1
  Te  Te16  1  0.011624  0.558545  0.331194  1
  Te  Te17  1  0.511624  0.441455  0.168806  1
  Te  Te18  1  0.975669  0.056923  0.168428  1
  Te  Te19  1  0.011624  0.558545  0.668806  1
  Te  Te20  1  0.027811  0.576081  0.000000  1
  Te  Te21  1  0.511624  0.441455  0.831194  1
  Te  Te22  1  0.475669  0.943077  0.331572  1
  Te  Te23  1  0.475669  0.943077  0.668428  1
  Te  Te24  1  0.963136  0.080296  0.500000  1
  Te  Te25  1  0.463136  0.919704  0.000000  1
  Te  Te26  1  0.975669  0.056923  0.831572  1
  Te  Te27  1  0.527811  0.423919  0.500000  1
