# generated using pymatgen
data_Dy16Tm4Si15Rh
_symmetry_space_group_name_H-M   'P 1'
_cell_length_a   7.41225863
_cell_length_b   7.65050123
_cell_length_c   14.57431116
_cell_angle_alpha   89.68989981
_cell_angle_beta   89.66457526
_cell_angle_gamma   90.18822005
_symmetry_Int_Tables_number   1
_chemical_formula_structural   Dy16Tm4Si15Rh
_chemical_formula_sum   'Dy16 Tm4 Si15 Rh1'
_cell_volume   826.44184627
_cell_formula_units_Z   1
loop_
 _symmetry_equiv_pos_site_id
 _symmetry_equiv_pos_as_xyz
  1  'x, y, z'
loop_
 _atom_site_type_symbol
 _atom_site_label
 _atom_site_symmetry_multiplicity
 _atom_site_fract_x
 _atom_site_fract_y
 _atom_site_fract_z
 _atom_site_occupancy
  Dy  Dy0  1  0.973980  0.816537  0.097929  1
  Dy  Dy1  1  0.471081  0.682675  0.401159  1
  Dy  Dy2  1  0.528806  0.322147  0.900502  1
  Dy  Dy3  1  0.029659  0.184009  0.599626  1
  Dy  Dy4  1  0.028238  0.185002  0.901781  1
  Dy  Dy5  1  0.529962  0.317926  0.598932  1
  Dy  Dy6  1  0.473657  0.682131  0.099549  1
  Dy  Dy7  1  0.969726  0.817300  0.400379  1
  Dy  Dy8  1  0.683614  0.811434  0.882235  1
  Dy  Dy9  1  0.179002  0.681527  0.621937  1
  Dy  Dy10  1  0.817596  0.333649  0.118186  1
  Dy  Dy11  1  0.316024  0.178112  0.376155  1
  Dy  Dy12  1  0.321101  0.179389  0.123548  1
  Dy  Dy13  1  0.819260  0.319211  0.377243  1
  Dy  Dy14  1  0.176065  0.675518  0.878367  1
  Dy  Dy15  1  0.683098  0.818817  0.622506  1
  Tm  Tm16  1  0.648695  0.992747  0.248714  1
  Tm  Tm17  1  0.148277  0.510483  0.247684  1
  Tm  Tm18  1  0.847776  0.487899  0.757737  1
  Tm  Tm19  1  0.352361  0.010301  0.752029  1
  Si  Si20  1  0.765312  0.629955  0.251754  1
  Si  Si21  1  0.266234  0.871392  0.250747  1
  Si  Si22  1  0.732511  0.124477  0.748780  1
  Si  Si23  1  0.234685  0.372149  0.746856  1
  Si  Si24  1  0.018669  0.105974  0.248798  1
  Si  Si25  1  0.521844  0.396783  0.251430  1
  Si  Si26  1  0.473591  0.605642  0.746937  1
  Si  Si27  1  0.978072  0.897764  0.748680  1
  Si  Si28  1  0.354369  0.972167  0.540266  1
  Si  Si29  1  0.646640  0.027580  0.042158  1
  Si  Si30  1  0.147231  0.470713  0.459693  1
  Si  Si31  1  0.155467  0.472485  0.041744  1
  Si  Si32  1  0.643758  0.028111  0.459133  1
  Si  Si33  1  0.353139  0.969634  0.960842  1
  Si  Si34  1  0.854581  0.528445  0.539200  1
  Rh  Rh35  1  0.855916  0.519911  0.956786  1
