# generated using pymatgen
data_Ti4GaCo8Si3
_symmetry_space_group_name_H-M   'P 1'
_cell_length_a   13.51377706
_cell_length_b   13.51377697
_cell_length_c   13.51377512
_cell_angle_alpha   17.40505348
_cell_angle_beta   17.40505628
_cell_angle_gamma   17.40505332
_symmetry_Int_Tables_number   1
_chemical_formula_structural   Ti4GaCo8Si3
_chemical_formula_sum   'Ti4 Ga1 Co8 Si3'
_cell_volume   192.70481315
_cell_formula_units_Z   1
loop_
 _symmetry_equiv_pos_site_id
 _symmetry_equiv_pos_as_xyz
  1  'x, y, z'
loop_
 _atom_site_type_symbol
 _atom_site_label
 _atom_site_symmetry_multiplicity
 _atom_site_fract_x
 _atom_site_fract_y
 _atom_site_fract_z
 _atom_site_occupancy
  Ti  Ti0  1  0.874748  0.874748  0.874748  1
  Ti  Ti1  1  0.125252  0.125252  0.125252  1
  Ti  Ti2  1  0.375115  0.375115  0.375115  1
  Ti  Ti3  1  0.624885  0.624885  0.624885  1
  Ga  Ga4  1  0.000000  0.000000  0.000000  1
  Co  Co5  1  0.187645  0.187645  0.187645  1
  Co  Co6  1  0.437957  0.437957  0.437957  1
  Co  Co7  1  0.689448  0.689448  0.689448  1
  Co  Co8  1  0.935946  0.935946  0.935946  1
  Co  Co9  1  0.812355  0.812355  0.812355  1
  Co  Co10  1  0.064054  0.064054  0.064054  1
  Co  Co11  1  0.310552  0.310552  0.310552  1
  Co  Co12  1  0.562043  0.562043  0.562043  1
  Si  Si13  1  0.249749  0.249749  0.249749  1
  Si  Si14  1  0.500000  0.500000  0.500000  1
  Si  Si15  1  0.750251  0.750251  0.750251  1
