# generated using pymatgen
data_Tb5YAl21Si3Os8
_symmetry_space_group_name_H-M   'P 1'
_cell_length_a   8.73739400
_cell_length_b   8.73845303
_cell_length_c   9.67097600
_cell_angle_alpha   89.99876282
_cell_angle_beta   90.00000000
_cell_angle_gamma   119.99599110
_symmetry_Int_Tables_number   1
_chemical_formula_structural   Tb5YAl21Si3Os8
_chemical_formula_sum   'Tb5 Y1 Al21 Si3 Os8'
_cell_volume   639.49176413
_cell_formula_units_Z   1
loop_
 _symmetry_equiv_pos_site_id
 _symmetry_equiv_pos_as_xyz
  1  'x, y, z'
loop_
 _atom_site_type_symbol
 _atom_site_label
 _atom_site_symmetry_multiplicity
 _atom_site_fract_x
 _atom_site_fract_y
 _atom_site_fract_z
 _atom_site_occupancy
  Tb  Tb0  1  0.805023  0.610046  0.752914  1
  Tb  Tb1  1  0.611048  0.805497  0.247453  1
  Tb  Tb2  1  0.389948  0.195023  0.752916  1
  Tb  Tb3  1  0.194449  0.805497  0.247453  1
  Tb  Tb4  1  0.805075  0.195023  0.752916  1
  Y  Y5  1  0.194707  0.389412  0.247435  1
  Al  Al6  1  0.333258  0.666517  0.476926  1
  Al  Al7  1  0.164253  0.328504  0.573739  1
  Al  Al8  1  0.834955  0.669912  0.424114  1
  Al  Al9  1  0.671528  0.835737  0.573736  1
  Al  Al10  1  0.834850  0.669700  0.076414  1
  Al  Al11  1  0.330064  0.165079  0.424141  1
  Al  Al12  1  0.165493  0.330985  0.923188  1
  Al  Al13  1  0.164210  0.835737  0.573736  1
  Al  Al14  1  0.330299  0.165182  0.076379  1
  Al  Al15  1  0.835014  0.165079  0.424141  1
  Al  Al16  1  0.669041  0.834496  0.923184  1
  Al  Al17  1  0.834882  0.165182  0.076379  1
  Al  Al18  1  0.165455  0.834496  0.923184  1
  Al  Al19  1  0.563689  0.127378  0.248729  1
  Al  Al20  1  0.436686  0.873371  0.748743  1
  Al  Al21  1  0.872767  0.436344  0.248747  1
  Al  Al22  1  0.126607  0.563291  0.748725  1
  Al  Al23  1  0.563577  0.436344  0.248747  1
  Al  Al24  1  0.436686  0.563291  0.748725  1
  Al  Al25  1  0.999932  0.999864  0.248833  1
  Al  Al26  1  0.999996  0.999991  0.749506  1
  Si  Si27  1  0.333242  0.666485  0.038499  1
  Si  Si28  1  0.666668  0.333335  0.962682  1
  Si  Si29  1  0.666692  0.333382  0.538630  1
  Os  Os30  1  0.499907  0.999815  0.998896  1
  Os  Os31  1  0.000190  0.500025  0.998879  1
  Os  Os32  1  0.504235  0.008471  0.501319  1
  Os  Os33  1  0.499834  0.500025  0.998879  1
  Os  Os34  1  0.991475  0.495660  0.501347  1
  Os  Os35  1  0.504185  0.495660  0.501347  1
  Os  Os36  1  0.000036  0.000073  0.999148  1
  Os  Os37  1  0.000046  0.000092  0.499263  1
