# generated using pymatgen
data_PrAg3(Ru2O7)2
_symmetry_space_group_name_H-M   'P 1'
_cell_length_a   7.29497275
_cell_length_b   7.29497208
_cell_length_c   7.29497227
_cell_angle_alpha   59.46014753
_cell_angle_beta   59.46015151
_cell_angle_gamma   59.46014861
_symmetry_Int_Tables_number   1
_chemical_formula_structural   PrAg3(Ru2O7)2
_chemical_formula_sum   'Pr1 Ag3 Ru4 O14'
_cell_volume   271.13746463
_cell_formula_units_Z   1
loop_
 _symmetry_equiv_pos_site_id
 _symmetry_equiv_pos_as_xyz
  1  'x, y, z'
loop_
 _atom_site_type_symbol
 _atom_site_label
 _atom_site_symmetry_multiplicity
 _atom_site_fract_x
 _atom_site_fract_y
 _atom_site_fract_z
 _atom_site_occupancy
  Pr  Pr0  1  0.625000  0.625000  0.625000  1
  Ag  Ag1  1  0.625000  0.625000  0.125000  1
  Ag  Ag2  1  0.625000  0.125000  0.625000  1
  Ag  Ag3  1  0.125000  0.625000  0.625000  1
  Ru  Ru4  1  0.125000  0.125000  0.625000  1
  Ru  Ru5  1  0.125000  0.625000  0.125000  1
  Ru  Ru6  1  0.625000  0.125000  0.125000  1
  Ru  Ru7  1  0.125000  0.125000  0.125000  1
  O  O8  1  0.758954  0.758954  0.758954  1
  O  O9  1  0.491046  0.491046  0.491046  1
  O  O10  1  0.059636  0.441793  0.059636  1
  O  O11  1  0.803388  0.200695  0.803388  1
  O  O12  1  0.059636  0.059636  0.441793  1
  O  O13  1  0.441793  0.059636  0.059636  1
  O  O14  1  0.049305  0.446612  0.446612  1
  O  O15  1  0.446612  0.446612  0.049305  1
  O  O16  1  0.446612  0.049305  0.446612  1
  O  O17  1  0.200695  0.803388  0.803388  1
  O  O18  1  0.808207  0.190364  0.190364  1
  O  O19  1  0.190364  0.808207  0.190364  1
  O  O20  1  0.803388  0.803388  0.200695  1
  O  O21  1  0.190364  0.190364  0.808207  1
