# generated using pymatgen
data_V10Ga5SiN
_symmetry_space_group_name_H-M   'P 1'
_cell_length_a   7.28000132
_cell_length_b   7.31222098
_cell_length_c   4.88472822
_cell_angle_alpha   89.98302220
_cell_angle_beta   90.03411375
_cell_angle_gamma   119.85436186
_symmetry_Int_Tables_number   1
_chemical_formula_structural   V10Ga5SiN
_chemical_formula_sum   'V10 Ga5 Si1 N1'
_cell_volume   225.52111181
_cell_formula_units_Z   1
loop_
 _symmetry_equiv_pos_site_id
 _symmetry_equiv_pos_as_xyz
  1  'x, y, z'
loop_
 _atom_site_type_symbol
 _atom_site_label
 _atom_site_symmetry_multiplicity
 _atom_site_fract_x
 _atom_site_fract_y
 _atom_site_fract_z
 _atom_site_occupancy
  V  V0  1  0.000861  0.773026  0.257258  1
  V  V1  1  0.227836  0.226974  0.257258  1
  V  V2  1  0.766197  0.000000  0.256601  1
  V  V3  1  0.993981  0.224162  0.742715  1
  V  V4  1  0.769819  0.775838  0.742715  1
  V  V5  1  0.232889  0.000000  0.742814  1
  V  V6  1  0.339188  0.674125  0.501879  1
  V  V7  1  0.665065  0.325875  0.501879  1
  V  V8  1  0.665170  0.326379  0.998127  1
  V  V9  1  0.338790  0.673621  0.998127  1
  Ga  Ga10  1  0.003963  0.406287  0.243649  1
  Ga  Ga11  1  0.597676  0.593713  0.243649  1
  Ga  Ga12  1  0.401268  0.000000  0.243121  1
  Ga  Ga13  1  0.998274  0.597074  0.756576  1
  Ga  Ga14  1  0.401200  0.402926  0.756576  1
  Si  Si15  1  0.597182  0.000000  0.758027  1
  N  N16  1  0.000643  0.000000  0.499028  1
