# generated using pymatgen
data_Zr6Ga(Ni5P3)4
_symmetry_space_group_name_H-M   'P 1'
_cell_length_a   12.52193600
_cell_length_b   12.52193628
_cell_length_c   3.64318500
_cell_angle_alpha   90.00000000
_cell_angle_beta   90.00000000
_cell_angle_gamma   119.99999927
_symmetry_Int_Tables_number   1
_chemical_formula_structural   Zr6Ga(Ni5P3)4
_chemical_formula_sum   'Zr6 Ga1 Ni20 P12'
_cell_volume   494.71471590
_cell_formula_units_Z   1
loop_
 _symmetry_equiv_pos_site_id
 _symmetry_equiv_pos_as_xyz
  1  'x, y, z'
loop_
 _atom_site_type_symbol
 _atom_site_label
 _atom_site_symmetry_multiplicity
 _atom_site_fract_x
 _atom_site_fract_y
 _atom_site_fract_z
 _atom_site_occupancy
  Zr  Zr0  1  0.808481  0.282715  0.500000  1
  Zr  Zr1  1  0.717285  0.525766  0.500000  1
  Zr  Zr2  1  0.474234  0.191519  0.500000  1
  Zr  Zr3  1  0.192318  0.715688  0.000000  1
  Zr  Zr4  1  0.284312  0.476630  0.000000  1
  Zr  Zr5  1  0.523370  0.807682  0.000000  1
  Ga  Ga6  1  0.000000  0.000000  0.000000  1
  Ni  Ni7  1  0.417079  0.980065  0.000000  1
  Ni  Ni8  1  0.019935  0.437015  0.000000  1
  Ni  Ni9  1  0.584456  0.020917  0.500000  1
  Ni  Ni10  1  0.562985  0.582921  0.000000  1
  Ni  Ni11  1  0.979083  0.563541  0.500000  1
  Ni  Ni12  1  0.915950  0.090371  0.500000  1
  Ni  Ni13  1  0.174421  0.084050  0.500000  1
  Ni  Ni14  1  0.909629  0.825579  0.500000  1
  Ni  Ni15  1  0.099322  0.888086  0.000000  1
  Ni  Ni16  1  0.788764  0.900678  0.000000  1
  Ni  Ni17  1  0.111914  0.211236  0.000000  1
  Ni  Ni18  1  0.333333  0.666667  0.500000  1
  Ni  Ni19  1  0.666667  0.333333  0.000000  1
  Ni  Ni20  1  0.674538  0.748118  0.500000  1
  Ni  Ni21  1  0.251882  0.926419  0.500000  1
  Ni  Ni22  1  0.919892  0.673796  0.000000  1
  Ni  Ni23  1  0.326204  0.246097  0.000000  1
  Ni  Ni24  1  0.753903  0.080108  0.000000  1
  Ni  Ni25  1  0.436459  0.415544  0.500000  1
  Ni  Ni26  1  0.073581  0.325462  0.500000  1
  P  P27  1  0.234036  0.286506  0.500000  1
  P  P28  1  0.713494  0.947528  0.500000  1
  P  P29  1  0.052472  0.765964  0.500000  1
  P  P30  1  0.767583  0.714669  0.000000  1
  P  P31  1  0.285331  0.052915  0.000000  1
  P  P32  1  0.472828  0.612832  0.500000  1
  P  P33  1  0.387168  0.859995  0.500000  1
  P  P34  1  0.859888  0.472905  0.000000  1
  P  P35  1  0.527095  0.386984  0.000000  1
  P  P36  1  0.613016  0.140112  0.000000  1
  P  P37  1  0.947085  0.232417  0.000000  1
  P  P38  1  0.140005  0.527172  0.500000  1
