# generated using pymatgen
data_HfSc3Fe4(Co4P3)4
_symmetry_space_group_name_H-M   'P 1'
_cell_length_a   3.59318300
_cell_length_b   10.10408496
_cell_length_c   11.63865208
_cell_angle_alpha   90.05078558
_cell_angle_beta   90.00000000
_cell_angle_gamma   90.00000000
_symmetry_Int_Tables_number   1
_chemical_formula_structural   HfSc3Fe4(Co4P3)4
_chemical_formula_sum   'Hf1 Sc3 Fe4 Co16 P12'
_cell_volume   422.55071519
_cell_formula_units_Z   1
loop_
 _symmetry_equiv_pos_site_id
 _symmetry_equiv_pos_as_xyz
  1  'x, y, z'
loop_
 _atom_site_type_symbol
 _atom_site_label
 _atom_site_symmetry_multiplicity
 _atom_site_fract_x
 _atom_site_fract_y
 _atom_site_fract_z
 _atom_site_occupancy
  Hf  Hf0  1  0.250000  0.580402  0.703434  1
  Sc  Sc1  1  0.250000  0.919281  0.203394  1
  Sc  Sc2  1  0.750000  0.419240  0.296665  1
  Sc  Sc3  1  0.750000  0.080509  0.796241  1
  Fe  Fe4  1  0.250000  0.712644  0.988573  1
  Fe  Fe5  1  0.250000  0.787413  0.488221  1
  Fe  Fe6  1  0.750000  0.287725  0.010859  1
  Fe  Fe7  1  0.750000  0.212402  0.511529  1
  Co  Co8  1  0.250000  0.408594  0.485849  1
  Co  Co9  1  0.250000  0.092528  0.984943  1
  Co  Co10  1  0.750000  0.592787  0.517071  1
  Co  Co11  1  0.750000  0.906895  0.014764  1
  Co  Co12  1  0.250000  0.221785  0.176782  1
  Co  Co13  1  0.250000  0.278372  0.677471  1
  Co  Co14  1  0.750000  0.776427  0.822156  1
  Co  Co15  1  0.750000  0.721250  0.323688  1
  Co  Co16  1  0.250000  0.882103  0.699982  1
  Co  Co17  1  0.250000  0.617128  0.199760  1
  Co  Co18  1  0.750000  0.117136  0.300099  1
  Co  Co19  1  0.750000  0.384954  0.799057  1
  Co  Co20  1  0.250000  0.465912  0.931114  1
  Co  Co21  1  0.250000  0.034490  0.432128  1
  Co  Co22  1  0.750000  0.534113  0.067945  1
  Co  Co23  1  0.750000  0.965720  0.568115  1
  P  P24  1  0.250000  0.419281  0.115756  1
  P  P25  1  0.250000  0.080636  0.616008  1
  P  P26  1  0.750000  0.580876  0.884849  1
  P  P27  1  0.750000  0.919431  0.384102  1
  P  P28  1  0.250000  0.264326  0.867298  1
  P  P29  1  0.250000  0.235490  0.367151  1
  P  P30  1  0.750000  0.735111  0.133281  1
  P  P31  1  0.750000  0.765588  0.632669  1
  P  P32  1  0.250000  0.598703  0.389871  1
  P  P33  1  0.250000  0.901398  0.890320  1
  P  P34  1  0.750000  0.400577  0.609385  1
  P  P35  1  0.750000  0.098775  0.109468  1
