# generated using pymatgen
data_HfZr2ScOs4
_symmetry_space_group_name_H-M   'P 1'
_cell_length_a   6.51043700
_cell_length_b   4.62566900
_cell_length_c   9.24586800
_cell_angle_alpha   90.00000000
_cell_angle_beta   90.00068926
_cell_angle_gamma   90.00000000
_symmetry_Int_Tables_number   1
_chemical_formula_structural   HfZr2ScOs4
_chemical_formula_sum   'Hf2 Zr4 Sc2 Os8'
_cell_volume   278.44048540
_cell_formula_units_Z   2
loop_
 _symmetry_equiv_pos_site_id
 _symmetry_equiv_pos_as_xyz
  1  'x, y, z'
loop_
 _atom_site_type_symbol
 _atom_site_label
 _atom_site_symmetry_multiplicity
 _atom_site_fract_x
 _atom_site_fract_y
 _atom_site_fract_z
 _atom_site_occupancy
  Hf  Hf0  1  0.249909  0.250000  0.124046  1
  Hf  Hf1  1  0.749911  0.750000  0.375953  1
  Zr  Zr2  1  0.749913  0.250000  0.122514  1
  Zr  Zr3  1  0.249915  0.750000  0.377485  1
  Zr  Zr4  1  0.750086  0.250000  0.627642  1
  Zr  Zr5  1  0.250089  0.750000  0.872358  1
  Sc  Sc6  1  0.250093  0.250000  0.625591  1
  Sc  Sc7  1  0.750100  0.750000  0.874407  1
  Os  Os8  1  0.001194  0.750000  0.126535  1
  Os  Os9  1  0.498659  0.750000  0.126537  1
  Os  Os10  1  0.998665  0.250000  0.373462  1
  Os  Os11  1  0.501195  0.250000  0.373467  1
  Os  Os12  1  0.501335  0.750000  0.623536  1
  Os  Os13  1  0.998793  0.750000  0.623528  1
  Os  Os14  1  0.498806  0.250000  0.876474  1
  Os  Os15  1  0.001336  0.250000  0.876466  1
