# generated using pymatgen
data_Er3Tm4Sn23Ir6
_symmetry_space_group_name_H-M   'P 1'
_cell_length_a   9.83066404
_cell_length_b   9.83217137
_cell_length_c   10.09960300
_cell_angle_alpha   89.99999882
_cell_angle_beta   90.00128213
_cell_angle_gamma   120.00507271
_symmetry_Int_Tables_number   1
_chemical_formula_structural   Er3Tm4Sn23Ir6
_chemical_formula_sum   'Er3 Tm4 Sn23 Ir6'
_cell_volume   845.36648607
_cell_formula_units_Z   1
loop_
 _symmetry_equiv_pos_site_id
 _symmetry_equiv_pos_as_xyz
  1  'x, y, z'
loop_
 _atom_site_type_symbol
 _atom_site_label
 _atom_site_symmetry_multiplicity
 _atom_site_fract_x
 _atom_site_fract_y
 _atom_site_fract_z
 _atom_site_occupancy
  Er  Er0  1  0.038453  0.519227  0.306844  1
  Er  Er1  1  0.961547  0.480773  0.693156  1
  Er  Er2  1  0.000000  0.000000  0.000000  1
  Tm  Tm3  1  0.480908  0.519085  0.306831  1
  Tm  Tm4  1  0.519092  0.480915  0.693169  1
  Tm  Tm5  1  0.480908  0.961823  0.306831  1
  Tm  Tm6  1  0.519092  0.038177  0.693169  1
  Sn  Sn7  1  0.119747  0.880385  0.284146  1
  Sn  Sn8  1  0.880253  0.119615  0.715854  1
  Sn  Sn9  1  0.119747  0.239361  0.284146  1
  Sn  Sn10  1  0.880253  0.760639  0.715854  1
  Sn  Sn11  1  0.760535  0.880267  0.284164  1
  Sn  Sn12  1  0.239465  0.119733  0.715836  1
  Sn  Sn13  1  0.776971  0.222693  0.456901  1
  Sn  Sn14  1  0.223029  0.777307  0.543099  1
  Sn  Sn15  1  0.776971  0.554278  0.456901  1
  Sn  Sn16  1  0.223029  0.445722  0.543099  1
  Sn  Sn17  1  0.445732  0.222866  0.456913  1
  Sn  Sn18  1  0.554268  0.777134  0.543087  1
  Sn  Sn19  1  0.352514  0.000030  0.000003  1
  Sn  Sn20  1  0.647486  0.999970  0.999997  1
  Sn  Sn21  1  0.000000  0.352441  0.000000  1
  Sn  Sn22  1  0.000000  0.647559  0.000000  1
  Sn  Sn23  1  0.647486  0.647516  0.999997  1
  Sn  Sn24  1  0.352514  0.352484  0.000003  1
  Sn  Sn25  1  0.333527  0.666764  0.125257  1
  Sn  Sn26  1  0.666473  0.333236  0.874743  1
  Sn  Sn27  1  0.333378  0.666690  0.826508  1
  Sn  Sn28  1  0.666622  0.333310  0.173492  1
  Sn  Sn29  1  0.000000  0.000000  0.500000  1
  Ir  Ir30  1  0.830846  0.168866  0.198637  1
  Ir  Ir31  1  0.169154  0.831134  0.801363  1
  Ir  Ir32  1  0.830846  0.661981  0.198637  1
  Ir  Ir33  1  0.169154  0.338019  0.801363  1
  Ir  Ir34  1  0.338081  0.169041  0.198705  1
  Ir  Ir35  1  0.661919  0.830959  0.801295  1
