# generated using pymatgen
data_La7Y(Si3Pt)4
_symmetry_space_group_name_H-M   'P 1'
_cell_length_a   8.28740300
_cell_length_b   8.28740316
_cell_length_c   8.74539400
_cell_angle_alpha   90.00000000
_cell_angle_beta   90.00000000
_cell_angle_gamma   119.99999538
_symmetry_Int_Tables_number   1
_chemical_formula_structural   La7Y(Si3Pt)4
_chemical_formula_sum   'La7 Y1 Si12 Pt4'
_cell_volume   520.17198291
_cell_formula_units_Z   1
loop_
 _symmetry_equiv_pos_site_id
 _symmetry_equiv_pos_as_xyz
  1  'x, y, z'
loop_
 _atom_site_type_symbol
 _atom_site_label
 _atom_site_symmetry_multiplicity
 _atom_site_fract_x
 _atom_site_fract_y
 _atom_site_fract_z
 _atom_site_occupancy
  La  La0  1  0.000000  0.000000  0.750000  1
  La  La1  1  0.500398  0.499602  0.250000  1
  La  La2  1  0.500398  0.000797  0.250000  1
  La  La3  1  0.999203  0.499602  0.250000  1
  La  La4  1  0.499592  0.500408  0.750000  1
  La  La5  1  0.499592  0.999183  0.750000  1
  La  La6  1  0.000817  0.500408  0.750000  1
  Y  Y7  1  0.000000  0.000000  0.250000  1
  Si  Si8  1  0.164778  0.835222  0.497064  1
  Si  Si9  1  0.164778  0.329556  0.497064  1
  Si  Si10  1  0.670444  0.835222  0.497064  1
  Si  Si11  1  0.835226  0.164774  0.497026  1
  Si  Si12  1  0.835226  0.670452  0.497026  1
  Si  Si13  1  0.329548  0.164774  0.497026  1
  Si  Si14  1  0.835226  0.164774  0.002974  1
  Si  Si15  1  0.835226  0.670452  0.002974  1
  Si  Si16  1  0.329548  0.164774  0.002974  1
  Si  Si17  1  0.164778  0.835222  0.002936  1
  Si  Si18  1  0.164778  0.329556  0.002936  1
  Si  Si19  1  0.670444  0.835222  0.002936  1
  Pt  Pt20  1  0.333333  0.666667  0.497073  1
  Pt  Pt21  1  0.666667  0.333333  0.499790  1
  Pt  Pt22  1  0.666667  0.333333  0.000210  1
  Pt  Pt23  1  0.333333  0.666667  0.002927  1
