# generated using pymatgen
data_Tb18DyErPb16
_symmetry_space_group_name_H-M   'P 1'
_cell_length_a   8.24088301
_cell_length_b   8.32404053
_cell_length_c   15.72252400
_cell_angle_alpha   90.00000000
_cell_angle_beta   90.00000000
_cell_angle_gamma   90.02262600
_symmetry_Int_Tables_number   1
_chemical_formula_structural   Tb18DyErPb16
_chemical_formula_sum   'Tb18 Dy1 Er1 Pb16'
_cell_volume   1078.52487787
_cell_formula_units_Z   1
loop_
 _symmetry_equiv_pos_site_id
 _symmetry_equiv_pos_as_xyz
  1  'x, y, z'
loop_
 _atom_site_type_symbol
 _atom_site_label
 _atom_site_symmetry_multiplicity
 _atom_site_fract_x
 _atom_site_fract_y
 _atom_site_fract_z
 _atom_site_occupancy
  Tb  Tb0  1  0.377498  0.840668  0.879603  1
  Tb  Tb1  1  0.877454  0.659390  0.620479  1
  Tb  Tb2  1  0.622294  0.159220  0.379470  1
  Tb  Tb3  1  0.122665  0.340537  0.120516  1
  Tb  Tb4  1  0.622294  0.159220  0.120530  1
  Tb  Tb5  1  0.122665  0.340537  0.379484  1
  Tb  Tb6  1  0.377498  0.840668  0.620397  1
  Tb  Tb7  1  0.877454  0.659390  0.879521  1
  Tb  Tb8  1  0.534742  0.323290  0.899889  1
  Tb  Tb9  1  0.034685  0.176678  0.600051  1
  Tb  Tb10  1  0.465200  0.676867  0.399889  1
  Tb  Tb11  1  0.965427  0.823418  0.100121  1
  Tb  Tb12  1  0.465200  0.676867  0.100111  1
  Tb  Tb13  1  0.965427  0.823418  0.399879  1
  Tb  Tb14  1  0.534742  0.323290  0.600111  1
  Tb  Tb15  1  0.034685  0.176678  0.899949  1
  Tb  Tb16  1  0.208892  0.503740  0.750000  1
  Tb  Tb17  1  0.791141  0.496317  0.250000  1
  Dy  Dy18  1  0.708921  0.996310  0.750000  1
  Er  Er19  1  0.291040  0.003881  0.250000  1
  Pb  Pb20  1  0.280883  0.032890  0.043008  1
  Pb  Pb21  1  0.780848  0.467003  0.457332  1
  Pb  Pb22  1  0.719151  0.966959  0.542563  1
  Pb  Pb23  1  0.219136  0.532993  0.957471  1
  Pb  Pb24  1  0.719151  0.966959  0.957437  1
  Pb  Pb25  1  0.219136  0.532993  0.542529  1
  Pb  Pb26  1  0.280883  0.032890  0.456992  1
  Pb  Pb27  1  0.780848  0.467003  0.042668  1
  Pb  Pb28  1  0.572988  0.626149  0.750000  1
  Pb  Pb29  1  0.072860  0.873963  0.750000  1
  Pb  Pb30  1  0.426768  0.373555  0.250000  1
  Pb  Pb31  1  0.927685  0.125489  0.250000  1
  Pb  Pb32  1  0.346170  0.152127  0.750000  1
  Pb  Pb33  1  0.846175  0.347541  0.750000  1
  Pb  Pb34  1  0.653454  0.847910  0.250000  1
  Pb  Pb35  1  0.153938  0.653192  0.250000  1
