# generated using pymatgen
data_Ti6BiPbC2
_symmetry_space_group_name_H-M   'P 1'
_cell_length_a   6.15401335
_cell_length_b   6.15401344
_cell_length_c   8.48651400
_cell_angle_alpha   90.00000000
_cell_angle_beta   90.00000000
_cell_angle_gamma   149.47358078
_symmetry_Int_Tables_number   1
_chemical_formula_structural   Ti6BiPbC2
_chemical_formula_sum   'Ti6 Bi1 Pb1 C2'
_cell_volume   163.25063000
_cell_formula_units_Z   1
loop_
 _symmetry_equiv_pos_site_id
 _symmetry_equiv_pos_as_xyz
  1  'x, y, z'
loop_
 _atom_site_type_symbol
 _atom_site_label
 _atom_site_symmetry_multiplicity
 _atom_site_fract_x
 _atom_site_fract_y
 _atom_site_fract_z
 _atom_site_occupancy
  Ti  Ti0  1  0.388413  0.611590  0.041304  1
  Ti  Ti1  1  0.030943  0.969059  0.250000  1
  Ti  Ti2  1  0.388413  0.611590  0.458696  1
  Ti  Ti3  1  0.611423  0.388580  0.542096  1
  Ti  Ti4  1  0.969836  0.030166  0.750000  1
  Ti  Ti5  1  0.611423  0.388580  0.957904  1
  Bi  Bi6  1  0.742383  0.257620  0.250000  1
  Pb  Pb7  1  0.257202  0.742801  0.750000  1
  C  C8  1  0.999987  0.000013  0.000294  1
  C  C9  1  0.999987  0.000013  0.499706  1
