# generated using pymatgen
data_HoTm9(SiBi2)2
_symmetry_space_group_name_H-M   'P 1'
_cell_length_a   7.96854200
_cell_length_b   9.09248300
_cell_length_c   11.85744200
_cell_angle_alpha   90.00000000
_cell_angle_beta   90.00000000
_cell_angle_gamma   90.00000000
_symmetry_Int_Tables_number   1
_chemical_formula_structural   HoTm9(SiBi2)2
_chemical_formula_sum   'Ho2 Tm18 Si4 Bi8'
_cell_volume   859.11711856
_cell_formula_units_Z   2
loop_
 _symmetry_equiv_pos_site_id
 _symmetry_equiv_pos_as_xyz
  1  'x, y, z'
loop_
 _atom_site_type_symbol
 _atom_site_label
 _atom_site_symmetry_multiplicity
 _atom_site_fract_x
 _atom_site_fract_y
 _atom_site_fract_z
 _atom_site_occupancy
  Ho  Ho0  1  0.331331  0.750000  0.286581  1
  Ho  Ho1  1  0.168669  0.750000  0.786581  1
  Tm  Tm2  1  0.678829  0.945048  0.438017  1
  Tm  Tm3  1  0.821171  0.554952  0.938017  1
  Tm  Tm4  1  0.321176  0.444972  0.561905  1
  Tm  Tm5  1  0.178824  0.055028  0.061905  1
  Tm  Tm6  1  0.321176  0.055028  0.561905  1
  Tm  Tm7  1  0.178824  0.444972  0.061905  1
  Tm  Tm8  1  0.678829  0.554952  0.438017  1
  Tm  Tm9  1  0.821171  0.945048  0.938017  1
  Tm  Tm10  1  0.668497  0.250000  0.712842  1
  Tm  Tm11  1  0.831503  0.250000  0.212842  1
  Tm  Tm12  1  0.037848  0.750000  0.497668  1
  Tm  Tm13  1  0.462152  0.750000  0.997668  1
  Tm  Tm14  1  0.961621  0.250000  0.502397  1
  Tm  Tm15  1  0.538379  0.250000  0.002397  1
  Tm  Tm16  1  0.862778  0.750000  0.205068  1
  Tm  Tm17  1  0.637222  0.750000  0.705068  1
  Tm  Tm18  1  0.136829  0.250000  0.794962  1
  Tm  Tm19  1  0.363171  0.250000  0.294962  1
  Si  Si20  1  0.090489  0.750000  0.022253  1
  Si  Si21  1  0.409511  0.750000  0.522253  1
  Si  Si22  1  0.909367  0.250000  0.978637  1
  Si  Si23  1  0.590633  0.250000  0.478637  1
  Bi  Bi24  1  0.567387  0.988709  0.174551  1
  Bi  Bi25  1  0.932613  0.511291  0.674552  1
  Bi  Bi26  1  0.433434  0.488015  0.825321  1
  Bi  Bi27  1  0.066566  0.011985  0.325322  1
  Bi  Bi28  1  0.433434  0.011985  0.825321  1
  Bi  Bi29  1  0.066566  0.488015  0.325322  1
  Bi  Bi30  1  0.567387  0.511291  0.174551  1
  Bi  Bi31  1  0.932613  0.988709  0.674552  1
