# generated using pymatgen
data_Nd4HoLu5Pb6
_symmetry_space_group_name_H-M   'P 1'
_cell_length_a   6.64094700
_cell_length_b   9.08545071
_cell_length_c   9.15242300
_cell_angle_alpha   120.24434632
_cell_angle_beta   90.00083228
_cell_angle_gamma   89.99973558
_symmetry_Int_Tables_number   1
_chemical_formula_structural   Nd4HoLu5Pb6
_chemical_formula_sum   'Nd4 Ho1 Lu5 Pb6'
_cell_volume   477.05517820
_cell_formula_units_Z   1
loop_
 _symmetry_equiv_pos_site_id
 _symmetry_equiv_pos_as_xyz
  1  'x, y, z'
loop_
 _atom_site_type_symbol
 _atom_site_label
 _atom_site_symmetry_multiplicity
 _atom_site_fract_x
 _atom_site_fract_y
 _atom_site_fract_z
 _atom_site_occupancy
  Nd  Nd0  1  0.750001  0.236167  0.998674  1
  Nd  Nd1  1  0.750004  0.763840  0.762495  1
  Nd  Nd2  1  0.249999  0.763325  0.000502  1
  Nd  Nd3  1  0.249990  0.236651  0.237151  1
  Ho  Ho4  1  0.749998  0.000002  0.243022  1
  Lu  Lu5  1  0.250008  0.999977  0.758522  1
  Lu  Lu6  1  0.499923  0.333333  0.666630  1
  Lu  Lu7  1  0.499933  0.666658  0.333279  1
  Lu  Lu8  1  0.000075  0.666649  0.333270  1
  Lu  Lu9  1  0.000069  0.333363  0.666631  1
  Pb  Pb10  1  0.750006  0.604365  0.002393  1
  Pb  Pb11  1  0.749984  0.395624  0.398031  1
  Pb  Pb12  1  0.750011  0.000074  0.597860  1
  Pb  Pb13  1  0.249991  0.394180  0.996453  1
  Pb  Pb14  1  0.250024  0.605769  0.602250  1
  Pb  Pb15  1  0.249988  0.000025  0.402835  1
