# generated using pymatgen
data_TmPaSe6
_symmetry_space_group_name_H-M   'P 1'
_cell_length_a   4.03326200
_cell_length_b   5.61434599
_cell_length_c   10.12492700
_cell_angle_alpha   82.56663588
_cell_angle_beta   90.00000000
_cell_angle_gamma   90.00000000
_symmetry_Int_Tables_number   1
_chemical_formula_structural   TmPaSe6
_chemical_formula_sum   'Tm1 Pa1 Se6'
_cell_volume   227.34335900
_cell_formula_units_Z   1
loop_
 _symmetry_equiv_pos_site_id
 _symmetry_equiv_pos_as_xyz
  1  'x, y, z'
loop_
 _atom_site_type_symbol
 _atom_site_label
 _atom_site_symmetry_multiplicity
 _atom_site_fract_x
 _atom_site_fract_y
 _atom_site_fract_z
 _atom_site_occupancy
  Tm  Tm0  1  0.250000  0.214166  0.152750  1
  Pa  Pa1  1  0.750000  0.783091  0.859580  1
  Se  Se2  1  0.750000  0.390623  0.313927  1
  Se  Se3  1  0.250000  0.611962  0.687540  1
  Se  Se4  1  0.250000  0.737387  0.053228  1
  Se  Se5  1  0.750000  0.266149  0.932085  1
  Se  Se6  1  0.250000  0.034678  0.687652  1
  Se  Se7  1  0.750000  0.961943  0.313236  1
