# generated using pymatgen
data_K4BaIrO6
_symmetry_space_group_name_H-M   'P 1'
_cell_length_a   6.31274414
_cell_length_b   6.31274463
_cell_length_c   6.34686700
_cell_angle_alpha   100.09749833
_cell_angle_beta   100.09749912
_cell_angle_gamma   119.60999394
_symmetry_Int_Tables_number   1
_chemical_formula_structural   K4BaIrO6
_chemical_formula_sum   'K4 Ba1 Ir1 O6'
_cell_volume   206.10389929
_cell_formula_units_Z   1
loop_
 _symmetry_equiv_pos_site_id
 _symmetry_equiv_pos_as_xyz
  1  'x, y, z'
loop_
 _atom_site_type_symbol
 _atom_site_label
 _atom_site_symmetry_multiplicity
 _atom_site_fract_x
 _atom_site_fract_y
 _atom_site_fract_z
 _atom_site_occupancy
  K  K0  1  0.498949  0.501050  0.000000  1
  K  K1  1  0.008894  0.991106  0.500000  1
  K  K2  1  0.659121  0.340879  0.500000  1
  K  K3  1  0.333423  0.666577  0.500000  1
  Ba  Ba4  1  0.833413  0.166587  0.000000  1
  Ir  Ir5  1  0.167029  0.832970  0.000000  1
  O  O6  1  0.228197  0.155597  0.196517  1
  O  O7  1  0.492606  0.903552  0.199012  1
  O  O8  1  0.977504  0.640012  0.190235  1
  O  O9  1  0.359988  0.022496  0.809764  1
  O  O10  1  0.096448  0.507394  0.800988  1
  O  O11  1  0.844402  0.771803  0.803482  1
