# generated using pymatgen
data_Ho4Al17SiRh6
_symmetry_space_group_name_H-M   'P 1'
_cell_length_a   7.53740049
_cell_length_b   7.51105937
_cell_length_c   9.46720267
_cell_angle_alpha   90.02274195
_cell_angle_beta   89.85911028
_cell_angle_gamma   119.52001896
_symmetry_Int_Tables_number   1
_chemical_formula_structural   Ho4Al17SiRh6
_chemical_formula_sum   'Ho4 Al17 Si1 Rh6'
_cell_volume   466.39495874
_cell_formula_units_Z   1
loop_
 _symmetry_equiv_pos_site_id
 _symmetry_equiv_pos_as_xyz
  1  'x, y, z'
loop_
 _atom_site_type_symbol
 _atom_site_label
 _atom_site_symmetry_multiplicity
 _atom_site_fract_x
 _atom_site_fract_y
 _atom_site_fract_z
 _atom_site_occupancy
  Ho  Ho0  1  0.994202  0.663918  0.247061  1
  Ho  Ho1  1  0.005000  0.328915  0.755045  1
  Ho  Ho2  1  0.676908  0.002687  0.246748  1
  Ho  Ho3  1  0.328194  0.004948  0.750317  1
  Al  Al4  1  0.127831  0.127488  0.249455  1
  Al  Al5  1  0.871167  0.873041  0.749448  1
  Al  Al6  1  0.998350  0.668834  0.923389  1
  Al  Al7  1  0.999461  0.665155  0.574487  1
  Al  Al8  1  0.334492  0.999109  0.424277  1
  Al  Al9  1  0.001795  0.335060  0.429735  1
  Al  Al10  1  0.664298  0.999444  0.574500  1
  Al  Al11  1  0.659732  0.994702  0.922867  1
  Al  Al12  1  0.334290  0.999408  0.076015  1
  Al  Al13  1  0.333862  0.332926  0.552455  1
  Al  Al14  1  0.667974  0.668480  0.447514  1
  Al  Al15  1  0.667047  0.667781  0.053585  1
  Al  Al16  1  0.336447  0.333563  0.948445  1
  Al  Al17  1  0.340590  0.550806  0.250241  1
  Al  Al18  1  0.661183  0.449957  0.750287  1
  Al  Al19  1  0.546640  0.339525  0.249753  1
  Al  Al20  1  0.449219  0.658230  0.749474  1
  Si  Si21  1  0.002398  0.335268  0.075558  1
  Rh  Rh22  1  0.680716  0.328637  0.002269  1
  Rh  Rh23  1  0.319209  0.663724  0.000225  1
  Rh  Rh24  1  0.327575  0.671424  0.499419  1
  Rh  Rh25  1  0.672426  0.328264  0.498552  1
  Rh  Rh26  1  0.998968  0.007826  0.999782  1
  Rh  Rh27  1  0.000027  0.000879  0.499101  1
