# generated using pymatgen
data_Tb4AlIr6Ru
_symmetry_space_group_name_H-M   'P 1'
_cell_length_a   5.48440800
_cell_length_b   5.48440743
_cell_length_c   8.36170400
_cell_angle_alpha   90.00000000
_cell_angle_beta   90.00000000
_cell_angle_gamma   120.00000341
_symmetry_Int_Tables_number   1
_chemical_formula_structural   Tb4AlIr6Ru
_chemical_formula_sum   'Tb4 Al1 Ir6 Ru1'
_cell_volume   217.81353980
_cell_formula_units_Z   1
loop_
 _symmetry_equiv_pos_site_id
 _symmetry_equiv_pos_as_xyz
  1  'x, y, z'
loop_
 _atom_site_type_symbol
 _atom_site_label
 _atom_site_symmetry_multiplicity
 _atom_site_fract_x
 _atom_site_fract_y
 _atom_site_fract_z
 _atom_site_occupancy
  Tb  Tb0  1  0.333333  0.666667  0.430115  1
  Tb  Tb1  1  0.666667  0.333333  0.569885  1
  Tb  Tb2  1  0.666667  0.333333  0.939006  1
  Tb  Tb3  1  0.333333  0.666667  0.060994  1
  Al  Al4  1  0.000000  0.000000  0.500000  1
  Ir  Ir5  1  0.830525  0.169475  0.253339  1
  Ir  Ir6  1  0.830525  0.661051  0.253339  1
  Ir  Ir7  1  0.338949  0.169475  0.253339  1
  Ir  Ir8  1  0.169475  0.830525  0.746661  1
  Ir  Ir9  1  0.169475  0.338949  0.746661  1
  Ir  Ir10  1  0.661051  0.830525  0.746661  1
  Ru  Ru11  1  0.000000  0.000000  0.000000  1
