# generated using pymatgen
data_Tb3YZn4Pd3Ru
_symmetry_space_group_name_H-M   'P 1'
_cell_length_a   4.06461300
_cell_length_b   7.07808403
_cell_length_c   8.23399015
_cell_angle_alpha   89.67436088
_cell_angle_beta   90.00000000
_cell_angle_gamma   90.00000000
_symmetry_Int_Tables_number   1
_chemical_formula_structural   Tb3YZn4Pd3Ru
_chemical_formula_sum   'Tb3 Y1 Zn4 Pd3 Ru1'
_cell_volume   236.88537263
_cell_formula_units_Z   1
loop_
 _symmetry_equiv_pos_site_id
 _symmetry_equiv_pos_as_xyz
  1  'x, y, z'
loop_
 _atom_site_type_symbol
 _atom_site_label
 _atom_site_symmetry_multiplicity
 _atom_site_fract_x
 _atom_site_fract_y
 _atom_site_fract_z
 _atom_site_occupancy
  Tb  Tb0  1  0.250000  0.049144  0.319958  1
  Tb  Tb1  1  0.750000  0.963872  0.685620  1
  Tb  Tb2  1  0.750000  0.449786  0.804826  1
  Y  Y3  1  0.250000  0.543708  0.187128  1
  Zn  Zn4  1  0.250000  0.631831  0.565486  1
  Zn  Zn5  1  0.250000  0.139009  0.931312  1
  Zn  Zn6  1  0.750000  0.360917  0.437970  1
  Zn  Zn7  1  0.750000  0.863934  0.066564  1
  Pd  Pd8  1  0.250000  0.754279  0.881611  1
  Pd  Pd9  1  0.750000  0.746308  0.380329  1
  Pd  Pd10  1  0.750000  0.247258  0.120302  1
  Ru  Ru11  1  0.250000  0.249953  0.618892  1
