# generated using pymatgen
data_AsIr3Se7
_symmetry_space_group_name_H-M   'P 1'
_cell_length_a   6.04302325
_cell_length_b   6.04302420
_cell_length_c   6.04302368
_cell_angle_alpha   90.56423703
_cell_angle_beta   90.56424285
_cell_angle_gamma   90.56423697
_symmetry_Int_Tables_number   1
_chemical_formula_structural   AsIr3Se7
_chemical_formula_sum   'As1 Ir3 Se7'
_cell_volume   220.64764487
_cell_formula_units_Z   1
loop_
 _symmetry_equiv_pos_site_id
 _symmetry_equiv_pos_as_xyz
  1  'x, y, z'
loop_
 _atom_site_type_symbol
 _atom_site_label
 _atom_site_symmetry_multiplicity
 _atom_site_fract_x
 _atom_site_fract_y
 _atom_site_fract_z
 _atom_site_occupancy
  As  As0  1  0.621851  0.621851  0.621851  1
  Ir  Ir1  1  0.500740  0.994962  0.500773  1
  Ir  Ir2  1  0.994962  0.500773  0.500740  1
  Ir  Ir3  1  0.500773  0.500740  0.994962  1
  Se  Se4  1  0.616728  0.883363  0.119379  1
  Se  Se5  1  0.883363  0.119379  0.616728  1
  Se  Se6  1  0.119379  0.616728  0.883363  1
  Se  Se7  1  0.382619  0.382619  0.382619  1
  Se  Se8  1  0.879856  0.384496  0.115233  1
  Se  Se9  1  0.115233  0.879856  0.384496  1
  Se  Se10  1  0.384496  0.115233  0.879856  1
