# generated using pymatgen
data_Tb11Y4Er(In3Co)2
_symmetry_space_group_name_H-M   'P 1'
_cell_length_a   10.40350300
_cell_length_b   10.40095141
_cell_length_c   7.05338135
_cell_angle_alpha   90.01868904
_cell_angle_beta   90.00000000
_cell_angle_gamma   120.00811872
_symmetry_Int_Tables_number   1
_chemical_formula_structural   Tb11Y4Er(In3Co)2
_chemical_formula_sum   'Tb11 Y4 Er1 In6 Co2'
_cell_volume   660.91421830
_cell_formula_units_Z   1
loop_
 _symmetry_equiv_pos_site_id
 _symmetry_equiv_pos_as_xyz
  1  'x, y, z'
loop_
 _atom_site_type_symbol
 _atom_site_label
 _atom_site_symmetry_multiplicity
 _atom_site_fract_x
 _atom_site_fract_y
 _atom_site_fract_z
 _atom_site_occupancy
  Tb  Tb0  1  0.463678  0.535478  0.484170  1
  Tb  Tb1  1  0.071802  0.535478  0.484170  1
  Tb  Tb2  1  0.464362  0.928723  0.483577  1
  Tb  Tb3  1  0.535061  0.463997  0.983176  1
  Tb  Tb4  1  0.928937  0.463997  0.983176  1
  Tb  Tb5  1  0.535883  0.071765  0.983506  1
  Tb  Tb6  1  0.822164  0.177968  0.275618  1
  Tb  Tb7  1  0.355804  0.177968  0.275618  1
  Tb  Tb8  1  0.822050  0.644099  0.275510  1
  Tb  Tb9  1  0.178006  0.822302  0.775578  1
  Tb  Tb10  1  0.644296  0.822302  0.775578  1
  Y  Y11  1  0.332952  0.665903  0.091113  1
  Y  Y12  1  0.666699  0.333396  0.592198  1
  Y  Y13  1  0.000226  0.000452  0.495714  1
  Y  Y14  1  0.999947  0.999895  0.994550  1
  Er  Er15  1  0.178109  0.356218  0.775673  1
  In  In16  1  0.163095  0.836916  0.234323  1
  In  In17  1  0.673822  0.836916  0.234323  1
  In  In18  1  0.163055  0.326109  0.232686  1
  In  In19  1  0.838268  0.163654  0.734551  1
  In  In20  1  0.325386  0.163654  0.734551  1
  In  In21  1  0.836953  0.673907  0.734560  1
  Co  Co22  1  0.332750  0.665502  0.705327  1
  Co  Co23  1  0.666699  0.333398  0.205305  1
