# generated using pymatgen
data_HoPa(B4Os)2
_symmetry_space_group_name_H-M   'P 1'
_cell_length_a   3.58256700
_cell_length_b   5.98237823
_cell_length_c   11.59673416
_cell_angle_alpha   89.86390617
_cell_angle_beta   90.00000000
_cell_angle_gamma   90.00000000
_symmetry_Int_Tables_number   1
_chemical_formula_structural   HoPa(B4Os)2
_chemical_formula_sum   'Ho2 Pa2 B16 Os4'
_cell_volume   248.54364604
_cell_formula_units_Z   2
loop_
 _symmetry_equiv_pos_site_id
 _symmetry_equiv_pos_as_xyz
  1  'x, y, z'
loop_
 _atom_site_type_symbol
 _atom_site_label
 _atom_site_symmetry_multiplicity
 _atom_site_fract_x
 _atom_site_fract_y
 _atom_site_fract_z
 _atom_site_occupancy
  Ho  Ho0  1  0.000000  0.128952  0.148113  1
  Ho  Ho1  1  0.000000  0.871048  0.851887  1
  Pa  Pa2  1  0.000000  0.628920  0.349088  1
  Pa  Pa3  1  0.000000  0.371080  0.650912  1
  B  B4  1  0.500000  0.789973  0.186132  1
  B  B5  1  0.500000  0.210027  0.813868  1
  B  B6  1  0.500000  0.290715  0.312444  1
  B  B7  1  0.500000  0.709285  0.687556  1
  B  B8  1  0.500000  0.863480  0.030693  1
  B  B9  1  0.500000  0.136520  0.969307  1
  B  B10  1  0.500000  0.365943  0.467631  1
  B  B11  1  0.500000  0.634057  0.532369  1
  B  B12  1  0.500000  0.887381  0.453390  1
  B  B13  1  0.500000  0.112619  0.546610  1
  B  B14  1  0.500000  0.386334  0.045705  1
  B  B15  1  0.500000  0.613666  0.954295  1
  B  B16  1  0.500000  0.973388  0.307941  1
  B  B17  1  0.500000  0.026612  0.692059  1
  B  B18  1  0.500000  0.471518  0.190170  1
  B  B19  1  0.500000  0.528482  0.809830  1
  Os  Os20  1  0.000000  0.640547  0.095203  1
  Os  Os21  1  0.000000  0.359453  0.904797  1
  Os  Os22  1  0.000000  0.142008  0.404515  1
  Os  Os23  1  0.000000  0.857992  0.595485  1
