# generated using pymatgen
data_Tm4Lu6OsRu3
_symmetry_space_group_name_H-M   'P 1'
_cell_length_a   6.21048667
_cell_length_b   7.24485586
_cell_length_c   8.27360671
_cell_angle_alpha   97.03454698
_cell_angle_beta   112.01887649
_cell_angle_gamma   89.95206554
_symmetry_Int_Tables_number   1
_chemical_formula_structural   Tm4Lu6OsRu3
_chemical_formula_sum   'Tm4 Lu6 Os1 Ru3'
_cell_volume   342.10143773
_cell_formula_units_Z   1
loop_
 _symmetry_equiv_pos_site_id
 _symmetry_equiv_pos_as_xyz
  1  'x, y, z'
loop_
 _atom_site_type_symbol
 _atom_site_label
 _atom_site_symmetry_multiplicity
 _atom_site_fract_x
 _atom_site_fract_y
 _atom_site_fract_z
 _atom_site_occupancy
  Tm  Tm0  1  0.522185  0.084040  0.814572  1
  Tm  Tm1  1  0.477362  0.917708  0.185951  1
  Tm  Tm2  1  0.710547  0.416320  0.185782  1
  Tm  Tm3  1  0.292616  0.584046  0.817533  1
  Lu  Lu4  1  0.296629  0.316272  0.435143  1
  Lu  Lu5  1  0.701146  0.682933  0.563866  1
  Lu  Lu6  1  0.862285  0.183882  0.565130  1
  Lu  Lu7  1  0.138118  0.815331  0.434394  1
  Lu  Lu8  1  0.081210  0.250273  0.000214  1
  Lu  Lu9  1  0.919430  0.749594  0.000139  1
  Os  Os10  1  0.320713  0.577940  0.218794  1
  Ru  Ru11  1  0.677946  0.421555  0.779661  1
  Ru  Ru12  1  0.100651  0.922823  0.778092  1
  Ru  Ru13  1  0.899159  0.077282  0.220727  1
