# generated using pymatgen
data_Y2HoLu9Os4
_symmetry_space_group_name_H-M   'P 1'
_cell_length_a   6.20013600
_cell_length_b   7.37040725
_cell_length_c   8.81937500
_cell_angle_alpha   90.00000000
_cell_angle_beta   90.00000000
_cell_angle_gamma   89.87968542
_symmetry_Int_Tables_number   1
_chemical_formula_structural   Y2HoLu9Os4
_chemical_formula_sum   'Y2 Ho1 Lu9 Os4'
_cell_volume   403.02274148
_cell_formula_units_Z   1
loop_
 _symmetry_equiv_pos_site_id
 _symmetry_equiv_pos_as_xyz
  1  'x, y, z'
loop_
 _atom_site_type_symbol
 _atom_site_label
 _atom_site_symmetry_multiplicity
 _atom_site_fract_x
 _atom_site_fract_y
 _atom_site_fract_z
 _atom_site_occupancy
  Y  Y0  1  0.874706  0.536618  0.250000  1
  Y  Y1  1  0.125260  0.463699  0.750000  1
  Ho  Ho2  1  0.372730  0.958751  0.750000  1
  Lu  Lu3  1  0.339911  0.676111  0.063072  1
  Lu  Lu4  1  0.164741  0.172495  0.437473  1
  Lu  Lu5  1  0.660642  0.323049  0.562266  1
  Lu  Lu6  1  0.835919  0.828894  0.938842  1
  Lu  Lu7  1  0.660642  0.323049  0.937734  1
  Lu  Lu8  1  0.835919  0.828894  0.561158  1
  Lu  Lu9  1  0.339911  0.676111  0.436928  1
  Lu  Lu10  1  0.164741  0.172495  0.062527  1
  Lu  Lu11  1  0.626705  0.040801  0.250000  1
  Os  Os12  1  0.039646  0.884017  0.250000  1
  Os  Os13  1  0.454714  0.379783  0.250000  1
  Os  Os14  1  0.956851  0.117317  0.750000  1
  Os  Os15  1  0.546961  0.617917  0.750000  1
