# generated using pymatgen
data_Pr2Nd3Ta2BiO14
_symmetry_space_group_name_H-M   'P 1'
_cell_length_a   6.69810107
_cell_length_b   6.79005544
_cell_length_c   7.72910700
_cell_angle_alpha   90.00000000
_cell_angle_beta   90.00000000
_cell_angle_gamma   109.16615314
_symmetry_Int_Tables_number   1
_chemical_formula_structural   Pr2Nd3Ta2BiO14
_chemical_formula_sum   'Pr2 Nd3 Ta2 Bi1 O14'
_cell_volume   332.03870013
_cell_formula_units_Z   1
loop_
 _symmetry_equiv_pos_site_id
 _symmetry_equiv_pos_as_xyz
  1  'x, y, z'
loop_
 _atom_site_type_symbol
 _atom_site_label
 _atom_site_symmetry_multiplicity
 _atom_site_fract_x
 _atom_site_fract_y
 _atom_site_fract_z
 _atom_site_occupancy
  Pr  Pr0  1  0.539526  0.529673  0.500997  1
  Pr  Pr1  1  0.539526  0.529673  0.999003  1
  Nd  Nd2  1  0.010248  0.463688  0.750000  1
  Nd  Nd3  1  0.530970  0.003251  0.750000  1
  Nd  Nd4  1  0.450499  0.999999  0.250000  1
  Ta  Ta5  1  0.994976  0.995371  0.501193  1
  Ta  Ta6  1  0.994976  0.995371  0.998807  1
  Bi  Bi7  1  0.013762  0.503074  0.250000  1
  O  O8  1  0.938705  0.067477  0.750000  1
  O  O9  1  0.047424  0.961772  0.250000  1
  O  O10  1  0.368411  0.632364  0.250000  1
  O  O11  1  0.643414  0.362476  0.750000  1
  O  O12  1  0.378496  0.632045  0.750000  1
  O  O13  1  0.629980  0.358417  0.250000  1
  O  O14  1  0.300720  0.054952  0.968019  1
  O  O15  1  0.677967  0.924732  0.471022  1
  O  O16  1  0.300720  0.054952  0.531981  1
  O  O17  1  0.677967  0.924732  0.028978  1
  O  O18  1  0.053976  0.309344  0.468428  1
  O  O19  1  0.926879  0.693644  0.959313  1
  O  O20  1  0.926879  0.693644  0.540687  1
  O  O21  1  0.053976  0.309344  0.031572  1
