# generated using pymatgen
data_Nd5Nb3(Co4As3)4
_symmetry_space_group_name_H-M   'P 1'
_cell_length_a   12.71467200
_cell_length_b   12.71467254
_cell_length_c   3.87840400
_cell_angle_alpha   90.00000000
_cell_angle_beta   90.00000000
_cell_angle_gamma   120.00000380
_symmetry_Int_Tables_number   1
_chemical_formula_structural   Nd5Nb3(Co4As3)4
_chemical_formula_sum   'Nd5 Nb3 Co16 As12'
_cell_volume   542.99271375
_cell_formula_units_Z   1
loop_
 _symmetry_equiv_pos_site_id
 _symmetry_equiv_pos_as_xyz
  1  'x, y, z'
loop_
 _atom_site_type_symbol
 _atom_site_label
 _atom_site_symmetry_multiplicity
 _atom_site_fract_x
 _atom_site_fract_y
 _atom_site_fract_z
 _atom_site_occupancy
  Nd  Nd0  1  0.186066  0.186066  0.500000  1
  Nd  Nd1  1  0.813934  0.000000  0.500000  1
  Nd  Nd2  1  0.000000  0.813934  0.500000  1
  Nd  Nd3  1  0.333333  0.666667  0.000000  1
  Nd  Nd4  1  0.666667  0.333333  0.000000  1
  Nb  Nb5  1  0.562795  0.562795  0.000000  1
  Nb  Nb6  1  0.437205  0.000000  0.000000  1
  Nb  Nb7  1  0.000000  0.437205  0.000000  1
  Co  Co8  1  0.718028  0.718028  0.500000  1
  Co  Co9  1  0.281972  0.000000  0.500000  1
  Co  Co10  1  0.000000  0.281972  0.500000  1
  Co  Co11  1  0.177386  0.376129  0.000000  1
  Co  Co12  1  0.623871  0.801257  0.000000  1
  Co  Co13  1  0.198743  0.822614  0.000000  1
  Co  Co14  1  0.801257  0.623871  0.000000  1
  Co  Co15  1  0.822614  0.198743  0.000000  1
  Co  Co16  1  0.376129  0.177386  0.000000  1
  Co  Co17  1  0.357886  0.480747  0.500000  1
  Co  Co18  1  0.519253  0.877141  0.500000  1
  Co  Co19  1  0.122859  0.642114  0.500000  1
  Co  Co20  1  0.877141  0.519253  0.500000  1
  Co  Co21  1  0.642114  0.122859  0.500000  1
  Co  Co22  1  0.480747  0.357886  0.500000  1
  Co  Co23  1  0.000000  0.000000  0.000000  1
  As  As24  1  0.820155  0.820155  0.000000  1
  As  As25  1  0.179845  0.000000  0.000000  1
  As  As26  1  0.000000  0.179845  0.000000  1
  As  As27  1  0.168561  0.479247  0.500000  1
  As  As28  1  0.520753  0.689314  0.500000  1
  As  As29  1  0.310686  0.831439  0.500000  1
  As  As30  1  0.689314  0.520753  0.500000  1
  As  As31  1  0.831439  0.310686  0.500000  1
  As  As32  1  0.479247  0.168561  0.500000  1
  As  As33  1  0.361369  0.361369  0.000000  1
  As  As34  1  0.638631  0.000000  0.000000  1
  As  As35  1  0.000000  0.638631  0.000000  1
