# generated using pymatgen
data_SrAs12Ru3Pt
_symmetry_space_group_name_H-M   'P 1'
_cell_length_a   7.49188184
_cell_length_b   7.49188099
_cell_length_c   7.49834600
_cell_angle_alpha   109.48869676
_cell_angle_beta   109.48869444
_cell_angle_gamma   109.45374349
_symmetry_Int_Tables_number   1
_chemical_formula_structural   SrAs12Ru3Pt
_chemical_formula_sum   'Sr1 As12 Ru3 Pt1'
_cell_volume   323.91543923
_cell_formula_units_Z   1
loop_
 _symmetry_equiv_pos_site_id
 _symmetry_equiv_pos_as_xyz
  1  'x, y, z'
loop_
 _atom_site_type_symbol
 _atom_site_label
 _atom_site_symmetry_multiplicity
 _atom_site_fract_x
 _atom_site_fract_y
 _atom_site_fract_z
 _atom_site_occupancy
  Sr  Sr0  1  0.000000  0.000000  0.000000  1
  As  As1  1  0.847474  0.642676  0.500644  1
  As  As2  1  0.152526  0.357324  0.499356  1
  As  As3  1  0.150308  0.651609  0.802583  1
  As  As4  1  0.849692  0.348391  0.197417  1
  As  As5  1  0.651609  0.501300  0.849027  1
  As  As6  1  0.348391  0.498700  0.150973  1
  As  As7  1  0.642676  0.795203  0.142033  1
  As  As8  1  0.357324  0.204797  0.857967  1
  As  As9  1  0.501300  0.849692  0.652273  1
  As  As10  1  0.498700  0.150308  0.347727  1
  As  As11  1  0.204797  0.847474  0.346830  1
  As  As12  1  0.795203  0.152526  0.653170  1
  Ru  Ru13  1  0.500000  0.500000  0.500000  1
  Ru  Ru14  1  0.500000  0.000000  0.000000  1
  Ru  Ru15  1  0.000000  0.500000  0.000000  1
  Pt  Pt16  1  0.000000  0.000000  0.500000  1
