# generated using pymatgen
data_SmTm(Si2Rh3)2
_symmetry_space_group_name_H-M   'P 1'
_cell_length_a   6.63611406
_cell_length_b   6.63611429
_cell_length_c   6.63611411
_cell_angle_alpha   130.41991811
_cell_angle_beta   114.12472928
_cell_angle_gamma   86.72612190
_symmetry_Int_Tables_number   1
_chemical_formula_structural   SmTm(Si2Rh3)2
_chemical_formula_sum   'Sm1 Tm1 Si4 Rh6'
_cell_volume   193.75160972
_cell_formula_units_Z   1
loop_
 _symmetry_equiv_pos_site_id
 _symmetry_equiv_pos_as_xyz
  1  'x, y, z'
loop_
 _atom_site_type_symbol
 _atom_site_label
 _atom_site_symmetry_multiplicity
 _atom_site_fract_x
 _atom_site_fract_y
 _atom_site_fract_z
 _atom_site_occupancy
  Sm  Sm0  1  0.750000  0.038924  0.288924  1
  Tm  Tm1  1  0.250000  0.951120  0.701120  1
  Si  Si2  1  0.577977  0.383079  0.805102  1
  Si  Si3  1  0.922023  0.727124  0.805102  1
  Si  Si4  1  0.420775  0.614487  0.193711  1
  Si  Si5  1  0.079225  0.272936  0.193711  1
  Rh  Rh6  1  0.216280  0.505075  0.717209  1
  Rh  Rh7  1  0.787867  0.505075  0.288797  1
  Rh  Rh8  1  0.498385  0.500160  0.498544  1
  Rh  Rh9  1  0.001615  0.500160  0.001776  1
  Rh  Rh10  1  0.712133  0.000929  0.717209  1
  Rh  Rh11  1  0.283720  0.000929  0.288797  1
