# generated using pymatgen
data_SmDyErTaO7
_symmetry_space_group_name_H-M   'P 1'
_cell_length_a   6.49186975
_cell_length_b   6.49186978
_cell_length_c   7.53895018
_cell_angle_alpha   89.97392074
_cell_angle_beta   89.97392564
_cell_angle_gamma   108.93785008
_symmetry_Int_Tables_number   1
_chemical_formula_structural   SmDyErTaO7
_chemical_formula_sum   'Sm2 Dy2 Er2 Ta2 O14'
_cell_volume   300.52619067
_cell_formula_units_Z   2
loop_
 _symmetry_equiv_pos_site_id
 _symmetry_equiv_pos_as_xyz
  1  'x, y, z'
loop_
 _atom_site_type_symbol
 _atom_site_label
 _atom_site_symmetry_multiplicity
 _atom_site_fract_x
 _atom_site_fract_y
 _atom_site_fract_z
 _atom_site_occupancy
  Sm  Sm0  1  0.476219  0.475423  0.000844  1
  Sm  Sm1  1  0.524577  0.523781  0.499156  1
  Dy  Dy2  1  0.999286  0.466036  0.743836  1
  Dy  Dy3  1  0.533964  0.000714  0.756164  1
  Er  Er4  1  0.001154  0.534141  0.243600  1
  Er  Er5  1  0.465859  0.998846  0.256400  1
  Ta  Ta6  1  0.002227  0.002450  0.498957  1
  Ta  Ta7  1  0.997550  0.997773  0.001043  1
  O  O8  1  0.934417  0.065583  0.750000  1
  O  O9  1  0.641076  0.358924  0.750000  1
  O  O10  1  0.313793  0.059266  0.538601  1
  O  O11  1  0.940734  0.686207  0.961399  1
  O  O12  1  0.634999  0.365001  0.250000  1
  O  O13  1  0.922477  0.674037  0.524989  1
  O  O14  1  0.325963  0.077523  0.975011  1
  O  O15  1  0.076554  0.325476  0.028381  1
  O  O16  1  0.674524  0.923446  0.471619  1
  O  O17  1  0.366586  0.633414  0.750000  1
  O  O18  1  0.687360  0.943467  0.042537  1
  O  O19  1  0.056533  0.312640  0.457463  1
  O  O20  1  0.356454  0.643546  0.250000  1
  O  O21  1  0.067693  0.932307  0.250000  1
