# generated using pymatgen
data_Dy5P12Ir3Ru13Rh3
_symmetry_space_group_name_H-M   'P 1'
_cell_length_a   12.58631872
_cell_length_b   12.55808610
_cell_length_c   3.95806600
_cell_angle_alpha   90.00000000
_cell_angle_beta   90.00000000
_cell_angle_gamma   119.91872393
_symmetry_Int_Tables_number   1
_chemical_formula_structural   Dy5P12Ir3Ru13Rh3
_chemical_formula_sum   'Dy5 P12 Ir3 Ru13 Rh3'
_cell_volume   542.23924392
_cell_formula_units_Z   1
loop_
 _symmetry_equiv_pos_site_id
 _symmetry_equiv_pos_as_xyz
  1  'x, y, z'
loop_
 _atom_site_type_symbol
 _atom_site_label
 _atom_site_symmetry_multiplicity
 _atom_site_fract_x
 _atom_site_fract_y
 _atom_site_fract_z
 _atom_site_occupancy
  Dy  Dy0  1  0.666515  0.333002  0.000000  1
  Dy  Dy1  1  0.333216  0.666584  0.000000  1
  Dy  Dy2  1  0.813449  0.001383  0.500000  1
  Dy  Dy3  1  0.185302  0.186407  0.500000  1
  Dy  Dy4  1  0.000034  0.813208  0.500000  1
  P  P5  1  0.629670  0.003325  0.000000  1
  P  P6  1  0.372996  0.372428  0.000000  1
  P  P7  1  0.999977  0.628124  0.000000  1
  P  P8  1  0.688097  0.517490  0.500000  1
  P  P9  1  0.828797  0.308037  0.500000  1
  P  P10  1  0.313182  0.831245  0.500000  1
  P  P11  1  0.518083  0.686511  0.500000  1
  P  P12  1  0.181713  0.000470  0.000000  1
  P  P13  1  0.817354  0.817936  0.000000  1
  P  P14  1  0.997063  0.183808  0.000000  1
  P  P15  1  0.481609  0.168205  0.500000  1
  P  P16  1  0.169552  0.482274  0.500000  1
  Ir  Ir17  1  0.191341  0.817688  0.000000  1
  Ir  Ir18  1  0.807480  0.624230  0.000000  1
  Ir  Ir19  1  0.999444  0.001094  0.000000  1
  Ru  Ru20  1  0.872414  0.508868  0.500000  1
  Ru  Ru21  1  0.489162  0.360783  0.500000  1
  Ru  Ru22  1  0.636486  0.124158  0.500000  1
  Ru  Ru23  1  0.128659  0.639843  0.500000  1
  Ru  Ru24  1  0.361087  0.487664  0.500000  1
  Ru  Ru25  1  0.510597  0.870800  0.500000  1
  Ru  Ru26  1  0.716643  0.716690  0.500000  1
  Ru  Ru27  1  0.002355  0.285435  0.500000  1
  Ru  Ru28  1  0.445456  0.997669  0.000000  1
  Ru  Ru29  1  0.553032  0.552908  0.000000  1
  Ru  Ru30  1  0.003937  0.449465  0.000000  1
  Ru  Ru31  1  0.818250  0.196324  0.000000  1
  Ru  Ru32  1  0.283434  0.000442  0.500000  1
  Rh  Rh33  1  0.624711  0.807939  0.000000  1
  Rh  Rh34  1  0.184054  0.374991  0.000000  1
  Rh  Rh35  1  0.374853  0.182571  0.000000  1
