# generated using pymatgen
data_Zr3(VRe2)2
_symmetry_space_group_name_H-M   'P 1'
_cell_length_a   5.26514854
_cell_length_b   5.26729970
_cell_length_c   12.96101198
_cell_angle_alpha   89.94486618
_cell_angle_beta   89.89840461
_cell_angle_gamma   60.17760419
_symmetry_Int_Tables_number   1
_chemical_formula_structural   Zr3(VRe2)2
_chemical_formula_sum   'Zr6 V4 Re8'
_cell_volume   311.84729108
_cell_formula_units_Z   2
loop_
 _symmetry_equiv_pos_site_id
 _symmetry_equiv_pos_as_xyz
  1  'x, y, z'
loop_
 _atom_site_type_symbol
 _atom_site_label
 _atom_site_symmetry_multiplicity
 _atom_site_fract_x
 _atom_site_fract_y
 _atom_site_fract_z
 _atom_site_occupancy
  Zr  Zr0  1  0.333538  0.332961  0.791610  1
  Zr  Zr1  1  0.999331  0.997779  0.125533  1
  Zr  Zr2  1  0.665035  0.666505  0.459079  1
  Zr  Zr3  1  0.334965  0.333495  0.540921  1
  Zr  Zr4  1  0.000669  0.002221  0.874467  1
  Zr  Zr5  1  0.666462  0.667039  0.208390  1
  V  V6  1  0.500000  0.500000  0.000000  1
  V  V7  1  0.165174  0.166463  0.333161  1
  V  V8  1  0.834826  0.833537  0.666839  1
  V  V9  1  0.000000  0.500000  0.000000  1
  Re  Re10  1  0.664013  0.167001  0.332575  1
  Re  Re11  1  0.335987  0.832999  0.667425  1
  Re  Re12  1  0.328859  0.333920  0.163276  1
  Re  Re13  1  0.000000  0.000000  0.500000  1
  Re  Re14  1  0.671141  0.666080  0.836724  1
  Re  Re15  1  0.500000  0.000000  0.000000  1
  Re  Re16  1  0.165961  0.665524  0.332476  1
  Re  Re17  1  0.834039  0.334476  0.667524  1
