# generated using pymatgen
data_Er16In4TcPd3
_symmetry_space_group_name_H-M   'P 1'
_cell_length_a   9.67027343
_cell_length_b   9.67027215
_cell_length_c   9.67027322
_cell_angle_alpha   59.37337206
_cell_angle_beta   59.37337561
_cell_angle_gamma   59.37337704
_symmetry_Int_Tables_number   1
_chemical_formula_structural   Er16In4TcPd3
_chemical_formula_sum   'Er16 In4 Tc1 Pd3'
_cell_volume   630.32231285
_cell_formula_units_Z   1
loop_
 _symmetry_equiv_pos_site_id
 _symmetry_equiv_pos_as_xyz
  1  'x, y, z'
loop_
 _atom_site_type_symbol
 _atom_site_label
 _atom_site_symmetry_multiplicity
 _atom_site_fract_x
 _atom_site_fract_y
 _atom_site_fract_z
 _atom_site_occupancy
  Er  Er0  1  0.352624  0.352624  0.352624  1
  Er  Er1  1  0.351777  0.351777  0.943192  1
  Er  Er2  1  0.351777  0.943192  0.351777  1
  Er  Er3  1  0.943192  0.351777  0.351777  1
  Er  Er4  1  0.816792  0.188283  0.188283  1
  Er  Er5  1  0.188849  0.810467  0.810467  1
  Er  Er6  1  0.188283  0.816792  0.188283  1
  Er  Er7  1  0.810467  0.188849  0.810467  1
  Er  Er8  1  0.188283  0.188283  0.816792  1
  Er  Er9  1  0.810467  0.810467  0.188849  1
  Er  Er10  1  0.932735  0.564624  0.564624  1
  Er  Er11  1  0.554897  0.939699  0.939699  1
  Er  Er12  1  0.564624  0.932735  0.564624  1
  Er  Er13  1  0.939699  0.554897  0.939699  1
  Er  Er14  1  0.564624  0.564624  0.932735  1
  Er  Er15  1  0.939699  0.939699  0.554897  1
  In  In16  1  0.584529  0.584529  0.584529  1
  In  In17  1  0.583132  0.583132  0.248627  1
  In  In18  1  0.583132  0.248627  0.583132  1
  In  In19  1  0.248627  0.583132  0.583132  1
  Tc  Tc20  1  0.144994  0.144994  0.144994  1
  Pd  Pd21  1  0.144255  0.144255  0.568283  1
  Pd  Pd22  1  0.144255  0.568283  0.144255  1
  Pd  Pd23  1  0.568283  0.144255  0.144255  1
