# generated using pymatgen
data_Cs4Ti6BCl17
_symmetry_space_group_name_H-M   'P 1'
_cell_length_a   11.60599000
_cell_length_b   11.60599000
_cell_length_c   10.71869900
_cell_angle_alpha   90.00000000
_cell_angle_beta   90.00000000
_cell_angle_gamma   90.00000000
_symmetry_Int_Tables_number   1
_chemical_formula_structural   Cs4Ti6BCl17
_chemical_formula_sum   'Cs8 Ti12 B2 Cl34'
_cell_volume   1443.79807819
_cell_formula_units_Z   2
loop_
 _symmetry_equiv_pos_site_id
 _symmetry_equiv_pos_as_xyz
  1  'x, y, z'
loop_
 _atom_site_type_symbol
 _atom_site_label
 _atom_site_symmetry_multiplicity
 _atom_site_fract_x
 _atom_site_fract_y
 _atom_site_fract_z
 _atom_site_occupancy
  Cs  Cs0  1  0.224714  0.020258  0.336994  1
  Cs  Cs1  1  0.479742  0.275286  0.336994  1
  Cs  Cs2  1  0.520257  0.724714  0.336994  1
  Cs  Cs3  1  0.775286  0.979742  0.336994  1
  Cs  Cs4  1  0.979742  0.224714  0.663005  1
  Cs  Cs5  1  0.724714  0.479742  0.663005  1
  Cs  Cs6  1  0.275286  0.520257  0.663005  1
  Cs  Cs7  1  0.020258  0.775286  0.663005  1
  Ti  Ti8  1  0.094351  0.405649  0.016396  1
  Ti  Ti9  1  0.905649  0.594350  0.016396  1
  Ti  Ti10  1  0.868832  0.368832  0.154469  1
  Ti  Ti11  1  0.131169  0.631169  0.154469  1
  Ti  Ti12  1  0.093843  0.406156  0.299955  1
  Ti  Ti13  1  0.906156  0.593844  0.299955  1
  Ti  Ti14  1  0.593844  0.093843  0.700045  1
  Ti  Ti15  1  0.406156  0.906156  0.700045  1
  Ti  Ti16  1  0.368832  0.131169  0.845531  1
  Ti  Ti17  1  0.631169  0.868832  0.845531  1
  Ti  Ti18  1  0.594350  0.094351  0.983603  1
  Ti  Ti19  1  0.405649  0.905649  0.983603  1
  B  B20  1  0.000000  0.500000  0.157291  1
  B  B21  1  0.500000  0.000000  0.842710  1
  Cl  Cl22  1  0.248664  0.039913  0.000176  1
  Cl  Cl23  1  0.460087  0.251336  0.000176  1
  Cl  Cl24  1  0.539913  0.748664  0.000176  1
  Cl  Cl25  1  0.751335  0.960086  0.000176  1
  Cl  Cl26  1  0.708203  0.208203  0.154194  1
  Cl  Cl27  1  0.291797  0.791797  0.154194  1
  Cl  Cl28  1  0.206441  0.293560  0.158943  1
  Cl  Cl29  1  0.793559  0.706440  0.158943  1
  Cl  Cl30  1  0.500000  0.000000  0.162560  1
  Cl  Cl31  1  0.955791  0.250774  0.313473  1
  Cl  Cl32  1  0.750774  0.455791  0.313473  1
  Cl  Cl33  1  0.249226  0.544209  0.313473  1
  Cl  Cl34  1  0.044209  0.749226  0.313473  1
  Cl  Cl35  1  0.204101  0.295898  0.464439  1
  Cl  Cl36  1  0.795898  0.704102  0.464439  1
  Cl  Cl37  1  0.000000  0.500000  0.478056  1
  Cl  Cl38  1  0.000000  0.000000  0.500001  1
  Cl  Cl39  1  0.500000  0.500000  0.500001  1
  Cl  Cl40  1  0.500000  0.000000  0.521944  1
  Cl  Cl41  1  0.704102  0.204101  0.535562  1
  Cl  Cl42  1  0.295898  0.795898  0.535562  1
  Cl  Cl43  1  0.250774  0.044209  0.686527  1
  Cl  Cl44  1  0.455791  0.249226  0.686527  1
  Cl  Cl45  1  0.544209  0.750774  0.686527  1
  Cl  Cl46  1  0.749226  0.955791  0.686527  1
  Cl  Cl47  1  0.000000  0.500000  0.837441  1
  Cl  Cl48  1  0.706440  0.206441  0.841057  1
  Cl  Cl49  1  0.293560  0.793559  0.841057  1
  Cl  Cl50  1  0.208203  0.291797  0.845807  1
  Cl  Cl51  1  0.791797  0.708203  0.845807  1
  Cl  Cl52  1  0.960086  0.248664  0.999824  1
  Cl  Cl53  1  0.748664  0.460087  0.999824  1
  Cl  Cl54  1  0.251336  0.539913  0.999824  1
  Cl  Cl55  1  0.039913  0.751335  0.999824  1
