# generated using pymatgen
data_La20CoBi8Ru2Pt
_symmetry_space_group_name_H-M   'P 1'
_cell_length_a   8.52096363
_cell_length_b   9.34945500
_cell_length_c   13.04619111
_cell_angle_alpha   90.00000000
_cell_angle_beta   90.28026562
_cell_angle_gamma   90.00000000
_symmetry_Int_Tables_number   1
_chemical_formula_structural   La20CoBi8Ru2Pt
_chemical_formula_sum   'La20 Co1 Bi8 Ru2 Pt1'
_cell_volume   1039.33020102
_cell_formula_units_Z   1
loop_
 _symmetry_equiv_pos_site_id
 _symmetry_equiv_pos_as_xyz
  1  'x, y, z'
loop_
 _atom_site_type_symbol
 _atom_site_label
 _atom_site_symmetry_multiplicity
 _atom_site_fract_x
 _atom_site_fract_y
 _atom_site_fract_z
 _atom_site_occupancy
  La  La0  1  0.849585  0.750000  0.802719  1
  La  La1  1  0.148675  0.250000  0.200544  1
  La  La2  1  0.344057  0.250000  0.708921  1
  La  La3  1  0.648866  0.750000  0.297198  1
  La  La4  1  0.376619  0.750000  0.693215  1
  La  La5  1  0.627568  0.250000  0.302104  1
  La  La6  1  0.877095  0.250000  0.807862  1
  La  La7  1  0.120793  0.750000  0.189858  1
  La  La8  1  0.948220  0.750000  0.504015  1
  La  La9  1  0.053079  0.250000  0.496829  1
  La  La10  1  0.448816  0.250000  0.996997  1
  La  La11  1  0.557978  0.750000  0.004149  1
  La  La12  1  0.682085  0.031395  0.564934  1
  La  La13  1  0.316130  0.951182  0.433823  1
  La  La14  1  0.181103  0.962844  0.936658  1
  La  La15  1  0.316130  0.548818  0.433823  1
  La  La16  1  0.820269  0.036829  0.062269  1
  La  La17  1  0.682085  0.468605  0.564934  1
  La  La18  1  0.820269  0.463171  0.062269  1
  La  La19  1  0.181103  0.537156  0.936658  1
  Co  Co20  1  0.925738  0.750000  0.008459  1
  Bi  Bi21  1  0.572918  0.493930  0.828096  1
  Bi  Bi22  1  0.425553  0.506933  0.172923  1
  Bi  Bi23  1  0.071663  0.506654  0.673602  1
  Bi  Bi24  1  0.425553  0.993067  0.172923  1
  Bi  Bi25  1  0.926272  0.494159  0.326257  1
  Bi  Bi26  1  0.572918  0.006070  0.828096  1
  Bi  Bi27  1  0.926272  0.005841  0.326257  1
  Bi  Bi28  1  0.071663  0.993346  0.673602  1
  Ru  Ru29  1  0.577692  0.750000  0.511940  1
  Ru  Ru30  1  0.078292  0.250000  0.987646  1
  Pt  Pt31  1  0.424936  0.250000  0.490422  1
