# generated using pymatgen
data_La7DyGaPd24
_symmetry_space_group_name_H-M   'P 1'
_cell_length_a   8.54447227
_cell_length_b   8.54447231
_cell_length_c   8.54447200
_cell_angle_alpha   89.69853513
_cell_angle_beta   89.69853513
_cell_angle_gamma   89.69853564
_symmetry_Int_Tables_number   1
_chemical_formula_structural   La7DyGaPd24
_chemical_formula_sum   'La7 Dy1 Ga1 Pd24'
_cell_volume   623.78905522
_cell_formula_units_Z   1
loop_
 _symmetry_equiv_pos_site_id
 _symmetry_equiv_pos_as_xyz
  1  'x, y, z'
loop_
 _atom_site_type_symbol
 _atom_site_label
 _atom_site_symmetry_multiplicity
 _atom_site_fract_x
 _atom_site_fract_y
 _atom_site_fract_z
 _atom_site_occupancy
  La  La0  1  0.747620  0.747620  0.747620  1
  La  La1  1  0.747651  0.747651  0.252221  1
  La  La2  1  0.747651  0.252221  0.747651  1
  La  La3  1  0.252440  0.252440  0.748644  1
  La  La4  1  0.252440  0.748644  0.252440  1
  La  La5  1  0.252221  0.747651  0.747651  1
  La  La6  1  0.748644  0.252440  0.252440  1
  Dy  Dy7  1  0.252180  0.252180  0.252180  1
  Ga  Ga8  1  0.998813  0.998813  0.998813  1
  Pd  Pd9  1  0.260930  0.497098  0.005237  1
  Pd  Pd10  1  0.739246  0.499150  0.000094  1
  Pd  Pd11  1  0.005237  0.260930  0.497098  1
  Pd  Pd12  1  0.497098  0.260930  0.005237  1
  Pd  Pd13  1  0.000094  0.739246  0.499150  1
  Pd  Pd14  1  0.499150  0.739246  0.000094  1
  Pd  Pd15  1  0.497098  0.005237  0.260930  1
  Pd  Pd16  1  0.260930  0.005237  0.497098  1
  Pd  Pd17  1  0.499150  0.000094  0.739246  1
  Pd  Pd18  1  0.739246  0.000094  0.499150  1
  Pd  Pd19  1  0.005237  0.497098  0.260930  1
  Pd  Pd20  1  0.000094  0.499150  0.739246  1
  Pd  Pd21  1  0.253478  0.496626  0.496626  1
  Pd  Pd22  1  0.746696  0.499469  0.499469  1
  Pd  Pd23  1  0.496626  0.253478  0.496626  1
  Pd  Pd24  1  0.499469  0.746696  0.499469  1
  Pd  Pd25  1  0.496626  0.496626  0.253478  1
  Pd  Pd26  1  0.499469  0.499469  0.746696  1
  Pd  Pd27  1  0.292154  0.003741  0.003741  1
  Pd  Pd28  1  0.704797  0.000019  0.000019  1
  Pd  Pd29  1  0.003741  0.292154  0.003741  1
  Pd  Pd30  1  0.000019  0.704797  0.000019  1
  Pd  Pd31  1  0.003741  0.003741  0.292154  1
  Pd  Pd32  1  0.000019  0.000019  0.704797  1
