# generated using pymatgen
data_ErMg2(Co3B2)3
_symmetry_space_group_name_H-M   'P 1'
_cell_length_a   5.70103548
_cell_length_b   5.70103653
_cell_length_c   5.70103509
_cell_angle_alpha   95.87362574
_cell_angle_beta   95.87363613
_cell_angle_gamma   95.87363437
_symmetry_Int_Tables_number   1
_chemical_formula_structural   ErMg2(Co3B2)3
_chemical_formula_sum   'Er1 Mg2 Co9 B6'
_cell_volume   182.15814613
_cell_formula_units_Z   1
loop_
 _symmetry_equiv_pos_site_id
 _symmetry_equiv_pos_as_xyz
  1  'x, y, z'
loop_
 _atom_site_type_symbol
 _atom_site_label
 _atom_site_symmetry_multiplicity
 _atom_site_fract_x
 _atom_site_fract_y
 _atom_site_fract_z
 _atom_site_occupancy
  Er  Er0  1  0.327875  0.327875  0.327875  1
  Mg  Mg1  1  0.993035  0.993035  0.993035  1
  Mg  Mg2  1  0.675627  0.675627  0.675627  1
  Co  Co3  1  0.993604  0.993604  0.501240  1
  Co  Co4  1  0.501240  0.993604  0.993604  1
  Co  Co5  1  0.993604  0.501240  0.993604  1
  Co  Co6  1  0.703732  0.204687  0.703732  1
  Co  Co7  1  0.703732  0.703732  0.204687  1
  Co  Co8  1  0.204687  0.703732  0.703732  1
  Co  Co9  1  0.294440  0.804371  0.294440  1
  Co  Co10  1  0.294440  0.294440  0.804371  1
  Co  Co11  1  0.804371  0.294440  0.294440  1
  B  B12  1  0.618070  0.389472  0.997263  1
  B  B13  1  0.997263  0.618070  0.389472  1
  B  B14  1  0.389472  0.997263  0.618070  1
  B  B15  1  0.997263  0.389472  0.618070  1
  B  B16  1  0.618070  0.997263  0.389472  1
  B  B17  1  0.389472  0.618070  0.997263  1
