# generated using pymatgen
data_YI28
_symmetry_space_group_name_H-M   'P 1'
_cell_length_a   10.67681737
_cell_length_b   14.33344904
_cell_length_c   12.98270300
_cell_angle_alpha   108.44914254
_cell_angle_beta   105.43469067
_cell_angle_gamma   86.57346759
_symmetry_Int_Tables_number   1
_chemical_formula_structural   YI28
_chemical_formula_sum   'Y1 I28'
_cell_volume   1816.08072199
_cell_formula_units_Z   1
loop_
 _symmetry_equiv_pos_site_id
 _symmetry_equiv_pos_as_xyz
  1  'x, y, z'
loop_
 _atom_site_type_symbol
 _atom_site_label
 _atom_site_symmetry_multiplicity
 _atom_site_fract_x
 _atom_site_fract_y
 _atom_site_fract_z
 _atom_site_occupancy
  Y  Y0  1  0.500000  0.000000  0.000000  1
  I  I1  1  0.139905  0.125133  0.425861  1
  I  I2  1  0.583796  0.151960  0.447504  1
  I  I3  1  0.289812  0.267673  0.855384  1
  I  I4  1  0.806090  0.271207  0.872941  1
  I  I5  1  0.200091  0.499945  0.659110  1
  I  I6  1  0.772688  0.545638  0.723365  1
  I  I7  1  0.416204  0.848040  0.552496  1
  I  I8  1  0.860095  0.874867  0.574139  1
  I  I9  1  0.193910  0.728793  0.127059  1
  I  I10  1  0.710188  0.732327  0.144616  1
  I  I11  1  0.227312  0.454362  0.276635  1
  I  I12  1  0.799909  0.500055  0.340890  1
  I  I13  1  0.843781  0.062768  0.738223  1
  I  I14  1  0.318495  0.962453  0.778519  1
  I  I15  1  0.985683  0.643003  0.933305  1
  I  I16  1  0.506485  0.784507  0.957709  1
  I  I17  1  0.704017  0.347904  0.390297  1
  I  I18  1  0.194464  0.289840  0.351614  1
  I  I19  1  0.681505  0.037547  0.221481  1
  I  I20  1  0.156219  0.937232  0.261777  1
  I  I21  1  0.493515  0.215493  0.042291  1
  I  I22  1  0.014317  0.356997  0.066695  1
  I  I23  1  0.805536  0.710160  0.648386  1
  I  I24  1  0.295983  0.652096  0.609703  1
  I  I25  1  0.085154  0.314280  0.689505  1
  I  I26  1  0.507851  0.246110  0.641155  1
  I  I27  1  0.492149  0.753890  0.358845  1
  I  I28  1  0.914846  0.685720  0.310495  1
