# generated using pymatgen
data_Pr5CoSn2
_symmetry_space_group_name_H-M   'P 1'
_cell_length_a   8.22244500
_cell_length_b   9.21146900
_cell_length_c   12.76667300
_cell_angle_alpha   90.00000000
_cell_angle_beta   90.00000000
_cell_angle_gamma   90.00000000
_symmetry_Int_Tables_number   1
_chemical_formula_structural   Pr5CoSn2
_chemical_formula_sum   'Pr20 Co4 Sn8'
_cell_volume   966.95799089
_cell_formula_units_Z   4
loop_
 _symmetry_equiv_pos_site_id
 _symmetry_equiv_pos_as_xyz
  1  'x, y, z'
loop_
 _atom_site_type_symbol
 _atom_site_label
 _atom_site_symmetry_multiplicity
 _atom_site_fract_x
 _atom_site_fract_y
 _atom_site_fract_z
 _atom_site_occupancy
  Pr  Pr0  1  0.839049  0.750000  0.791815  1
  Pr  Pr1  1  0.160951  0.250000  0.208185  1
  Pr  Pr2  1  0.339049  0.250000  0.708185  1
  Pr  Pr3  1  0.660951  0.750000  0.291815  1
  Pr  Pr4  1  0.364918  0.750000  0.693053  1
  Pr  Pr5  1  0.635082  0.250000  0.306947  1
  Pr  Pr6  1  0.864918  0.250000  0.806947  1
  Pr  Pr7  1  0.135082  0.750000  0.193053  1
  Pr  Pr8  1  0.949174  0.750000  0.502256  1
  Pr  Pr9  1  0.050826  0.250000  0.497744  1
  Pr  Pr10  1  0.449174  0.250000  0.997744  1
  Pr  Pr11  1  0.550826  0.750000  0.002256  1
  Pr  Pr12  1  0.673771  0.027962  0.571316  1
  Pr  Pr13  1  0.326229  0.972038  0.428684  1
  Pr  Pr14  1  0.173771  0.972038  0.928684  1
  Pr  Pr15  1  0.326229  0.527962  0.428684  1
  Pr  Pr16  1  0.826229  0.027962  0.071316  1
  Pr  Pr17  1  0.673771  0.472038  0.571316  1
  Pr  Pr18  1  0.826229  0.472038  0.071316  1
  Pr  Pr19  1  0.173771  0.527962  0.928684  1
  Co  Co20  1  0.577250  0.750000  0.508305  1
  Co  Co21  1  0.422750  0.250000  0.491695  1
  Co  Co22  1  0.077250  0.250000  0.991695  1
  Co  Co23  1  0.922750  0.750000  0.008305  1
  Sn  Sn24  1  0.560272  0.496321  0.827243  1
  Sn  Sn25  1  0.439728  0.503679  0.172757  1
  Sn  Sn26  1  0.060272  0.503679  0.672757  1
  Sn  Sn27  1  0.439728  0.996321  0.172757  1
  Sn  Sn28  1  0.939728  0.496321  0.327243  1
  Sn  Sn29  1  0.560272  0.003679  0.827243  1
  Sn  Sn30  1  0.939728  0.003679  0.327243  1
  Sn  Sn31  1  0.060272  0.996321  0.672757  1
