# generated using pymatgen
data_Li2B2IrOs
_symmetry_space_group_name_H-M   'P 1'
_cell_length_a   6.88392226
_cell_length_b   6.06747322
_cell_length_c   5.52786124
_cell_angle_alpha   72.66858974
_cell_angle_beta   57.28615677
_cell_angle_gamma   50.57536480
_symmetry_Int_Tables_number   1
_chemical_formula_structural   Li2B2IrOs
_chemical_formula_sum   'Li4 B4 Ir2 Os2'
_cell_volume   149.69638239
_cell_formula_units_Z   2
loop_
 _symmetry_equiv_pos_site_id
 _symmetry_equiv_pos_as_xyz
  1  'x, y, z'
loop_
 _atom_site_type_symbol
 _atom_site_label
 _atom_site_symmetry_multiplicity
 _atom_site_fract_x
 _atom_site_fract_y
 _atom_site_fract_z
 _atom_site_occupancy
  Li  Li0  1  0.125000  0.625000  0.625000  1
  Li  Li1  1  0.625000  0.625000  0.625000  1
  Li  Li2  1  0.625000  0.625000  0.125000  1
  Li  Li3  1  0.625000  0.125000  0.625000  1
  B  B4  1  0.434150  0.068523  0.426498  1
  B  B5  1  0.181477  0.815850  0.179170  1
  B  B6  1  0.068523  0.434150  0.070830  1
  B  B7  1  0.815850  0.181477  0.823502  1
  Ir  Ir8  1  0.135579  0.135579  0.864421  1
  Ir  Ir9  1  0.114421  0.114421  0.385579  1
  Os  Os10  1  0.383417  0.383417  0.116583  1
  Os  Os11  1  0.866583  0.866583  0.133417  1
