# generated using pymatgen
data_DyY3Er4(B6Rh)4
_symmetry_space_group_name_H-M   'P 1'
_cell_length_a   3.65424200
_cell_length_b   9.16547101
_cell_length_c   11.50905902
_cell_angle_alpha   89.99349225
_cell_angle_beta   90.00000000
_cell_angle_gamma   90.00000000
_symmetry_Int_Tables_number   1
_chemical_formula_structural   DyY3Er4(B6Rh)4
_chemical_formula_sum   'Dy1 Y3 Er4 B24 Rh4'
_cell_volume   385.47117487
_cell_formula_units_Z   1
loop_
 _symmetry_equiv_pos_site_id
 _symmetry_equiv_pos_as_xyz
  1  'x, y, z'
loop_
 _atom_site_type_symbol
 _atom_site_label
 _atom_site_symmetry_multiplicity
 _atom_site_fract_x
 _atom_site_fract_y
 _atom_site_fract_z
 _atom_site_occupancy
  Dy  Dy0  1  0.500000  0.822099  0.086200  1
  Y  Y1  1  0.500000  0.322015  0.413760  1
  Y  Y2  1  0.500000  0.678029  0.586210  1
  Y  Y3  1  0.500000  0.177996  0.913862  1
  Er  Er4  1  0.500000  0.444107  0.126843  1
  Er  Er5  1  0.500000  0.555873  0.873081  1
  Er  Er6  1  0.500000  0.055822  0.626990  1
  Er  Er7  1  0.500000  0.944130  0.373100  1
  B  B8  1  0.000000  0.107997  0.470839  1
  B  B9  1  0.000000  0.891922  0.529229  1
  B  B10  1  0.000000  0.391785  0.970774  1
  B  B11  1  0.000000  0.608241  0.029218  1
  B  B12  1  0.000000  0.132595  0.316438  1
  B  B13  1  0.000000  0.867367  0.683748  1
  B  B14  1  0.000000  0.367392  0.816314  1
  B  B15  1  0.000000  0.632737  0.183414  1
  B  B16  1  0.000000  0.054072  0.065819  1
  B  B17  1  0.000000  0.945678  0.934576  1
  B  B18  1  0.000000  0.445792  0.565584  1
  B  B19  1  0.000000  0.554385  0.434174  1
  B  B20  1  0.000000  0.483160  0.286414  1
  B  B21  1  0.000000  0.516932  0.713534  1
  B  B22  1  0.000000  0.016937  0.786574  1
  B  B23  1  0.000000  0.982939  0.213427  1
  B  B24  1  0.000000  0.249791  0.080057  1
  B  B25  1  0.000000  0.750058  0.920256  1
  B  B26  1  0.000000  0.249982  0.579924  1
  B  B27  1  0.000000  0.749879  0.419955  1
  B  B28  1  0.000000  0.294060  0.235872  1
  B  B29  1  0.000000  0.705995  0.764262  1
  B  B30  1  0.000000  0.205933  0.735820  1
  B  B31  1  0.000000  0.794141  0.264028  1
  Rh  Rh32  1  0.500000  0.139502  0.179511  1
  Rh  Rh33  1  0.500000  0.860368  0.820805  1
  Rh  Rh34  1  0.500000  0.360323  0.679117  1
  Rh  Rh35  1  0.500000  0.639966  0.320272  1
