# generated using pymatgen
data_CaPr5Cd23Sb
_symmetry_space_group_name_H-M   'P 1'
_cell_length_a   10.18030765
_cell_length_b   10.18030776
_cell_length_c   10.07561500
_cell_angle_alpha   60.33961118
_cell_angle_beta   60.33961082
_cell_angle_gamma   59.32078165
_symmetry_Int_Tables_number   1
_chemical_formula_structural   CaPr5Cd23Sb
_chemical_formula_sum   'Ca1 Pr5 Cd23 Sb1'
_cell_volume   738.22279440
_cell_formula_units_Z   1
loop_
 _symmetry_equiv_pos_site_id
 _symmetry_equiv_pos_as_xyz
  1  'x, y, z'
loop_
 _atom_site_type_symbol
 _atom_site_label
 _atom_site_symmetry_multiplicity
 _atom_site_fract_x
 _atom_site_fract_y
 _atom_site_fract_z
 _atom_site_occupancy
  Ca  Ca0  1  0.787038  0.787038  0.212962  1
  Pr  Pr1  1  0.219369  0.780006  0.219994  1
  Pr  Pr2  1  0.780006  0.219369  0.219994  1
  Pr  Pr3  1  0.215480  0.215480  0.784520  1
  Pr  Pr4  1  0.780006  0.219369  0.780631  1
  Pr  Pr5  1  0.219369  0.780006  0.780631  1
  Cd  Cd6  1  0.837146  0.837146  0.490112  1
  Cd  Cd7  1  0.833084  0.493262  0.836826  1
  Cd  Cd8  1  0.493262  0.833084  0.836826  1
  Cd  Cd9  1  0.837146  0.837146  0.835596  1
  Cd  Cd10  1  0.163174  0.163174  0.506738  1
  Cd  Cd11  1  0.164404  0.509888  0.162854  1
  Cd  Cd12  1  0.509888  0.164404  0.162854  1
  Cd  Cd13  1  0.163174  0.163174  0.166916  1
  Cd  Cd14  1  0.625843  0.625843  0.130557  1
  Cd  Cd15  1  0.620997  0.128202  0.625402  1
  Cd  Cd16  1  0.128202  0.620997  0.625402  1
  Cd  Cd17  1  0.625843  0.625843  0.617759  1
  Cd  Cd18  1  0.374598  0.374598  0.871798  1
  Cd  Cd19  1  0.382241  0.869443  0.374157  1
  Cd  Cd20  1  0.869443  0.382241  0.374157  1
  Cd  Cd21  1  0.374598  0.374598  0.379003  1
  Cd  Cd22  1  0.999125  0.999125  0.500875  1
  Cd  Cd23  1  0.499112  0.000443  0.500888  1
  Cd  Cd24  1  0.000443  0.499112  0.500888  1
  Cd  Cd25  1  0.499125  0.499125  0.000875  1
  Cd  Cd26  1  0.000443  0.499112  0.999557  1
  Cd  Cd27  1  0.499112  0.000443  0.999557  1
  Cd  Cd28  1  0.498793  0.498793  0.501207  1
  Sb  Sb29  1  0.999538  0.999538  0.000462  1
