# generated using pymatgen
data_Hf4Si3WN
_symmetry_space_group_name_H-M   'P 1'
_cell_length_a   7.72759400
_cell_length_b   7.72759425
_cell_length_c   5.45527100
_cell_angle_alpha   90.00000000
_cell_angle_beta   90.00000000
_cell_angle_gamma   119.99999894
_symmetry_Int_Tables_number   1
_chemical_formula_structural   Hf4Si3WN
_chemical_formula_sum   'Hf8 Si6 W2 N2'
_cell_volume   282.12110309
_cell_formula_units_Z   2
loop_
 _symmetry_equiv_pos_site_id
 _symmetry_equiv_pos_as_xyz
  1  'x, y, z'
loop_
 _atom_site_type_symbol
 _atom_site_label
 _atom_site_symmetry_multiplicity
 _atom_site_fract_x
 _atom_site_fract_y
 _atom_site_fract_z
 _atom_site_occupancy
  Hf  Hf0  1  0.235320  0.000000  0.247680  1
  Hf  Hf1  1  0.764680  0.000000  0.752320  1
  Hf  Hf2  1  0.000000  0.235320  0.247680  1
  Hf  Hf3  1  0.000000  0.764680  0.752320  1
  Hf  Hf4  1  0.764680  0.764680  0.247680  1
  Hf  Hf5  1  0.235320  0.235320  0.752320  1
  Hf  Hf6  1  0.666667  0.333333  0.500000  1
  Hf  Hf7  1  0.333333  0.666667  0.500000  1
  Si  Si8  1  0.590570  0.000000  0.227085  1
  Si  Si9  1  0.409430  0.000000  0.772915  1
  Si  Si10  1  0.000000  0.590570  0.227085  1
  Si  Si11  1  0.000000  0.409430  0.772915  1
  Si  Si12  1  0.409430  0.409430  0.227085  1
  Si  Si13  1  0.590570  0.590570  0.772915  1
  W  W14  1  0.333333  0.666667  0.000000  1
  W  W15  1  0.666667  0.333333  0.000000  1
  N  N16  1  0.000000  0.000000  0.000000  1
  N  N17  1  0.000000  0.000000  0.500000  1
