# generated using pymatgen
data_Ho15TmIn4RuRh3
_symmetry_space_group_name_H-M   'P 1'
_cell_length_a   9.61059809
_cell_length_b   9.62110702
_cell_length_c   9.61905000
_cell_angle_alpha   60.00707917
_cell_angle_beta   59.97091108
_cell_angle_gamma   59.98862375
_symmetry_Int_Tables_number   1
_chemical_formula_structural   Ho15TmIn4RuRh3
_chemical_formula_sum   'Ho15 Tm1 In4 Ru1 Rh3'
_cell_volume   628.75718147
_cell_formula_units_Z   1
loop_
 _symmetry_equiv_pos_site_id
 _symmetry_equiv_pos_as_xyz
  1  'x, y, z'
loop_
 _atom_site_type_symbol
 _atom_site_label
 _atom_site_symmetry_multiplicity
 _atom_site_fract_x
 _atom_site_fract_y
 _atom_site_fract_z
 _atom_site_occupancy
  Ho  Ho0  1  0.598950  0.600101  0.203681  1
  Ho  Ho1  1  0.439030  0.057358  0.441662  1
  Ho  Ho2  1  0.439871  0.440469  0.059830  1
  Ho  Ho3  1  0.812417  0.188859  0.811603  1
  Ho  Ho4  1  0.189725  0.813254  0.189066  1
  Ho  Ho5  1  0.439030  0.057358  0.061950  1
  Ho  Ho6  1  0.189725  0.813254  0.807955  1
  Ho  Ho7  1  0.059057  0.439546  0.059865  1
  Ho  Ho8  1  0.808779  0.813306  0.188957  1
  Ho  Ho9  1  0.202000  0.600804  0.598597  1
  Ho  Ho10  1  0.059057  0.439546  0.441533  1
  Ho  Ho11  1  0.061419  0.057448  0.440567  1
  Ho  Ho12  1  0.812417  0.188859  0.187120  1
  Ho  Ho13  1  0.600323  0.201395  0.599142  1
  Ho  Ho14  1  0.598950  0.600101  0.597268  1
  Tm  Tm15  1  0.188827  0.189815  0.810679  1
  In  In16  1  0.833257  0.833582  0.833200  1
  In  In17  1  0.833257  0.833582  0.499963  1
  In  In18  1  0.500171  0.833251  0.833290  1
  In  In19  1  0.832840  0.501188  0.832987  1
  Ru  Ru20  1  0.391982  0.824567  0.391725  1
  Rh  Rh21  1  0.391672  0.390671  0.392544  1
  Rh  Rh22  1  0.825573  0.391017  0.391704  1
  Rh  Rh23  1  0.391672  0.390671  0.825111  1
