# generated using pymatgen
data_NaAg(NO3)2
_symmetry_space_group_name_H-M   'P 1'
_cell_length_a   6.55905183
_cell_length_b   6.55905258
_cell_length_c   6.55905177
_cell_angle_alpha   46.64553838
_cell_angle_beta   46.64553730
_cell_angle_gamma   46.64553029
_symmetry_Int_Tables_number   1
_chemical_formula_structural   NaAg(NO3)2
_chemical_formula_sum   'Na1 Ag1 N2 O6'
_cell_volume   136.26922940
_cell_formula_units_Z   1
loop_
 _symmetry_equiv_pos_site_id
 _symmetry_equiv_pos_as_xyz
  1  'x, y, z'
loop_
 _atom_site_type_symbol
 _atom_site_label
 _atom_site_symmetry_multiplicity
 _atom_site_fract_x
 _atom_site_fract_y
 _atom_site_fract_z
 _atom_site_occupancy
  Na  Na0  1  0.000000  0.000000  0.000000  1
  Ag  Ag1  1  0.500000  0.500000  0.500000  1
  N  N2  1  0.251627  0.251627  0.251627  1
  N  N3  1  0.748373  0.748373  0.748373  1
  O  O4  1  0.010740  0.499585  0.244314  1
  O  O5  1  0.244314  0.010740  0.499585  1
  O  O6  1  0.499585  0.244314  0.010740  1
  O  O7  1  0.755686  0.989260  0.500415  1
  O  O8  1  0.500415  0.755686  0.989260  1
  O  O9  1  0.989260  0.500415  0.755686  1
