# generated using pymatgen
data_Sr8Si15Pd
_symmetry_space_group_name_H-M   'P 1'
_cell_length_a   8.33159000
_cell_length_b   8.33159035
_cell_length_c   9.30072700
_cell_angle_alpha   90.00000000
_cell_angle_beta   90.00000000
_cell_angle_gamma   119.99999860
_symmetry_Int_Tables_number   1
_chemical_formula_structural   Sr8Si15Pd
_chemical_formula_sum   'Sr8 Si15 Pd1'
_cell_volume   559.11781869
_cell_formula_units_Z   1
loop_
 _symmetry_equiv_pos_site_id
 _symmetry_equiv_pos_as_xyz
  1  'x, y, z'
loop_
 _atom_site_type_symbol
 _atom_site_label
 _atom_site_symmetry_multiplicity
 _atom_site_fract_x
 _atom_site_fract_y
 _atom_site_fract_z
 _atom_site_occupancy
  Sr  Sr0  1  0.499530  0.500470  0.749361  1
  Sr  Sr1  1  0.499718  0.500282  0.250603  1
  Sr  Sr2  1  0.000940  0.500470  0.749361  1
  Sr  Sr3  1  0.000564  0.500282  0.250603  1
  Sr  Sr4  1  0.499530  0.999060  0.749361  1
  Sr  Sr5  1  0.499718  0.999436  0.250603  1
  Sr  Sr6  1  0.000000  0.000000  0.748599  1
  Sr  Sr7  1  0.000000  0.000000  0.251439  1
  Si  Si8  1  0.666667  0.333333  0.999269  1
  Si  Si9  1  0.333333  0.666667  0.000774  1
  Si  Si10  1  0.333333  0.666667  0.499671  1
  Si  Si11  1  0.833650  0.166350  0.000211  1
  Si  Si12  1  0.166682  0.833318  0.999851  1
  Si  Si13  1  0.332699  0.166350  0.000211  1
  Si  Si14  1  0.159420  0.840580  0.499985  1
  Si  Si15  1  0.666638  0.833318  0.999851  1
  Si  Si16  1  0.831077  0.168923  0.500079  1
  Si  Si17  1  0.833650  0.667301  0.000211  1
  Si  Si18  1  0.681158  0.840580  0.499985  1
  Si  Si19  1  0.166682  0.333362  0.999851  1
  Si  Si20  1  0.337847  0.168923  0.500079  1
  Si  Si21  1  0.159420  0.318842  0.499985  1
  Si  Si22  1  0.831077  0.662153  0.500079  1
  Pd  Pd23  1  0.666667  0.333333  0.499985  1
