# generated using pymatgen
data_Y8Co3Si12Ir
_symmetry_space_group_name_H-M   'P 1'
_cell_length_a   8.03023400
_cell_length_b   8.03023431
_cell_length_c   7.94136900
_cell_angle_alpha   90.00000000
_cell_angle_beta   90.00000000
_cell_angle_gamma   119.99999872
_symmetry_Int_Tables_number   1
_chemical_formula_structural   Y8Co3Si12Ir
_chemical_formula_sum   'Y8 Co3 Si12 Ir1'
_cell_volume   443.48857049
_cell_formula_units_Z   1
loop_
 _symmetry_equiv_pos_site_id
 _symmetry_equiv_pos_as_xyz
  1  'x, y, z'
loop_
 _atom_site_type_symbol
 _atom_site_label
 _atom_site_symmetry_multiplicity
 _atom_site_fract_x
 _atom_site_fract_y
 _atom_site_fract_z
 _atom_site_occupancy
  Y  Y0  1  0.000000  0.000000  0.247666  1
  Y  Y1  1  0.000000  0.000000  0.751996  1
  Y  Y2  1  0.013292  0.506645  0.248581  1
  Y  Y3  1  0.493355  0.506645  0.248581  1
  Y  Y4  1  0.504651  0.009304  0.749989  1
  Y  Y5  1  0.493355  0.986708  0.248581  1
  Y  Y6  1  0.504651  0.495349  0.749989  1
  Y  Y7  1  0.990696  0.495349  0.749989  1
  Co  Co8  1  0.333333  0.666667  0.969842  1
  Co  Co9  1  0.333333  0.666667  0.528717  1
  Co  Co10  1  0.666667  0.333333  0.032393  1
  Si  Si11  1  0.171357  0.342715  0.999591  1
  Si  Si12  1  0.657285  0.828643  0.999591  1
  Si  Si13  1  0.172330  0.344661  0.499801  1
  Si  Si14  1  0.343696  0.171848  0.999425  1
  Si  Si15  1  0.171357  0.828643  0.999591  1
  Si  Si16  1  0.655339  0.827670  0.499801  1
  Si  Si17  1  0.828152  0.656304  0.999425  1
  Si  Si18  1  0.331277  0.165639  0.501076  1
  Si  Si19  1  0.172330  0.827670  0.499801  1
  Si  Si20  1  0.834361  0.668723  0.501076  1
  Si  Si21  1  0.828152  0.171848  0.999425  1
  Si  Si22  1  0.834361  0.165639  0.501076  1
  Ir  Ir23  1  0.666667  0.333333  0.473999  1
