# generated using pymatgen
data_CaLa6ReI12
_symmetry_space_group_name_H-M   'P 1'
_cell_length_a   10.20061879
_cell_length_b   10.20061813
_cell_length_c   10.20061854
_cell_angle_alpha   107.09290667
_cell_angle_beta   107.09289488
_cell_angle_gamma   107.09289766
_symmetry_Int_Tables_number   1
_chemical_formula_structural   CaLa6ReI12
_chemical_formula_sum   'Ca1 La6 Re1 I12'
_cell_volume   881.69527240
_cell_formula_units_Z   1
loop_
 _symmetry_equiv_pos_site_id
 _symmetry_equiv_pos_as_xyz
  1  'x, y, z'
loop_
 _atom_site_type_symbol
 _atom_site_label
 _atom_site_symmetry_multiplicity
 _atom_site_fract_x
 _atom_site_fract_y
 _atom_site_fract_z
 _atom_site_occupancy
  Ca  Ca0  1  0.500000  0.500000  0.500000  1
  La  La1  1  0.307553  0.097306  0.031634  1
  La  La2  1  0.031634  0.307553  0.097306  1
  La  La3  1  0.097306  0.031633  0.307553  1
  La  La4  1  0.902694  0.968367  0.692448  1
  La  La5  1  0.968366  0.692448  0.902695  1
  La  La6  1  0.692448  0.902694  0.968367  1
  Re  Re7  1  0.000000  0.000000  0.000000  1
  I  I8  1  0.686851  0.232821  0.075306  1
  I  I9  1  0.391382  0.459946  0.161799  1
  I  I10  1  0.075306  0.686850  0.232822  1
  I  I11  1  0.767179  0.924695  0.313149  1
  I  I12  1  0.459946  0.161799  0.391382  1
  I  I13  1  0.161799  0.391382  0.459946  1
  I  I14  1  0.838201  0.608619  0.540054  1
  I  I15  1  0.540054  0.838202  0.608618  1
  I  I16  1  0.232822  0.075306  0.686851  1
  I  I17  1  0.924694  0.313150  0.767179  1
  I  I18  1  0.608619  0.540054  0.838201  1
  I  I19  1  0.313150  0.767179  0.924694  1
