# generated using pymatgen
data_Tb8V5Si16Mo7
_symmetry_space_group_name_H-M   'P 1'
_cell_length_a   6.72863021
_cell_length_b   6.92230610
_cell_length_c   12.98357801
_cell_angle_alpha   89.99701613
_cell_angle_beta   89.98798028
_cell_angle_gamma   90.06643000
_symmetry_Int_Tables_number   1
_chemical_formula_structural   Tb8V5Si16Mo7
_chemical_formula_sum   'Tb8 V5 Si16 Mo7'
_cell_volume   604.74397545
_cell_formula_units_Z   1
loop_
 _symmetry_equiv_pos_site_id
 _symmetry_equiv_pos_as_xyz
  1  'x, y, z'
loop_
 _atom_site_type_symbol
 _atom_site_label
 _atom_site_symmetry_multiplicity
 _atom_site_fract_x
 _atom_site_fract_y
 _atom_site_fract_z
 _atom_site_occupancy
  Tb  Tb0  1  0.499608  0.330637  0.095136  1
  Tb  Tb1  1  0.000066  0.168552  0.405902  1
  Tb  Tb2  1  0.501544  0.669132  0.593906  1
  Tb  Tb3  1  0.000773  0.831064  0.905572  1
  Tb  Tb4  1  0.502846  0.665588  0.905271  1
  Tb  Tb5  1  0.003057  0.834467  0.593882  1
  Tb  Tb6  1  0.498208  0.332973  0.405637  1
  Tb  Tb7  1  0.998610  0.166723  0.095394  1
  V  V8  1  0.836072  0.332765  0.626814  1
  V  V9  1  0.334910  0.165996  0.873512  1
  V  V10  1  0.164518  0.668458  0.126206  1
  V  V11  1  0.666829  0.832623  0.373323  1
  V  V12  1  0.164751  0.667753  0.374078  1
  Si  Si13  1  0.661742  0.046182  0.544113  1
  Si  Si14  1  0.162664  0.454090  0.955774  1
  Si  Si15  1  0.337534  0.953552  0.043355  1
  Si  Si16  1  0.839828  0.547266  0.455880  1
  Si  Si17  1  0.341905  0.950959  0.453867  1
  Si  Si18  1  0.843405  0.545022  0.045293  1
  Si  Si19  1  0.656337  0.044712  0.954424  1
  Si  Si20  1  0.157524  0.457678  0.543976  1
  Si  Si21  1  0.536089  0.365498  0.748941  1
  Si  Si22  1  0.036712  0.134099  0.750617  1
  Si  Si23  1  0.460583  0.634226  0.251123  1
  Si  Si24  1  0.964170  0.865025  0.251629  1
  Si  Si25  1  0.802622  0.622837  0.747967  1
  Si  Si26  1  0.302827  0.877217  0.751377  1
  Si  Si27  1  0.197507  0.381340  0.250043  1
  Si  Si28  1  0.697013  0.121486  0.251920  1
  Mo  Mo29  1  0.667099  0.832801  0.124840  1
  Mo  Mo30  1  0.832016  0.334368  0.876077  1
  Mo  Mo31  1  0.331137  0.165380  0.623696  1
  Mo  Mo32  1  0.664153  0.007833  0.749837  1
  Mo  Mo33  1  0.164056  0.492494  0.749565  1
  Mo  Mo34  1  0.334570  0.990115  0.250122  1
  Mo  Mo35  1  0.836717  0.509083  0.250934  1
