# generated using pymatgen
data_Sr5(PaH8)3
_symmetry_space_group_name_H-M   'P 1'
_cell_length_a   6.93379500
_cell_length_b   7.12448600
_cell_length_c   6.93379500
_cell_angle_alpha   90.00000000
_cell_angle_beta   90.00000000
_cell_angle_gamma   90.00000000
_symmetry_Int_Tables_number   1
_chemical_formula_structural   Sr5(PaH8)3
_chemical_formula_sum   'Sr5 Pa3 H24'
_cell_volume   342.52756901
_cell_formula_units_Z   1
loop_
 _symmetry_equiv_pos_site_id
 _symmetry_equiv_pos_as_xyz
  1  'x, y, z'
loop_
 _atom_site_type_symbol
 _atom_site_label
 _atom_site_symmetry_multiplicity
 _atom_site_fract_x
 _atom_site_fract_y
 _atom_site_fract_z
 _atom_site_occupancy
  Sr  Sr0  1  0.249519  0.996849  0.500000  1
  Sr  Sr1  1  0.750481  0.996849  0.500000  1
  Sr  Sr2  1  0.000000  0.503151  0.250481  1
  Sr  Sr3  1  0.000000  0.503151  0.749519  1
  Sr  Sr4  1  0.500000  0.750000  0.000000  1
  Pa  Pa5  1  0.000000  0.006494  0.000000  1
  Pa  Pa6  1  0.500000  0.493506  0.500000  1
  Pa  Pa7  1  0.500000  0.250000  0.000000  1
  H  H8  1  0.000000  0.150503  0.276510  1
  H  H9  1  0.500000  0.225436  0.669624  1
  H  H10  1  0.500000  0.764547  0.351307  1
  H  H11  1  0.776673  0.644738  0.500000  1
  H  H12  1  0.223327  0.644738  0.500000  1
  H  H13  1  0.358645  0.471364  0.800852  1
  H  H14  1  0.641355  0.471364  0.800852  1
  H  H15  1  0.300852  0.028636  0.141355  1
  H  H16  1  0.169624  0.274564  0.000000  1
  H  H17  1  0.851307  0.735453  0.000000  1
  H  H18  1  0.300852  0.028636  0.858645  1
  H  H19  1  0.830376  0.274564  0.000000  1
  H  H20  1  0.699148  0.028636  0.141355  1
  H  H21  1  0.699148  0.028636  0.858645  1
  H  H22  1  0.148693  0.735453  0.000000  1
  H  H23  1  0.000000  0.855262  0.723327  1
  H  H24  1  0.000000  0.150503  0.723490  1
  H  H25  1  0.000000  0.855262  0.276673  1
  H  H26  1  0.641355  0.471364  0.199148  1
  H  H27  1  0.358645  0.471364  0.199148  1
  H  H28  1  0.776510  0.349497  0.500000  1
  H  H29  1  0.223490  0.349497  0.500000  1
  H  H30  1  0.500000  0.764547  0.648693  1
  H  H31  1  0.500000  0.225436  0.330376  1
