# generated using pymatgen
data_YEr2In3Pd2Rh
_symmetry_space_group_name_H-M   'P 1'
_cell_length_a   7.72906648
_cell_length_b   7.71419713
_cell_length_c   3.77593800
_cell_angle_alpha   90.00000000
_cell_angle_beta   90.00000000
_cell_angle_gamma   119.97193681
_symmetry_Int_Tables_number   1
_chemical_formula_structural   YEr2In3Pd2Rh
_chemical_formula_sum   'Y1 Er2 In3 Pd2 Rh1'
_cell_volume   195.02756723
_cell_formula_units_Z   1
loop_
 _symmetry_equiv_pos_site_id
 _symmetry_equiv_pos_as_xyz
  1  'x, y, z'
loop_
 _atom_site_type_symbol
 _atom_site_label
 _atom_site_symmetry_multiplicity
 _atom_site_fract_x
 _atom_site_fract_y
 _atom_site_fract_z
 _atom_site_occupancy
  Y  Y0  1  0.011850  0.598639  0.500000  1
  Er  Er1  1  0.401127  0.413620  0.500000  1
  Er  Er2  1  0.586413  0.987493  0.500000  1
  In  In3  1  0.264043  0.001236  0.000000  1
  In  In4  1  0.736497  0.736622  0.000000  1
  In  In5  1  0.999619  0.262618  0.000000  1
  Pd  Pd6  1  0.664524  0.331663  0.000000  1
  Pd  Pd7  1  0.999946  0.000934  0.500000  1
  Rh  Rh8  1  0.335982  0.667177  0.000000  1
