# generated using pymatgen
data_Ho6Tm6GaCo4Pb
_symmetry_space_group_name_H-M   'P 1'
_cell_length_a   8.30059787
_cell_length_b   8.27930990
_cell_length_c   8.27930991
_cell_angle_alpha   111.77772629
_cell_angle_beta   109.26057629
_cell_angle_gamma   107.30841407
_symmetry_Int_Tables_number   1
_chemical_formula_structural   Ho6Tm6GaCo4Pb
_chemical_formula_sum   'Ho6 Tm6 Ga1 Co4 Pb1'
_cell_volume   437.85905344
_cell_formula_units_Z   1
loop_
 _symmetry_equiv_pos_site_id
 _symmetry_equiv_pos_as_xyz
  1  'x, y, z'
loop_
 _atom_site_type_symbol
 _atom_site_label
 _atom_site_symmetry_multiplicity
 _atom_site_fract_x
 _atom_site_fract_y
 _atom_site_fract_z
 _atom_site_occupancy
  Ho  Ho0  1  0.565700  0.267940  0.297760  1
  Ho  Ho1  1  0.434300  0.732060  0.702240  1
  Ho  Ho2  1  0.179480  0.779572  0.960093  1
  Ho  Ho3  1  0.820520  0.780613  0.600093  1
  Ho  Ho4  1  0.179480  0.219387  0.399907  1
  Ho  Ho5  1  0.820520  0.220428  0.039907  1
  Tm  Tm6  1  0.969857  0.267501  0.702358  1
  Tm  Tm7  1  0.030143  0.732499  0.297642  1
  Tm  Tm8  1  0.675725  0.858788  0.184944  1
  Tm  Tm9  1  0.324275  0.509220  0.183063  1
  Tm  Tm10  1  0.324275  0.141212  0.815056  1
  Tm  Tm11  1  0.675725  0.490780  0.816937  1
  Ga  Ga12  1  0.000000  0.500000  0.500000  1
  Co  Co13  1  0.114016  0.114951  0.999064  1
  Co  Co14  1  0.885984  0.885049  0.000936  1
  Co  Co15  1  0.659880  0.500504  0.159376  1
  Co  Co16  1  0.340120  0.499496  0.840624  1
  Pb  Pb17  1  0.500000  0.000000  0.500000  1
