# generated using pymatgen
data_Dy3Y(Si4Tc3)2
_symmetry_space_group_name_H-M   'P 1'
_cell_length_a   6.79092701
_cell_length_b   6.78753101
_cell_length_c   6.77786202
_cell_angle_alpha   69.76660277
_cell_angle_beta   89.99574356
_cell_angle_gamma   89.99991900
_symmetry_Int_Tables_number   1
_chemical_formula_structural   Dy3Y(Si4Tc3)2
_chemical_formula_sum   'Dy3 Y1 Si8 Tc6'
_cell_volume   293.13753750
_cell_formula_units_Z   1
loop_
 _symmetry_equiv_pos_site_id
 _symmetry_equiv_pos_as_xyz
  1  'x, y, z'
loop_
 _atom_site_type_symbol
 _atom_site_label
 _atom_site_symmetry_multiplicity
 _atom_site_fract_x
 _atom_site_fract_y
 _atom_site_fract_z
 _atom_site_occupancy
  Dy  Dy0  1  0.167512  0.057761  0.808740  1
  Dy  Dy1  1  0.332403  0.557828  0.808576  1
  Dy  Dy2  1  0.832517  0.942205  0.191315  1
  Y  Y3  1  0.667571  0.442054  0.191248  1
  Si  Si4  1  0.448006  0.121409  0.103328  1
  Si  Si5  1  0.948175  0.378396  0.896479  1
  Si  Si6  1  0.551860  0.878449  0.896603  1
  Si  Si7  1  0.052031  0.621697  0.103338  1
  Si  Si8  1  0.858051  0.131175  0.513436  1
  Si  Si9  1  0.357858  0.368772  0.486802  1
  Si  Si10  1  0.142011  0.868637  0.486737  1
  Si  Si11  1  0.642009  0.631342  0.513359  1
  Tc  Tc12  1  0.499942  0.999923  0.500072  1
  Tc  Tc13  1  0.000203  0.500025  0.500159  1
  Tc  Tc14  1  0.149879  0.242411  0.240232  1
  Tc  Tc15  1  0.649920  0.257551  0.759754  1
  Tc  Tc16  1  0.850160  0.757744  0.759643  1
  Tc  Tc17  1  0.349894  0.742621  0.240178  1
