# generated using pymatgen
data_Tb5Dy(WO7)2
_symmetry_space_group_name_H-M   'P 1'
_cell_length_a   6.50507223
_cell_length_b   6.51826318
_cell_length_c   7.50325326
_cell_angle_alpha   90.03331496
_cell_angle_beta   90.02674656
_cell_angle_gamma   108.98907108
_symmetry_Int_Tables_number   1
_chemical_formula_structural   Tb5Dy(WO7)2
_chemical_formula_sum   'Tb5 Dy1 W2 O14'
_cell_volume   300.83753579
_cell_formula_units_Z   1
loop_
 _symmetry_equiv_pos_site_id
 _symmetry_equiv_pos_as_xyz
  1  'x, y, z'
loop_
 _atom_site_type_symbol
 _atom_site_label
 _atom_site_symmetry_multiplicity
 _atom_site_fract_x
 _atom_site_fract_y
 _atom_site_fract_z
 _atom_site_occupancy
  Tb  Tb0  1  0.001112  0.533183  0.244550  1
  Tb  Tb1  1  0.465788  0.999186  0.255582  1
  Tb  Tb2  1  0.476948  0.475891  0.999518  1
  Tb  Tb3  1  0.524082  0.525126  0.499911  1
  Tb  Tb4  1  0.999004  0.466638  0.745892  1
  Dy  Dy5  1  0.534000  0.001377  0.754274  1
  W  W6  1  0.000162  0.999942  0.500248  1
  W  W7  1  0.999829  0.999743  0.999747  1
  O  O8  1  0.925448  0.074328  0.749943  1
  O  O9  1  0.636012  0.361536  0.749330  1
  O  O10  1  0.314549  0.060185  0.535815  1
  O  O11  1  0.933404  0.683453  0.966097  1
  O  O12  1  0.630366  0.368618  0.250321  1
  O  O13  1  0.917018  0.674350  0.526013  1
  O  O14  1  0.324459  0.080209  0.972454  1
  O  O15  1  0.084607  0.326890  0.025025  1
  O  O16  1  0.673590  0.917711  0.475145  1
  O  O17  1  0.370463  0.633127  0.750545  1
  O  O18  1  0.686876  0.941523  0.034857  1
  O  O19  1  0.064012  0.314225  0.465309  1
  O  O20  1  0.364227  0.637211  0.249481  1
  O  O21  1  0.074043  0.925546  0.249945  1
