# generated using pymatgen
data_Tb5Ho3Hg4
_symmetry_space_group_name_H-M   'P 1'
_cell_length_a   5.09572700
_cell_length_b   7.10806351
_cell_length_c   9.28459130
_cell_angle_alpha   90.03420111
_cell_angle_beta   90.00000000
_cell_angle_gamma   90.00000000
_symmetry_Int_Tables_number   1
_chemical_formula_structural   Tb5Ho3Hg4
_chemical_formula_sum   'Tb5 Ho3 Hg4'
_cell_volume   336.29481095
_cell_formula_units_Z   1
loop_
 _symmetry_equiv_pos_site_id
 _symmetry_equiv_pos_as_xyz
  1  'x, y, z'
loop_
 _atom_site_type_symbol
 _atom_site_label
 _atom_site_symmetry_multiplicity
 _atom_site_fract_x
 _atom_site_fract_y
 _atom_site_fract_z
 _atom_site_occupancy
  Tb  Tb0  1  0.250000  0.483142  0.190115  1
  Tb  Tb1  1  0.750000  0.516630  0.809492  1
  Tb  Tb2  1  0.250000  0.984283  0.309230  1
  Tb  Tb3  1  0.750000  0.016913  0.691101  1
  Tb  Tb4  1  0.750000  0.665578  0.424148  1
  Ho  Ho5  1  0.250000  0.333524  0.575761  1
  Ho  Ho6  1  0.750000  0.165723  0.075206  1
  Ho  Ho7  1  0.250000  0.835351  0.925120  1
  Hg  Hg8  1  0.250000  0.260950  0.897303  1
  Hg  Hg9  1  0.750000  0.739790  0.101277  1
  Hg  Hg10  1  0.250000  0.760885  0.603774  1
  Hg  Hg11  1  0.750000  0.237232  0.397470  1
