# generated using pymatgen
data_K5Rb5Ba2(VAs4)2
_symmetry_space_group_name_H-M   'P 1'
_cell_length_a   10.63107392
_cell_length_b   10.63112496
_cell_length_c   8.10325043
_cell_angle_alpha   89.07322069
_cell_angle_beta   89.59617903
_cell_angle_gamma   121.04736260
_symmetry_Int_Tables_number   1
_chemical_formula_structural   K5Rb5Ba2(VAs4)2
_chemical_formula_sum   'K5 Rb5 Ba2 V2 As8'
_cell_volume   784.40145062
_cell_formula_units_Z   1
loop_
 _symmetry_equiv_pos_site_id
 _symmetry_equiv_pos_as_xyz
  1  'x, y, z'
loop_
 _atom_site_type_symbol
 _atom_site_label
 _atom_site_symmetry_multiplicity
 _atom_site_fract_x
 _atom_site_fract_y
 _atom_site_fract_z
 _atom_site_occupancy
  K  K0  1  0.469523  0.525316  0.610565  1
  K  K1  1  0.054850  0.525877  0.608478  1
  K  K2  1  0.524733  0.469481  0.110888  1
  K  K3  1  0.527501  0.054434  0.109021  1
  K  K4  1  0.859547  0.146742  0.787655  1
  Rb  Rb5  1  0.292211  0.152048  0.821947  1
  Rb  Rb6  1  0.857259  0.720168  0.774848  1
  Rb  Rb7  1  0.140375  0.866185  0.288023  1
  Rb  Rb8  1  0.720082  0.857666  0.275284  1
  Rb  Rb9  1  0.152356  0.292482  0.323472  1
  Ba  Ba10  1  0.466292  0.936369  0.601227  1
  Ba  Ba11  1  0.937457  0.464952  0.103878  1
  V  V12  1  0.668990  0.331737  0.501199  1
  V  V13  1  0.332753  0.667282  0.996436  1
  As  As14  1  0.679560  0.332936  0.798317  1
  As  As15  1  0.333555  0.678597  0.293000  1
  As  As16  1  0.205778  0.787651  0.896451  1
  As  As17  1  0.580332  0.795441  0.886122  1
  As  As18  1  0.197861  0.412484  0.917285  1
  As  As19  1  0.789531  0.204306  0.402097  1
  As  As20  1  0.416391  0.201011  0.419892  1
  As  As21  1  0.793061  0.576836  0.388313  1
