# generated using pymatgen
data_Eu2Cd3Pd2Pb
_symmetry_space_group_name_H-M   'P 1'
_cell_length_a   5.77678586
_cell_length_b   5.77678616
_cell_length_c   8.30659410
_cell_angle_alpha   89.84277836
_cell_angle_beta   90.15722061
_cell_angle_gamma   134.96435583
_symmetry_Int_Tables_number   1
_chemical_formula_structural   Eu2Cd3Pd2Pb
_chemical_formula_sum   'Eu2 Cd3 Pd2 Pb1'
_cell_volume   196.13208536
_cell_formula_units_Z   1
loop_
 _symmetry_equiv_pos_site_id
 _symmetry_equiv_pos_as_xyz
  1  'x, y, z'
loop_
 _atom_site_type_symbol
 _atom_site_label
 _atom_site_symmetry_multiplicity
 _atom_site_fract_x
 _atom_site_fract_y
 _atom_site_fract_z
 _atom_site_occupancy
  Eu  Eu0  1  0.066610  0.933389  0.256456  1
  Eu  Eu1  1  0.933861  0.066138  0.744242  1
  Cd  Cd2  1  0.355373  0.644626  0.452939  1
  Cd  Cd3  1  0.643176  0.356823  0.553081  1
  Cd  Cd4  1  0.643948  0.356051  0.939993  1
  Pd  Pd5  1  0.778566  0.221433  0.249832  1
  Pd  Pd6  1  0.220684  0.779315  0.750329  1
  Pb  Pb7  1  0.357778  0.642221  0.053128  1
