# generated using pymatgen
data_Y17Zr2InIr12
_symmetry_space_group_name_H-M   'P 1'
_cell_length_a   10.89728300
_cell_length_b   10.89728300
_cell_length_c   6.30659800
_cell_angle_alpha   90.00000000
_cell_angle_beta   90.00000000
_cell_angle_gamma   90.00000000
_symmetry_Int_Tables_number   1
_chemical_formula_structural   Y17Zr2InIr12
_chemical_formula_sum   'Y17 Zr2 In1 Ir12'
_cell_volume   748.91341135
_cell_formula_units_Z   1
loop_
 _symmetry_equiv_pos_site_id
 _symmetry_equiv_pos_as_xyz
  1  'x, y, z'
loop_
 _atom_site_type_symbol
 _atom_site_label
 _atom_site_symmetry_multiplicity
 _atom_site_fract_x
 _atom_site_fract_y
 _atom_site_fract_z
 _atom_site_occupancy
  Y  Y0  1  0.283843  0.083686  0.378524  1
  Y  Y1  1  0.292448  0.911536  0.879175  1
  Y  Y2  1  0.707552  0.088464  0.879175  1
  Y  Y3  1  0.716157  0.916314  0.378524  1
  Y  Y4  1  0.587801  0.788677  0.878894  1
  Y  Y5  1  0.586379  0.210956  0.375414  1
  Y  Y6  1  0.413621  0.789044  0.375414  1
  Y  Y7  1  0.412199  0.211323  0.878894  1
  Y  Y8  1  0.210956  0.413621  0.624586  1
  Y  Y9  1  0.211323  0.587801  0.121106  1
  Y  Y10  1  0.788677  0.412199  0.121106  1
  Y  Y11  1  0.789044  0.586379  0.624586  1
  Y  Y12  1  0.911536  0.707552  0.120825  1
  Y  Y13  1  0.916314  0.283843  0.621476  1
  Y  Y14  1  0.083686  0.716157  0.621476  1
  Y  Y15  1  0.088464  0.292448  0.120825  1
  Y  Y16  1  0.000000  0.000000  0.000000  1
  Zr  Zr17  1  0.500000  0.500000  0.000000  1
  Zr  Zr18  1  0.500000  0.500000  0.500000  1
  In  In19  1  0.000000  0.000000  0.500000  1
  Ir  Ir20  1  0.845478  0.157831  0.244070  1
  Ir  Ir21  1  0.842169  0.845478  0.755930  1
  Ir  Ir22  1  0.157831  0.154522  0.755930  1
  Ir  Ir23  1  0.154522  0.842169  0.244070  1
  Ir  Ir24  1  0.642445  0.358041  0.747594  1
  Ir  Ir25  1  0.641959  0.642445  0.252406  1
  Ir  Ir26  1  0.358041  0.357555  0.252406  1
  Ir  Ir27  1  0.357555  0.641959  0.747594  1
  Ir  Ir28  1  0.500000  0.000000  0.128414  1
  Ir  Ir29  1  0.500000  0.000000  0.622085  1
  Ir  Ir30  1  0.000000  0.500000  0.871586  1
  Ir  Ir31  1  0.000000  0.500000  0.377915  1
