# generated using pymatgen
data_Tb3Y3(B7W)2
_symmetry_space_group_name_H-M   'P 1'
_cell_length_a   8.20642083
_cell_length_b   8.20642183
_cell_length_c   9.50454886
_cell_angle_alpha   90.04763133
_cell_angle_beta   89.95236876
_cell_angle_gamma   155.62259587
_symmetry_Int_Tables_number   1
_chemical_formula_structural   Tb3Y3(B7W)2
_chemical_formula_sum   'Tb3 Y3 B14 W2'
_cell_volume   264.19284696
_cell_formula_units_Z   1
loop_
 _symmetry_equiv_pos_site_id
 _symmetry_equiv_pos_as_xyz
  1  'x, y, z'
loop_
 _atom_site_type_symbol
 _atom_site_label
 _atom_site_symmetry_multiplicity
 _atom_site_fract_x
 _atom_site_fract_y
 _atom_site_fract_z
 _atom_site_occupancy
  Tb  Tb0  1  0.107355  0.892645  0.561020  1
  Tb  Tb1  1  0.892646  0.107354  0.061005  1
  Tb  Tb2  1  0.107295  0.892705  0.938952  1
  Y  Y3  1  0.892808  0.107192  0.439095  1
  Y  Y4  1  0.244484  0.755516  0.249945  1
  Y  Y5  1  0.755603  0.244397  0.749929  1
  B  B6  1  0.727532  0.272468  0.467129  1
  B  B7  1  0.272684  0.727316  0.532731  1
  B  B8  1  0.727427  0.272573  0.032861  1
  B  B9  1  0.272582  0.727418  0.967171  1
  B  B10  1  0.634763  0.365237  0.147116  1
  B  B11  1  0.365208  0.634792  0.852955  1
  B  B12  1  0.634777  0.365223  0.352848  1
  B  B13  1  0.365287  0.634713  0.646875  1
  B  B14  1  0.519893  0.480107  0.091877  1
  B  B15  1  0.480045  0.519955  0.908179  1
  B  B16  1  0.519845  0.480155  0.408323  1
  B  B17  1  0.480010  0.519990  0.591754  1
  B  B18  1  0.456279  0.543721  0.250234  1
  B  B19  1  0.543553  0.456447  0.749988  1
  W  W20  1  0.053282  0.946718  0.250066  1
  W  W21  1  0.946642  0.053358  0.749949  1
