# generated using pymatgen
data_Ta2Ti3GeRh10
_symmetry_space_group_name_H-M   'P 1'
_cell_length_a   4.08331000
_cell_length_b   5.47234310
_cell_length_c   10.67327372
_cell_angle_alpha   90.83800837
_cell_angle_beta   90.00000000
_cell_angle_gamma   90.00000000
_symmetry_Int_Tables_number   1
_chemical_formula_structural   Ta2Ti3GeRh10
_chemical_formula_sum   'Ta2 Ti3 Ge1 Rh10'
_cell_volume   238.47170893
_cell_formula_units_Z   1
loop_
 _symmetry_equiv_pos_site_id
 _symmetry_equiv_pos_as_xyz
  1  'x, y, z'
loop_
 _atom_site_type_symbol
 _atom_site_label
 _atom_site_symmetry_multiplicity
 _atom_site_fract_x
 _atom_site_fract_y
 _atom_site_fract_z
 _atom_site_occupancy
  Ta  Ta0  1  0.500000  0.333108  0.146571  1
  Ta  Ta1  1  0.500000  0.666892  0.853429  1
  Ti  Ti2  1  0.000000  0.000000  0.000000  1
  Ti  Ti3  1  0.500000  0.834245  0.359537  1
  Ti  Ti4  1  0.500000  0.165755  0.640463  1
  Ge  Ge5  1  0.000000  0.500000  0.500000  1
  Rh  Rh6  1  0.000000  0.000000  0.500000  1
  Rh  Rh7  1  0.000000  0.500000  0.000000  1
  Rh  Rh8  1  0.000000  0.085988  0.241726  1
  Rh  Rh9  1  0.000000  0.914012  0.758274  1
  Rh  Rh10  1  0.000000  0.585661  0.261149  1
  Rh  Rh11  1  0.000000  0.414339  0.738851  1
  Rh  Rh12  1  0.500000  0.312244  0.392964  1
  Rh  Rh13  1  0.500000  0.687756  0.607036  1
  Rh  Rh14  1  0.500000  0.813316  0.106375  1
  Rh  Rh15  1  0.500000  0.186684  0.893625  1
