# generated using pymatgen
data_SmPa2(Al3Os)4
_symmetry_space_group_name_H-M   'P 1'
_cell_length_a   8.86830355
_cell_length_b   8.86830443
_cell_length_c   9.47898600
_cell_angle_alpha   90.00000000
_cell_angle_beta   90.00000000
_cell_angle_gamma   119.63730812
_symmetry_Int_Tables_number   1
_chemical_formula_structural   SmPa2(Al3Os)4
_chemical_formula_sum   'Sm2 Pa4 Al24 Os8'
_cell_volume   647.96166006
_cell_formula_units_Z   2
loop_
 _symmetry_equiv_pos_site_id
 _symmetry_equiv_pos_as_xyz
  1  'x, y, z'
loop_
 _atom_site_type_symbol
 _atom_site_label
 _atom_site_symmetry_multiplicity
 _atom_site_fract_x
 _atom_site_fract_y
 _atom_site_fract_z
 _atom_site_occupancy
  Sm  Sm0  1  0.194550  0.805450  0.250000  1
  Sm  Sm1  1  0.805450  0.194550  0.750000  1
  Pa  Pa2  1  0.199004  0.393867  0.250000  1
  Pa  Pa3  1  0.800996  0.606133  0.750000  1
  Pa  Pa4  1  0.606133  0.800996  0.250000  1
  Pa  Pa5  1  0.393867  0.199004  0.750000  1
  Al  Al6  1  0.331694  0.668306  0.018264  1
  Al  Al7  1  0.668306  0.331694  0.981736  1
  Al  Al8  1  0.668306  0.331694  0.518264  1
  Al  Al9  1  0.331694  0.668306  0.481736  1
  Al  Al10  1  0.162476  0.325149  0.576893  1
  Al  Al11  1  0.837524  0.674851  0.423107  1
  Al  Al12  1  0.674851  0.837524  0.576893  1
  Al  Al13  1  0.837524  0.674851  0.076893  1
  Al  Al14  1  0.325149  0.162476  0.423107  1
  Al  Al15  1  0.162476  0.325149  0.923107  1
  Al  Al16  1  0.162385  0.837615  0.580259  1
  Al  Al17  1  0.325149  0.162476  0.076893  1
  Al  Al18  1  0.837615  0.162385  0.419741  1
  Al  Al19  1  0.674851  0.837524  0.923107  1
  Al  Al20  1  0.837615  0.162385  0.080259  1
  Al  Al21  1  0.162385  0.837615  0.919741  1
  Al  Al22  1  0.561372  0.123187  0.250000  1
  Al  Al23  1  0.438628  0.876813  0.750000  1
  Al  Al24  1  0.876813  0.438628  0.250000  1
  Al  Al25  1  0.123187  0.561372  0.750000  1
  Al  Al26  1  0.563960  0.436040  0.250000  1
  Al  Al27  1  0.436040  0.563960  0.750000  1
  Al  Al28  1  0.998181  0.001819  0.250000  1
  Al  Al29  1  0.001819  0.998181  0.750000  1
  Os  Os30  1  0.500000  0.000000  0.000000  1
  Os  Os31  1  0.000000  0.500000  0.000000  1
  Os  Os32  1  0.500000  0.000000  0.500000  1
  Os  Os33  1  0.500000  0.500000  0.000000  1
  Os  Os34  1  0.000000  0.500000  0.500000  1
  Os  Os35  1  0.500000  0.500000  0.500000  1
  Os  Os36  1  0.000000  0.000000  0.000000  1
  Os  Os37  1  0.000000  0.000000  0.500000  1
