# generated using pymatgen
data_LiTb6RhBr12
_symmetry_space_group_name_H-M   'P 1'
_cell_length_a   9.25977088
_cell_length_b   9.25977196
_cell_length_c   9.25977187
_cell_angle_alpha   107.72939822
_cell_angle_beta   107.72939222
_cell_angle_gamma   107.72939593
_symmetry_Int_Tables_number   1
_chemical_formula_structural   LiTb6RhBr12
_chemical_formula_sum   'Li1 Tb6 Rh1 Br12'
_cell_volume   647.61416423
_cell_formula_units_Z   1
loop_
 _symmetry_equiv_pos_site_id
 _symmetry_equiv_pos_as_xyz
  1  'x, y, z'
loop_
 _atom_site_type_symbol
 _atom_site_label
 _atom_site_symmetry_multiplicity
 _atom_site_fract_x
 _atom_site_fract_y
 _atom_site_fract_z
 _atom_site_occupancy
  Li  Li0  1  0.500000  0.500000  0.500000  1
  Tb  Tb1  1  0.322607  0.112997  0.035206  1
  Tb  Tb2  1  0.035206  0.322607  0.112997  1
  Tb  Tb3  1  0.112997  0.035206  0.322607  1
  Tb  Tb4  1  0.677393  0.887003  0.964794  1
  Tb  Tb5  1  0.964794  0.677393  0.887003  1
  Tb  Tb6  1  0.887003  0.964794  0.677393  1
  Rh  Rh7  1  0.000000  0.000000  0.000000  1
  Br  Br8  1  0.682733  0.219431  0.072108  1
  Br  Br9  1  0.072108  0.682733  0.219431  1
  Br  Br10  1  0.219431  0.072108  0.682733  1
  Br  Br11  1  0.317267  0.780569  0.927892  1
  Br  Br12  1  0.927892  0.317267  0.780569  1
  Br  Br13  1  0.780569  0.927892  0.317267  1
  Br  Br14  1  0.461229  0.167538  0.382919  1
  Br  Br15  1  0.382919  0.461229  0.167538  1
  Br  Br16  1  0.167538  0.382919  0.461229  1
  Br  Br17  1  0.538771  0.832462  0.617081  1
  Br  Br18  1  0.617081  0.538771  0.832462  1
  Br  Br19  1  0.832462  0.617081  0.538771  1
