# generated using pymatgen
data_Cs8Cr3NiS10
_symmetry_space_group_name_H-M   'P 1'
_cell_length_a   7.90092244
_cell_length_b   8.72827731
_cell_length_c   10.76195900
_cell_angle_alpha   77.13148059
_cell_angle_beta   86.27537030
_cell_angle_gamma   79.77425426
_symmetry_Int_Tables_number   1
_chemical_formula_structural   Cs8Cr3NiS10
_chemical_formula_sum   'Cs8 Cr3 Ni1 S10'
_cell_volume   711.77742164
_cell_formula_units_Z   1
loop_
 _symmetry_equiv_pos_site_id
 _symmetry_equiv_pos_as_xyz
  1  'x, y, z'
loop_
 _atom_site_type_symbol
 _atom_site_label
 _atom_site_symmetry_multiplicity
 _atom_site_fract_x
 _atom_site_fract_y
 _atom_site_fract_z
 _atom_site_occupancy
  Cs  Cs0  1  0.434832  0.310414  0.093317  1
  Cs  Cs1  1  0.570555  0.682231  0.897591  1
  Cs  Cs2  1  0.199883  0.082203  0.865612  1
  Cs  Cs3  1  0.058070  0.608676  0.749441  1
  Cs  Cs4  1  0.801850  0.924413  0.125383  1
  Cs  Cs5  1  0.941843  0.387885  0.256856  1
  Cs  Cs6  1  0.577045  0.716810  0.512582  1
  Cs  Cs7  1  0.428984  0.276978  0.492001  1
  Cr  Cr8  1  0.079274  0.925471  0.417785  1
  Cr  Cr9  1  0.275596  0.730758  0.218638  1
  Cr  Cr10  1  0.734369  0.261185  0.771162  1
  Ni  Ni11  1  0.907057  0.085905  0.594672  1
  S  S12  1  0.879124  0.348855  0.597828  1
  S  S13  1  0.186556  0.967525  0.586862  1
  S  S14  1  0.463101  0.389606  0.766444  1
  S  S15  1  0.166648  0.683033  0.052027  1
  S  S16  1  0.833933  0.312626  0.944795  1
  S  S17  1  0.542279  0.607774  0.230599  1
  S  S18  1  0.120503  0.665207  0.398820  1
  S  S19  1  0.234757  0.991533  0.230123  1
  S  S20  1  0.756307  0.004035  0.778974  1
  S  S21  1  0.807434  0.036876  0.418487  1
