# generated using pymatgen
data_Hf4In2PtRh9
_symmetry_space_group_name_H-M   'P 1'
_cell_length_a   4.17264400
_cell_length_b   5.61268048
_cell_length_c   11.16308705
_cell_angle_alpha   89.69174640
_cell_angle_beta   90.00000000
_cell_angle_gamma   90.00000000
_symmetry_Int_Tables_number   1
_chemical_formula_structural   Hf4In2PtRh9
_chemical_formula_sum   'Hf4 In2 Pt1 Rh9'
_cell_volume   261.43256178
_cell_formula_units_Z   1
loop_
 _symmetry_equiv_pos_site_id
 _symmetry_equiv_pos_as_xyz
  1  'x, y, z'
loop_
 _atom_site_type_symbol
 _atom_site_label
 _atom_site_symmetry_multiplicity
 _atom_site_fract_x
 _atom_site_fract_y
 _atom_site_fract_z
 _atom_site_occupancy
  Hf  Hf0  1  0.500000  0.181431  0.637451  1
  Hf  Hf1  1  0.500000  0.810247  0.359563  1
  Hf  Hf2  1  0.500000  0.696489  0.863119  1
  Hf  Hf3  1  0.500000  0.311890  0.140408  1
  In  In4  1  0.000000  0.498029  0.498466  1
  In  In5  1  0.000000  0.003513  0.000832  1
  Pt  Pt6  1  0.000000  0.446562  0.750481  1
  Rh  Rh7  1  0.500000  0.213431  0.881822  1
  Rh  Rh8  1  0.500000  0.790898  0.118008  1
  Rh  Rh9  1  0.500000  0.707295  0.617933  1
  Rh  Rh10  1  0.500000  0.288635  0.382271  1
  Rh  Rh11  1  0.000000  0.552680  0.248878  1
  Rh  Rh12  1  0.000000  0.996891  0.499776  1
  Rh  Rh13  1  0.000000  0.502937  0.000032  1
  Rh  Rh14  1  0.000000  0.052910  0.250440  1
  Rh  Rh15  1  0.000000  0.946162  0.750521  1
