# generated using pymatgen
data_Tm3Lu3Sc4(In2Rh)4
_symmetry_space_group_name_H-M   'P 1'
_cell_length_a   3.49901900
_cell_length_b   7.83442940
_cell_length_c   17.88034891
_cell_angle_alpha   89.96346762
_cell_angle_beta   90.00000000
_cell_angle_gamma   90.00000000
_symmetry_Int_Tables_number   1
_chemical_formula_structural   Tm3Lu3Sc4(In2Rh)4
_chemical_formula_sum   'Tm3 Lu3 Sc4 In8 Rh4'
_cell_volume   490.15063858
_cell_formula_units_Z   1
loop_
 _symmetry_equiv_pos_site_id
 _symmetry_equiv_pos_as_xyz
  1  'x, y, z'
loop_
 _atom_site_type_symbol
 _atom_site_label
 _atom_site_symmetry_multiplicity
 _atom_site_fract_x
 _atom_site_fract_y
 _atom_site_fract_z
 _atom_site_occupancy
  Tm  Tm0  1  0.000000  0.000026  0.999984  1
  Tm  Tm1  1  0.000000  0.500019  0.499993  1
  Tm  Tm2  1  0.000000  0.752035  0.281103  1
  Lu  Lu3  1  0.000000  0.747875  0.780989  1
  Lu  Lu4  1  0.000000  0.252113  0.219000  1
  Lu  Lu5  1  0.000000  0.247844  0.719006  1
  Sc  Sc6  1  0.000000  0.877858  0.588180  1
  Sc  Sc7  1  0.000000  0.122227  0.411844  1
  Sc  Sc8  1  0.000000  0.377844  0.911813  1
  Sc  Sc9  1  0.000000  0.622078  0.088137  1
  In  In10  1  0.500000  0.806772  0.437320  1
  In  In11  1  0.500000  0.193277  0.562840  1
  In  In12  1  0.500000  0.306663  0.062820  1
  In  In13  1  0.500000  0.693313  0.937165  1
  In  In14  1  0.500000  0.926793  0.149306  1
  In  In15  1  0.500000  0.073364  0.850575  1
  In  In16  1  0.500000  0.426324  0.350598  1
  In  In17  1  0.500000  0.573393  0.649426  1
  Rh  Rh18  1  0.500000  0.963435  0.693235  1
  Rh  Rh19  1  0.500000  0.037213  0.306839  1
  Rh  Rh20  1  0.500000  0.463453  0.806772  1
  Rh  Rh21  1  0.500000  0.536082  0.193055  1
