# generated using pymatgen
data_K9GaO4
_symmetry_space_group_name_H-M   'P 1'
_cell_length_a   11.03242417
_cell_length_b   11.03242388
_cell_length_c   11.03242400
_cell_angle_alpha   106.34885504
_cell_angle_beta   106.34885461
_cell_angle_gamma   115.91453474
_symmetry_Int_Tables_number   1
_chemical_formula_structural   K9GaO4
_chemical_formula_sum   'K18 Ga2 O8'
_cell_volume   1023.77919991
_cell_formula_units_Z   2
loop_
 _symmetry_equiv_pos_site_id
 _symmetry_equiv_pos_as_xyz
  1  'x, y, z'
loop_
 _atom_site_type_symbol
 _atom_site_label
 _atom_site_symmetry_multiplicity
 _atom_site_fract_x
 _atom_site_fract_y
 _atom_site_fract_z
 _atom_site_occupancy
  K  K0  1  0.080721  0.580721  0.661443  1
  K  K1  1  0.919278  0.419278  0.338557  1
  K  K2  1  0.419278  0.080721  0.500000  1
  K  K3  1  0.580721  0.919278  0.500000  1
  K  K4  1  0.000000  0.000000  0.000000  1
  K  K5  1  0.499999  0.499999  0.000000  1
  K  K6  1  0.250000  0.509260  0.259259  1
  K  K7  1  0.250000  0.990741  0.740741  1
  K  K8  1  0.990741  0.250000  0.740741  1
  K  K9  1  0.509260  0.250000  0.259259  1
  K  K10  1  0.750000  0.490741  0.740741  1
  K  K11  1  0.749999  0.009258  0.259258  1
  K  K12  1  0.009258  0.749999  0.259258  1
  K  K13  1  0.490741  0.750000  0.740741  1
  K  K14  1  0.677765  0.177765  0.855530  1
  K  K15  1  0.322235  0.822234  0.144470  1
  K  K16  1  0.822234  0.677764  0.499999  1
  K  K17  1  0.177765  0.322234  0.499999  1
  Ga  Ga18  1  0.750000  0.250000  0.500000  1
  Ga  Ga19  1  0.250000  0.750000  0.500000  1
  O  O20  1  0.736266  0.236266  0.663466  1
  O  O21  1  0.572800  0.072800  0.336534  1
  O  O22  1  0.763733  0.427200  0.500000  1
  O  O23  1  0.927200  0.263734  0.500000  1
  O  O24  1  0.263734  0.763733  0.336534  1
  O  O25  1  0.427200  0.927200  0.663466  1
  O  O26  1  0.072800  0.736266  0.500000  1
  O  O27  1  0.236266  0.572800  0.500000  1
