# generated using pymatgen
data_NdBi5(PtO6)3
_symmetry_space_group_name_H-M   'P 1'
_cell_length_a   9.28025068
_cell_length_b   9.27292339
_cell_length_c   5.24195021
_cell_angle_alpha   89.99978650
_cell_angle_beta   90.19657332
_cell_angle_gamma   119.97401111
_symmetry_Int_Tables_number   1
_chemical_formula_structural   NdBi5(PtO6)3
_chemical_formula_sum   'Nd1 Bi5 Pt3 O18'
_cell_volume   390.76006598
_cell_formula_units_Z   1
loop_
 _symmetry_equiv_pos_site_id
 _symmetry_equiv_pos_as_xyz
  1  'x, y, z'
loop_
 _atom_site_type_symbol
 _atom_site_label
 _atom_site_symmetry_multiplicity
 _atom_site_fract_x
 _atom_site_fract_y
 _atom_site_fract_z
 _atom_site_occupancy
  Nd  Nd0  1  0.000005  0.378366  0.499996  1
  Bi  Bi1  1  0.292717  0.293499  0.998693  1
  Bi  Bi2  1  0.999998  0.706820  0.000002  1
  Bi  Bi3  1  0.626558  0.627474  0.501064  1
  Bi  Bi4  1  0.373439  0.000908  0.498924  1
  Bi  Bi5  1  0.707285  0.000787  0.001309  1
  Pt  Pt6  1  0.000001  0.998730  0.500005  1
  Pt  Pt7  1  0.334538  0.667590  0.001244  1
  Pt  Pt8  1  0.665457  0.333053  0.998738  1
  O  O9  1  0.090290  0.204426  0.718208  1
  O  O10  1  0.224871  0.456410  0.209291  1
  O  O11  1  0.129623  0.592660  0.791316  1
  O  O12  1  0.406742  0.537332  0.784089  1
  O  O13  1  0.232445  0.774257  0.217145  1
  O  O14  1  0.117754  0.912161  0.716080  1
  O  O15  1  0.543902  0.766627  0.211970  1
  O  O16  1  0.204961  0.087783  0.281485  1
  O  O17  1  0.463352  0.871710  0.788909  1
  O  O18  1  0.795043  0.882815  0.718532  1
  O  O19  1  0.456087  0.222712  0.788028  1
  O  O20  1  0.593253  0.130582  0.215912  1
  O  O21  1  0.536642  0.408364  0.211087  1
  O  O22  1  0.775142  0.231543  0.790705  1
  O  O23  1  0.909702  0.114130  0.281805  1
  O  O24  1  0.767555  0.541821  0.782850  1
  O  O25  1  0.870386  0.463037  0.208683  1
  O  O26  1  0.882252  0.794404  0.283934  1
