# generated using pymatgen
data_Ce2Th2As6Ru7
_symmetry_space_group_name_H-M   'P 1'
_cell_length_a   7.36435432
_cell_length_b   7.34894224
_cell_length_c   7.36267670
_cell_angle_alpha   109.44501763
_cell_angle_beta   109.60252889
_cell_angle_gamma   109.44742838
_symmetry_Int_Tables_number   1
_chemical_formula_structural   Ce2Th2As6Ru7
_chemical_formula_sum   'Ce2 Th2 As6 Ru7'
_cell_volume   306.43329743
_cell_formula_units_Z   1
loop_
 _symmetry_equiv_pos_site_id
 _symmetry_equiv_pos_as_xyz
  1  'x, y, z'
loop_
 _atom_site_type_symbol
 _atom_site_label
 _atom_site_symmetry_multiplicity
 _atom_site_fract_x
 _atom_site_fract_y
 _atom_site_fract_z
 _atom_site_occupancy
  Ce  Ce0  1  0.000000  0.000000  0.500000  1
  Ce  Ce1  1  0.500000  0.000000  0.000000  1
  Th  Th2  1  0.000000  0.500000  0.000000  1
  Th  Th3  1  0.500000  0.500000  0.500000  1
  As  As4  1  0.318689  0.000016  0.318647  1
  As  As5  1  0.995887  0.314253  0.318265  1
  As  As6  1  0.004113  0.685747  0.681735  1
  As  As7  1  0.318367  0.314344  0.996019  1
  As  As8  1  0.681633  0.685656  0.003981  1
  As  As9  1  0.681311  0.999984  0.681353  1
  Ru  Ru10  1  0.750007  0.500051  0.250013  1
  Ru  Ru11  1  0.500680  0.750737  0.250051  1
  Ru  Ru12  1  0.499320  0.249263  0.749949  1
  Ru  Ru13  1  0.749971  0.249305  0.499407  1
  Ru  Ru14  1  0.250029  0.750695  0.500593  1
  Ru  Ru15  1  0.249993  0.499949  0.749987  1
  Ru  Ru16  1  0.000000  0.000000  0.000000  1
