# generated using pymatgen
data_Yb3Er(ZnPd5)2
_symmetry_space_group_name_H-M   'P 1'
_cell_length_a   4.19181600
_cell_length_b   5.75347898
_cell_length_c   11.27849600
_cell_angle_alpha   90.15838948
_cell_angle_beta   90.00000000
_cell_angle_gamma   90.00000000
_symmetry_Int_Tables_number   1
_chemical_formula_structural   Yb3Er(ZnPd5)2
_chemical_formula_sum   'Yb3 Er1 Zn2 Pd10'
_cell_volume   272.00837284
_cell_formula_units_Z   1
loop_
 _symmetry_equiv_pos_site_id
 _symmetry_equiv_pos_as_xyz
  1  'x, y, z'
loop_
 _atom_site_type_symbol
 _atom_site_label
 _atom_site_symmetry_multiplicity
 _atom_site_fract_x
 _atom_site_fract_y
 _atom_site_fract_z
 _atom_site_occupancy
  Yb  Yb0  1  0.000000  0.304820  0.865939  1
  Yb  Yb1  1  0.000000  0.196100  0.360818  1
  Yb  Yb2  1  0.000000  0.694141  0.136958  1
  Er  Er3  1  0.000000  0.805171  0.637147  1
  Zn  Zn4  1  0.500000  0.497314  0.497390  1
  Zn  Zn5  1  0.500000  0.000489  0.001593  1
  Pd  Pd6  1  0.000000  0.803594  0.890022  1
  Pd  Pd7  1  0.000000  0.698740  0.391001  1
  Pd  Pd8  1  0.000000  0.302553  0.610088  1
  Pd  Pd9  1  0.500000  0.945628  0.244527  1
  Pd  Pd10  1  0.500000  0.446409  0.255902  1
  Pd  Pd11  1  0.500000  0.552657  0.744579  1
  Pd  Pd12  1  0.500000  0.054557  0.754979  1
  Pd  Pd13  1  0.500000  0.500672  0.000224  1
  Pd  Pd14  1  0.500000  0.001171  0.499351  1
  Pd  Pd15  1  0.000000  0.195983  0.109482  1
