# generated using pymatgen
data_NdTh(Pd2Pt)2
_symmetry_space_group_name_H-M   'P 1'
_cell_length_a   5.96038836
_cell_length_b   5.94022323
_cell_length_c   9.75567500
_cell_angle_alpha   90.00000000
_cell_angle_beta   90.00000000
_cell_angle_gamma   119.88815976
_symmetry_Int_Tables_number   1
_chemical_formula_structural   NdTh(Pd2Pt)2
_chemical_formula_sum   'Nd2 Th2 Pd8 Pt4'
_cell_volume   299.47020255
_cell_formula_units_Z   2
loop_
 _symmetry_equiv_pos_site_id
 _symmetry_equiv_pos_as_xyz
  1  'x, y, z'
loop_
 _atom_site_type_symbol
 _atom_site_label
 _atom_site_symmetry_multiplicity
 _atom_site_fract_x
 _atom_site_fract_y
 _atom_site_fract_z
 _atom_site_occupancy
  Nd  Nd0  1  0.000000  0.000000  0.500000  1
  Nd  Nd1  1  0.000000  0.000000  0.000000  1
  Th  Th2  1  0.333902  0.666951  0.250000  1
  Th  Th3  1  0.666098  0.333049  0.750000  1
  Pd  Pd4  1  0.000000  0.500000  0.500000  1
  Pd  Pd5  1  0.000000  0.500000  0.000000  1
  Pd  Pd6  1  0.824011  0.647646  0.250000  1
  Pd  Pd7  1  0.353467  0.176733  0.250000  1
  Pd  Pd8  1  0.824011  0.176364  0.250000  1
  Pd  Pd9  1  0.175989  0.352354  0.750000  1
  Pd  Pd10  1  0.646533  0.823267  0.750000  1
  Pd  Pd11  1  0.175989  0.823636  0.750000  1
  Pt  Pt12  1  0.500000  0.500000  0.500000  1
  Pt  Pt13  1  0.500000  0.000000  0.500000  1
  Pt  Pt14  1  0.500000  0.500000  0.000000  1
  Pt  Pt15  1  0.500000  0.000000  0.000000  1
