# generated using pymatgen
data_Tm2Th2ReB12W
_symmetry_space_group_name_H-M   'P 1'
_cell_length_a   3.75015100
_cell_length_b   9.25024414
_cell_length_c   11.70675844
_cell_angle_alpha   89.94309331
_cell_angle_beta   90.00000000
_cell_angle_gamma   90.00000000
_symmetry_Int_Tables_number   1
_chemical_formula_structural   Tm2Th2ReB12W
_chemical_formula_sum   'Tm4 Th4 Re2 B24 W2'
_cell_volume   406.10505291
_cell_formula_units_Z   2
loop_
 _symmetry_equiv_pos_site_id
 _symmetry_equiv_pos_as_xyz
  1  'x, y, z'
loop_
 _atom_site_type_symbol
 _atom_site_label
 _atom_site_symmetry_multiplicity
 _atom_site_fract_x
 _atom_site_fract_y
 _atom_site_fract_z
 _atom_site_occupancy
  Tm  Tm0  1  0.000000  0.944938  0.372177  1
  Tm  Tm1  1  0.000000  0.055062  0.627823  1
  Tm  Tm2  1  0.000000  0.444005  0.127620  1
  Tm  Tm3  1  0.000000  0.555995  0.872380  1
  Th  Th4  1  0.000000  0.321046  0.413959  1
  Th  Th5  1  0.000000  0.678954  0.586041  1
  Th  Th6  1  0.000000  0.822186  0.085238  1
  Th  Th7  1  0.000000  0.177814  0.914762  1
  Re  Re8  1  0.000000  0.139375  0.180338  1
  Re  Re9  1  0.000000  0.860625  0.819662  1
  B  B10  1  0.500000  0.554423  0.431171  1
  B  B11  1  0.500000  0.445577  0.568829  1
  B  B12  1  0.500000  0.056396  0.070471  1
  B  B13  1  0.500000  0.943604  0.929529  1
  B  B14  1  0.500000  0.752233  0.417603  1
  B  B15  1  0.500000  0.247767  0.582397  1
  B  B16  1  0.500000  0.250198  0.083860  1
  B  B17  1  0.500000  0.749802  0.916140  1
  B  B18  1  0.500000  0.794092  0.265461  1
  B  B19  1  0.500000  0.205908  0.734539  1
  B  B20  1  0.500000  0.291141  0.233249  1
  B  B21  1  0.500000  0.708859  0.766751  1
  B  B22  1  0.500000  0.630116  0.183911  1
  B  B23  1  0.500000  0.369884  0.816089  1
  B  B24  1  0.500000  0.129516  0.313331  1
  B  B25  1  0.500000  0.870484  0.686669  1
  B  B26  1  0.500000  0.984755  0.213981  1
  B  B27  1  0.500000  0.015245  0.786019  1
  B  B28  1  0.500000  0.482154  0.284838  1
  B  B29  1  0.500000  0.517846  0.715162  1
  B  B30  1  0.500000  0.599971  0.027215  1
  B  B31  1  0.500000  0.400029  0.972785  1
  B  B32  1  0.500000  0.099287  0.472365  1
  B  B33  1  0.500000  0.900713  0.527635  1
  W  W34  1  0.000000  0.639322  0.319337  1
  W  W35  1  0.000000  0.360678  0.680663  1
