# generated using pymatgen
data_HoTh2Zn3CuPd2
_symmetry_space_group_name_H-M   'P 1'
_cell_length_a   7.31791888
_cell_length_b   7.33056246
_cell_length_c   3.97381800
_cell_angle_alpha   90.00000000
_cell_angle_beta   90.00000000
_cell_angle_gamma   120.05716930
_symmetry_Int_Tables_number   1
_chemical_formula_structural   HoTh2Zn3CuPd2
_chemical_formula_sum   'Ho1 Th2 Zn3 Cu1 Pd2'
_cell_volume   184.50707301
_cell_formula_units_Z   1
loop_
 _symmetry_equiv_pos_site_id
 _symmetry_equiv_pos_as_xyz
  1  'x, y, z'
loop_
 _atom_site_type_symbol
 _atom_site_label
 _atom_site_symmetry_multiplicity
 _atom_site_fract_x
 _atom_site_fract_y
 _atom_site_fract_z
 _atom_site_occupancy
  Ho  Ho0  1  0.000000  0.593994  0.000000  1
  Th  Th1  1  0.410454  0.411076  0.000000  1
  Th  Th2  1  0.589546  0.000621  0.000000  1
  Zn  Zn3  1  0.771372  0.764100  0.500000  1
  Zn  Zn4  1  0.228628  0.992728  0.500000  1
  Zn  Zn5  1  0.000000  0.241451  0.500000  1
  Cu  Cu6  1  0.000000  0.998126  0.000000  1
  Pd  Pd7  1  0.665412  0.331657  0.500000  1
  Pd  Pd8  1  0.334588  0.666246  0.500000  1
