# generated using pymatgen
data_Y4Re3Os4Ru
_symmetry_space_group_name_H-M   'P 1'
_cell_length_a   5.28634283
_cell_length_b   5.30328956
_cell_length_c   9.14073233
_cell_angle_alpha   89.99999993
_cell_angle_beta   89.97333018
_cell_angle_gamma   120.10610676
_symmetry_Int_Tables_number   1
_chemical_formula_structural   Y4Re3Os4Ru
_chemical_formula_sum   'Y4 Re3 Os4 Ru1'
_cell_volume   221.69039788
_cell_formula_units_Z   1
loop_
 _symmetry_equiv_pos_site_id
 _symmetry_equiv_pos_as_xyz
  1  'x, y, z'
loop_
 _atom_site_type_symbol
 _atom_site_label
 _atom_site_symmetry_multiplicity
 _atom_site_fract_x
 _atom_site_fract_y
 _atom_site_fract_z
 _atom_site_occupancy
  Y  Y0  1  0.339135  0.669568  0.435270  1
  Y  Y1  1  0.669659  0.334829  0.562555  1
  Y  Y2  1  0.669554  0.334777  0.937642  1
  Y  Y3  1  0.338948  0.669474  0.064488  1
  Re  Re4  1  0.162109  0.331972  0.750563  1
  Re  Re5  1  0.162109  0.830137  0.750563  1
  Re  Re6  1  0.321469  0.160734  0.249822  1
  Os  Os7  1  0.821948  0.651451  0.249147  1
  Os  Os8  1  0.649093  0.824546  0.750887  1
  Os  Os9  1  0.020933  0.010466  0.001354  1
  Os  Os10  1  0.821948  0.170497  0.249147  1
  Ru  Ru11  1  0.023097  0.011549  0.498563  1
