# generated using pymatgen
data_Ho3TmMoRu7
_symmetry_space_group_name_H-M   'P 1'
_cell_length_a   5.45770220
_cell_length_b   5.18690541
_cell_length_c   9.01129601
_cell_angle_alpha   90.00280812
_cell_angle_beta   90.00090956
_cell_angle_gamma   121.95011530
_symmetry_Int_Tables_number   1
_chemical_formula_structural   Ho3TmMoRu7
_chemical_formula_sum   'Ho3 Tm1 Mo1 Ru7'
_cell_volume   216.45217175
_cell_formula_units_Z   1
loop_
 _symmetry_equiv_pos_site_id
 _symmetry_equiv_pos_as_xyz
  1  'x, y, z'
loop_
 _atom_site_type_symbol
 _atom_site_label
 _atom_site_symmetry_multiplicity
 _atom_site_fract_x
 _atom_site_fract_y
 _atom_site_fract_z
 _atom_site_occupancy
  Ho  Ho0  1  0.672159  0.344662  0.563402  1
  Ho  Ho1  1  0.335011  0.670396  0.432001  1
  Ho  Ho2  1  0.334979  0.670357  0.067709  1
  Tm  Tm3  1  0.672499  0.345385  0.936501  1
  Mo  Mo4  1  0.161560  0.323563  0.750525  1
  Ru  Ru5  1  0.009013  0.018696  0.498208  1
  Ru  Ru6  1  0.008816  0.018323  0.001699  1
  Ru  Ru7  1  0.170282  0.820349  0.750769  1
  Ru  Ru8  1  0.651173  0.820739  0.750737  1
  Ru  Ru9  1  0.821123  0.642327  0.249351  1
  Ru  Ru10  1  0.831751  0.162052  0.249560  1
  Ru  Ru11  1  0.331635  0.163150  0.249538  1
