# generated using pymatgen
data_LaTb2Eu(WO6)2
_symmetry_space_group_name_H-M   'P 1'
_cell_length_a   5.52699000
_cell_length_b   7.84698511
_cell_length_c   11.63175469
_cell_angle_alpha   76.23723566
_cell_angle_beta   90.00000000
_cell_angle_gamma   90.00000000
_symmetry_Int_Tables_number   1
_chemical_formula_structural   LaTb2Eu(WO6)2
_chemical_formula_sum   'La2 Tb4 Eu2 W4 O24'
_cell_volume   489.98778583
_cell_formula_units_Z   2
loop_
 _symmetry_equiv_pos_site_id
 _symmetry_equiv_pos_as_xyz
  1  'x, y, z'
loop_
 _atom_site_type_symbol
 _atom_site_label
 _atom_site_symmetry_multiplicity
 _atom_site_fract_x
 _atom_site_fract_y
 _atom_site_fract_z
 _atom_site_occupancy
  La  La0  1  0.684729  0.500000  0.750000  1
  La  La1  1  0.315271  0.500000  0.250000  1
  Tb  Tb2  1  0.187508  0.797216  0.576189  1
  Tb  Tb3  1  0.812492  0.797216  0.076189  1
  Tb  Tb4  1  0.187508  0.202784  0.923811  1
  Tb  Tb5  1  0.812492  0.202784  0.423811  1
  Eu  Eu6  1  0.742044  0.000000  0.750000  1
  Eu  Eu7  1  0.257956  0.000000  0.250000  1
  W  W8  1  0.252204  0.727462  0.884637  1
  W  W9  1  0.747796  0.727462  0.384637  1
  W  W10  1  0.252204  0.272538  0.615363  1
  W  W11  1  0.747796  0.272538  0.115363  1
  O  O12  1  0.044854  0.938793  0.898104  1
  O  O13  1  0.525750  0.844726  0.932506  1
  O  O14  1  0.955146  0.938793  0.398104  1
  O  O15  1  0.450576  0.790390  0.729558  1
  O  O16  1  0.474250  0.844726  0.432506  1
  O  O17  1  0.989675  0.718853  0.769939  1
  O  O18  1  0.549424  0.790390  0.229558  1
  O  O19  1  0.857426  0.642781  0.543798  1
  O  O20  1  0.347197  0.495303  0.887835  1
  O  O21  1  0.010325  0.718853  0.269939  1
  O  O22  1  0.347197  0.504697  0.612165  1
  O  O23  1  0.857426  0.357219  0.956202  1
  O  O24  1  0.142574  0.642781  0.043798  1
  O  O25  1  0.652803  0.495303  0.387835  1
  O  O26  1  0.989675  0.281147  0.730061  1
  O  O27  1  0.652803  0.504697  0.112165  1
  O  O28  1  0.142574  0.357219  0.456202  1
  O  O29  1  0.450576  0.209610  0.770442  1
  O  O30  1  0.010325  0.281147  0.230061  1
  O  O31  1  0.525750  0.155274  0.567494  1
  O  O32  1  0.549424  0.209610  0.270442  1
  O  O33  1  0.044854  0.061207  0.601896  1
  O  O34  1  0.474250  0.155274  0.067494  1
  O  O35  1  0.955146  0.061207  0.101896  1
