# generated using pymatgen
data_Dy4Er4Re(B8Ru)3
_symmetry_space_group_name_H-M   'P 1'
_cell_length_a   3.65472300
_cell_length_b   9.12098812
_cell_length_c   11.50994144
_cell_angle_alpha   89.87868175
_cell_angle_beta   90.00000000
_cell_angle_gamma   90.00000000
_symmetry_Int_Tables_number   1
_chemical_formula_structural   Dy4Er4Re(B8Ru)3
_chemical_formula_sum   'Dy4 Er4 Re1 B24 Ru3'
_cell_volume   383.67941292
_cell_formula_units_Z   1
loop_
 _symmetry_equiv_pos_site_id
 _symmetry_equiv_pos_as_xyz
  1  'x, y, z'
loop_
 _atom_site_type_symbol
 _atom_site_label
 _atom_site_symmetry_multiplicity
 _atom_site_fract_x
 _atom_site_fract_y
 _atom_site_fract_z
 _atom_site_occupancy
  Dy  Dy0  1  0.000000  0.323844  0.413381  1
  Dy  Dy1  1  0.000000  0.677049  0.583754  1
  Dy  Dy2  1  0.000000  0.820613  0.087860  1
  Dy  Dy3  1  0.000000  0.176969  0.914931  1
  Er  Er4  1  0.000000  0.944244  0.372514  1
  Er  Er5  1  0.000000  0.056912  0.628373  1
  Er  Er6  1  0.000000  0.444067  0.127723  1
  Er  Er7  1  0.000000  0.556512  0.871295  1
  Re  Re8  1  0.000000  0.638232  0.320873  1
  B  B9  1  0.500000  0.553168  0.433085  1
  B  B10  1  0.500000  0.445886  0.567703  1
  B  B11  1  0.500000  0.054211  0.067255  1
  B  B12  1  0.500000  0.945794  0.932868  1
  B  B13  1  0.500000  0.749212  0.419314  1
  B  B14  1  0.500000  0.251283  0.580820  1
  B  B15  1  0.500000  0.248731  0.080520  1
  B  B16  1  0.500000  0.751129  0.919330  1
  B  B17  1  0.500000  0.792339  0.266003  1
  B  B18  1  0.500000  0.208563  0.733984  1
  B  B19  1  0.500000  0.291379  0.233207  1
  B  B20  1  0.500000  0.708974  0.766027  1
  B  B21  1  0.500000  0.631519  0.185161  1
  B  B22  1  0.500000  0.368087  0.815111  1
  B  B23  1  0.500000  0.131738  0.314592  1
  B  B24  1  0.500000  0.868730  0.685035  1
  B  B25  1  0.500000  0.983703  0.212939  1
  B  B26  1  0.500000  0.016399  0.787461  1
  B  B27  1  0.500000  0.482482  0.286985  1
  B  B28  1  0.500000  0.516147  0.712910  1
  B  B29  1  0.500000  0.605990  0.028549  1
  B  B30  1  0.500000  0.393393  0.970224  1
  B  B31  1  0.500000  0.106723  0.471060  1
  B  B32  1  0.500000  0.894842  0.529752  1
  Ru  Ru33  1  0.000000  0.361250  0.679863  1
  Ru  Ru34  1  0.000000  0.138343  0.178865  1
  Ru  Ru35  1  0.000000  0.861543  0.820675  1
