# generated using pymatgen
data_Tb6Al24FeRu4Pt3
_symmetry_space_group_name_H-M   'P 1'
_cell_length_a   8.85095087
_cell_length_b   8.83354866
_cell_length_c   9.51353727
_cell_angle_alpha   90.13214034
_cell_angle_beta   90.10961361
_cell_angle_gamma   119.69987840
_symmetry_Int_Tables_number   1
_chemical_formula_structural   Tb6Al24FeRu4Pt3
_chemical_formula_sum   'Tb6 Al24 Fe1 Ru4 Pt3'
_cell_volume   646.09952882
_cell_formula_units_Z   1
loop_
 _symmetry_equiv_pos_site_id
 _symmetry_equiv_pos_as_xyz
  1  'x, y, z'
loop_
 _atom_site_type_symbol
 _atom_site_label
 _atom_site_symmetry_multiplicity
 _atom_site_fract_x
 _atom_site_fract_y
 _atom_site_fract_z
 _atom_site_occupancy
  Tb  Tb0  1  0.383853  0.190277  0.250213  1
  Tb  Tb1  1  0.808488  0.193302  0.250169  1
  Tb  Tb2  1  0.810305  0.614978  0.249064  1
  Tb  Tb3  1  0.616147  0.809723  0.749787  1
  Tb  Tb4  1  0.191512  0.806698  0.749831  1
  Tb  Tb5  1  0.189695  0.385022  0.750936  1
  Al  Al6  1  0.437322  0.873989  0.246445  1
  Al  Al7  1  0.123276  0.561024  0.250879  1
  Al  Al8  1  0.435775  0.563632  0.250586  1
  Al  Al9  1  0.562678  0.126011  0.753555  1
  Al  Al10  1  0.876724  0.438976  0.749121  1
  Al  Al11  1  0.564225  0.436368  0.749414  1
  Al  Al12  1  0.158014  0.833170  0.423327  1
  Al  Al13  1  0.157799  0.324128  0.423907  1
  Al  Al14  1  0.678178  0.838621  0.422092  1
  Al  Al15  1  0.841986  0.166830  0.576673  1
  Al  Al16  1  0.842201  0.675872  0.576093  1
  Al  Al17  1  0.321822  0.161379  0.577908  1
  Al  Al18  1  0.839180  0.160559  0.924614  1
  Al  Al19  1  0.844388  0.681120  0.924122  1
  Al  Al20  1  0.318965  0.155365  0.924484  1
  Al  Al21  1  0.160820  0.839441  0.075386  1
  Al  Al22  1  0.155612  0.318880  0.075878  1
  Al  Al23  1  0.681035  0.844635  0.075516  1
  Al  Al24  1  0.327632  0.663634  0.526922  1
  Al  Al25  1  0.672368  0.336366  0.473078  1
  Al  Al26  1  0.669256  0.330039  0.022190  1
  Al  Al27  1  0.330744  0.669961  0.977810  1
  Al  Al28  1  0.002293  0.999663  0.244263  1
  Al  Al29  1  0.997707  0.000337  0.755737  1
  Fe  Fe30  1  0.000000  0.000000  0.000000  1
  Ru  Ru31  1  0.000000  0.000000  0.500000  1
  Ru  Ru32  1  0.000000  0.500000  0.500000  1
  Ru  Ru33  1  0.500000  0.000000  0.000000  1
  Ru  Ru34  1  0.000000  0.500000  0.000000  1
  Pt  Pt35  1  0.500000  0.000000  0.500000  1
  Pt  Pt36  1  0.500000  0.500000  0.500000  1
  Pt  Pt37  1  0.500000  0.500000  0.000000  1
