# generated using pymatgen
data_CaCe2ScCu24
_symmetry_space_group_name_H-M   'P 1'
_cell_length_a   4.99219700
_cell_length_b   8.00348047
_cell_length_c   10.02830016
_cell_angle_alpha   89.91190517
_cell_angle_beta   90.00000000
_cell_angle_gamma   90.00000000
_symmetry_Int_Tables_number   1
_chemical_formula_structural   CaCe2ScCu24
_chemical_formula_sum   'Ca1 Ce2 Sc1 Cu24'
_cell_volume   400.67976975
_cell_formula_units_Z   1
loop_
 _symmetry_equiv_pos_site_id
 _symmetry_equiv_pos_as_xyz
  1  'x, y, z'
loop_
 _atom_site_type_symbol
 _atom_site_label
 _atom_site_symmetry_multiplicity
 _atom_site_fract_x
 _atom_site_fract_y
 _atom_site_fract_z
 _atom_site_occupancy
  Ca  Ca0  1  0.000000  0.758736  0.685798  1
  Ce  Ce1  1  0.500000  0.239973  0.815393  1
  Ce  Ce2  1  0.500000  0.741993  0.186560  1
  Sc  Sc3  1  0.000000  0.256093  0.314884  1
  Cu  Cu4  1  0.500000  0.353667  0.105470  1
  Cu  Cu5  1  0.500000  0.854311  0.895081  1
  Cu  Cu6  1  0.000000  0.643984  0.392841  1
  Cu  Cu7  1  0.000000  0.149682  0.601111  1
  Cu  Cu8  1  0.500000  0.683496  0.491499  1
  Cu  Cu9  1  0.500000  0.183865  0.505997  1
  Cu  Cu10  1  0.000000  0.315629  0.007939  1
  Cu  Cu11  1  0.000000  0.815950  0.997122  1
  Cu  Cu12  1  0.500000  0.936805  0.656009  1
  Cu  Cu13  1  0.500000  0.430975  0.341309  1
  Cu  Cu14  1  0.000000  0.060565  0.842701  1
  Cu  Cu15  1  0.000000  0.551425  0.160538  1
  Cu  Cu16  1  0.500000  0.600359  0.731441  1
  Cu  Cu17  1  0.500000  0.109917  0.268878  1
  Cu  Cu18  1  0.000000  0.399551  0.765754  1
  Cu  Cu19  1  0.000000  0.909174  0.236082  1
  Cu  Cu20  1  0.744554  0.065216  0.060432  1
  Cu  Cu21  1  0.255527  0.564510  0.942379  1
  Cu  Cu22  1  0.244106  0.937658  0.441362  1
  Cu  Cu23  1  0.757086  0.434541  0.554623  1
  Cu  Cu24  1  0.755894  0.937658  0.441362  1
  Cu  Cu25  1  0.242914  0.434541  0.554623  1
  Cu  Cu26  1  0.255446  0.065216  0.060432  1
  Cu  Cu27  1  0.744473  0.564510  0.942379  1
