# generated using pymatgen
data_La9Dy5(Y3Sn8)2
_symmetry_space_group_name_H-M   'P 1'
_cell_length_a   8.05466954
_cell_length_b   8.43702522
_cell_length_c   15.92194400
_cell_angle_alpha   90.06468422
_cell_angle_beta   90.27016649
_cell_angle_gamma   90.09569145
_symmetry_Int_Tables_number   1
_chemical_formula_structural   La9Dy5(Y3Sn8)2
_chemical_formula_sum   'La9 Dy5 Y6 Sn16'
_cell_volume   1082.00047742
_cell_formula_units_Z   1
loop_
 _symmetry_equiv_pos_site_id
 _symmetry_equiv_pos_as_xyz
  1  'x, y, z'
loop_
 _atom_site_type_symbol
 _atom_site_label
 _atom_site_symmetry_multiplicity
 _atom_site_fract_x
 _atom_site_fract_y
 _atom_site_fract_z
 _atom_site_occupancy
  La  La0  1  0.833840  0.665861  0.878743  1
  La  La1  1  0.499767  0.321483  0.902408  1
  La  La2  1  0.998915  0.176698  0.594047  1
  La  La3  1  0.501733  0.677712  0.403604  1
  La  La4  1  0.001631  0.821566  0.097972  1
  La  La5  1  0.500044  0.676084  0.097229  1
  La  La6  1  0.001195  0.823155  0.403184  1
  La  La7  1  0.497616  0.321496  0.595250  1
  La  La8  1  0.999557  0.178411  0.904230  1
  Dy  Dy9  1  0.333311  0.833806  0.874712  1
  Dy  Dy10  1  0.832847  0.667051  0.624009  1
  Dy  Dy11  1  0.666913  0.165850  0.375379  1
  Dy  Dy12  1  0.165341  0.334227  0.125922  1
  Dy  Dy13  1  0.665526  0.165200  0.127252  1
  Y  Y14  1  0.168673  0.333989  0.375050  1
  Y  Y15  1  0.331500  0.835728  0.621785  1
  Y  Y16  1  0.166931  0.501009  0.751241  1
  Y  Y17  1  0.666289  0.000621  0.748717  1
  Y  Y18  1  0.833187  0.499509  0.250493  1
  Y  Y19  1  0.333137  0.000107  0.249231  1
  Sn  Sn20  1  0.322817  0.040346  0.041700  1
  Sn  Sn21  1  0.827074  0.460921  0.458457  1
  Sn  Sn22  1  0.675871  0.960666  0.540901  1
  Sn  Sn23  1  0.188767  0.538652  0.960659  1
  Sn  Sn24  1  0.668768  0.966882  0.960511  1
  Sn  Sn25  1  0.171756  0.538553  0.541451  1
  Sn  Sn26  1  0.325695  0.039010  0.456674  1
  Sn  Sn27  1  0.823351  0.455608  0.046787  1
  Sn  Sn28  1  0.526382  0.625991  0.745040  1
  Sn  Sn29  1  0.032017  0.879226  0.747823  1
  Sn  Sn30  1  0.470783  0.375182  0.251307  1
  Sn  Sn31  1  0.970619  0.123921  0.250965  1
  Sn  Sn32  1  0.300020  0.142685  0.748669  1
  Sn  Sn33  1  0.800744  0.353915  0.747105  1
  Sn  Sn34  1  0.698483  0.856592  0.251067  1
  Sn  Sn35  1  0.198899  0.642285  0.250424  1
