# generated using pymatgen
data_Nb4Al4V3Au
_symmetry_space_group_name_H-M   'P 1'
_cell_length_a   5.05431013
_cell_length_b   5.05266509
_cell_length_c   8.56731100
_cell_angle_alpha   90.00000000
_cell_angle_beta   90.00000000
_cell_angle_gamma   60.90679214
_symmetry_Int_Tables_number   1
_chemical_formula_structural   Nb4Al4V3Au
_chemical_formula_sum   'Nb4 Al4 V3 Au1'
_cell_volume   191.18500096
_cell_formula_units_Z   1
loop_
 _symmetry_equiv_pos_site_id
 _symmetry_equiv_pos_as_xyz
  1  'x, y, z'
loop_
 _atom_site_type_symbol
 _atom_site_label
 _atom_site_symmetry_multiplicity
 _atom_site_fract_x
 _atom_site_fract_y
 _atom_site_fract_z
 _atom_site_occupancy
  Nb  Nb0  1  0.334747  0.334845  0.549790  1
  Nb  Nb1  1  0.661628  0.661628  0.434310  1
  Nb  Nb2  1  0.661628  0.661628  0.065690  1
  Nb  Nb3  1  0.334747  0.334845  0.950210  1
  Al  Al4  1  0.999011  0.998855  0.495536  1
  Al  Al5  1  0.999011  0.998855  0.004464  1
  Al  Al6  1  0.833039  0.345319  0.750000  1
  Al  Al7  1  0.345321  0.833042  0.750000  1
  V  V8  1  0.170498  0.652733  0.250000  1
  V  V9  1  0.652676  0.170533  0.250000  1
  V  V10  1  0.172360  0.172398  0.250000  1
  Au  Au11  1  0.835335  0.835319  0.750000  1
