# generated using pymatgen
data_YEr3Lu4(WO6)4
_symmetry_space_group_name_H-M   'P 1'
_cell_length_a   5.34594700
_cell_length_b   7.63105657
_cell_length_c   11.33048901
_cell_angle_alpha   75.41011127
_cell_angle_beta   90.00000000
_cell_angle_gamma   90.00000000
_symmetry_Int_Tables_number   1
_chemical_formula_structural   YEr3Lu4(WO6)4
_chemical_formula_sum   'Y1 Er3 Lu4 W4 O24'
_cell_volume   447.32460687
_cell_formula_units_Z   1
loop_
 _symmetry_equiv_pos_site_id
 _symmetry_equiv_pos_as_xyz
  1  'x, y, z'
loop_
 _atom_site_type_symbol
 _atom_site_label
 _atom_site_symmetry_multiplicity
 _atom_site_fract_x
 _atom_site_fract_y
 _atom_site_fract_z
 _atom_site_occupancy
  Y  Y0  1  0.315094  0.500000  0.750000  1
  Er  Er1  1  0.257928  0.000000  0.750000  1
  Er  Er2  1  0.742026  0.000000  0.250000  1
  Er  Er3  1  0.684662  0.500000  0.250000  1
  Lu  Lu4  1  0.182650  0.793694  0.079256  1
  Lu  Lu5  1  0.182650  0.206306  0.420744  1
  Lu  Lu6  1  0.817221  0.205914  0.920987  1
  Lu  Lu7  1  0.817221  0.794086  0.579013  1
  W  W8  1  0.743380  0.724155  0.886192  1
  W  W9  1  0.256727  0.723879  0.385500  1
  W  W10  1  0.743380  0.275845  0.613808  1
  W  W11  1  0.256727  0.276121  0.114500  1
  O  O12  1  0.540597  0.155839  0.067751  1
  O  O13  1  0.046050  0.057861  0.103443  1
  O  O14  1  0.019005  0.713242  0.770118  1
  O  O15  1  0.459223  0.155864  0.567750  1
  O  O16  1  0.359703  0.487547  0.385688  1
  O  O17  1  0.954016  0.057923  0.603276  1
  O  O18  1  0.543519  0.793643  0.725020  1
  O  O19  1  0.457065  0.792802  0.225055  1
  O  O20  1  0.146441  0.634852  0.549625  1
  O  O21  1  0.046050  0.942139  0.396557  1
  O  O22  1  0.459223  0.844136  0.932250  1
  O  O23  1  0.457065  0.207198  0.274945  1
  O  O24  1  0.852700  0.365413  0.449659  1
  O  O25  1  0.642324  0.487318  0.886471  1
  O  O26  1  0.359703  0.512453  0.114312  1
  O  O27  1  0.954016  0.942077  0.896724  1
  O  O28  1  0.540597  0.844161  0.432249  1
  O  O29  1  0.979525  0.288118  0.229809  1
  O  O30  1  0.543519  0.206357  0.774980  1
  O  O31  1  0.852700  0.634587  0.050341  1
  O  O32  1  0.019005  0.286758  0.729882  1
  O  O33  1  0.146441  0.365148  0.950375  1
  O  O34  1  0.979525  0.711882  0.270191  1
  O  O35  1  0.642324  0.512682  0.613529  1
