# generated using pymatgen
data_Tm2PaIn3Ir2Rh
_symmetry_space_group_name_H-M   'P 1'
_cell_length_a   7.53412943
_cell_length_b   7.78599179
_cell_length_c   3.78887600
_cell_angle_alpha   90.00000000
_cell_angle_beta   90.00000000
_cell_angle_gamma   121.11213686
_symmetry_Int_Tables_number   1
_chemical_formula_structural   Tm2PaIn3Ir2Rh
_chemical_formula_sum   'Tm2 Pa1 In3 Ir2 Rh1'
_cell_volume   190.28789046
_cell_formula_units_Z   1
loop_
 _symmetry_equiv_pos_site_id
 _symmetry_equiv_pos_as_xyz
  1  'x, y, z'
loop_
 _atom_site_type_symbol
 _atom_site_label
 _atom_site_symmetry_multiplicity
 _atom_site_fract_x
 _atom_site_fract_y
 _atom_site_fract_z
 _atom_site_occupancy
  Tm  Tm0  1  0.595767  0.594450  0.500000  1
  Tm  Tm1  1  0.404233  0.998684  0.500000  1
  Pa  Pa2  1  0.000000  0.419450  0.500000  1
  In  In3  1  0.271212  0.258492  0.000000  1
  In  In4  1  0.000000  0.757010  0.000000  1
  In  In5  1  0.728788  0.987280  0.000000  1
  Ir  Ir6  1  0.303893  0.639311  0.000000  1
  Ir  Ir7  1  0.696107  0.335416  0.000000  1
  Rh  Rh8  1  0.000000  0.009905  0.500000  1
