# generated using pymatgen
data_SmDy4(Hg2Pd)2
_symmetry_space_group_name_H-M   'P 1'
_cell_length_a   3.65754500
_cell_length_b   7.93554800
_cell_length_c   18.28111900
_cell_angle_alpha   90.00000000
_cell_angle_beta   90.00000000
_cell_angle_gamma   90.00000000
_symmetry_Int_Tables_number   1
_chemical_formula_structural   SmDy4(Hg2Pd)2
_chemical_formula_sum   'Sm2 Dy8 Hg8 Pd4'
_cell_volume   530.60260362
_cell_formula_units_Z   2
loop_
 _symmetry_equiv_pos_site_id
 _symmetry_equiv_pos_as_xyz
  1  'x, y, z'
loop_
 _atom_site_type_symbol
 _atom_site_label
 _atom_site_symmetry_multiplicity
 _atom_site_fract_x
 _atom_site_fract_y
 _atom_site_fract_z
 _atom_site_occupancy
  Sm  Sm0  1  0.000000  0.500000  0.500000  1
  Sm  Sm1  1  0.000000  0.000000  0.000000  1
  Dy  Dy2  1  0.000000  0.735721  0.284352  1
  Dy  Dy3  1  0.000000  0.264279  0.715648  1
  Dy  Dy4  1  0.000000  0.764279  0.784352  1
  Dy  Dy5  1  0.000000  0.235721  0.215648  1
  Dy  Dy6  1  0.000000  0.615098  0.084783  1
  Dy  Dy7  1  0.000000  0.384902  0.915217  1
  Dy  Dy8  1  0.000000  0.884902  0.584783  1
  Dy  Dy9  1  0.000000  0.115098  0.415217  1
  Hg  Hg10  1  0.500000  0.707693  0.933451  1
  Hg  Hg11  1  0.500000  0.292307  0.066549  1
  Hg  Hg12  1  0.500000  0.792307  0.433451  1
  Hg  Hg13  1  0.500000  0.207693  0.566549  1
  Hg  Hg14  1  0.500000  0.582876  0.649862  1
  Hg  Hg15  1  0.500000  0.417124  0.350138  1
  Hg  Hg16  1  0.500000  0.917124  0.149862  1
  Hg  Hg17  1  0.500000  0.082876  0.850138  1
  Pd  Pd18  1  0.500000  0.525968  0.196031  1
  Pd  Pd19  1  0.500000  0.474032  0.803969  1
  Pd  Pd20  1  0.500000  0.974032  0.696031  1
  Pd  Pd21  1  0.500000  0.025968  0.303969  1
