# generated using pymatgen
data_Tb17Th3(Bi2Os)4
_symmetry_space_group_name_H-M   'P 1'
_cell_length_a   8.16111828
_cell_length_b   8.97869395
_cell_length_c   12.59950954
_cell_angle_alpha   90.12924893
_cell_angle_beta   89.88270221
_cell_angle_gamma   90.01689774
_symmetry_Int_Tables_number   1
_chemical_formula_structural   Tb17Th3(Bi2Os)4
_chemical_formula_sum   'Tb17 Th3 Bi8 Os4'
_cell_volume   923.23964854
_cell_formula_units_Z   1
loop_
 _symmetry_equiv_pos_site_id
 _symmetry_equiv_pos_as_xyz
  1  'x, y, z'
loop_
 _atom_site_type_symbol
 _atom_site_label
 _atom_site_symmetry_multiplicity
 _atom_site_fract_x
 _atom_site_fract_y
 _atom_site_fract_z
 _atom_site_occupancy
  Tb  Tb0  1  0.839812  0.748723  0.791885  1
  Tb  Tb1  1  0.158996  0.249939  0.205832  1
  Tb  Tb2  1  0.337451  0.251880  0.709562  1
  Tb  Tb3  1  0.661631  0.747805  0.290717  1
  Tb  Tb4  1  0.374417  0.747482  0.697694  1
  Tb  Tb5  1  0.624881  0.253896  0.302425  1
  Tb  Tb6  1  0.874891  0.250403  0.804332  1
  Tb  Tb7  1  0.121407  0.748550  0.196202  1
  Tb  Tb8  1  0.944049  0.748849  0.500617  1
  Tb  Tb9  1  0.054812  0.250479  0.499276  1
  Tb  Tb10  1  0.445636  0.251303  0.998415  1
  Tb  Tb11  1  0.561692  0.749662  0.001128  1
  Tb  Tb12  1  0.325801  0.543168  0.435415  1
  Tb  Tb13  1  0.819603  0.045371  0.068027  1
  Tb  Tb14  1  0.674038  0.456831  0.564290  1
  Tb  Tb15  1  0.827514  0.456262  0.065495  1
  Tb  Tb16  1  0.174686  0.542592  0.934662  1
  Th  Th17  1  0.680842  0.042067  0.565229  1
  Th  Th18  1  0.319122  0.958315  0.434891  1
  Th  Th19  1  0.172134  0.959935  0.939524  1
  Bi  Bi20  1  0.568253  0.490793  0.826973  1
  Bi  Bi21  1  0.431648  0.510149  0.172391  1
  Bi  Bi22  1  0.067226  0.509272  0.671420  1
  Bi  Bi23  1  0.432455  0.989577  0.172037  1
  Bi  Bi24  1  0.932485  0.490067  0.328375  1
  Bi  Bi25  1  0.569832  0.010026  0.828134  1
  Bi  Bi26  1  0.926187  0.011451  0.325300  1
  Bi  Bi27  1  0.073108  0.988010  0.673296  1
  Os  Os28  1  0.574872  0.763115  0.512213  1
  Os  Os29  1  0.425250  0.237082  0.488464  1
  Os  Os30  1  0.078510  0.243405  0.986346  1
  Os  Os31  1  0.926762  0.753541  0.009432  1
