# generated using pymatgen
data_Ga10IrPt
_symmetry_space_group_name_H-M   'P 1'
_cell_length_a   6.78452963
_cell_length_b   6.78452914
_cell_length_c   6.78452996
_cell_angle_alpha   122.13597755
_cell_angle_beta   122.13597973
_cell_angle_gamma   86.33855526
_symmetry_Int_Tables_number   1
_chemical_formula_structural   Ga10IrPt
_chemical_formula_sum   'Ga10 Ir1 Pt1'
_cell_volume   213.21955543
_cell_formula_units_Z   1
loop_
 _symmetry_equiv_pos_site_id
 _symmetry_equiv_pos_as_xyz
  1  'x, y, z'
loop_
 _atom_site_type_symbol
 _atom_site_label
 _atom_site_symmetry_multiplicity
 _atom_site_fract_x
 _atom_site_fract_y
 _atom_site_fract_z
 _atom_site_occupancy
  Ga  Ga0  1  0.999356  0.999356  0.000000  1
  Ga  Ga1  1  0.500644  0.500644  0.000000  1
  Ga  Ga2  1  0.790216  0.282579  0.791198  1
  Ga  Ga3  1  0.282579  0.491381  0.492363  1
  Ga  Ga4  1  0.999018  0.790216  0.507637  1
  Ga  Ga5  1  0.709784  0.500982  0.492363  1
  Ga  Ga6  1  0.008619  0.217421  0.507637  1
  Ga  Ga7  1  0.500982  0.008619  0.791198  1
  Ga  Ga8  1  0.217421  0.709784  0.208802  1
  Ga  Ga9  1  0.491381  0.999018  0.208802  1
  Ir  Ir10  1  0.250000  0.250000  0.000000  1
  Pt  Pt11  1  0.750000  0.750000  0.000000  1
