# generated using pymatgen
data_Dy4Ho8Ga2Ni3Os
_symmetry_space_group_name_H-M   'P 1'
_cell_length_a   8.30939251
_cell_length_b   8.30939499
_cell_length_c   8.30946430
_cell_angle_alpha   112.85341910
_cell_angle_beta   109.58652112
_cell_angle_gamma   106.04498006
_symmetry_Int_Tables_number   1
_chemical_formula_structural   Dy4Ho8Ga2Ni3Os
_chemical_formula_sum   'Dy4 Ho8 Ga2 Ni3 Os1'
_cell_volume   440.10548616
_cell_formula_units_Z   1
loop_
 _symmetry_equiv_pos_site_id
 _symmetry_equiv_pos_as_xyz
  1  'x, y, z'
loop_
 _atom_site_type_symbol
 _atom_site_label
 _atom_site_symmetry_multiplicity
 _atom_site_fract_x
 _atom_site_fract_y
 _atom_site_fract_z
 _atom_site_occupancy
  Dy  Dy0  1  0.439521  0.246675  0.192846  1
  Dy  Dy1  1  0.570723  0.765297  0.805435  1
  Dy  Dy2  1  0.040146  0.234720  0.805436  1
  Dy  Dy3  1  0.946171  0.753331  0.192837  1
  Ho  Ho4  1  0.184316  0.277647  0.461966  1
  Ho  Ho5  1  0.825738  0.721341  0.547079  1
  Ho  Ho6  1  0.184328  0.722343  0.906665  1
  Ho  Ho7  1  0.825729  0.278659  0.104388  1
  Ho  Ho8  1  0.325723  0.637758  0.308208  1
  Ho  Ho9  1  0.670452  0.362246  0.687967  1
  Ho  Ho10  1  0.325718  0.017519  0.687966  1
  Ho  Ho11  1  0.670450  0.982484  0.308210  1
  Ga  Ga12  1  0.496115  0.500003  0.996122  1
  Ga  Ga13  1  0.009793  0.000003  0.009784  1
  Ni  Ni14  1  0.652732  0.000002  0.652735  1
  Ni  Ni15  1  0.118502  0.618312  0.500192  1
  Ni  Ni16  1  0.881868  0.381668  0.500186  1
  Os  Os17  1  0.331974  0.999998  0.331978  1
