# generated using pymatgen
data_Mn4BeV7Os4
_symmetry_space_group_name_H-M   'P 1'
_cell_length_a   5.87917211
_cell_length_b   4.15163000
_cell_length_c   8.29914216
_cell_angle_alpha   90.00000000
_cell_angle_beta   89.97753777
_cell_angle_gamma   90.00000000
_symmetry_Int_Tables_number   1
_chemical_formula_structural   Mn4BeV7Os4
_chemical_formula_sum   'Mn4 Be1 V7 Os4'
_cell_volume   202.56666888
_cell_formula_units_Z   1
loop_
 _symmetry_equiv_pos_site_id
 _symmetry_equiv_pos_as_xyz
  1  'x, y, z'
loop_
 _atom_site_type_symbol
 _atom_site_label
 _atom_site_symmetry_multiplicity
 _atom_site_fract_x
 _atom_site_fract_y
 _atom_site_fract_z
 _atom_site_occupancy
  Mn  Mn0  1  0.249851  0.250001  0.124995  1
  Mn  Mn1  1  0.749476  0.750000  0.376695  1
  Mn  Mn2  1  0.250108  0.250001  0.624993  1
  Mn  Mn3  1  0.749513  0.750000  0.873293  1
  Be  Be4  1  0.000045  0.750000  0.124961  1
  V  V5  1  0.500862  0.750000  0.124956  1
  V  V6  1  0.000804  0.250001  0.365593  1
  V  V7  1  0.500087  0.250001  0.373137  1
  V  V8  1  0.499118  0.750000  0.625047  1
  V  V9  1  0.999101  0.750000  0.625053  1
  V  V10  1  0.500206  0.250001  0.876870  1
  V  V11  1  0.000708  0.250001  0.884400  1
  Os  Os12  1  0.753555  0.250001  0.124968  1
  Os  Os13  1  0.247984  0.750000  0.373767  1
  Os  Os14  1  0.750614  0.250001  0.625039  1
  Os  Os15  1  0.247966  0.750000  0.876232  1
