# generated using pymatgen
data_TbLu2Al3SiAu2
_symmetry_space_group_name_H-M   'P 1'
_cell_length_a   6.95554907
_cell_length_b   6.98574167
_cell_length_c   4.28200400
_cell_angle_alpha   90.00000000
_cell_angle_beta   90.00000000
_cell_angle_gamma   120.35910762
_symmetry_Int_Tables_number   1
_chemical_formula_structural   TbLu2Al3SiAu2
_chemical_formula_sum   'Tb1 Lu2 Al3 Si1 Au2'
_cell_volume   179.53068950
_cell_formula_units_Z   1
loop_
 _symmetry_equiv_pos_site_id
 _symmetry_equiv_pos_as_xyz
  1  'x, y, z'
loop_
 _atom_site_type_symbol
 _atom_site_label
 _atom_site_symmetry_multiplicity
 _atom_site_fract_x
 _atom_site_fract_y
 _atom_site_fract_z
 _atom_site_occupancy
  Tb  Tb0  1  0.426461  0.422353  0.500000  1
  Lu  Lu1  1  0.578523  0.002266  0.500000  1
  Lu  Lu2  1  0.999882  0.577628  0.500000  1
  Al  Al3  1  0.752508  0.758453  0.000000  1
  Al  Al4  1  0.243138  0.994556  0.000000  1
  Al  Al5  1  0.004143  0.248156  0.000000  1
  Si  Si6  1  0.668844  0.331372  0.000000  1
  Au  Au7  1  0.331368  0.670333  0.000000  1
  Au  Au8  1  0.995131  0.994884  0.500000  1
