# generated using pymatgen
data_Zr16Ni4Mo2IrPt
_symmetry_space_group_name_H-M   'P 1'
_cell_length_a   8.77457487
_cell_length_b   8.76820653
_cell_length_c   8.79705000
_cell_angle_alpha   59.89111515
_cell_angle_beta   59.91522603
_cell_angle_gamma   59.78390502
_symmetry_Int_Tables_number   1
_chemical_formula_structural   Zr16Ni4Mo2IrPt
_chemical_formula_sum   'Zr16 Ni4 Mo2 Ir1 Pt1'
_cell_volume   477.10008341
_cell_formula_units_Z   1
loop_
 _symmetry_equiv_pos_site_id
 _symmetry_equiv_pos_as_xyz
  1  'x, y, z'
loop_
 _atom_site_type_symbol
 _atom_site_label
 _atom_site_symmetry_multiplicity
 _atom_site_fract_x
 _atom_site_fract_y
 _atom_site_fract_z
 _atom_site_occupancy
  Zr  Zr0  1  0.195330  0.602097  0.601287  1
  Zr  Zr1  1  0.602661  0.193791  0.601775  1
  Zr  Zr2  1  0.604333  0.602941  0.604856  1
  Zr  Zr3  1  0.604333  0.602941  0.187872  1
  Zr  Zr4  1  0.454434  0.452165  0.046700  1
  Zr  Zr5  1  0.047214  0.046765  0.453010  1
  Zr  Zr6  1  0.451097  0.050832  0.050095  1
  Zr  Zr7  1  0.050252  0.451658  0.449424  1
  Zr  Zr8  1  0.050252  0.451658  0.048666  1
  Zr  Zr9  1  0.451097  0.050832  0.447975  1
  Zr  Zr10  1  0.813228  0.814166  0.186303  1
  Zr  Zr11  1  0.178601  0.189022  0.816188  1
  Zr  Zr12  1  0.814164  0.179674  0.189656  1
  Zr  Zr13  1  0.176632  0.815737  0.816609  1
  Zr  Zr14  1  0.176632  0.815737  0.191020  1
  Zr  Zr15  1  0.814164  0.179674  0.816506  1
  Ni  Ni16  1  0.824373  0.394682  0.390473  1
  Ni  Ni17  1  0.395530  0.824474  0.389998  1
  Ni  Ni18  1  0.393395  0.392196  0.387500  1
  Ni  Ni19  1  0.393395  0.392196  0.826911  1
  Mo  Mo20  1  0.834317  0.831860  0.831469  1
  Mo  Mo21  1  0.834317  0.831860  0.502355  1
  Ir  Ir22  1  0.838641  0.498245  0.831558  1
  Pt  Pt23  1  0.501611  0.834797  0.831796  1
