# generated using pymatgen
data_YbHo3(SiPt2)4
_symmetry_space_group_name_H-M   'P 1'
_cell_length_a   5.52364606
_cell_length_b   6.96366400
_cell_length_c   7.31446108
_cell_angle_alpha   90.00000000
_cell_angle_beta   90.01673356
_cell_angle_gamma   90.00000000
_symmetry_Int_Tables_number   1
_chemical_formula_structural   YbHo3(SiPt2)4
_chemical_formula_sum   'Yb1 Ho3 Si4 Pt8'
_cell_volume   281.34938172
_cell_formula_units_Z   1
loop_
 _symmetry_equiv_pos_site_id
 _symmetry_equiv_pos_as_xyz
  1  'x, y, z'
loop_
 _atom_site_type_symbol
 _atom_site_label
 _atom_site_symmetry_multiplicity
 _atom_site_fract_x
 _atom_site_fract_y
 _atom_site_fract_z
 _atom_site_occupancy
  Yb  Yb0  1  0.866353  0.250000  0.522736  1
  Ho  Ho1  1  0.133855  0.750000  0.475736  1
  Ho  Ho2  1  0.366079  0.750000  0.976262  1
  Ho  Ho3  1  0.634770  0.250000  0.024736  1
  Si  Si4  1  0.132630  0.250000  0.877192  1
  Si  Si5  1  0.368201  0.250000  0.380300  1
  Si  Si6  1  0.632146  0.750000  0.621020  1
  Si  Si7  1  0.867596  0.750000  0.121741  1
  Pt  Pt8  1  0.099870  0.051000  0.178960  1
  Pt  Pt9  1  0.099870  0.449000  0.178960  1
  Pt  Pt10  1  0.403088  0.050330  0.678969  1
  Pt  Pt11  1  0.403088  0.449670  0.678969  1
  Pt  Pt12  1  0.594040  0.550856  0.318967  1
  Pt  Pt13  1  0.594040  0.949144  0.318967  1
  Pt  Pt14  1  0.902187  0.551608  0.823242  1
  Pt  Pt15  1  0.902187  0.948392  0.823242  1
