# generated using pymatgen
data_Pr4Lu6In3Sn5
_symmetry_space_group_name_H-M   'P 1'
_cell_length_a   7.84810400
_cell_length_b   8.32409800
_cell_length_c   15.65811200
_cell_angle_alpha   90.00000000
_cell_angle_beta   90.00000000
_cell_angle_gamma   90.00000000
_symmetry_Int_Tables_number   1
_chemical_formula_structural   Pr4Lu6In3Sn5
_chemical_formula_sum   'Pr8 Lu12 In6 Sn10'
_cell_volume   1022.91919745
_cell_formula_units_Z   2
loop_
 _symmetry_equiv_pos_site_id
 _symmetry_equiv_pos_as_xyz
  1  'x, y, z'
loop_
 _atom_site_type_symbol
 _atom_site_label
 _atom_site_symmetry_multiplicity
 _atom_site_fract_x
 _atom_site_fract_y
 _atom_site_fract_z
 _atom_site_occupancy
  Pr  Pr0  1  0.501791  0.318402  0.905921  1
  Pr  Pr1  1  0.001791  0.181598  0.594079  1
  Pr  Pr2  1  0.498066  0.679631  0.405962  1
  Pr  Pr3  1  0.998066  0.820369  0.094038  1
  Pr  Pr4  1  0.498066  0.679631  0.094038  1
  Pr  Pr5  1  0.998066  0.820369  0.405962  1
  Pr  Pr6  1  0.501791  0.318402  0.594079  1
  Pr  Pr7  1  0.001791  0.181598  0.905921  1
  Lu  Lu8  1  0.341623  0.830651  0.874120  1
  Lu  Lu9  1  0.841623  0.669349  0.625880  1
  Lu  Lu10  1  0.660108  0.168878  0.376577  1
  Lu  Lu11  1  0.160108  0.331122  0.123423  1
  Lu  Lu12  1  0.660108  0.168878  0.123423  1
  Lu  Lu13  1  0.160108  0.331122  0.376577  1
  Lu  Lu14  1  0.341623  0.830651  0.625880  1
  Lu  Lu15  1  0.841623  0.669349  0.874120  1
  Lu  Lu16  1  0.176716  0.497404  0.750000  1
  Lu  Lu17  1  0.676716  0.002596  0.750000  1
  Lu  Lu18  1  0.821634  0.499740  0.250000  1
  Lu  Lu19  1  0.321634  0.000260  0.250000  1
  In  In20  1  0.540702  0.617102  0.750000  1
  In  In21  1  0.040702  0.882898  0.750000  1
  In  In22  1  0.458828  0.377317  0.250000  1
  In  In23  1  0.958828  0.122683  0.250000  1
  In  In24  1  0.301311  0.133766  0.750000  1
  In  In25  1  0.801311  0.366234  0.750000  1
  Sn  Sn26  1  0.321054  0.039135  0.039061  1
  Sn  Sn27  1  0.821054  0.460865  0.460939  1
  Sn  Sn28  1  0.680030  0.959086  0.540696  1
  Sn  Sn29  1  0.180030  0.540914  0.959304  1
  Sn  Sn30  1  0.680030  0.959086  0.959304  1
  Sn  Sn31  1  0.180030  0.540914  0.540696  1
  Sn  Sn32  1  0.321054  0.039135  0.460939  1
  Sn  Sn33  1  0.821054  0.460865  0.039061  1
  Sn  Sn34  1  0.695466  0.864026  0.250000  1
  Sn  Sn35  1  0.195466  0.635974  0.250000  1
