# generated using pymatgen
data_Tb4LuSc3Pt4
_symmetry_space_group_name_H-M   'P 1'
_cell_length_a   4.65306900
_cell_length_b   7.03943162
_cell_length_c   8.49799337
_cell_angle_alpha   90.28178194
_cell_angle_beta   90.00000000
_cell_angle_gamma   90.00000000
_symmetry_Int_Tables_number   1
_chemical_formula_structural   Tb4LuSc3Pt4
_chemical_formula_sum   'Tb4 Lu1 Sc3 Pt4'
_cell_volume   278.34807536
_cell_formula_units_Z   1
loop_
 _symmetry_equiv_pos_site_id
 _symmetry_equiv_pos_as_xyz
  1  'x, y, z'
loop_
 _atom_site_type_symbol
 _atom_site_label
 _atom_site_symmetry_multiplicity
 _atom_site_fract_x
 _atom_site_fract_y
 _atom_site_fract_z
 _atom_site_occupancy
  Tb  Tb0  1  0.250000  0.980946  0.329275  1
  Tb  Tb1  1  0.250000  0.487917  0.174818  1
  Tb  Tb2  1  0.750000  0.017536  0.675937  1
  Tb  Tb3  1  0.750000  0.518698  0.820405  1
  Lu  Lu4  1  0.750000  0.141524  0.074911  1
  Sc  Sc5  1  0.250000  0.362710  0.570985  1
  Sc  Sc6  1  0.250000  0.854762  0.925746  1
  Sc  Sc7  1  0.750000  0.640994  0.427064  1
  Pt  Pt8  1  0.250000  0.245643  0.896619  1
  Pt  Pt9  1  0.250000  0.745449  0.598574  1
  Pt  Pt10  1  0.750000  0.747708  0.097810  1
  Pt  Pt11  1  0.750000  0.256111  0.407857  1
