# generated using pymatgen
data_Tc6S7I4
_symmetry_space_group_name_H-M   'P 1'
_cell_length_a   12.11087987
_cell_length_b   12.11087867
_cell_length_c   12.11087877
_cell_angle_alpha   51.56272455
_cell_angle_beta   51.56273114
_cell_angle_gamma   51.56271511
_symmetry_Int_Tables_number   1
_chemical_formula_structural   Tc6S7I4
_chemical_formula_sum   'Tc12 S14 I8'
_cell_volume   1006.60075182
_cell_formula_units_Z   2
loop_
 _symmetry_equiv_pos_site_id
 _symmetry_equiv_pos_as_xyz
  1  'x, y, z'
loop_
 _atom_site_type_symbol
 _atom_site_label
 _atom_site_symmetry_multiplicity
 _atom_site_fract_x
 _atom_site_fract_y
 _atom_site_fract_z
 _atom_site_occupancy
  Tc  Tc0  1  0.520554  0.399457  0.683173  1
  Tc  Tc1  1  0.399457  0.683173  0.520554  1
  Tc  Tc2  1  0.683173  0.520554  0.399457  1
  Tc  Tc3  1  0.183173  0.899457  0.020554  1
  Tc  Tc4  1  0.899457  0.020554  0.183173  1
  Tc  Tc5  1  0.020554  0.183173  0.899457  1
  Tc  Tc6  1  0.480856  0.604331  0.315635  1
  Tc  Tc7  1  0.604331  0.315635  0.480856  1
  Tc  Tc8  1  0.315635  0.480856  0.604331  1
  Tc  Tc9  1  0.815635  0.104331  0.980856  1
  Tc  Tc10  1  0.104331  0.980856  0.815635  1
  Tc  Tc11  1  0.980856  0.815635  0.104331  1
  S  S12  1  0.778779  0.257806  0.556610  1
  S  S13  1  0.257806  0.556610  0.778779  1
  S  S14  1  0.556610  0.778779  0.257806  1
  S  S15  1  0.056610  0.757806  0.278779  1
  S  S16  1  0.757806  0.278779  0.056610  1
  S  S17  1  0.278779  0.056610  0.757806  1
  S  S18  1  0.220921  0.744462  0.444191  1
  S  S19  1  0.744462  0.444191  0.220921  1
  S  S20  1  0.444191  0.220921  0.744462  1
  S  S21  1  0.944191  0.244462  0.720921  1
  S  S22  1  0.244462  0.720921  0.944191  1
  S  S23  1  0.720921  0.944191  0.244462  1
  S  S24  1  0.593936  0.593936  0.593936  1
  S  S25  1  0.093936  0.093936  0.093936  1
  I  I26  1  0.974392  0.524359  0.257595  1
  I  I27  1  0.524359  0.257595  0.974392  1
  I  I28  1  0.257595  0.974392  0.524359  1
  I  I29  1  0.757595  0.024359  0.474392  1
  I  I30  1  0.024359  0.474392  0.757595  1
  I  I31  1  0.474392  0.757595  0.024359  1
  I  I32  1  0.392904  0.392904  0.392904  1
  I  I33  1  0.892904  0.892904  0.892904  1
