# generated using pymatgen
data_Ho3Pa(InNi2)2
_symmetry_space_group_name_H-M   'P 1'
_cell_length_a   7.42430589
_cell_length_b   7.42430589
_cell_length_c   3.57890900
_cell_angle_alpha   90.00000000
_cell_angle_beta   90.00000000
_cell_angle_gamma   92.44571328
_symmetry_Int_Tables_number   1
_chemical_formula_structural   Ho3Pa(InNi2)2
_chemical_formula_sum   'Ho3 Pa1 In2 Ni4'
_cell_volume   197.09090851
_cell_formula_units_Z   1
loop_
 _symmetry_equiv_pos_site_id
 _symmetry_equiv_pos_as_xyz
  1  'x, y, z'
loop_
 _atom_site_type_symbol
 _atom_site_label
 _atom_site_symmetry_multiplicity
 _atom_site_fract_x
 _atom_site_fract_y
 _atom_site_fract_z
 _atom_site_occupancy
  Ho  Ho0  1  0.324451  0.824451  0.500000  1
  Ho  Ho1  1  0.174416  0.329788  0.500000  1
  Ho  Ho2  1  0.829788  0.674416  0.500000  1
  Pa  Pa3  1  0.670571  0.170571  0.500000  1
  In  In4  1  0.499125  0.505977  0.000000  1
  In  In5  1  0.005977  0.999125  0.000000  1
  Ni  Ni6  1  0.112163  0.612163  0.000000  1
  Ni  Ni7  1  0.859667  0.359667  0.000000  1
  Ni  Ni8  1  0.629539  0.894304  0.000000  1
  Ni  Ni9  1  0.394304  0.129539  0.000000  1
