# generated using pymatgen
data_Sm4V4OF27
_symmetry_space_group_name_H-M   'P 1'
_cell_length_a   5.59572458
_cell_length_b   8.98740409
_cell_length_c   12.00241407
_cell_angle_alpha   62.90910651
_cell_angle_beta   89.97988801
_cell_angle_gamma   89.65289265
_symmetry_Int_Tables_number   1
_chemical_formula_structural   Sm4V4OF27
_chemical_formula_sum   'Sm4 V4 O1 F27'
_cell_volume   537.37665900
_cell_formula_units_Z   1
loop_
 _symmetry_equiv_pos_site_id
 _symmetry_equiv_pos_as_xyz
  1  'x, y, z'
loop_
 _atom_site_type_symbol
 _atom_site_label
 _atom_site_symmetry_multiplicity
 _atom_site_fract_x
 _atom_site_fract_y
 _atom_site_fract_z
 _atom_site_occupancy
  Sm  Sm0  1  0.764418  0.808233  0.764343  1
  Sm  Sm1  1  0.258001  0.190739  0.733643  1
  Sm  Sm2  1  0.242396  0.194391  0.230888  1
  Sm  Sm3  1  0.750185  0.807586  0.266609  1
  V  V4  1  0.752995  0.275341  0.955569  1
  V  V5  1  0.259218  0.725333  0.543022  1
  V  V6  1  0.257088  0.724298  0.034965  1
  V  V7  1  0.745506  0.273533  0.456822  1
  O  O8  1  0.433824  0.707704  0.932669  1
  F  F9  1  0.946019  0.290613  0.577821  1
  F  F10  1  0.552188  0.296427  0.074745  1
  F  F11  1  0.058933  0.706394  0.423212  1
  F  F12  1  0.467423  0.283683  0.546333  1
  F  F13  1  0.965504  0.715577  0.957429  1
  F  F14  1  0.537962  0.713898  0.455965  1
  F  F15  1  0.032480  0.285688  0.043290  1
  F  F16  1  0.762835  0.506578  0.864032  1
  F  F17  1  0.268803  0.495729  0.636913  1
  F  F18  1  0.223891  0.495257  0.139403  1
  F  F19  1  0.733370  0.502579  0.364032  1
  F  F20  1  0.756080  0.048047  0.044727  1
  F  F21  1  0.259942  0.953134  0.454112  1
  F  F22  1  0.234493  0.956358  0.952572  1
  F  F23  1  0.742042  0.044340  0.548003  1
  F  F24  1  0.984723  0.730777  0.635513  1
  F  F25  1  0.481153  0.270914  0.862217  1
  F  F26  1  0.017409  0.265028  0.365630  1
  F  F27  1  0.500835  0.731677  0.138792  1
  F  F28  1  0.038689  0.748978  0.161193  1
  F  F29  1  0.546315  0.253348  0.334999  1
  F  F30  1  0.951227  0.257992  0.831952  1
  F  F31  1  0.456001  0.744895  0.666970  1
  F  F32  1  0.422634  0.973678  0.229953  1
  F  F33  1  0.919164  0.029338  0.269222  1
  F  F34  1  0.585213  0.024188  0.772833  1
  F  F35  1  0.091039  0.967726  0.729608  1
