# generated using pymatgen
data_Ac2YSi4(AsPd10)2
_symmetry_space_group_name_H-M   'P 1'
_cell_length_a   8.80567053
_cell_length_b   8.91746612
_cell_length_c   8.91744514
_cell_angle_alpha   59.17231523
_cell_angle_beta   60.41389743
_cell_angle_gamma   60.41365087
_symmetry_Int_Tables_number   1
_chemical_formula_structural   Ac2YSi4(AsPd10)2
_chemical_formula_sum   'Ac2 Y1 Si4 As2 Pd20'
_cell_volume   494.98731534
_cell_formula_units_Z   1
loop_
 _symmetry_equiv_pos_site_id
 _symmetry_equiv_pos_as_xyz
  1  'x, y, z'
loop_
 _atom_site_type_symbol
 _atom_site_label
 _atom_site_symmetry_multiplicity
 _atom_site_fract_x
 _atom_site_fract_y
 _atom_site_fract_z
 _atom_site_occupancy
  Ac  Ac0  1  0.250000  0.250000  0.250000  1
  Ac  Ac1  1  0.750000  0.750000  0.750000  1
  Y  Y2  1  0.000000  0.000000  0.000000  1
  Si  Si3  1  0.265507  0.734493  0.265507  1
  Si  Si4  1  0.734493  0.265507  0.734493  1
  Si  Si5  1  0.265507  0.265507  0.734493  1
  Si  Si6  1  0.734493  0.734493  0.265507  1
  As  As7  1  0.736752  0.263248  0.263248  1
  As  As8  1  0.263248  0.736752  0.736752  1
  Pd  Pd9  1  0.382051  0.389499  0.389502  1
  Pd  Pd10  1  0.617949  0.610501  0.610498  1
  Pd  Pd11  1  0.389499  0.382051  0.838949  1
  Pd  Pd12  1  0.389500  0.838948  0.382052  1
  Pd  Pd13  1  0.610501  0.617949  0.161051  1
  Pd  Pd14  1  0.610500  0.161052  0.617948  1
  Pd  Pd15  1  0.838948  0.389500  0.389502  1
  Pd  Pd16  1  0.161052  0.610500  0.610498  1
  Pd  Pd17  1  0.345737  0.000000  0.000001  1
  Pd  Pd18  1  0.654263  0.000000  0.999999  1
  Pd  Pd19  1  0.000000  0.345737  0.654264  1
  Pd  Pd20  1  0.000000  0.654263  0.345736  1
  Pd  Pd21  1  0.008853  0.346358  0.991147  1
  Pd  Pd22  1  0.653642  0.991147  0.346358  1
  Pd  Pd23  1  0.991147  0.653642  0.008853  1
  Pd  Pd24  1  0.346358  0.008853  0.653642  1
  Pd  Pd25  1  0.008853  0.991147  0.346359  1
  Pd  Pd26  1  0.991147  0.008853  0.653641  1
  Pd  Pd27  1  0.653641  0.346359  0.991147  1
  Pd  Pd28  1  0.346359  0.653641  0.008853  1
