# generated using pymatgen
data_Sr5FeWN7
_symmetry_space_group_name_H-M   'P 1'
_cell_length_a   6.44667105
_cell_length_b   9.15555469
_cell_length_c   9.17386372
_cell_angle_alpha   114.23889823
_cell_angle_beta   97.25103791
_cell_angle_gamma   89.83947262
_symmetry_Int_Tables_number   1
_chemical_formula_structural   Sr5FeWN7
_chemical_formula_sum   'Sr10 Fe2 W2 N14'
_cell_volume   489.06450621
_cell_formula_units_Z   2
loop_
 _symmetry_equiv_pos_site_id
 _symmetry_equiv_pos_as_xyz
  1  'x, y, z'
loop_
 _atom_site_type_symbol
 _atom_site_label
 _atom_site_symmetry_multiplicity
 _atom_site_fract_x
 _atom_site_fract_y
 _atom_site_fract_z
 _atom_site_occupancy
  Sr  Sr0  1  0.847469  0.582275  0.337487  1
  Sr  Sr1  1  0.268590  0.981205  0.563154  1
  Sr  Sr2  1  0.701598  0.410336  0.842042  1
  Sr  Sr3  1  0.298402  0.589664  0.157958  1
  Sr  Sr4  1  0.398818  0.787784  0.907605  1
  Sr  Sr5  1  0.601182  0.212216  0.092395  1
  Sr  Sr6  1  0.152531  0.417725  0.662513  1
  Sr  Sr7  1  0.891046  0.843383  0.756989  1
  Sr  Sr8  1  0.108954  0.156617  0.243011  1
  Sr  Sr9  1  0.731410  0.018795  0.436846  1
  Fe  Fe10  1  0.574398  0.356357  0.474263  1
  Fe  Fe11  1  0.425602  0.643643  0.525737  1
  W  W12  1  0.120772  0.217377  0.914346  1
  W  W13  1  0.879228  0.782623  0.085654  1
  N  N14  1  0.540099  0.545198  0.652495  1
  N  N15  1  0.459901  0.454802  0.347505  1
  N  N16  1  0.175191  0.695842  0.569145  1
  N  N17  1  0.824809  0.304158  0.430855  1
  N  N18  1  0.420819  0.203396  0.477240  1
  N  N19  1  0.579181  0.796604  0.522760  1
  N  N20  1  0.948433  0.133826  0.711816  1
  N  N21  1  0.051567  0.866174  0.288184  1
  N  N22  1  0.235490  0.051100  0.963990  1
  N  N23  1  0.764510  0.948900  0.036010  1
  N  N24  1  0.353315  0.334146  0.902729  1
  N  N25  1  0.967614  0.347521  0.081089  1
  N  N26  1  0.032386  0.652479  0.918911  1
  N  N27  1  0.646685  0.665854  0.097271  1
