# generated using pymatgen
data_Ba3VCO3F7
_symmetry_space_group_name_H-M   'P 1'
_cell_length_a   8.96100086
_cell_length_b   8.96100023
_cell_length_c   6.04473900
_cell_angle_alpha   90.00000000
_cell_angle_beta   90.00000000
_cell_angle_gamma   100.35130327
_symmetry_Int_Tables_number   1
_chemical_formula_structural   Ba3VCO3F7
_chemical_formula_sum   'Ba6 V2 C2 O6 F14'
_cell_volume   477.48976561
_cell_formula_units_Z   2
loop_
 _symmetry_equiv_pos_site_id
 _symmetry_equiv_pos_as_xyz
  1  'x, y, z'
loop_
 _atom_site_type_symbol
 _atom_site_label
 _atom_site_symmetry_multiplicity
 _atom_site_fract_x
 _atom_site_fract_y
 _atom_site_fract_z
 _atom_site_occupancy
  Ba  Ba0  1  0.599081  0.845175  0.750000  1
  Ba  Ba1  1  0.845175  0.599081  0.250000  1
  Ba  Ba2  1  0.154825  0.400919  0.750000  1
  Ba  Ba3  1  0.904864  0.095136  0.250000  1
  Ba  Ba4  1  0.095136  0.904864  0.750000  1
  Ba  Ba5  1  0.400919  0.154825  0.250000  1
  V  V6  1  0.736321  0.263679  0.750000  1
  V  V7  1  0.263679  0.736321  0.250000  1
  C  C8  1  0.549720  0.450280  0.750000  1
  C  C9  1  0.450280  0.549720  0.250000  1
  O  O10  1  0.457232  0.542768  0.750000  1
  O  O11  1  0.493854  0.697495  0.250000  1
  O  O12  1  0.697495  0.493854  0.750000  1
  O  O13  1  0.506146  0.302505  0.750000  1
  O  O14  1  0.542768  0.457232  0.250000  1
  O  O15  1  0.302505  0.506146  0.250000  1
  F  F16  1  0.163037  0.163037  0.500000  1
  F  F17  1  0.883619  0.116381  0.750000  1
  F  F18  1  0.116381  0.883619  0.250000  1
  F  F19  1  0.836963  0.836963  0.500000  1
  F  F20  1  0.643930  0.116879  0.504420  1
  F  F21  1  0.116879  0.643930  0.495580  1
  F  F22  1  0.883121  0.356070  0.995580  1
  F  F23  1  0.883121  0.356070  0.504420  1
  F  F24  1  0.643930  0.116879  0.995580  1
  F  F25  1  0.356070  0.883121  0.004420  1
  F  F26  1  0.836963  0.836963  0.000000  1
  F  F27  1  0.163037  0.163037  0.000000  1
  F  F28  1  0.116879  0.643930  0.004420  1
  F  F29  1  0.356070  0.883121  0.495580  1
