# generated using pymatgen
data_PrTh2In5
_symmetry_space_group_name_H-M   'P 1'
_cell_length_a   6.64997403
_cell_length_b   6.64997472
_cell_length_c   10.41869100
_cell_angle_alpha   90.00000000
_cell_angle_beta   90.00000000
_cell_angle_gamma   102.57144324
_symmetry_Int_Tables_number   1
_chemical_formula_structural   PrTh2In5
_chemical_formula_sum   'Pr2 Th4 In10'
_cell_volume   449.69101058
_cell_formula_units_Z   2
loop_
 _symmetry_equiv_pos_site_id
 _symmetry_equiv_pos_as_xyz
  1  'x, y, z'
loop_
 _atom_site_type_symbol
 _atom_site_label
 _atom_site_symmetry_multiplicity
 _atom_site_fract_x
 _atom_site_fract_y
 _atom_site_fract_z
 _atom_site_occupancy
  Pr  Pr0  1  0.132989  0.132989  0.750000  1
  Pr  Pr1  1  0.867011  0.867011  0.250000  1
  Th  Th2  1  0.705629  0.294371  0.000000  1
  Th  Th3  1  0.705629  0.294371  0.500000  1
  Th  Th4  1  0.294371  0.705629  0.000000  1
  Th  Th5  1  0.294371  0.705629  0.500000  1
  In  In6  1  0.515499  0.515499  0.750000  1
  In  In7  1  0.484501  0.484501  0.250000  1
  In  In8  1  0.807844  0.807844  0.549894  1
  In  In9  1  0.192156  0.192156  0.450106  1
  In  In10  1  0.807844  0.807844  0.950106  1
  In  In11  1  0.192156  0.192156  0.049894  1
  In  In12  1  0.994889  0.573596  0.750000  1
  In  In13  1  0.426404  0.005111  0.250000  1
  In  In14  1  0.005111  0.426404  0.250000  1
  In  In15  1  0.573596  0.994889  0.750000  1
