# generated using pymatgen
data_Tm2Al9TcPt2
_symmetry_space_group_name_H-M   'P 1'
_cell_length_a   7.58303357
_cell_length_b   7.58303247
_cell_length_c   9.46454700
_cell_angle_alpha   90.00000000
_cell_angle_beta   90.00000000
_cell_angle_gamma   118.71980371
_symmetry_Int_Tables_number   1
_chemical_formula_structural   Tm2Al9TcPt2
_chemical_formula_sum   'Tm4 Al18 Tc2 Pt4'
_cell_volume   477.28246451
_cell_formula_units_Z   2
loop_
 _symmetry_equiv_pos_site_id
 _symmetry_equiv_pos_as_xyz
  1  'x, y, z'
loop_
 _atom_site_type_symbol
 _atom_site_label
 _atom_site_symmetry_multiplicity
 _atom_site_fract_x
 _atom_site_fract_y
 _atom_site_fract_z
 _atom_site_occupancy
  Tm  Tm0  1  0.993380  0.679280  0.250000  1
  Tm  Tm1  1  0.006620  0.320720  0.750000  1
  Tm  Tm2  1  0.679280  0.993380  0.250000  1
  Tm  Tm3  1  0.320720  0.006620  0.750000  1
  Al  Al4  1  0.128280  0.128280  0.250000  1
  Al  Al5  1  0.871720  0.871720  0.750000  1
  Al  Al6  1  0.000612  0.333055  0.077017  1
  Al  Al7  1  0.999388  0.666945  0.922983  1
  Al  Al8  1  0.999388  0.666945  0.577017  1
  Al  Al9  1  0.333055  0.000612  0.422983  1
  Al  Al10  1  0.000612  0.333055  0.422983  1
  Al  Al11  1  0.666945  0.999388  0.577017  1
  Al  Al12  1  0.666945  0.999388  0.922983  1
  Al  Al13  1  0.333055  0.000612  0.077017  1
  Al  Al14  1  0.327944  0.327944  0.551444  1
  Al  Al15  1  0.672056  0.672056  0.448556  1
  Al  Al16  1  0.672056  0.672056  0.051444  1
  Al  Al17  1  0.327944  0.327944  0.948556  1
  Al  Al18  1  0.342747  0.550297  0.250000  1
  Al  Al19  1  0.657253  0.449703  0.750000  1
  Al  Al20  1  0.550297  0.342747  0.250000  1
  Al  Al21  1  0.449703  0.657253  0.750000  1
  Tc  Tc22  1  0.000000  0.000000  0.000000  1
  Tc  Tc23  1  0.000000  0.000000  0.500000  1
  Pt  Pt24  1  0.671828  0.328172  0.000000  1
  Pt  Pt25  1  0.328172  0.671828  0.000000  1
  Pt  Pt26  1  0.328172  0.671828  0.500000  1
  Pt  Pt27  1  0.671828  0.328172  0.500000  1
