# generated using pymatgen
data_Sr3NdHf2(ThSb5)2
_symmetry_space_group_name_H-M   'P 1'
_cell_length_a   9.71602627
_cell_length_b   9.67813302
_cell_length_c   6.38889300
_cell_angle_alpha   90.00000000
_cell_angle_beta   90.00000000
_cell_angle_gamma   119.96938971
_symmetry_Int_Tables_number   1
_chemical_formula_structural   Sr3NdHf2(ThSb5)2
_chemical_formula_sum   'Sr3 Nd1 Hf2 Th2 Sb10'
_cell_volume   520.43966590
_cell_formula_units_Z   1
loop_
 _symmetry_equiv_pos_site_id
 _symmetry_equiv_pos_as_xyz
  1  'x, y, z'
loop_
 _atom_site_type_symbol
 _atom_site_label
 _atom_site_symmetry_multiplicity
 _atom_site_fract_x
 _atom_site_fract_y
 _atom_site_fract_z
 _atom_site_occupancy
  Sr  Sr0  1  0.993250  0.610485  0.250000  1
  Sr  Sr1  1  0.007006  0.385703  0.750000  1
  Sr  Sr2  1  0.378704  0.386662  0.250000  1
  Nd  Nd3  1  0.621555  0.616226  0.750000  1
  Hf  Hf4  1  0.000477  0.999016  0.001368  1
  Hf  Hf5  1  0.000477  0.999016  0.498632  1
  Th  Th6  1  0.626158  0.007257  0.250000  1
  Th  Th7  1  0.372243  0.996964  0.750000  1
  Sb  Sb8  1  0.259070  0.997251  0.250000  1
  Sb  Sb9  1  0.737548  0.993965  0.750000  1
  Sb  Sb10  1  0.995424  0.250487  0.250000  1
  Sb  Sb11  1  0.997882  0.743972  0.750000  1
  Sb  Sb12  1  0.740021  0.747883  0.250000  1
  Sb  Sb13  1  0.257149  0.252181  0.750000  1
  Sb  Sb14  1  0.351373  0.686486  0.994593  1
  Sb  Sb15  1  0.655145  0.319980  0.989734  1
  Sb  Sb16  1  0.655145  0.319980  0.510266  1
  Sb  Sb17  1  0.351373  0.686486  0.505407  1
