# generated using pymatgen
data_Ti5Si2GeO
_symmetry_space_group_name_H-M   'P 1'
_cell_length_a   7.47692600
_cell_length_b   7.46406711
_cell_length_c   5.17371100
_cell_angle_alpha   90.00000000
_cell_angle_beta   90.00000000
_cell_angle_gamma   120.05699639
_symmetry_Int_Tables_number   1
_chemical_formula_structural   Ti5Si2GeO
_chemical_formula_sum   'Ti10 Si4 Ge2 O2'
_cell_volume   249.90888604
_cell_formula_units_Z   2
loop_
 _symmetry_equiv_pos_site_id
 _symmetry_equiv_pos_as_xyz
  1  'x, y, z'
loop_
 _atom_site_type_symbol
 _atom_site_label
 _atom_site_symmetry_multiplicity
 _atom_site_fract_x
 _atom_site_fract_y
 _atom_site_fract_z
 _atom_site_occupancy
  Ti  Ti0  1  0.232669  0.000000  0.750000  1
  Ti  Ti1  1  0.767331  0.000000  0.250000  1
  Ti  Ti2  1  0.003477  0.239432  0.750000  1
  Ti  Ti3  1  0.996523  0.760568  0.250000  1
  Ti  Ti4  1  0.764045  0.760568  0.750000  1
  Ti  Ti5  1  0.235955  0.239432  0.250000  1
  Ti  Ti6  1  0.330902  0.661804  0.500000  1
  Ti  Ti7  1  0.669098  0.338196  0.500000  1
  Ti  Ti8  1  0.669098  0.338196  0.000000  1
  Ti  Ti9  1  0.330902  0.661804  0.000000  1
  Si  Si10  1  0.001184  0.593556  0.750000  1
  Si  Si11  1  0.998816  0.406444  0.250000  1
  Si  Si12  1  0.407627  0.406444  0.750000  1
  Si  Si13  1  0.592373  0.593556  0.250000  1
  Ge  Ge14  1  0.595188  0.000000  0.750000  1
  Ge  Ge15  1  0.404812  0.000000  0.250000  1
  O  O16  1  0.000000  0.000000  0.500000  1
  O  O17  1  0.000000  0.000000  0.000000  1
