# generated using pymatgen
data_La13Pr3Mg3Cd(CoTc)2
_symmetry_space_group_name_H-M   'P 1'
_cell_length_a   10.00521084
_cell_length_b   9.94771029
_cell_length_c   10.00521000
_cell_angle_alpha   60.14354626
_cell_angle_beta   60.76328715
_cell_angle_gamma   60.14354629
_symmetry_Int_Tables_number   1
_chemical_formula_structural   La13Pr3Mg3Cd(CoTc)2
_chemical_formula_sum   'La13 Pr3 Mg3 Cd1 Co2 Tc2'
_cell_volume   709.66472151
_cell_formula_units_Z   1
loop_
 _symmetry_equiv_pos_site_id
 _symmetry_equiv_pos_as_xyz
  1  'x, y, z'
loop_
 _atom_site_type_symbol
 _atom_site_label
 _atom_site_symmetry_multiplicity
 _atom_site_fract_x
 _atom_site_fract_y
 _atom_site_fract_z
 _atom_site_occupancy
  La  La0  1  0.682777  0.691489  0.310884  1
  La  La1  1  0.158954  0.151893  0.538142  1
  La  La2  1  0.310884  0.691489  0.682777  1
  La  La3  1  0.159340  0.150993  0.159340  1
  La  La4  1  0.538142  0.151893  0.158954  1
  La  La5  1  0.309418  0.690948  0.309418  1
  La  La6  1  0.310589  0.312245  0.685111  1
  La  La7  1  0.686526  0.312593  0.686526  1
  La  La8  1  0.935804  0.558802  0.557757  1
  La  La9  1  0.557757  0.558802  0.935804  1
  La  La10  1  0.159430  0.532255  0.159430  1
  La  La11  1  0.685111  0.312245  0.310589  1
  La  La12  1  0.942085  0.557839  0.942085  1
  Pr  Pr13  1  0.932676  0.941563  0.562449  1
  Pr  Pr14  1  0.560641  0.940296  0.560641  1
  Pr  Pr15  1  0.562449  0.941563  0.932676  1
  Mg  Mg16  1  0.235070  0.922930  0.921082  1
  Mg  Mg17  1  0.921546  0.922705  0.921546  1
  Mg  Mg18  1  0.921082  0.922930  0.235070  1
  Cd  Cd19  1  0.921983  0.236089  0.921983  1
  Co  Co20  1  0.366882  0.913436  0.366882  1
  Co  Co21  1  0.366540  0.354515  0.366540  1
  Tc  Tc22  1  0.905880  0.365244  0.368429  1
  Tc  Tc23  1  0.368429  0.365244  0.905880  1
