# generated using pymatgen
data_Pr12Pt2RhAuI12
_symmetry_space_group_name_H-M   'P 1'
_cell_length_a   11.07474368
_cell_length_b   10.97907685
_cell_length_c   10.85675493
_cell_angle_alpha   109.08234550
_cell_angle_beta   109.39697466
_cell_angle_gamma   109.88608642
_symmetry_Int_Tables_number   1
_chemical_formula_structural   Pr12Pt2RhAuI12
_chemical_formula_sum   'Pr12 Pt2 Rh1 Au1 I12'
_cell_volume   1016.76299126
_cell_formula_units_Z   1
loop_
 _symmetry_equiv_pos_site_id
 _symmetry_equiv_pos_as_xyz
  1  'x, y, z'
loop_
 _atom_site_type_symbol
 _atom_site_label
 _atom_site_symmetry_multiplicity
 _atom_site_fract_x
 _atom_site_fract_y
 _atom_site_fract_z
 _atom_site_occupancy
  Pr  Pr0  1  0.040806  0.271954  0.018376  1
  Pr  Pr1  1  0.758174  0.023581  0.485656  1
  Pr  Pr2  1  0.264425  0.738166  0.224994  1
  Pr  Pr3  1  0.473741  0.738166  0.013172  1
  Pr  Pr4  1  0.757824  0.234858  0.272208  1
  Pr  Pr5  1  0.022438  0.481453  0.753488  1
  Pr  Pr6  1  0.231148  0.271954  0.753578  1
  Pr  Pr7  1  0.477034  0.234858  0.462651  1
  Pr  Pr8  1  0.459014  0.481453  0.227965  1
  Pr  Pr9  1  0.265407  0.023581  0.037924  1
  Pr  Pr10  1  0.020131  0.040262  0.270131  1
  Pr  Pr11  1  0.229521  0.459041  0.479521  1
  Pt  Pt12  1  0.249576  0.250833  0.249504  1
  Pt  Pt13  1  0.001257  0.250833  0.501328  1
  Rh  Rh14  1  0.249508  0.499016  0.999508  1
  Au  Au15  1  0.499799  0.999597  0.249799  1
  I  I16  1  0.757678  0.742878  0.249921  1
  I  I17  1  0.990813  0.509067  0.250144  1
  I  I18  1  0.250365  0.758654  0.742878  1
  I  I19  1  0.757319  0.514639  0.507319  1
  I  I20  1  0.508452  0.249682  0.992886  1
  I  I21  1  0.741651  0.991894  0.984688  1
  I  I22  1  0.990703  0.981407  0.740703  1
  I  I23  1  0.518254  0.509067  0.758924  1
  I  I24  1  0.250242  0.991894  0.507205  1
  I  I25  1  0.741229  0.249682  0.756795  1
  I  I26  1  0.508287  0.758654  0.515776  1
  I  I27  1  0.985200  0.742878  0.992957  1
