# generated using pymatgen
data_La12CuSi8Ni3
_symmetry_space_group_name_H-M   'P 1'
_cell_length_a   4.29517900
_cell_length_b   11.74352704
_cell_length_c   11.90081745
_cell_angle_alpha   90.02027664
_cell_angle_beta   90.00000000
_cell_angle_gamma   90.00000000
_symmetry_Int_Tables_number   1
_chemical_formula_structural   La12CuSi8Ni3
_chemical_formula_sum   'La12 Cu1 Si8 Ni3'
_cell_volume   600.28374836
_cell_formula_units_Z   1
loop_
 _symmetry_equiv_pos_site_id
 _symmetry_equiv_pos_as_xyz
  1  'x, y, z'
loop_
 _atom_site_type_symbol
 _atom_site_label
 _atom_site_symmetry_multiplicity
 _atom_site_fract_x
 _atom_site_fract_y
 _atom_site_fract_z
 _atom_site_occupancy
  La  La0  1  0.250000  0.059303  0.881751  1
  La  La1  1  0.250000  0.443053  0.377510  1
  La  La2  1  0.750000  0.942665  0.116931  1
  La  La3  1  0.750000  0.562276  0.616640  1
  La  La4  1  0.250000  0.118250  0.556378  1
  La  La5  1  0.250000  0.375853  0.057389  1
  La  La6  1  0.750000  0.875505  0.442429  1
  La  La7  1  0.750000  0.624761  0.942541  1
  La  La8  1  0.250000  0.804836  0.714154  1
  La  La9  1  0.250000  0.697662  0.213669  1
  La  La10  1  0.750000  0.195322  0.287312  1
  La  La11  1  0.750000  0.300146  0.792392  1
  Cu  Cu12  1  0.250000  0.364487  0.629300  1
  Si  Si13  1  0.250000  0.814820  0.969547  1
  Si  Si14  1  0.250000  0.684039  0.470343  1
  Si  Si15  1  0.750000  0.186031  0.031271  1
  Si  Si16  1  0.750000  0.313488  0.528609  1
  Si  Si17  1  0.250000  0.493909  0.800653  1
  Si  Si18  1  0.250000  0.007575  0.299860  1
  Si  Si19  1  0.750000  0.509244  0.198418  1
  Si  Si20  1  0.750000  0.991873  0.700866  1
  Ni  Ni21  1  0.250000  0.133903  0.127864  1
  Ni  Ni22  1  0.750000  0.634540  0.371770  1
  Ni  Ni23  1  0.750000  0.866459  0.872403  1
