# generated using pymatgen
data_Ca2AcPd9
_symmetry_space_group_name_H-M   'P 1'
_cell_length_a   9.54027145
_cell_length_b   9.54027101
_cell_length_c   9.54027031
_cell_angle_alpha   33.31517596
_cell_angle_beta   33.31518257
_cell_angle_gamma   33.31517124
_symmetry_Int_Tables_number   1
_chemical_formula_structural   Ca2AcPd9
_chemical_formula_sum   'Ca2 Ac1 Pd9'
_cell_volume   233.22958343
_cell_formula_units_Z   1
loop_
 _symmetry_equiv_pos_site_id
 _symmetry_equiv_pos_as_xyz
  1  'x, y, z'
loop_
 _atom_site_type_symbol
 _atom_site_label
 _atom_site_symmetry_multiplicity
 _atom_site_fract_x
 _atom_site_fract_y
 _atom_site_fract_z
 _atom_site_occupancy
  Ca  Ca0  1  0.141747  0.141747  0.141747  1
  Ca  Ca1  1  0.858253  0.858253  0.858253  1
  Ac  Ac2  1  0.000000  0.000000  0.000000  1
  Pd  Pd3  1  0.585788  0.585788  0.083363  1
  Pd  Pd4  1  0.332685  0.332685  0.332685  1
  Pd  Pd5  1  0.916637  0.414211  0.414213  1
  Pd  Pd6  1  0.414211  0.916637  0.414213  1
  Pd  Pd7  1  0.500000  0.500000  0.500000  1
  Pd  Pd8  1  0.585789  0.083363  0.585787  1
  Pd  Pd9  1  0.083363  0.585789  0.585787  1
  Pd  Pd10  1  0.667315  0.667315  0.667315  1
  Pd  Pd11  1  0.414212  0.414212  0.916637  1
