# generated using pymatgen
data_Sc3CdSn2Pd3
_symmetry_space_group_name_H-M   'P 1'
_cell_length_a   7.66595762
_cell_length_b   7.71851772
_cell_length_c   6.93030800
_cell_angle_alpha   89.91888020
_cell_angle_beta   90.04084251
_cell_angle_gamma   120.22706748
_symmetry_Int_Tables_number   1
_chemical_formula_structural   Sc3CdSn2Pd3
_chemical_formula_sum   'Sc6 Cd2 Sn4 Pd6'
_cell_volume   354.31113061
_cell_formula_units_Z   2
loop_
 _symmetry_equiv_pos_site_id
 _symmetry_equiv_pos_as_xyz
  1  'x, y, z'
loop_
 _atom_site_type_symbol
 _atom_site_label
 _atom_site_symmetry_multiplicity
 _atom_site_fract_x
 _atom_site_fract_y
 _atom_site_fract_z
 _atom_site_occupancy
  Sc  Sc0  1  0.406057  0.015090  0.249861  1
  Sc  Sc1  1  0.603097  0.601136  0.250519  1
  Sc  Sc2  1  0.991900  0.384474  0.249759  1
  Sc  Sc3  1  0.396903  0.998039  0.750519  1
  Sc  Sc4  1  0.593943  0.609033  0.749861  1
  Sc  Sc5  1  0.008100  0.392574  0.749759  1
  Cd  Cd6  1  0.717668  0.999275  0.999856  1
  Cd  Cd7  1  0.282332  0.281607  0.499856  1
  Sn  Sn8  1  0.005733  0.725862  0.499875  1
  Sn  Sn9  1  0.994267  0.720130  0.999875  1
  Sn  Sn10  1  0.270399  0.274231  0.000312  1
  Sn  Sn11  1  0.729601  0.003832  0.500312  1
  Pd  Pd12  1  0.323135  0.661603  0.012826  1
  Pd  Pd13  1  0.337576  0.673537  0.487001  1
  Pd  Pd14  1  0.662424  0.335959  0.987001  1
  Pd  Pd15  1  0.676865  0.338467  0.512826  1
  Pd  Pd16  1  0.999916  0.992535  0.249992  1
  Pd  Pd17  1  0.000084  0.992619  0.749992  1
