# generated using pymatgen
data_Tb2DyLuPt2
_symmetry_space_group_name_H-M   'P 1'
_cell_length_a   4.75453100
_cell_length_b   7.14069200
_cell_length_c   8.73418900
_cell_angle_alpha   90.00000000
_cell_angle_beta   90.00000000
_cell_angle_gamma   90.00000000
_symmetry_Int_Tables_number   1
_chemical_formula_structural   Tb2DyLuPt2
_chemical_formula_sum   'Tb4 Dy2 Lu2 Pt4'
_cell_volume   296.53131932
_cell_formula_units_Z   2
loop_
 _symmetry_equiv_pos_site_id
 _symmetry_equiv_pos_as_xyz
  1  'x, y, z'
loop_
 _atom_site_type_symbol
 _atom_site_label
 _atom_site_symmetry_multiplicity
 _atom_site_fract_x
 _atom_site_fract_y
 _atom_site_fract_z
 _atom_site_occupancy
  Tb  Tb0  1  0.750000  0.488579  0.829820  1
  Tb  Tb1  1  0.250000  0.012826  0.329887  1
  Tb  Tb2  1  0.750000  0.988579  0.670180  1
  Tb  Tb3  1  0.250000  0.512826  0.170113  1
  Dy  Dy4  1  0.250000  0.643338  0.576762  1
  Dy  Dy5  1  0.250000  0.143338  0.923238  1
  Lu  Lu6  1  0.750000  0.355341  0.420803  1
  Lu  Lu7  1  0.750000  0.855341  0.079197  1
  Pt  Pt8  1  0.250000  0.744785  0.907759  1
  Pt  Pt9  1  0.250000  0.244785  0.592241  1
  Pt  Pt10  1  0.750000  0.755132  0.403246  1
  Pt  Pt11  1  0.750000  0.255132  0.096754  1
