# generated using pymatgen
data_Yb7CdSiPd24
_symmetry_space_group_name_H-M   'P 1'
_cell_length_a   8.27382807
_cell_length_b   8.27382814
_cell_length_c   8.27382800
_cell_angle_alpha   89.99257646
_cell_angle_beta   90.00742354
_cell_angle_gamma   90.00742450
_symmetry_Int_Tables_number   1
_chemical_formula_structural   Yb7CdSiPd24
_chemical_formula_sum   'Yb7 Cd1 Si1 Pd24'
_cell_volume   566.39507068
_cell_formula_units_Z   1
loop_
 _symmetry_equiv_pos_site_id
 _symmetry_equiv_pos_as_xyz
  1  'x, y, z'
loop_
 _atom_site_type_symbol
 _atom_site_label
 _atom_site_symmetry_multiplicity
 _atom_site_fract_x
 _atom_site_fract_y
 _atom_site_fract_z
 _atom_site_occupancy
  Yb  Yb0  1  0.252200  0.253023  0.253023  1
  Yb  Yb1  1  0.746889  0.746947  0.746947  1
  Yb  Yb2  1  0.746977  0.747800  0.253023  1
  Yb  Yb3  1  0.746977  0.253023  0.747800  1
  Yb  Yb4  1  0.253053  0.253111  0.746947  1
  Yb  Yb5  1  0.253053  0.746947  0.253111  1
  Yb  Yb6  1  0.252440  0.747560  0.747560  1
  Cd  Cd7  1  0.747980  0.252020  0.252020  1
  Si  Si8  1  0.002607  0.997393  0.997393  1
  Pd  Pd9  1  0.257424  0.499430  0.999886  1
  Pd  Pd10  1  0.741729  0.498419  0.002856  1
  Pd  Pd11  1  0.997144  0.258271  0.498419  1
  Pd  Pd12  1  0.501581  0.258271  0.002856  1
  Pd  Pd13  1  0.000114  0.742576  0.499430  1
  Pd  Pd14  1  0.500570  0.742576  0.999886  1
  Pd  Pd15  1  0.501581  0.002856  0.258271  1
  Pd  Pd16  1  0.257424  0.999886  0.499430  1
  Pd  Pd17  1  0.500570  0.999886  0.742576  1
  Pd  Pd18  1  0.741729  0.002856  0.498419  1
  Pd  Pd19  1  0.997144  0.498419  0.258271  1
  Pd  Pd20  1  0.000114  0.499430  0.742576  1
  Pd  Pd21  1  0.252568  0.500016  0.500016  1
  Pd  Pd22  1  0.747264  0.497758  0.497758  1
  Pd  Pd23  1  0.502242  0.252736  0.497758  1
  Pd  Pd24  1  0.499984  0.747432  0.500016  1
  Pd  Pd25  1  0.502242  0.497758  0.252736  1
  Pd  Pd26  1  0.499984  0.500016  0.747432  1
  Pd  Pd27  1  0.282983  0.000177  0.000177  1
  Pd  Pd28  1  0.720720  0.003467  0.003467  1
  Pd  Pd29  1  0.996533  0.279280  0.003467  1
  Pd  Pd30  1  0.999823  0.717017  0.000177  1
  Pd  Pd31  1  0.996533  0.003467  0.279280  1
  Pd  Pd32  1  0.999823  0.000177  0.717017  1
