# generated using pymatgen
data_Ca12La7YSi16
_symmetry_space_group_name_H-M   'P 1'
_cell_length_a   7.57984766
_cell_length_b   8.00162421
_cell_length_c   15.32294400
_cell_angle_alpha   89.93448124
_cell_angle_beta   89.92998888
_cell_angle_gamma   89.86563871
_symmetry_Int_Tables_number   1
_chemical_formula_structural   Ca12La7YSi16
_chemical_formula_sum   'Ca12 La7 Y1 Si16'
_cell_volume   929.34944031
_cell_formula_units_Z   1
loop_
 _symmetry_equiv_pos_site_id
 _symmetry_equiv_pos_as_xyz
  1  'x, y, z'
loop_
 _atom_site_type_symbol
 _atom_site_label
 _atom_site_symmetry_multiplicity
 _atom_site_fract_x
 _atom_site_fract_y
 _atom_site_fract_z
 _atom_site_occupancy
  Ca  Ca0  1  0.648730  0.996861  0.252085  1
  Ca  Ca1  1  0.142837  0.502966  0.252484  1
  Ca  Ca2  1  0.857495  0.496002  0.750160  1
  Ca  Ca3  1  0.352800  0.004186  0.750215  1
  Ca  Ca4  1  0.971071  0.813800  0.400283  1
  Ca  Ca5  1  0.680364  0.818773  0.877627  1
  Ca  Ca6  1  0.180262  0.684466  0.619282  1
  Ca  Ca7  1  0.819377  0.317695  0.123217  1
  Ca  Ca8  1  0.316740  0.177428  0.378858  1
  Ca  Ca9  1  0.318866  0.180573  0.123816  1
  Ca  Ca10  1  0.818862  0.319491  0.378519  1
  Ca  Ca11  1  0.181353  0.681382  0.877487  1
  La  La12  1  0.971977  0.813769  0.098984  1
  La  La13  1  0.471212  0.686463  0.400155  1
  La  La14  1  0.526096  0.317201  0.902925  1
  La  La15  1  0.026195  0.184574  0.594692  1
  La  La16  1  0.026603  0.183691  0.902179  1
  La  La17  1  0.527695  0.317653  0.597687  1
  La  La18  1  0.470612  0.685701  0.100860  1
  Y  Y19  1  0.681029  0.816711  0.622904  1
  Si  Si20  1  0.753286  0.622451  0.247906  1
  Si  Si21  1  0.257355  0.876435  0.248845  1
  Si  Si22  1  0.741866  0.120761  0.746691  1
  Si  Si23  1  0.247343  0.379127  0.749899  1
  Si  Si24  1  0.028866  0.090907  0.250067  1
  Si  Si25  1  0.526371  0.407693  0.251753  1
  Si  Si26  1  0.474869  0.596164  0.746084  1
  Si  Si27  1  0.967734  0.905835  0.745451  1
  Si  Si28  1  0.859006  0.525467  0.962172  1
  Si  Si29  1  0.367555  0.973477  0.541104  1
  Si  Si30  1  0.641759  0.027484  0.036568  1
  Si  Si31  1  0.140546  0.471614  0.463804  1
  Si  Si32  1  0.142761  0.472003  0.036311  1
  Si  Si33  1  0.648080  0.025575  0.466833  1
  Si  Si34  1  0.357930  0.974788  0.962377  1
  Si  Si35  1  0.854497  0.530830  0.539714  1
