# generated using pymatgen
data_SrY3(Al8Pt3)3
_symmetry_space_group_name_H-M   'P 1'
_cell_length_a   7.54823967
_cell_length_b   7.56863329
_cell_length_c   13.27538671
_cell_angle_alpha   84.60077209
_cell_angle_beta   79.13173660
_cell_angle_gamma   59.95143617
_symmetry_Int_Tables_number   1
_chemical_formula_structural   SrY3(Al8Pt3)3
_chemical_formula_sum   'Sr1 Y3 Al24 Pt9'
_cell_volume   644.71485207
_cell_formula_units_Z   1
loop_
 _symmetry_equiv_pos_site_id
 _symmetry_equiv_pos_as_xyz
  1  'x, y, z'
loop_
 _atom_site_type_symbol
 _atom_site_label
 _atom_site_symmetry_multiplicity
 _atom_site_fract_x
 _atom_site_fract_y
 _atom_site_fract_z
 _atom_site_occupancy
  Sr  Sr0  1  0.392918  0.167783  0.809898  1
  Y  Y1  1  0.604855  0.832326  0.192838  1
  Y  Y2  1  0.733496  0.498471  0.808071  1
  Y  Y3  1  0.266664  0.501176  0.192911  1
  Al  Al4  1  0.686135  0.832009  0.948516  1
  Al  Al5  1  0.315028  0.166325  0.057811  1
  Al  Al6  1  0.147147  0.832470  0.559061  1
  Al  Al7  1  0.854129  0.167675  0.437013  1
  Al  Al8  1  0.480595  0.166568  0.556981  1
  Al  Al9  1  0.520420  0.833513  0.439994  1
  Al  Al10  1  0.217468  0.165512  0.328693  1
  Al  Al11  1  0.784389  0.834792  0.666167  1
  Al  Al12  1  0.438290  0.506384  0.665721  1
  Al  Al13  1  0.563563  0.492921  0.329197  1
  Al  Al14  1  0.111014  0.159661  0.664526  1
  Al  Al15  1  0.890505  0.840471  0.330362  1
  Al  Al16  1  0.350153  0.502109  0.948670  1
  Al  Al17  1  0.646079  0.501320  0.057123  1
  Al  Al18  1  0.012175  0.166709  0.959588  1
  Al  Al19  1  0.983425  0.831628  0.049528  1
  Al  Al20  1  0.187008  0.499269  0.440075  1
  Al  Al21  1  0.813902  0.500422  0.557004  1
  Al  Al22  1  0.733926  0.164851  0.184142  1
  Al  Al23  1  0.268455  0.826454  0.816428  1
  Al  Al24  1  0.053332  0.637097  0.815561  1
  Al  Al25  1  0.937767  0.369513  0.185311  1
  Al  Al26  1  0.862083  0.043614  0.816333  1
  Al  Al27  1  0.144210  0.958888  0.184638  1
  Pt  Pt28  1  0.119017  0.494803  0.636036  1
  Pt  Pt29  1  0.880311  0.508192  0.360899  1
  Pt  Pt30  1  0.657367  0.170937  0.002103  1
  Pt  Pt31  1  0.341168  0.828670  0.002491  1
  Pt  Pt32  1  0.538211  0.166693  0.361084  1
  Pt  Pt33  1  0.461891  0.831264  0.635941  1
  Pt  Pt34  1  0.782074  0.173802  0.634669  1
  Pt  Pt35  1  0.221622  0.824937  0.361903  1
  Pt  Pt36  1  0.999211  0.500770  0.002711  1
