# generated using pymatgen
data_Tb2Pr2GeI5
_symmetry_space_group_name_H-M   'P 1'
_cell_length_a   9.95680474
_cell_length_b   9.95680445
_cell_length_c   9.09463911
_cell_angle_alpha   77.89009349
_cell_angle_beta   77.89009428
_cell_angle_gamma   25.03178912
_symmetry_Int_Tables_number   1
_chemical_formula_structural   Tb2Pr2GeI5
_chemical_formula_sum   'Tb2 Pr2 Ge1 I5'
_cell_volume   372.58328146
_cell_formula_units_Z   1
loop_
 _symmetry_equiv_pos_site_id
 _symmetry_equiv_pos_as_xyz
  1  'x, y, z'
loop_
 _atom_site_type_symbol
 _atom_site_label
 _atom_site_symmetry_multiplicity
 _atom_site_fract_x
 _atom_site_fract_y
 _atom_site_fract_z
 _atom_site_occupancy
  Tb  Tb0  1  0.854790  0.854790  0.074138  1
  Tb  Tb1  1  0.145210  0.145210  0.925862  1
  Pr  Pr2  1  0.501052  0.501052  0.216911  1
  Pr  Pr3  1  0.498948  0.498948  0.783089  1
  Ge  Ge4  1  0.000000  0.000000  0.000000  1
  I  I5  1  0.675143  0.675143  0.157989  1
  I  I6  1  0.324857  0.324857  0.842011  1
  I  I7  1  0.668937  0.668937  0.673215  1
  I  I8  1  0.331063  0.331063  0.326785  1
  I  I9  1  0.000000  0.000000  0.500000  1
