# generated using pymatgen
data_Y5Er5(Sn3Cl)2
_symmetry_space_group_name_H-M   'P 1'
_cell_length_a   9.08171300
_cell_length_b   9.08283067
_cell_length_c   6.52278400
_cell_angle_alpha   90.00000000
_cell_angle_beta   90.00000000
_cell_angle_gamma   119.99592589
_symmetry_Int_Tables_number   1
_chemical_formula_structural   Y5Er5(Sn3Cl)2
_chemical_formula_sum   'Y5 Er5 Sn6 Cl2'
_cell_volume   465.98340184
_cell_formula_units_Z   1
loop_
 _symmetry_equiv_pos_site_id
 _symmetry_equiv_pos_as_xyz
  1  'x, y, z'
loop_
 _atom_site_type_symbol
 _atom_site_label
 _atom_site_symmetry_multiplicity
 _atom_site_fract_x
 _atom_site_fract_y
 _atom_site_fract_z
 _atom_site_occupancy
  Y  Y0  1  0.738010  0.000000  0.750000  1
  Y  Y1  1  0.737869  0.737898  0.250000  1
  Y  Y2  1  0.999972  0.262102  0.250000  1
  Y  Y3  1  0.000073  0.738008  0.750000  1
  Y  Y4  1  0.262065  0.261992  0.750000  1
  Er  Er5  1  0.666531  0.333184  0.000047  1
  Er  Er6  1  0.333345  0.666816  0.499953  1
  Er  Er7  1  0.666531  0.333184  0.499953  1
  Er  Er8  1  0.333345  0.666816  0.000047  1
  Er  Er9  1  0.262067  0.000000  0.250000  1
  Sn  Sn10  1  0.609631  0.609645  0.750000  1
  Sn  Sn11  1  0.000430  0.610262  0.250000  1
  Sn  Sn12  1  0.609060  0.000000  0.250000  1
  Sn  Sn13  1  0.390268  0.000000  0.750000  1
  Sn  Sn14  1  0.999986  0.390355  0.750000  1
  Sn  Sn15  1  0.390168  0.389738  0.250000  1
  Cl  Cl16  1  0.000324  0.000000  0.499604  1
  Cl  Cl17  1  0.000324  0.000000  0.000396  1
