# generated using pymatgen
data_PaCu2Rh3S8
_symmetry_space_group_name_H-M   'P 1'
_cell_length_a   7.28711500
_cell_length_b   7.28711602
_cell_length_c   7.02181194
_cell_angle_alpha   58.74209055
_cell_angle_beta   58.74208861
_cell_angle_gamma   60.00000764
_symmetry_Int_Tables_number   1
_chemical_formula_structural   PaCu2Rh3S8
_chemical_formula_sum   'Pa1 Cu2 Rh3 S8'
_cell_volume   258.53598516
_cell_formula_units_Z   1
loop_
 _symmetry_equiv_pos_site_id
 _symmetry_equiv_pos_as_xyz
  1  'x, y, z'
loop_
 _atom_site_type_symbol
 _atom_site_label
 _atom_site_symmetry_multiplicity
 _atom_site_fract_x
 _atom_site_fract_y
 _atom_site_fract_z
 _atom_site_occupancy
  Pa  Pa0  1  0.125000  0.125000  0.625000  1
  Cu  Cu1  1  0.750771  0.750771  0.747686  1
  Cu  Cu2  1  0.499229  0.499229  0.502314  1
  Rh  Rh3  1  0.125000  0.625000  0.125000  1
  Rh  Rh4  1  0.625000  0.125000  0.125000  1
  Rh  Rh5  1  0.125000  0.125000  0.125000  1
  S  S6  1  0.864144  0.361720  0.909991  1
  S  S7  1  0.363762  0.363762  0.908714  1
  S  S8  1  0.385856  0.385856  0.340009  1
  S  S9  1  0.888280  0.385856  0.340009  1
  S  S10  1  0.864144  0.864144  0.909991  1
  S  S11  1  0.361720  0.864144  0.909991  1
  S  S12  1  0.385856  0.888280  0.340009  1
  S  S13  1  0.886238  0.886238  0.341286  1
