# generated using pymatgen
data_ReTc5(Te4Br)2
_symmetry_space_group_name_H-M   'P 1'
_cell_length_a   12.56476600
_cell_length_b   7.05240250
_cell_length_c   11.92553532
_cell_angle_alpha   66.98047904
_cell_angle_beta   90.00000000
_cell_angle_gamma   90.00000000
_symmetry_Int_Tables_number   1
_chemical_formula_structural   ReTc5(Te4Br)2
_chemical_formula_sum   'Re2 Tc10 Te16 Br4'
_cell_volume   972.59632317
_cell_formula_units_Z   2
loop_
 _symmetry_equiv_pos_site_id
 _symmetry_equiv_pos_as_xyz
  1  'x, y, z'
loop_
 _atom_site_type_symbol
 _atom_site_label
 _atom_site_symmetry_multiplicity
 _atom_site_fract_x
 _atom_site_fract_y
 _atom_site_fract_z
 _atom_site_occupancy
  Re  Re0  1  0.574853  0.019976  0.357326  1
  Re  Re1  1  0.925147  0.019976  0.857326  1
  Tc  Tc2  1  0.424459  0.980048  0.643912  1
  Tc  Tc3  1  0.075541  0.980048  0.143912  1
  Tc  Tc4  1  0.366399  0.975201  0.427971  1
  Tc  Tc5  1  0.133601  0.975201  0.927971  1
  Tc  Tc6  1  0.633760  0.024809  0.572070  1
  Tc  Tc7  1  0.866240  0.024809  0.072070  1
  Tc  Tc8  1  0.515151  0.710087  0.561831  1
  Tc  Tc9  1  0.984849  0.710087  0.061831  1
  Tc  Tc10  1  0.485104  0.289466  0.438298  1
  Tc  Tc11  1  0.014896  0.289466  0.938298  1
  Te  Te12  1  0.453803  0.719418  0.333096  1
  Te  Te13  1  0.046197  0.719418  0.833096  1
  Te  Te14  1  0.545604  0.280315  0.665937  1
  Te  Te15  1  0.954396  0.280315  0.165937  1
  Te  Te16  1  0.311700  0.662355  0.637050  1
  Te  Te17  1  0.188300  0.662355  0.137050  1
  Te  Te18  1  0.689260  0.338861  0.362432  1
  Te  Te19  1  0.810740  0.338861  0.862432  1
  Te  Te20  1  0.426356  0.287087  0.219968  1
  Te  Te21  1  0.073644  0.287087  0.719968  1
  Te  Te22  1  0.573033  0.713721  0.778901  1
  Te  Te23  1  0.926967  0.713721  0.278901  1
  Te  Te24  1  0.721187  0.749520  0.494818  1
  Te  Te25  1  0.778813  0.749520  0.994818  1
  Te  Te26  1  0.279799  0.249862  0.504926  1
  Te  Te27  1  0.220201  0.249862  0.004926  1
  Br  Br28  1  0.167265  0.926973  0.357632  1
  Br  Br29  1  0.332735  0.926973  0.857632  1
  Br  Br30  1  0.833507  0.072303  0.643832  1
  Br  Br31  1  0.666493  0.072303  0.143832  1
