# generated using pymatgen
data_CeTh(AsRh)2
_symmetry_space_group_name_H-M   'P 1'
_cell_length_a   4.30941100
_cell_length_b   4.30941090
_cell_length_c   7.75926200
_cell_angle_alpha   90.00000000
_cell_angle_beta   90.00000000
_cell_angle_gamma   120.00000843
_symmetry_Int_Tables_number   1
_chemical_formula_structural   CeTh(AsRh)2
_chemical_formula_sum   'Ce1 Th1 As2 Rh2'
_cell_volume   124.79202536
_cell_formula_units_Z   1
loop_
 _symmetry_equiv_pos_site_id
 _symmetry_equiv_pos_as_xyz
  1  'x, y, z'
loop_
 _atom_site_type_symbol
 _atom_site_label
 _atom_site_symmetry_multiplicity
 _atom_site_fract_x
 _atom_site_fract_y
 _atom_site_fract_z
 _atom_site_occupancy
  Ce  Ce0  1  0.000000  0.000000  0.000000  1
  Th  Th1  1  0.000000  0.000000  0.500000  1
  As  As2  1  0.333333  0.666667  0.229227  1
  As  As3  1  0.666667  0.333333  0.770773  1
  Rh  Rh4  1  0.333333  0.666667  0.734411  1
  Rh  Rh5  1  0.666667  0.333333  0.265589  1
