# generated using pymatgen
data_Tb2OsRu3
_symmetry_space_group_name_H-M   'P 1'
_cell_length_a   5.34661941
_cell_length_b   5.22436368
_cell_length_c   8.96660200
_cell_angle_alpha   90.00000000
_cell_angle_beta   90.00000000
_cell_angle_gamma   119.24645748
_symmetry_Int_Tables_number   1
_chemical_formula_structural   Tb2OsRu3
_chemical_formula_sum   'Tb4 Os2 Ru6'
_cell_volume   218.53401797
_cell_formula_units_Z   2
loop_
 _symmetry_equiv_pos_site_id
 _symmetry_equiv_pos_as_xyz
  1  'x, y, z'
loop_
 _atom_site_type_symbol
 _atom_site_label
 _atom_site_symmetry_multiplicity
 _atom_site_fract_x
 _atom_site_fract_y
 _atom_site_fract_z
 _atom_site_occupancy
  Tb  Tb0  1  0.327958  0.663979  0.434474  1
  Tb  Tb1  1  0.663103  0.331551  0.567597  1
  Tb  Tb2  1  0.663103  0.331551  0.932403  1
  Tb  Tb3  1  0.327958  0.663979  0.065526  1
  Os  Os4  1  0.836801  0.171731  0.250000  1
  Os  Os5  1  0.836801  0.665070  0.250000  1
  Ru  Ru6  1  0.980676  0.990338  0.500541  1
  Ru  Ru7  1  0.980676  0.990338  0.999459  1
  Ru  Ru8  1  0.354566  0.177283  0.250000  1
  Ru  Ru9  1  0.176844  0.828828  0.750000  1
  Ru  Ru10  1  0.176844  0.348016  0.750000  1
  Ru  Ru11  1  0.674670  0.837335  0.750000  1
