# generated using pymatgen
data_Dy4Er8TcOs3
_symmetry_space_group_name_H-M   'P 1'
_cell_length_a   6.27771508
_cell_length_b   7.38196603
_cell_length_c   8.98479500
_cell_angle_alpha   90.00000000
_cell_angle_beta   90.00000000
_cell_angle_gamma   90.05800895
_symmetry_Int_Tables_number   1
_chemical_formula_structural   Dy4Er8TcOs3
_chemical_formula_sum   'Dy4 Er8 Tc1 Os3'
_cell_volume   416.37207324
_cell_formula_units_Z   1
loop_
 _symmetry_equiv_pos_site_id
 _symmetry_equiv_pos_as_xyz
  1  'x, y, z'
loop_
 _atom_site_type_symbol
 _atom_site_label
 _atom_site_symmetry_multiplicity
 _atom_site_fract_x
 _atom_site_fract_y
 _atom_site_fract_z
 _atom_site_occupancy
  Dy  Dy0  1  0.871688  0.539482  0.250000  1
  Dy  Dy1  1  0.626838  0.039384  0.250000  1
  Dy  Dy2  1  0.129533  0.460191  0.750000  1
  Dy  Dy3  1  0.369953  0.960942  0.750000  1
  Er  Er4  1  0.335322  0.674823  0.062823  1
  Er  Er5  1  0.165694  0.175299  0.437057  1
  Er  Er6  1  0.666533  0.324446  0.562746  1
  Er  Er7  1  0.834568  0.825143  0.936734  1
  Er  Er8  1  0.666533  0.324446  0.937254  1
  Er  Er9  1  0.834568  0.825143  0.563266  1
  Er  Er10  1  0.335322  0.674823  0.437177  1
  Er  Er11  1  0.165694  0.175299  0.062943  1
  Tc  Tc12  1  0.039375  0.882659  0.250000  1
  Os  Os13  1  0.459119  0.382308  0.250000  1
  Os  Os14  1  0.958418  0.118349  0.750000  1
  Os  Os15  1  0.540842  0.617263  0.750000  1
