# generated using pymatgen
data_HoTm11ZnCo4Sn
_symmetry_space_group_name_H-M   'P 1'
_cell_length_a   8.19253954
_cell_length_b   8.17724669
_cell_length_c   8.17724726
_cell_angle_alpha   112.06004726
_cell_angle_beta   109.52340785
_cell_angle_gamma   106.80194862
_symmetry_Int_Tables_number   1
_chemical_formula_structural   HoTm11ZnCo4Sn
_chemical_formula_sum   'Ho1 Tm11 Zn1 Co4 Sn1'
_cell_volume   421.18801740
_cell_formula_units_Z   1
loop_
 _symmetry_equiv_pos_site_id
 _symmetry_equiv_pos_as_xyz
  1  'x, y, z'
loop_
 _atom_site_type_symbol
 _atom_site_label
 _atom_site_symmetry_multiplicity
 _atom_site_fract_x
 _atom_site_fract_y
 _atom_site_fract_z
 _atom_site_occupancy
  Ho  Ho0  1  0.429550  0.229278  0.200272  1
  Tm  Tm1  1  0.569366  0.770449  0.798916  1
  Tm  Tm2  1  0.029082  0.229714  0.799368  1
  Tm  Tm3  1  0.970323  0.770113  0.200210  1
  Tm  Tm4  1  0.181453  0.283264  0.465445  1
  Tm  Tm5  1  0.819067  0.717490  0.535782  1
  Tm  Tm6  1  0.181453  0.716008  0.898188  1
  Tm  Tm7  1  0.819067  0.283285  0.101578  1
  Tm  Tm8  1  0.323504  0.635715  0.310721  1
  Tm  Tm9  1  0.677141  0.365301  0.689943  1
  Tm  Tm10  1  0.323504  0.012783  0.687791  1
  Tm  Tm11  1  0.677141  0.987198  0.311838  1
  Zn  Zn12  1  0.997953  0.998857  0.999097  1
  Co  Co13  1  0.345312  0.999575  0.345737  1
  Co  Co14  1  0.655289  0.000378  0.654911  1
  Co  Co15  1  0.115609  0.615541  0.500067  1
  Co  Co16  1  0.886000  0.384893  0.501107  1
  Sn  Sn17  1  0.499187  0.500157  0.999030  1
