# generated using pymatgen
data_HgBiIr4(PbO7)2
_symmetry_space_group_name_H-M   'P 1'
_cell_length_a   7.41945472
_cell_length_b   7.43328176
_cell_length_c   7.28766177
_cell_angle_alpha   59.50393877
_cell_angle_beta   59.39994903
_cell_angle_gamma   60.06151962
_symmetry_Int_Tables_number   1
_chemical_formula_structural   HgBiIr4(PbO7)2
_chemical_formula_sum   'Hg1 Bi1 Ir4 Pb2 O14'
_cell_volume   281.95215258
_cell_formula_units_Z   1
loop_
 _symmetry_equiv_pos_site_id
 _symmetry_equiv_pos_as_xyz
  1  'x, y, z'
loop_
 _atom_site_type_symbol
 _atom_site_label
 _atom_site_symmetry_multiplicity
 _atom_site_fract_x
 _atom_site_fract_y
 _atom_site_fract_z
 _atom_site_occupancy
  Hg  Hg0  1  0.125000  0.125000  0.625000  1
  Bi  Bi1  1  0.125000  0.625000  0.125000  1
  Ir  Ir2  1  0.125000  0.625000  0.625000  1
  Ir  Ir3  1  0.625000  0.125000  0.625000  1
  Ir  Ir4  1  0.625000  0.625000  0.125000  1
  Ir  Ir5  1  0.625000  0.625000  0.625000  1
  Pb  Pb6  1  0.625000  0.125000  0.125000  1
  Pb  Pb7  1  0.125000  0.125000  0.125000  1
  O  O8  1  0.705698  0.703599  0.293074  1
  O  O9  1  0.302943  0.302520  0.706915  1
  O  O10  1  0.687621  0.302520  0.706915  1
  O  O11  1  0.297628  0.703599  0.293074  1
  O  O12  1  0.301462  0.688594  0.708481  1
  O  O13  1  0.704280  0.298096  0.293342  1
  O  O14  1  0.544302  0.546401  0.956926  1
  O  O15  1  0.947057  0.947480  0.543085  1
  O  O16  1  0.562379  0.947480  0.543085  1
  O  O17  1  0.952372  0.546401  0.956926  1
  O  O18  1  0.948538  0.561406  0.541519  1
  O  O19  1  0.545720  0.951904  0.956658  1
  O  O20  1  0.240559  0.248604  0.270277  1
  O  O21  1  0.009441  0.001396  0.979723  1
