# generated using pymatgen
data_La3MgIn2Ag2Ir
_symmetry_space_group_name_H-M   'P 1'
_cell_length_a   7.98003401
_cell_length_b   7.94621129
_cell_length_c   4.19504000
_cell_angle_alpha   90.00000000
_cell_angle_beta   90.00000000
_cell_angle_gamma   120.56751065
_symmetry_Int_Tables_number   1
_chemical_formula_structural   La3MgIn2Ag2Ir
_chemical_formula_sum   'La3 Mg1 In2 Ag2 Ir1'
_cell_volume   229.04431285
_cell_formula_units_Z   1
loop_
 _symmetry_equiv_pos_site_id
 _symmetry_equiv_pos_as_xyz
  1  'x, y, z'
loop_
 _atom_site_type_symbol
 _atom_site_label
 _atom_site_symmetry_multiplicity
 _atom_site_fract_x
 _atom_site_fract_y
 _atom_site_fract_z
 _atom_site_occupancy
  La  La0  1  0.571188  0.979031  0.000000  1
  La  La1  1  0.030458  0.595142  0.000000  1
  La  La2  1  0.398046  0.424359  0.000000  1
  Mg  Mg3  1  0.751029  0.754091  0.500000  1
  In  In4  1  0.250148  0.001118  0.500000  1
  In  In5  1  0.999196  0.247674  0.500000  1
  Ag  Ag6  1  0.667991  0.339535  0.500000  1
  Ag  Ag7  1  0.991177  0.989093  0.000000  1
  Ir  Ir8  1  0.340765  0.669959  0.500000  1
