# generated using pymatgen
data_NaNb(SO4)3
_symmetry_space_group_name_H-M   'P 1'
_cell_length_a   8.50656554
_cell_length_b   9.24308872
_cell_length_c   8.61332066
_cell_angle_alpha   109.75474570
_cell_angle_beta   105.02502461
_cell_angle_gamma   110.67832280
_symmetry_Int_Tables_number   1
_chemical_formula_structural   NaNb(SO4)3
_chemical_formula_sum   'Na2 Nb2 S6 O24'
_cell_volume   538.38461131
_cell_formula_units_Z   2
loop_
 _symmetry_equiv_pos_site_id
 _symmetry_equiv_pos_as_xyz
  1  'x, y, z'
loop_
 _atom_site_type_symbol
 _atom_site_label
 _atom_site_symmetry_multiplicity
 _atom_site_fract_x
 _atom_site_fract_y
 _atom_site_fract_z
 _atom_site_occupancy
  Na  Na0  1  0.852772  0.451194  0.243457  1
  Na  Na1  1  0.759706  0.139227  0.603544  1
  Nb  Nb2  1  0.017851  0.979155  0.001820  1
  Nb  Nb3  1  0.489707  0.508968  0.497732  1
  S  S4  1  0.562130  0.901513  0.786558  1
  S  S5  1  0.194522  0.408343  0.080143  1
  S  S6  1  0.093659  0.218805  0.454756  1
  S  S7  1  0.899374  0.791522  0.544137  1
  S  S8  1  0.767430  0.546677  0.887755  1
  S  S9  1  0.480031  0.128470  0.252438  1
  O  O10  1  0.008627  0.875285  0.751735  1
  O  O11  1  0.277422  0.027633  0.105339  1
  O  O12  1  0.012440  0.752601  0.456392  1
  O  O13  1  0.514893  0.012538  0.314728  1
  O  O14  1  0.081568  0.461747  0.159586  1
  O  O15  1  0.437294  0.847406  0.863303  1
  O  O16  1  0.502795  0.740543  0.600264  1
  O  O17  1  0.247039  0.472042  0.962387  1
  O  O18  1  0.238728  0.399811  0.492120  1
  O  O19  1  0.099392  0.205533  0.983768  1
  O  O20  1  0.375846  0.460090  0.242933  1
  O  O21  1  0.814825  0.892020  0.502392  1
  O  O22  1  0.177665  0.156837  0.564358  1
  O  O23  1  0.606737  0.547152  0.753798  1
  O  O24  1  0.923774  0.741443  0.984231  1
  O  O25  1  0.742163  0.609768  0.498812  1
  O  O26  1  0.713955  0.512839  0.022093  1
  O  O27  1  0.478502  0.272154  0.410015  1
  O  O28  1  0.598407  0.212257  0.181827  1
  O  O29  1  0.827983  0.436732  0.785505  1
  O  O30  1  0.590018  0.049773  0.754333  1
  O  O31  1  0.932781  0.235293  0.460008  1
  O  O32  1  0.756703  0.932204  0.900048  1
  O  O33  1  0.042548  0.100914  0.249904  1
