# generated using pymatgen
data_Tm20Ir3(OsPt2)3
_symmetry_space_group_name_H-M   'P 1'
_cell_length_a   10.81737619
_cell_length_b   10.81498800
_cell_length_c   6.34668272
_cell_angle_alpha   90.00084121
_cell_angle_beta   89.94595936
_cell_angle_gamma   89.99980949
_symmetry_Int_Tables_number   1
_chemical_formula_structural   Tm20Ir3(OsPt2)3
_chemical_formula_sum   'Tm20 Ir3 Os3 Pt6'
_cell_volume   742.49677093
_cell_formula_units_Z   1
loop_
 _symmetry_equiv_pos_site_id
 _symmetry_equiv_pos_as_xyz
  1  'x, y, z'
loop_
 _atom_site_type_symbol
 _atom_site_label
 _atom_site_symmetry_multiplicity
 _atom_site_fract_x
 _atom_site_fract_y
 _atom_site_fract_z
 _atom_site_occupancy
  Tm  Tm0  1  0.297363  0.087798  0.372604  1
  Tm  Tm1  1  0.297429  0.912557  0.872871  1
  Tm  Tm2  1  0.702311  0.084462  0.872183  1
  Tm  Tm3  1  0.702422  0.915183  0.372005  1
  Tm  Tm4  1  0.582100  0.795030  0.871920  1
  Tm  Tm5  1  0.582436  0.205098  0.371676  1
  Tm  Tm6  1  0.413195  0.795395  0.375844  1
  Tm  Tm7  1  0.413685  0.204450  0.876081  1
  Tm  Tm8  1  0.208589  0.415590  0.627140  1
  Tm  Tm9  1  0.207594  0.584415  0.123467  1
  Tm  Tm10  1  0.796152  0.414088  0.124402  1
  Tm  Tm11  1  0.795222  0.585902  0.628382  1
  Tm  Tm12  1  0.914911  0.703495  0.125370  1
  Tm  Tm13  1  0.915011  0.295456  0.629734  1
  Tm  Tm14  1  0.089257  0.704620  0.630322  1
  Tm  Tm15  1  0.089363  0.296485  0.126173  1
  Tm  Tm16  1  0.999946  0.999831  0.499364  1
  Tm  Tm17  1  0.999921  0.000217  0.999348  1
  Tm  Tm18  1  0.496597  0.499704  0.998974  1
  Tm  Tm19  1  0.496594  0.500372  0.498921  1
  Ir  Ir20  1  0.346575  0.347330  0.249821  1
  Ir  Ir21  1  0.346613  0.652917  0.749848  1
  Ir  Ir22  1  0.999545  0.499900  0.376842  1
  Os  Os23  1  0.500273  0.999988  0.126641  1
  Os  Os24  1  0.500272  0.999995  0.626446  1
  Os  Os25  1  0.999683  0.500026  0.873876  1
  Pt  Pt26  1  0.847538  0.153819  0.250435  1
  Pt  Pt27  1  0.847113  0.846458  0.750204  1
  Pt  Pt28  1  0.152071  0.153265  0.749563  1
  Pt  Pt29  1  0.151604  0.846444  0.249690  1
  Pt  Pt30  1  0.654228  0.347371  0.749963  1
  Pt  Pt31  1  0.654388  0.652337  0.249886  1
