# generated using pymatgen
data_Ho4Pd3PtO14
_symmetry_space_group_name_H-M   'P 1'
_cell_length_a   7.22622011
_cell_length_b   7.22794120
_cell_length_c   7.22794000
_cell_angle_alpha   59.99999635
_cell_angle_beta   59.99211731
_cell_angle_gamma   59.99211471
_symmetry_Int_Tables_number   1
_chemical_formula_structural   Ho4Pd3PtO14
_chemical_formula_sum   'Ho4 Pd3 Pt1 O14'
_cell_volume   266.91535735
_cell_formula_units_Z   1
loop_
 _symmetry_equiv_pos_site_id
 _symmetry_equiv_pos_as_xyz
  1  'x, y, z'
loop_
 _atom_site_type_symbol
 _atom_site_label
 _atom_site_symmetry_multiplicity
 _atom_site_fract_x
 _atom_site_fract_y
 _atom_site_fract_z
 _atom_site_occupancy
  Ho  Ho0  1  0.625000  0.625000  0.125000  1
  Ho  Ho1  1  0.625000  0.625000  0.625000  1
  Ho  Ho2  1  0.625000  0.125000  0.625000  1
  Ho  Ho3  1  0.125000  0.625000  0.625000  1
  Pd  Pd4  1  0.125000  0.125000  0.125000  1
  Pd  Pd5  1  0.125000  0.625000  0.125000  1
  Pd  Pd6  1  0.125000  0.125000  0.625000  1
  Pt  Pt7  1  0.625000  0.125000  0.125000  1
  O  O8  1  0.033779  0.466211  0.466211  1
  O  O9  1  0.782329  0.784593  0.216539  1
  O  O10  1  0.782329  0.216539  0.216539  1
  O  O11  1  0.467671  0.033461  0.465407  1
  O  O12  1  0.749794  0.750069  0.750069  1
  O  O13  1  0.033779  0.033799  0.466211  1
  O  O14  1  0.033779  0.466211  0.033799  1
  O  O15  1  0.782329  0.216539  0.784593  1
  O  O16  1  0.216221  0.783789  0.216201  1
  O  O17  1  0.216221  0.216201  0.783789  1
  O  O18  1  0.500206  0.499931  0.499931  1
  O  O19  1  0.467671  0.033461  0.033461  1
  O  O20  1  0.467671  0.465407  0.033461  1
  O  O21  1  0.216221  0.783789  0.783789  1
