# generated using pymatgen
data_DyY7Er8(Ga3Co)2
_symmetry_space_group_name_H-M   'P 1'
_cell_length_a   9.96579600
_cell_length_b   9.96579643
_cell_length_c   6.98043000
_cell_angle_alpha   90.00000000
_cell_angle_beta   90.00000000
_cell_angle_gamma   119.99999858
_symmetry_Int_Tables_number   1
_chemical_formula_structural   DyY7Er8(Ga3Co)2
_chemical_formula_sum   'Dy1 Y7 Er8 Ga6 Co2'
_cell_volume   600.39465703
_cell_formula_units_Z   1
loop_
 _symmetry_equiv_pos_site_id
 _symmetry_equiv_pos_as_xyz
  1  'x, y, z'
loop_
 _atom_site_type_symbol
 _atom_site_label
 _atom_site_symmetry_multiplicity
 _atom_site_fract_x
 _atom_site_fract_y
 _atom_site_fract_z
 _atom_site_occupancy
  Dy  Dy0  1  0.000000  0.000000  0.731697  1
  Y  Y1  1  0.463554  0.536446  0.207742  1
  Y  Y2  1  0.072890  0.536446  0.207742  1
  Y  Y3  1  0.463554  0.927110  0.207742  1
  Y  Y4  1  0.536396  0.463604  0.707556  1
  Y  Y5  1  0.927210  0.463604  0.707556  1
  Y  Y6  1  0.536396  0.072790  0.707556  1
  Y  Y7  1  0.000000  0.000000  0.231313  1
  Er  Er8  1  0.173271  0.826729  0.511961  1
  Er  Er9  1  0.653458  0.826729  0.511961  1
  Er  Er10  1  0.173271  0.346542  0.511961  1
  Er  Er11  1  0.826651  0.173349  0.011288  1
  Er  Er12  1  0.346698  0.173349  0.011288  1
  Er  Er13  1  0.826651  0.653302  0.011288  1
  Er  Er14  1  0.333333  0.666667  0.825647  1
  Er  Er15  1  0.666667  0.333333  0.325606  1
  Ga  Ga16  1  0.163567  0.836433  0.957801  1
  Ga  Ga17  1  0.672866  0.836433  0.957801  1
  Ga  Ga18  1  0.163567  0.327134  0.957801  1
  Ga  Ga19  1  0.836386  0.163614  0.458114  1
  Ga  Ga20  1  0.327229  0.163614  0.458114  1
  Ga  Ga21  1  0.836386  0.672771  0.458114  1
  Co  Co22  1  0.333333  0.666667  0.448299  1
  Co  Co23  1  0.666667  0.333333  0.948095  1
