# generated using pymatgen
data_Tb2InGa6CuNi2
_symmetry_space_group_name_H-M   'P 1'
_cell_length_a   4.16298171
_cell_length_b   6.45542272
_cell_length_c   7.98035686
_cell_angle_alpha   90.56497956
_cell_angle_beta   105.11915507
_cell_angle_gamma   89.99999811
_symmetry_Int_Tables_number   1
_chemical_formula_structural   Tb2InGa6CuNi2
_chemical_formula_sum   'Tb2 In1 Ga6 Cu1 Ni2'
_cell_volume   207.02825005
_cell_formula_units_Z   1
loop_
 _symmetry_equiv_pos_site_id
 _symmetry_equiv_pos_as_xyz
  1  'x, y, z'
loop_
 _atom_site_type_symbol
 _atom_site_label
 _atom_site_symmetry_multiplicity
 _atom_site_fract_x
 _atom_site_fract_y
 _atom_site_fract_z
 _atom_site_occupancy
  Tb  Tb0  1  0.873623  0.754960  0.747247  1
  Tb  Tb1  1  0.126377  0.245040  0.252753  1
  In  In2  1  0.500000  0.000000  0.000000  1
  Ga  Ga3  1  0.066136  0.708721  0.132272  1
  Ga  Ga4  1  0.933864  0.291279  0.867728  1
  Ga  Ga5  1  0.680638  0.546545  0.361275  1
  Ga  Ga6  1  0.319362  0.453455  0.638725  1
  Ga  Ga7  1  0.688611  0.947644  0.377223  1
  Ga  Ga8  1  0.311389  0.052356  0.622777  1
  Cu  Cu9  1  0.500000  0.500000  0.000000  1
  Ni  Ni10  1  0.219737  0.745099  0.439474  1
  Ni  Ni11  1  0.780263  0.254901  0.560526  1
