# generated using pymatgen
data_Y2Er2Al17GaRh6
_symmetry_space_group_name_H-M   'P 1'
_cell_length_a   7.53793648
_cell_length_b   7.53793690
_cell_length_c   9.49102200
_cell_angle_alpha   90.00000000
_cell_angle_beta   90.00000000
_cell_angle_gamma   119.24721706
_symmetry_Int_Tables_number   1
_chemical_formula_structural   Y2Er2Al17GaRh6
_chemical_formula_sum   'Y2 Er2 Al17 Ga1 Rh6'
_cell_volume   470.53638512
_cell_formula_units_Z   1
loop_
 _symmetry_equiv_pos_site_id
 _symmetry_equiv_pos_as_xyz
  1  'x, y, z'
loop_
 _atom_site_type_symbol
 _atom_site_label
 _atom_site_symmetry_multiplicity
 _atom_site_fract_x
 _atom_site_fract_y
 _atom_site_fract_z
 _atom_site_occupancy
  Y  Y0  1  0.993595  0.675996  0.750000  1
  Y  Y1  1  0.675996  0.993595  0.750000  1
  Er  Er2  1  0.005105  0.326475  0.250000  1
  Er  Er3  1  0.326475  0.005105  0.250000  1
  Al  Al4  1  0.870190  0.870190  0.250000  1
  Al  Al5  1  0.001758  0.336648  0.573950  1
  Al  Al6  1  0.999180  0.663843  0.424473  1
  Al  Al7  1  0.999180  0.663843  0.075527  1
  Al  Al8  1  0.336648  0.001758  0.926050  1
  Al  Al9  1  0.001758  0.336648  0.926050  1
  Al  Al10  1  0.663843  0.999180  0.075527  1
  Al  Al11  1  0.663843  0.999180  0.424473  1
  Al  Al12  1  0.336648  0.001758  0.573950  1
  Al  Al13  1  0.332425  0.332425  0.052753  1
  Al  Al14  1  0.665372  0.665372  0.952599  1
  Al  Al15  1  0.665372  0.665372  0.547401  1
  Al  Al16  1  0.332425  0.332425  0.447247  1
  Al  Al17  1  0.339509  0.551446  0.750000  1
  Al  Al18  1  0.660105  0.448502  0.250000  1
  Al  Al19  1  0.551446  0.339509  0.750000  1
  Al  Al20  1  0.448502  0.660105  0.250000  1
  Ga  Ga21  1  0.134364  0.134364  0.750000  1
  Rh  Rh22  1  0.671463  0.327020  0.499729  1
  Rh  Rh23  1  0.327020  0.671463  0.499729  1
  Rh  Rh24  1  0.327020  0.671463  0.000271  1
  Rh  Rh25  1  0.671463  0.327020  0.000271  1
  Rh  Rh26  1  0.999648  0.999648  0.497275  1
  Rh  Rh27  1  0.999648  0.999648  0.002725  1
