# generated using pymatgen
data_Tb12Ni5Hg
_symmetry_space_group_name_H-M   'P 1'
_cell_length_a   8.29906972
_cell_length_b   8.29907100
_cell_length_c   8.29907124
_cell_angle_alpha   111.45737889
_cell_angle_beta   109.82827259
_cell_angle_gamma   107.15686852
_symmetry_Int_Tables_number   1
_chemical_formula_structural   Tb12Ni5Hg
_chemical_formula_sum   'Tb12 Ni5 Hg1'
_cell_volume   439.38550039
_cell_formula_units_Z   1
loop_
 _symmetry_equiv_pos_site_id
 _symmetry_equiv_pos_as_xyz
  1  'x, y, z'
loop_
 _atom_site_type_symbol
 _atom_site_label
 _atom_site_symmetry_multiplicity
 _atom_site_fract_x
 _atom_site_fract_y
 _atom_site_fract_z
 _atom_site_occupancy
  Tb  Tb0  1  0.817441  0.704439  0.521880  1
  Tb  Tb1  1  0.182559  0.295561  0.478120  1
  Tb  Tb2  1  0.182559  0.704439  0.886999  1
  Tb  Tb3  1  0.817441  0.295561  0.113001  1
  Tb  Tb4  1  0.677618  0.374930  0.697312  1
  Tb  Tb5  1  0.322382  0.625070  0.302688  1
  Tb  Tb6  1  0.677618  0.980305  0.302688  1
  Tb  Tb7  1  0.322382  0.019695  0.697312  1
  Tb  Tb8  1  0.596117  0.786333  0.809785  1
  Tb  Tb9  1  0.403883  0.213667  0.190215  1
  Tb  Tb10  1  0.976548  0.786333  0.190215  1
  Tb  Tb11  1  0.023452  0.213667  0.809785  1
  Ni  Ni12  1  0.634033  0.000000  0.634033  1
  Ni  Ni13  1  0.365967  0.000000  0.365967  1
  Ni  Ni14  1  0.125112  0.625112  0.500000  1
  Ni  Ni15  1  0.874888  0.374888  0.500000  1
  Ni  Ni16  1  0.000000  0.000000  0.000000  1
  Hg  Hg17  1  0.500000  0.500000  0.000000  1
