# generated using pymatgen
data_Tb3Er7(Hg2Pd)4
_symmetry_space_group_name_H-M   'P 1'
_cell_length_a   3.61028700
_cell_length_b   7.97339395
_cell_length_c   18.17795120
_cell_angle_alpha   90.05615381
_cell_angle_beta   90.00000000
_cell_angle_gamma   90.00000000
_symmetry_Int_Tables_number   1
_chemical_formula_structural   Tb3Er7(Hg2Pd)4
_chemical_formula_sum   'Tb3 Er7 Hg8 Pd4'
_cell_volume   523.27462414
_cell_formula_units_Z   1
loop_
 _symmetry_equiv_pos_site_id
 _symmetry_equiv_pos_as_xyz
  1  'x, y, z'
loop_
 _atom_site_type_symbol
 _atom_site_label
 _atom_site_symmetry_multiplicity
 _atom_site_fract_x
 _atom_site_fract_y
 _atom_site_fract_z
 _atom_site_occupancy
  Tb  Tb0  1  0.000000  0.500577  0.500101  1
  Tb  Tb1  1  0.000000  0.999636  0.999795  1
  Tb  Tb2  1  0.000000  0.733194  0.285909  1
  Er  Er3  1  0.000000  0.267314  0.714228  1
  Er  Er4  1  0.000000  0.766724  0.785962  1
  Er  Er5  1  0.000000  0.232197  0.213690  1
  Er  Er6  1  0.000000  0.612227  0.083586  1
  Er  Er7  1  0.000000  0.386735  0.915609  1
  Er  Er8  1  0.000000  0.887345  0.584631  1
  Er  Er9  1  0.000000  0.114115  0.416440  1
  Hg  Hg10  1  0.500000  0.709267  0.935404  1
  Hg  Hg11  1  0.500000  0.289474  0.063934  1
  Hg  Hg12  1  0.500000  0.792120  0.436677  1
  Hg  Hg13  1  0.500000  0.210171  0.564743  1
  Hg  Hg14  1  0.500000  0.586273  0.648891  1
  Hg  Hg15  1  0.500000  0.412435  0.351042  1
  Hg  Hg16  1  0.500000  0.914120  0.148650  1
  Hg  Hg17  1  0.500000  0.085929  0.851144  1
  Pd  Pd18  1  0.500000  0.521246  0.195320  1
  Pd  Pd19  1  0.500000  0.475307  0.803417  1
  Pd  Pd20  1  0.500000  0.975938  0.696794  1
  Pd  Pd21  1  0.500000  0.027654  0.304035  1
