# generated using pymatgen
data_Pa2GaOs2
_symmetry_space_group_name_H-M   'P 1'
_cell_length_a   5.28640728
_cell_length_b   5.28640680
_cell_length_c   5.28640600
_cell_angle_alpha   130.27510837
_cell_angle_beta   112.64688989
_cell_angle_gamma   88.19436203
_symmetry_Int_Tables_number   1
_chemical_formula_structural   Pa2GaOs2
_chemical_formula_sum   'Pa2 Ga1 Os2'
_cell_volume   98.94028596
_cell_formula_units_Z   1
loop_
 _symmetry_equiv_pos_site_id
 _symmetry_equiv_pos_as_xyz
  1  'x, y, z'
loop_
 _atom_site_type_symbol
 _atom_site_label
 _atom_site_symmetry_multiplicity
 _atom_site_fract_x
 _atom_site_fract_y
 _atom_site_fract_z
 _atom_site_occupancy
  Pa  Pa0  1  0.687868  0.187867  0.500001  1
  Pa  Pa1  1  0.312133  0.812132  0.499999  1
  Ga  Ga2  1  0.000000  0.000000  0.000000  1
  Os  Os3  1  0.751255  0.500000  0.251255  1
  Os  Os4  1  0.248745  0.499999  0.748744  1
