# generated using pymatgen
data_Ca10TaTi8VO30
_symmetry_space_group_name_H-M   'P 1'
_cell_length_a   5.42762871
_cell_length_b   5.53973850
_cell_length_c   38.65206245
_cell_angle_alpha   90.05607780
_cell_angle_beta   90.09784208
_cell_angle_gamma   90.10385595
_symmetry_Int_Tables_number   1
_chemical_formula_structural   Ca10TaTi8VO30
_chemical_formula_sum   'Ca20 Ta2 Ti16 V2 O60'
_cell_volume   1162.17227920
_cell_formula_units_Z   2
loop_
 _symmetry_equiv_pos_site_id
 _symmetry_equiv_pos_as_xyz
  1  'x, y, z'
loop_
 _atom_site_type_symbol
 _atom_site_label
 _atom_site_symmetry_multiplicity
 _atom_site_fract_x
 _atom_site_fract_y
 _atom_site_fract_z
 _atom_site_occupancy
  Ca  Ca0  1  0.008943  0.951623  0.950576  1
  Ca  Ca1  1  0.014752  0.963483  0.346325  1
  Ca  Ca2  1  0.008141  0.966380  0.148726  1
  Ca  Ca3  1  0.006788  0.955677  0.548839  1
  Ca  Ca4  1  0.006008  0.947186  0.752231  1
  Ca  Ca5  1  0.492739  0.463111  0.148667  1
  Ca  Ca6  1  0.489440  0.452441  0.950340  1
  Ca  Ca7  1  0.492612  0.454689  0.347018  1
  Ca  Ca8  1  0.485942  0.446153  0.549443  1
  Ca  Ca9  1  0.487961  0.449448  0.752345  1
  Ca  Ca10  1  0.507261  0.536889  0.851333  1
  Ca  Ca11  1  0.510560  0.547559  0.049660  1
  Ca  Ca12  1  0.514058  0.553847  0.450557  1
  Ca  Ca13  1  0.512039  0.550552  0.247655  1
  Ca  Ca14  1  0.507388  0.545311  0.652982  1
  Ca  Ca15  1  0.991057  0.048377  0.049424  1
  Ca  Ca16  1  0.991859  0.033620  0.851274  1
  Ca  Ca17  1  0.993212  0.044323  0.451161  1
  Ca  Ca18  1  0.993992  0.052814  0.247769  1
  Ca  Ca19  1  0.985248  0.036517  0.653675  1
  Ta  Ta20  1  0.996223  0.496190  0.601440  1
  Ta  Ta21  1  0.003777  0.503810  0.398560  1
  Ti  Ti22  1  0.000000  0.500000  0.000000  1
  Ti  Ti23  1  0.993975  0.514022  0.198055  1
  Ti  Ti24  1  0.999235  0.505677  0.296286  1
  Ti  Ti25  1  0.000765  0.494323  0.703714  1
  Ti  Ti26  1  0.504125  0.987258  0.900577  1
  Ti  Ti27  1  0.495875  0.012742  0.099423  1
  Ti  Ti28  1  0.508497  0.991730  0.801313  1
  Ti  Ti29  1  0.503014  0.000592  0.299463  1
  Ti  Ti30  1  0.496986  0.999408  0.700537  1
  Ti  Ti31  1  0.500000  0.000000  0.000000  1
  Ti  Ti32  1  0.491503  0.008270  0.198687  1
  Ti  Ti33  1  0.500000  0.000000  0.500000  1
  Ti  Ti34  1  0.999877  0.484669  0.901565  1
  Ti  Ti35  1  0.006025  0.485978  0.801945  1
  Ti  Ti36  1  0.000123  0.515331  0.098435  1
  Ti  Ti37  1  0.000000  0.500000  0.500000  1
  V  V38  1  0.503631  0.003827  0.399248  1
  V  V39  1  0.496369  0.996173  0.600752  1
  O  O40  1  0.073028  0.476664  0.851241  1
  O  O41  1  0.082302  0.479870  0.049499  1
  O  O42  1  0.087154  0.485869  0.248126  1
  O  O43  1  0.419091  0.979580  0.451020  1
  O  O44  1  0.077787  0.470135  0.651969  1
  O  O45  1  0.209211  0.210444  0.991803  1
  O  O46  1  0.218571  0.213744  0.190106  1
  O  O47  1  0.201563  0.210049  0.389176  1
  O  O48  1  0.192997  0.203240  0.591455  1
  O  O49  1  0.198566  0.206247  0.793487  1
  O  O50  1  0.203317  0.211109  0.909327  1
  O  O51  1  0.215526  0.210141  0.107288  1
  O  O52  1  0.218515  0.219552  0.305943  1
  O  O53  1  0.207316  0.213262  0.508615  1
  O  O54  1  0.199887  0.203457  0.710716  1
  O  O55  1  0.285498  0.710294  0.909250  1
  O  O56  1  0.289615  0.710159  0.991688  1
  O  O57  1  0.294764  0.710206  0.107069  1
  O  O58  1  0.299065  0.714271  0.190175  1
  O  O59  1  0.302657  0.703832  0.390219  1
  O  O60  1  0.280165  0.700904  0.710672  1
  O  O61  1  0.286966  0.708634  0.508579  1
  O  O62  1  0.293488  0.696960  0.592479  1
  O  O63  1  0.297574  0.718481  0.306322  1
  O  O64  1  0.280685  0.704439  0.793442  1
  O  O65  1  0.416249  0.976794  0.851414  1
  O  O66  1  0.422955  0.980019  0.049531  1
  O  O67  1  0.086674  0.476866  0.449687  1
  O  O68  1  0.428945  0.985063  0.247769  1
  O  O69  1  0.411323  0.972520  0.653092  1
  O  O70  1  0.583751  0.023206  0.148586  1
  O  O71  1  0.577045  0.019981  0.950469  1
  O  O72  1  0.588677  0.027480  0.346908  1
  O  O73  1  0.913326  0.523134  0.550313  1
  O  O74  1  0.571055  0.014937  0.752231  1
  O  O75  1  0.700935  0.285729  0.809825  1
  O  O76  1  0.705236  0.289794  0.892931  1
  O  O77  1  0.710385  0.289841  0.008312  1
  O  O78  1  0.714502  0.289706  0.090750  1
  O  O79  1  0.706512  0.303040  0.407521  1
  O  O80  1  0.719315  0.295561  0.206558  1
  O  O81  1  0.719835  0.299096  0.289328  1
  O  O82  1  0.697343  0.296168  0.609781  1
  O  O83  1  0.713034  0.291366  0.491421  1
  O  O84  1  0.702426  0.281519  0.693678  1
  O  O85  1  0.784474  0.789859  0.892712  1
  O  O86  1  0.792684  0.786738  0.491385  1
  O  O87  1  0.796683  0.788891  0.090673  1
  O  O88  1  0.800113  0.796543  0.289284  1
  O  O89  1  0.781485  0.780448  0.694057  1
  O  O90  1  0.781429  0.786256  0.809894  1
  O  O91  1  0.790789  0.789556  0.008197  1
  O  O92  1  0.801434  0.793753  0.206513  1
  O  O93  1  0.807003  0.796760  0.408545  1
  O  O94  1  0.798437  0.789951  0.610824  1
  O  O95  1  0.917698  0.520130  0.950501  1
  O  O96  1  0.926972  0.523336  0.148759  1
  O  O97  1  0.922213  0.529865  0.348031  1
  O  O98  1  0.580909  0.020420  0.548980  1
  O  O99  1  0.912846  0.514131  0.751874  1
