# generated using pymatgen
data_Tb5Y3Re3RuC8
_symmetry_space_group_name_H-M   'P 1'
_cell_length_a   5.14118100
_cell_length_b   6.57769117
_cell_length_c   9.88152386
_cell_angle_alpha   89.94547863
_cell_angle_beta   90.00000000
_cell_angle_gamma   90.00000000
_symmetry_Int_Tables_number   1
_chemical_formula_structural   Tb5Y3Re3RuC8
_chemical_formula_sum   'Tb5 Y3 Re3 Ru1 C8'
_cell_volume   334.16433808
_cell_formula_units_Z   1
loop_
 _symmetry_equiv_pos_site_id
 _symmetry_equiv_pos_as_xyz
  1  'x, y, z'
loop_
 _atom_site_type_symbol
 _atom_site_label
 _atom_site_symmetry_multiplicity
 _atom_site_fract_x
 _atom_site_fract_y
 _atom_site_fract_z
 _atom_site_occupancy
  Tb  Tb0  1  0.750000  0.530666  0.786286  1
  Tb  Tb1  1  0.250000  0.969120  0.283045  1
  Tb  Tb2  1  0.750000  0.680563  0.444314  1
  Tb  Tb3  1  0.750000  0.180904  0.056240  1
  Tb  Tb4  1  0.750000  0.032630  0.715373  1
  Y  Y5  1  0.250000  0.824129  0.945392  1
  Y  Y6  1  0.250000  0.318886  0.556511  1
  Y  Y7  1  0.250000  0.468055  0.216051  1
  Re  Re8  1  0.250000  0.778511  0.635573  1
  Re  Re9  1  0.750000  0.221813  0.365970  1
  Re  Re10  1  0.750000  0.722142  0.134333  1
  Ru  Ru11  1  0.250000  0.277861  0.864545  1
  C  C12  1  0.250000  0.677481  0.451532  1
  C  C13  1  0.250000  0.545646  0.757034  1
  C  C14  1  0.750000  0.455674  0.241033  1
  C  C15  1  0.750000  0.820698  0.949814  1
  C  C16  1  0.250000  0.043393  0.740080  1
  C  C17  1  0.250000  0.175765  0.047708  1
  C  C18  1  0.750000  0.320988  0.550004  1
  C  C19  1  0.750000  0.955074  0.259160  1
