# generated using pymatgen
data_DyHo(Th2In5)2
_symmetry_space_group_name_H-M   'P 1'
_cell_length_a   6.58047130
_cell_length_b   6.58047184
_cell_length_c   10.32340500
_cell_angle_alpha   90.00000000
_cell_angle_beta   90.00000000
_cell_angle_gamma   102.36402149
_symmetry_Int_Tables_number   1
_chemical_formula_structural   DyHo(Th2In5)2
_chemical_formula_sum   'Dy1 Ho1 Th4 In10'
_cell_volume   436.66233335
_cell_formula_units_Z   1
loop_
 _symmetry_equiv_pos_site_id
 _symmetry_equiv_pos_as_xyz
  1  'x, y, z'
loop_
 _atom_site_type_symbol
 _atom_site_label
 _atom_site_symmetry_multiplicity
 _atom_site_fract_x
 _atom_site_fract_y
 _atom_site_fract_z
 _atom_site_occupancy
  Dy  Dy0  1  0.630044  0.630044  0.250000  1
  Ho  Ho1  1  0.369896  0.369896  0.750000  1
  Th  Th2  1  0.206466  0.793509  0.500026  1
  Th  Th3  1  0.206466  0.793509  0.999974  1
  Th  Th4  1  0.793509  0.206466  0.500026  1
  Th  Th5  1  0.793509  0.206466  0.999974  1
  In  In6  1  0.009810  0.009810  0.250000  1
  In  In7  1  0.990297  0.990297  0.750000  1
  In  In8  1  0.310227  0.310227  0.046563  1
  In  In9  1  0.689737  0.689737  0.953306  1
  In  In10  1  0.310227  0.310227  0.453437  1
  In  In11  1  0.689737  0.689737  0.546694  1
  In  In12  1  0.492843  0.068097  0.250000  1
  In  In13  1  0.932025  0.507110  0.750000  1
  In  In14  1  0.507110  0.932025  0.750000  1
  In  In15  1  0.068097  0.492843  0.250000  1
