# generated using pymatgen
data_Pr7Nd9(TlIr)4
_symmetry_space_group_name_H-M   'P 1'
_cell_length_a   10.02203620
_cell_length_b   10.02203599
_cell_length_c   9.97702400
_cell_angle_alpha   60.14846019
_cell_angle_beta   60.14846088
_cell_angle_gamma   60.31415228
_symmetry_Int_Tables_number   1
_chemical_formula_structural   Pr7Nd9(TlIr)4
_chemical_formula_sum   'Pr7 Nd9 Tl4 Ir4'
_cell_volume   711.85901864
_cell_formula_units_Z   1
loop_
 _symmetry_equiv_pos_site_id
 _symmetry_equiv_pos_as_xyz
  1  'x, y, z'
loop_
 _atom_site_type_symbol
 _atom_site_label
 _atom_site_symmetry_multiplicity
 _atom_site_fract_x
 _atom_site_fract_y
 _atom_site_fract_z
 _atom_site_occupancy
  Pr  Pr0  1  0.809319  0.809319  0.190681  1
  Pr  Pr1  1  0.943610  0.556276  0.558554  1
  Pr  Pr2  1  0.556276  0.943610  0.941560  1
  Pr  Pr3  1  0.556276  0.943610  0.558554  1
  Pr  Pr4  1  0.943610  0.556276  0.941560  1
  Pr  Pr5  1  0.558277  0.558277  0.941723  1
  Pr  Pr6  1  0.943633  0.943633  0.556367  1
  Nd  Nd7  1  0.348290  0.348290  0.347619  1
  Nd  Nd8  1  0.348290  0.348290  0.955799  1
  Nd  Nd9  1  0.348630  0.955597  0.347886  1
  Nd  Nd10  1  0.955597  0.348630  0.347886  1
  Nd  Nd11  1  0.809434  0.189786  0.190929  1
  Nd  Nd12  1  0.189786  0.809434  0.809851  1
  Nd  Nd13  1  0.189786  0.809434  0.190929  1
  Nd  Nd14  1  0.809434  0.189786  0.809851  1
  Nd  Nd15  1  0.189270  0.189270  0.810730  1
  Tl  Tl16  1  0.583750  0.583750  0.584158  1
  Tl  Tl17  1  0.583750  0.583750  0.248341  1
  Tl  Tl18  1  0.584557  0.246971  0.584236  1
  Tl  Tl19  1  0.246971  0.584557  0.584236  1
  Ir  Ir20  1  0.141653  0.141653  0.141278  1
  Ir  Ir21  1  0.141653  0.141653  0.575416  1
  Ir  Ir22  1  0.143229  0.574919  0.140926  1
  Ir  Ir23  1  0.574919  0.143229  0.140926  1
