# generated using pymatgen
data_Nd8Ho3Tm9Si16
_symmetry_space_group_name_H-M   'P 1'
_cell_length_a   7.71806445
_cell_length_b   7.71925138
_cell_length_c   14.21274452
_cell_angle_alpha   90.03585888
_cell_angle_beta   90.03909655
_cell_angle_gamma   90.00176055
_symmetry_Int_Tables_number   1
_chemical_formula_structural   Nd8Ho3Tm9Si16
_chemical_formula_sum   'Nd8 Ho3 Tm9 Si16'
_cell_volume   846.76197675
_cell_formula_units_Z   1
loop_
 _symmetry_equiv_pos_site_id
 _symmetry_equiv_pos_as_xyz
  1  'x, y, z'
loop_
 _atom_site_type_symbol
 _atom_site_label
 _atom_site_symmetry_multiplicity
 _atom_site_fract_x
 _atom_site_fract_y
 _atom_site_fract_z
 _atom_site_occupancy
  Nd  Nd0  1  0.642776  0.992616  0.459076  1
  Nd  Nd1  1  0.357500  0.007459  0.959155  1
  Nd  Nd2  1  0.992650  0.642592  0.540686  1
  Nd  Nd3  1  0.492551  0.857359  0.209306  1
  Nd  Nd4  1  0.507142  0.142850  0.709077  1
  Nd  Nd5  1  0.857230  0.492889  0.790771  1
  Nd  Nd6  1  0.142820  0.507300  0.290946  1
  Nd  Nd7  1  0.007029  0.357200  0.041001  1
  Ho  Ho8  1  0.493115  0.359981  0.124411  1
  Ho  Ho9  1  0.993108  0.139956  0.625629  1
  Ho  Ho10  1  0.860107  0.006924  0.874249  1
  Tm  Tm11  1  0.139957  0.993047  0.374353  1
  Tm  Tm12  1  0.506753  0.639933  0.624055  1
  Tm  Tm13  1  0.360024  0.493247  0.875821  1
  Tm  Tm14  1  0.639980  0.506988  0.375638  1
  Tm  Tm15  1  0.006840  0.859864  0.125895  1
  Tm  Tm16  1  0.318303  0.318343  0.500011  1
  Tm  Tm17  1  0.182599  0.817530  0.749968  1
  Tm  Tm18  1  0.818310  0.181628  0.250068  1
  Tm  Tm19  1  0.681953  0.682165  0.999958  1
  Si  Si20  1  0.290545  0.936860  0.561374  1
  Si  Si21  1  0.710197  0.061683  0.062202  1
  Si  Si22  1  0.937373  0.290300  0.437542  1
  Si  Si23  1  0.437324  0.209775  0.312462  1
  Si  Si24  1  0.561415  0.788931  0.811431  1
  Si  Si25  1  0.211175  0.438517  0.688470  1
  Si  Si26  1  0.790325  0.563213  0.188594  1
  Si  Si27  1  0.062987  0.709654  0.938605  1
  Si  Si28  1  0.795134  0.847257  0.687760  1
  Si  Si29  1  0.202895  0.150364  0.188591  1
  Si  Si30  1  0.849013  0.795887  0.311976  1
  Si  Si31  1  0.349004  0.704037  0.438069  1
  Si  Si32  1  0.650937  0.296971  0.937802  1
  Si  Si33  1  0.702892  0.349614  0.561437  1
  Si  Si34  1  0.295255  0.652158  0.061448  1
  Si  Si35  1  0.152782  0.204909  0.812162  1
