# generated using pymatgen
data_LaEu13(Th3Pt8)2
_symmetry_space_group_name_H-M   'P 1'
_cell_length_a   7.77410300
_cell_length_b   7.89016715
_cell_length_c   14.99586000
_cell_angle_alpha   89.95205846
_cell_angle_beta   90.00195307
_cell_angle_gamma   90.11677661
_symmetry_Int_Tables_number   1
_chemical_formula_structural   LaEu13(Th3Pt8)2
_chemical_formula_sum   'La1 Eu13 Th6 Pt16'
_cell_volume   919.82840583
_cell_formula_units_Z   1
loop_
 _symmetry_equiv_pos_site_id
 _symmetry_equiv_pos_as_xyz
  1  'x, y, z'
loop_
 _atom_site_type_symbol
 _atom_site_label
 _atom_site_symmetry_multiplicity
 _atom_site_fract_x
 _atom_site_fract_y
 _atom_site_fract_z
 _atom_site_occupancy
  La  La0  1  0.336890  0.838539  0.879159  1
  Eu  Eu1  1  0.838494  0.664648  0.880103  1
  Eu  Eu2  1  0.496346  0.323995  0.903719  1
  Eu  Eu3  1  0.992497  0.176406  0.594570  1
  Eu  Eu4  1  0.506554  0.676209  0.404974  1
  Eu  Eu5  1  0.005681  0.820204  0.095385  1
  Eu  Eu6  1  0.507133  0.677924  0.095008  1
  Eu  Eu7  1  0.007418  0.823476  0.404889  1
  Eu  Eu8  1  0.491676  0.322465  0.594927  1
  Eu  Eu9  1  0.991589  0.181426  0.906552  1
  Eu  Eu10  1  0.177279  0.480425  0.750806  1
  Eu  Eu11  1  0.682828  0.017060  0.750408  1
  Eu  Eu12  1  0.816913  0.524193  0.251698  1
  Eu  Eu13  1  0.315982  0.975230  0.251474  1
  Th  Th14  1  0.838299  0.659207  0.619683  1
  Th  Th15  1  0.661758  0.159974  0.379470  1
  Th  Th16  1  0.160911  0.337454  0.122945  1
  Th  Th17  1  0.659871  0.162259  0.122567  1
  Th  Th18  1  0.161697  0.339512  0.379625  1
  Th  Th19  1  0.339383  0.839033  0.619380  1
  Pt  Pt20  1  0.322945  0.047836  0.045758  1
  Pt  Pt21  1  0.824066  0.454984  0.457157  1
  Pt  Pt22  1  0.676636  0.954774  0.540748  1
  Pt  Pt23  1  0.184860  0.534315  0.963746  1
  Pt  Pt24  1  0.676648  0.971939  0.961853  1
  Pt  Pt25  1  0.176467  0.544608  0.540137  1
  Pt  Pt26  1  0.324507  0.044217  0.457123  1
  Pt  Pt27  1  0.827983  0.451189  0.047318  1
  Pt  Pt28  1  0.541406  0.632942  0.742003  1
  Pt  Pt29  1  0.044103  0.867015  0.740022  1
  Pt  Pt30  1  0.457995  0.363425  0.252272  1
  Pt  Pt31  1  0.957880  0.134209  0.252189  1
  Pt  Pt32  1  0.304461  0.123865  0.746161  1
  Pt  Pt33  1  0.800426  0.376073  0.745404  1
  Pt  Pt34  1  0.694316  0.880820  0.249907  1
  Pt  Pt35  1  0.196103  0.618151  0.250859  1
