# generated using pymatgen
data_TbPr16(LuGa4)3
_symmetry_space_group_name_H-M   'P 1'
_cell_length_a   7.81310300
_cell_length_b   7.81310300
_cell_length_c   14.76953700
_cell_angle_alpha   90.00000000
_cell_angle_beta   90.00000000
_cell_angle_gamma   90.00000000
_symmetry_Int_Tables_number   1
_chemical_formula_structural   TbPr16(LuGa4)3
_chemical_formula_sum   'Tb1 Pr16 Lu3 Ga12'
_cell_volume   901.60016064
_cell_formula_units_Z   1
loop_
 _symmetry_equiv_pos_site_id
 _symmetry_equiv_pos_as_xyz
  1  'x, y, z'
loop_
 _atom_site_type_symbol
 _atom_site_label
 _atom_site_symmetry_multiplicity
 _atom_site_fract_x
 _atom_site_fract_y
 _atom_site_fract_z
 _atom_site_occupancy
  Tb  Tb0  1  0.500000  0.000000  0.783041  1
  Pr  Pr1  1  0.814060  0.839321  0.603957  1
  Pr  Pr2  1  0.182577  0.838685  0.104020  1
  Pr  Pr3  1  0.161197  0.816403  0.395457  1
  Pr  Pr4  1  0.838803  0.183597  0.395457  1
  Pr  Pr5  1  0.683597  0.661197  0.395457  1
  Pr  Pr6  1  0.660679  0.314060  0.603957  1
  Pr  Pr7  1  0.339321  0.685940  0.603957  1
  Pr  Pr8  1  0.661315  0.682577  0.104020  1
  Pr  Pr9  1  0.685802  0.341550  0.896046  1
  Pr  Pr10  1  0.841550  0.814198  0.896046  1
  Pr  Pr11  1  0.316403  0.338803  0.395457  1
  Pr  Pr12  1  0.185940  0.160679  0.603957  1
  Pr  Pr13  1  0.817423  0.161315  0.104020  1
  Pr  Pr14  1  0.314198  0.658450  0.896046  1
  Pr  Pr15  1  0.338685  0.317423  0.104020  1
  Pr  Pr16  1  0.158450  0.185802  0.896046  1
  Lu  Lu17  1  0.000000  0.500000  0.723459  1
  Lu  Lu18  1  0.000000  0.500000  0.225946  1
  Lu  Lu19  1  0.500000  0.000000  0.272805  1
  Ga  Ga20  1  0.622288  0.377594  0.249684  1
  Ga  Ga21  1  0.119782  0.876673  0.749056  1
  Ga  Ga22  1  0.376673  0.380218  0.749056  1
  Ga  Ga23  1  0.377712  0.622406  0.249684  1
  Ga  Ga24  1  0.877594  0.877712  0.249684  1
  Ga  Ga25  1  0.623327  0.619782  0.749056  1
  Ga  Ga26  1  0.000000  0.500000  0.513971  1
  Ga  Ga27  1  0.880218  0.123327  0.749056  1
  Ga  Ga28  1  0.500000  0.000000  0.481906  1
  Ga  Ga29  1  0.500000  0.000000  0.990971  1
  Ga  Ga30  1  0.122406  0.122288  0.249684  1
  Ga  Ga31  1  0.000000  0.500000  0.015026  1
