# generated using pymatgen
data_DyY4(SiBi)2
_symmetry_space_group_name_H-M   'P 1'
_cell_length_a   8.66640401
_cell_length_b   8.66640350
_cell_length_c   7.93592900
_cell_angle_alpha   90.00000000
_cell_angle_beta   90.00000000
_cell_angle_gamma   125.60010323
_symmetry_Int_Tables_number   1
_chemical_formula_structural   DyY4(SiBi)2
_chemical_formula_sum   'Dy2 Y8 Si4 Bi4'
_cell_volume   484.64018038
_cell_formula_units_Z   2
loop_
 _symmetry_equiv_pos_site_id
 _symmetry_equiv_pos_as_xyz
  1  'x, y, z'
loop_
 _atom_site_type_symbol
 _atom_site_label
 _atom_site_symmetry_multiplicity
 _atom_site_fract_x
 _atom_site_fract_y
 _atom_site_fract_z
 _atom_site_occupancy
  Dy  Dy0  1  0.000000  0.000000  0.000000  1
  Dy  Dy1  1  0.500000  0.500000  0.500000  1
  Y  Y2  1  0.044000  0.288370  0.334240  1
  Y  Y3  1  0.956000  0.711630  0.665760  1
  Y  Y4  1  0.456000  0.211630  0.834240  1
  Y  Y5  1  0.788370  0.544000  0.165760  1
  Y  Y6  1  0.544000  0.788370  0.165760  1
  Y  Y7  1  0.211630  0.456000  0.834240  1
  Y  Y8  1  0.711630  0.956000  0.665760  1
  Y  Y9  1  0.288370  0.044000  0.334240  1
  Si  Si10  1  0.367553  0.367553  0.131386  1
  Si  Si11  1  0.632447  0.632447  0.868614  1
  Si  Si12  1  0.132447  0.132447  0.631386  1
  Si  Si13  1  0.867553  0.867553  0.368614  1
  Bi  Bi14  1  0.792193  0.207807  0.000000  1
  Bi  Bi15  1  0.207807  0.792193  0.000000  1
  Bi  Bi16  1  0.707807  0.292193  0.500000  1
  Bi  Bi17  1  0.292193  0.707807  0.500000  1
