# generated using pymatgen
data_Y2UAl3IrRu2
_symmetry_space_group_name_H-M   'P 1'
_cell_length_a   6.83637683
_cell_length_b   7.30986896
_cell_length_c   4.07713700
_cell_angle_alpha   90.00000000
_cell_angle_beta   90.00000000
_cell_angle_gamma   122.31885251
_symmetry_Int_Tables_number   1
_chemical_formula_structural   Y2UAl3IrRu2
_chemical_formula_sum   'Y2 U1 Al3 Ir1 Ru2'
_cell_volume   172.18359814
_cell_formula_units_Z   1
loop_
 _symmetry_equiv_pos_site_id
 _symmetry_equiv_pos_as_xyz
  1  'x, y, z'
loop_
 _atom_site_type_symbol
 _atom_site_label
 _atom_site_symmetry_multiplicity
 _atom_site_fract_x
 _atom_site_fract_y
 _atom_site_fract_z
 _atom_site_occupancy
  Y  Y0  1  0.417327  0.419297  0.500000  1
  Y  Y1  1  0.582673  0.001969  0.500000  1
  U  U2  1  0.000000  0.587223  0.500000  1
  Al  Al3  1  0.745828  0.757662  0.000000  1
  Al  Al4  1  0.254172  0.011835  0.000000  1
  Al  Al5  1  0.000000  0.216197  0.000000  1
  Ir  Ir6  1  0.000000  0.980685  0.500000  1
  Ru  Ru7  1  0.738850  0.381991  0.000000  1
  Ru  Ru8  1  0.261150  0.643141  0.000000  1
