# generated using pymatgen
data_Ho5Tm3Ti9Si16Mo3
_symmetry_space_group_name_H-M   'P 1'
_cell_length_a   6.98631503
_cell_length_b   6.98524833
_cell_length_c   12.83857115
_cell_angle_alpha   90.01525195
_cell_angle_beta   90.00910133
_cell_angle_gamma   89.98065098
_symmetry_Int_Tables_number   1
_chemical_formula_structural   Ho5Tm3Ti9Si16Mo3
_chemical_formula_sum   'Ho5 Tm3 Ti9 Si16 Mo3'
_cell_volume   626.53691196
_cell_formula_units_Z   1
loop_
 _symmetry_equiv_pos_site_id
 _symmetry_equiv_pos_as_xyz
  1  'x, y, z'
loop_
 _atom_site_type_symbol
 _atom_site_label
 _atom_site_symmetry_multiplicity
 _atom_site_fract_x
 _atom_site_fract_y
 _atom_site_fract_z
 _atom_site_occupancy
  Ho  Ho0  1  0.841964  0.498549  0.281983  1
  Ho  Ho1  1  0.158481  0.500389  0.783276  1
  Ho  Ho2  1  0.659010  0.999508  0.966983  1
  Ho  Ho3  1  0.002271  0.340349  0.533396  1
  Ho  Ho4  1  0.999514  0.659112  0.033119  1
  Tm  Tm5  1  0.340973  0.001639  0.466384  1
  Tm  Tm6  1  0.499217  0.842617  0.717822  1
  Tm  Tm7  1  0.499573  0.158035  0.216690  1
  Ti  Ti8  1  0.672537  0.673163  0.500016  1
  Ti  Ti9  1  0.152273  0.008097  0.875858  1
  Ti  Ti10  1  0.491786  0.652250  0.125110  1
  Ti  Ti11  1  0.507039  0.347137  0.626724  1
  Ti  Ti12  1  0.652243  0.491749  0.874840  1
  Ti  Ti13  1  0.347263  0.507331  0.373084  1
  Ti  Ti14  1  0.848654  0.992304  0.374757  1
  Ti  Ti15  1  0.008463  0.152178  0.124096  1
  Ti  Ti16  1  0.992254  0.848862  0.625152  1
  Si  Si17  1  0.203035  0.129836  0.683757  1
  Si  Si18  1  0.369254  0.701709  0.933835  1
  Si  Si19  1  0.630519  0.296730  0.433795  1
  Si  Si20  1  0.701064  0.368705  0.066443  1
  Si  Si21  1  0.297867  0.632171  0.566075  1
  Si  Si22  1  0.797605  0.869975  0.184452  1
  Si  Si23  1  0.131372  0.201821  0.316262  1
  Si  Si24  1  0.868699  0.798212  0.815469  1
  Si  Si25  1  0.292116  0.953157  0.065279  1
  Si  Si26  1  0.546244  0.792038  0.315163  1
  Si  Si27  1  0.452531  0.207860  0.815115  1
  Si  Si28  1  0.790613  0.547139  0.684917  1
  Si  Si29  1  0.209082  0.451885  0.184784  1
  Si  Si30  1  0.706844  0.047554  0.565785  1
  Si  Si31  1  0.952673  0.291670  0.935071  1
  Si  Si32  1  0.048568  0.708373  0.434200  1
  Mo  Mo33  1  0.327235  0.326890  0.000212  1
  Mo  Mo34  1  0.174143  0.827653  0.249560  1
  Mo  Mo35  1  0.827021  0.173350  0.750536  1
