# generated using pymatgen
data_Mn5Si7(W6C)2
_symmetry_space_group_name_H-M   'P 1'
_cell_length_a   7.76153213
_cell_length_b   7.76096866
_cell_length_c   7.76106148
_cell_angle_alpha   60.40942083
_cell_angle_beta   60.40387527
_cell_angle_gamma   60.40801759
_symmetry_Int_Tables_number   1
_chemical_formula_structural   Mn5Si7(W6C)2
_chemical_formula_sum   'Mn5 Si7 W12 C2'
_cell_volume   333.61792188
_cell_formula_units_Z   1
loop_
 _symmetry_equiv_pos_site_id
 _symmetry_equiv_pos_as_xyz
  1  'x, y, z'
loop_
 _atom_site_type_symbol
 _atom_site_label
 _atom_site_symmetry_multiplicity
 _atom_site_fract_x
 _atom_site_fract_y
 _atom_site_fract_z
 _atom_site_occupancy
  Mn  Mn0  1  0.832682  0.832746  0.832751  1
  Mn  Mn1  1  0.623304  0.623289  0.127124  1
  Mn  Mn2  1  0.623272  0.127147  0.623269  1
  Mn  Mn3  1  0.127150  0.623262  0.623273  1
  Mn  Mn4  1  0.624073  0.624078  0.624084  1
  Si  Si5  1  0.416456  0.416431  0.750212  1
  Si  Si6  1  0.416488  0.750172  0.416409  1
  Si  Si7  1  0.750174  0.416469  0.416424  1
  Si  Si8  1  0.415648  0.415628  0.415515  1
  Si  Si9  1  0.833069  0.833088  0.503348  1
  Si  Si10  1  0.833045  0.503381  0.833119  1
  Si  Si11  1  0.503376  0.833050  0.833104  1
  W  W12  1  0.054316  0.054309  0.444031  1
  W  W13  1  0.445044  0.054223  0.445068  1
  W  W14  1  0.054239  0.445020  0.445048  1
  W  W15  1  0.445032  0.445031  0.054253  1
  W  W16  1  0.054280  0.444060  0.054301  1
  W  W17  1  0.444020  0.054306  0.054334  1
  W  W18  1  0.195807  0.195799  0.805626  1
  W  W19  1  0.808643  0.189211  0.808641  1
  W  W20  1  0.189158  0.808674  0.808668  1
  W  W21  1  0.808651  0.808655  0.189181  1
  W  W22  1  0.195865  0.805572  0.195828  1
  W  W23  1  0.805631  0.195817  0.195792  1
  C  C24  1  0.248954  0.248963  0.248949  1
  C  C25  1  0.001620  0.001619  0.001647  1
