# generated using pymatgen
data_La4GdDy3(TeO6)4
_symmetry_space_group_name_H-M   'P 1'
_cell_length_a   5.48095956
_cell_length_b   9.37267378
_cell_length_c   10.25721197
_cell_angle_alpha   89.96413039
_cell_angle_beta   89.93851379
_cell_angle_gamma   90.06073211
_symmetry_Int_Tables_number   1
_chemical_formula_structural   La4GdDy3(TeO6)4
_chemical_formula_sum   'La4 Gd1 Dy3 Te4 O24'
_cell_volume   526.92505613
_cell_formula_units_Z   1
loop_
 _symmetry_equiv_pos_site_id
 _symmetry_equiv_pos_as_xyz
  1  'x, y, z'
loop_
 _atom_site_type_symbol
 _atom_site_label
 _atom_site_symmetry_multiplicity
 _atom_site_fract_x
 _atom_site_fract_y
 _atom_site_fract_z
 _atom_site_occupancy
  La  La0  1  0.531417  0.220119  0.357287  1
  La  La1  1  0.030057  0.280113  0.643265  1
  La  La2  1  0.469040  0.720512  0.143634  1
  La  La3  1  0.969340  0.780236  0.856668  1
  Gd  Gd4  1  0.520956  0.104532  0.955371  1
  Dy  Dy5  1  0.017300  0.398168  0.044749  1
  Dy  Dy6  1  0.480856  0.603249  0.544241  1
  Dy  Dy7  1  0.980772  0.895969  0.455566  1
  Te  Te8  1  0.466432  0.988854  0.640235  1
  Te  Te9  1  0.967135  0.510599  0.358450  1
  Te  Te10  1  0.532134  0.490729  0.858090  1
  Te  Te11  1  0.034280  0.009819  0.142993  1
  O  O12  1  0.306146  0.141791  0.170613  1
  O  O13  1  0.801987  0.356056  0.833188  1
  O  O14  1  0.695272  0.643160  0.332788  1
  O  O15  1  0.195047  0.855844  0.666704  1
  O  O16  1  0.728209  0.106058  0.562846  1
  O  O17  1  0.227965  0.394010  0.436833  1
  O  O18  1  0.272013  0.608086  0.936019  1
  O  O19  1  0.772546  0.893956  0.063920  1
  O  O20  1  0.673901  0.632781  0.743335  1
  O  O21  1  0.172199  0.865686  0.256986  1
  O  O22  1  0.325160  0.132543  0.753899  1
  O  O23  1  0.827057  0.367229  0.244125  1
  O  O24  1  0.664075  0.948031  0.791759  1
  O  O25  1  0.163795  0.550733  0.205766  1
  O  O26  1  0.335112  0.449927  0.706037  1
  O  O27  1  0.836034  0.050050  0.294426  1
  O  O28  1  0.258979  0.072718  0.501668  1
  O  O29  1  0.759286  0.426783  0.497413  1
  O  O30  1  0.740555  0.574321  0.996598  1
  O  O31  1  0.240537  0.924504  0.004294  1
  O  O32  1  0.107284  0.661737  0.465960  1
  O  O33  1  0.606017  0.837784  0.532678  1
  O  O34  1  0.900615  0.162345  0.034558  1
  O  O35  1  0.390491  0.340967  0.967035  1
