# generated using pymatgen
data_Sm8Lu11Si16Ag
_symmetry_space_group_name_H-M   'P 1'
_cell_length_a   7.28278688
_cell_length_b   7.65710836
_cell_length_c   14.49038500
_cell_angle_alpha   90.00000000
_cell_angle_beta   90.00000000
_cell_angle_gamma   89.94874435
_symmetry_Int_Tables_number   1
_chemical_formula_structural   Sm8Lu11Si16Ag
_chemical_formula_sum   'Sm8 Lu11 Si16 Ag1'
_cell_volume   808.05727574
_cell_formula_units_Z   1
loop_
 _symmetry_equiv_pos_site_id
 _symmetry_equiv_pos_as_xyz
  1  'x, y, z'
loop_
 _atom_site_type_symbol
 _atom_site_label
 _atom_site_symmetry_multiplicity
 _atom_site_fract_x
 _atom_site_fract_y
 _atom_site_fract_z
 _atom_site_occupancy
  Sm  Sm0  1  0.016324  0.176716  0.096532  1
  Sm  Sm1  1  0.984305  0.810907  0.899239  1
  Sm  Sm2  1  0.476122  0.674041  0.899095  1
  Sm  Sm3  1  0.984305  0.810907  0.600761  1
  Sm  Sm4  1  0.515963  0.323400  0.096296  1
  Sm  Sm5  1  0.016324  0.176716  0.403468  1
  Sm  Sm6  1  0.515963  0.323400  0.403704  1
  Sm  Sm7  1  0.476122  0.674041  0.600905  1
  Lu  Lu8  1  0.842361  0.491681  0.250000  1
  Lu  Lu9  1  0.345180  0.009669  0.250000  1
  Lu  Lu10  1  0.651755  0.993070  0.750000  1
  Lu  Lu11  1  0.319102  0.185233  0.626568  1
  Lu  Lu12  1  0.676954  0.823043  0.376892  1
  Lu  Lu13  1  0.175633  0.680943  0.375094  1
  Lu  Lu14  1  0.676954  0.823043  0.123108  1
  Lu  Lu15  1  0.835078  0.327008  0.626526  1
  Lu  Lu16  1  0.319102  0.185233  0.873432  1
  Lu  Lu17  1  0.835078  0.327008  0.873474  1
  Lu  Lu18  1  0.175633  0.680943  0.124906  1
  Si  Si19  1  0.023128  0.092375  0.750000  1
  Si  Si20  1  0.972927  0.890452  0.250000  1
  Si  Si21  1  0.471345  0.616618  0.250000  1
  Si  Si22  1  0.533775  0.389019  0.750000  1
  Si  Si23  1  0.278079  0.882277  0.750000  1
  Si  Si24  1  0.721388  0.125749  0.250000  1
  Si  Si25  1  0.220332  0.375193  0.250000  1
  Si  Si26  1  0.768936  0.624919  0.750000  1
  Si  Si27  1  0.156660  0.462381  0.531327  1
  Si  Si28  1  0.849278  0.531976  0.460948  1
  Si  Si29  1  0.350145  0.968311  0.463552  1
  Si  Si30  1  0.849278  0.531976  0.039052  1
  Si  Si31  1  0.652474  0.031529  0.541125  1
  Si  Si32  1  0.156660  0.462381  0.968673  1
  Si  Si33  1  0.652474  0.031529  0.958875  1
  Si  Si34  1  0.350145  0.968311  0.036448  1
  Ag  Ag35  1  0.154717  0.518003  0.750000  1
