# generated using pymatgen
data_CaSmPaRh3
_symmetry_space_group_name_H-M   'P 1'
_cell_length_a   5.35766599
_cell_length_b   5.35766639
_cell_length_c   5.35766426
_cell_angle_alpha   67.24985666
_cell_angle_beta   67.24985283
_cell_angle_gamma   67.24985249
_symmetry_Int_Tables_number   1
_chemical_formula_structural   CaSmPaRh3
_chemical_formula_sum   'Ca1 Sm1 Pa1 Rh3'
_cell_volume   125.60211383
_cell_formula_units_Z   1
loop_
 _symmetry_equiv_pos_site_id
 _symmetry_equiv_pos_as_xyz
  1  'x, y, z'
loop_
 _atom_site_type_symbol
 _atom_site_label
 _atom_site_symmetry_multiplicity
 _atom_site_fract_x
 _atom_site_fract_y
 _atom_site_fract_z
 _atom_site_occupancy
  Ca  Ca0  1  0.871978  0.871978  0.871978  1
  Sm  Sm1  1  0.122878  0.122878  0.122878  1
  Pa  Pa2  1  0.502217  0.502217  0.502217  1
  Rh  Rh3  1  0.002202  0.500363  0.500363  1
  Rh  Rh4  1  0.500363  0.500363  0.002202  1
  Rh  Rh5  1  0.500363  0.002202  0.500363  1
