# generated using pymatgen
data_Sm5Dy5(Pb3Br)2
_symmetry_space_group_name_H-M   'P 1'
_cell_length_a   9.38742032
_cell_length_b   9.38742156
_cell_length_c   6.74014300
_cell_angle_alpha   90.00000000
_cell_angle_beta   90.00000000
_cell_angle_gamma   120.02972109
_symmetry_Int_Tables_number   1
_chemical_formula_structural   Sm5Dy5(Pb3Br)2
_chemical_formula_sum   'Sm5 Dy5 Pb6 Br2'
_cell_volume   514.23565138
_cell_formula_units_Z   1
loop_
 _symmetry_equiv_pos_site_id
 _symmetry_equiv_pos_as_xyz
  1  'x, y, z'
loop_
 _atom_site_type_symbol
 _atom_site_label
 _atom_site_symmetry_multiplicity
 _atom_site_fract_x
 _atom_site_fract_y
 _atom_site_fract_z
 _atom_site_occupancy
  Sm  Sm0  1  0.266745  0.000154  0.250000  1
  Sm  Sm1  1  0.732784  0.999830  0.750000  1
  Sm  Sm2  1  0.000154  0.266745  0.250000  1
  Sm  Sm3  1  0.999830  0.732784  0.750000  1
  Sm  Sm4  1  0.733332  0.733332  0.250000  1
  Dy  Dy5  1  0.267103  0.267103  0.750000  1
  Dy  Dy6  1  0.333325  0.666336  0.999731  1
  Dy  Dy7  1  0.666336  0.333325  0.999731  1
  Dy  Dy8  1  0.666336  0.333325  0.500269  1
  Dy  Dy9  1  0.333325  0.666336  0.500269  1
  Pb  Pb10  1  0.611261  0.000050  0.250000  1
  Pb  Pb11  1  0.388230  0.001089  0.750000  1
  Pb  Pb12  1  0.000050  0.611261  0.250000  1
  Pb  Pb13  1  0.001089  0.388230  0.750000  1
  Pb  Pb14  1  0.388625  0.388625  0.250000  1
  Pb  Pb15  1  0.609530  0.609530  0.750000  1
  Br  Br16  1  0.000973  0.000973  0.998951  1
  Br  Br17  1  0.000973  0.000973  0.501049  1
