# generated using pymatgen
data_Li8Ho6Tm2Sn7Sb
_symmetry_space_group_name_H-M   'P 1'
_cell_length_a   9.37293186
_cell_length_b   9.37485483
_cell_length_c   7.18470202
_cell_angle_alpha   90.06668235
_cell_angle_beta   89.93979823
_cell_angle_gamma   119.97548955
_symmetry_Int_Tables_number   1
_chemical_formula_structural   Li8Ho6Tm2Sn7Sb
_chemical_formula_sum   'Li8 Ho6 Tm2 Sn7 Sb1'
_cell_volume   546.87271571
_cell_formula_units_Z   1
loop_
 _symmetry_equiv_pos_site_id
 _symmetry_equiv_pos_as_xyz
  1  'x, y, z'
loop_
 _atom_site_type_symbol
 _atom_site_label
 _atom_site_symmetry_multiplicity
 _atom_site_fract_x
 _atom_site_fract_y
 _atom_site_fract_z
 _atom_site_occupancy
  Li  Li0  1  0.832324  0.665949  0.712386  1
  Li  Li1  1  0.833335  0.166847  0.712954  1
  Li  Li2  1  0.333621  0.666131  0.821619  1
  Li  Li3  1  0.666763  0.333382  0.321206  1
  Li  Li4  1  0.666447  0.833356  0.212773  1
  Li  Li5  1  0.166583  0.333672  0.212687  1
  Li  Li6  1  0.166692  0.833059  0.212889  1
  Li  Li7  1  0.334037  0.167764  0.712368  1
  Ho  Ho8  1  0.999123  0.000943  0.002558  1
  Ho  Ho9  1  0.999286  0.000728  0.499473  1
  Ho  Ho10  1  0.511313  0.488759  0.006424  1
  Ho  Ho11  1  0.021193  0.509552  0.504889  1
  Ho  Ho12  1  0.490451  0.978834  0.504945  1
  Ho  Ho13  1  0.513300  0.023135  0.008266  1
  Tm  Tm14  1  0.976739  0.486549  0.008337  1
  Tm  Tm15  1  0.488737  0.511258  0.506092  1
  Sn  Sn16  1  0.666929  0.333534  0.740516  1
  Sn  Sn17  1  0.332801  0.666702  0.240616  1
  Sn  Sn18  1  0.833586  0.167049  0.269179  1
  Sn  Sn19  1  0.166567  0.333738  0.769796  1
  Sn  Sn20  1  0.333441  0.166427  0.269961  1
  Sn  Sn21  1  0.833755  0.666418  0.269677  1
  Sn  Sn22  1  0.666454  0.833214  0.769463  1
  Sb  Sb23  1  0.166524  0.833000  0.768927  1
