# generated using pymatgen
data_Ba9CaSi10O
_symmetry_space_group_name_H-M   'P 1'
_cell_length_a   11.80395593
_cell_length_b   11.80395496
_cell_length_c   11.80395400
_cell_angle_alpha   155.15366568
_cell_angle_beta   111.21142050
_cell_angle_gamma   74.38045664
_symmetry_Int_Tables_number   1
_chemical_formula_structural   Ba9CaSi10O
_chemical_formula_sum   'Ba9 Ca1 Si10 O1'
_cell_volume   636.88674747
_cell_formula_units_Z   1
loop_
 _symmetry_equiv_pos_site_id
 _symmetry_equiv_pos_as_xyz
  1  'x, y, z'
loop_
 _atom_site_type_symbol
 _atom_site_label
 _atom_site_symmetry_multiplicity
 _atom_site_fract_x
 _atom_site_fract_y
 _atom_site_fract_z
 _atom_site_occupancy
  Ba  Ba0  1  0.849570  0.849570  0.000000  1
  Ba  Ba1  1  0.200552  0.000001  0.200553  1
  Ba  Ba2  1  0.469841  0.808990  0.660838  1
  Ba  Ba3  1  0.851848  0.190998  0.660838  1
  Ba  Ba4  1  0.799448  0.999999  0.799447  1
  Ba  Ba5  1  0.150430  0.150430  0.000000  1
  Ba  Ba6  1  0.530159  0.191010  0.339162  1
  Ba  Ba7  1  0.500000  0.000000  0.500000  1
  Ba  Ba8  1  0.148152  0.809002  0.339162  1
  Ca  Ca9  1  0.000000  0.500000  0.500000  1
  Si  Si10  1  0.410720  0.565405  0.845315  1
  Si  Si11  1  0.279910  0.434593  0.845315  1
  Si  Si12  1  0.589280  0.434595  0.154685  1
  Si  Si13  1  0.720090  0.565407  0.154685  1
  Si  Si14  1  0.687244  0.374569  0.312674  1
  Si  Si15  1  0.634651  0.634651  0.000000  1
  Si  Si16  1  0.312756  0.625431  0.687326  1
  Si  Si17  1  0.365349  0.365349  0.000000  1
  Si  Si18  1  0.061895  0.374571  0.687326  1
  Si  Si19  1  0.938105  0.625429  0.312674  1
  O  O20  1  0.000000  0.000000  0.000000  1
