# generated using pymatgen
data_Gd2SiSeO4
_symmetry_space_group_name_H-M   'P 1'
_cell_length_a   6.13836100
_cell_length_b   7.08201500
_cell_length_c   10.95734500
_cell_angle_alpha   90.00000000
_cell_angle_beta   90.00000000
_cell_angle_gamma   90.00000000
_symmetry_Int_Tables_number   1
_chemical_formula_structural   Gd2SiSeO4
_chemical_formula_sum   'Gd8 Si4 Se4 O16'
_cell_volume   476.33731480
_cell_formula_units_Z   4
loop_
 _symmetry_equiv_pos_site_id
 _symmetry_equiv_pos_as_xyz
  1  'x, y, z'
loop_
 _atom_site_type_symbol
 _atom_site_label
 _atom_site_symmetry_multiplicity
 _atom_site_fract_x
 _atom_site_fract_y
 _atom_site_fract_z
 _atom_site_occupancy
  Gd  Gd0  1  0.607996  0.250001  0.000000  1
  Gd  Gd1  1  0.392005  0.750001  0.000000  1
  Gd  Gd2  1  0.133640  0.030770  0.250000  1
  Gd  Gd3  1  0.866360  0.530770  0.250000  1
  Gd  Gd4  1  0.607996  0.250001  0.500000  1
  Gd  Gd5  1  0.392005  0.750001  0.500000  1
  Gd  Gd6  1  0.133640  0.469230  0.750000  1
  Gd  Gd7  1  0.866360  0.969231  0.750000  1
  Si  Si8  1  0.113302  0.250001  0.000000  1
  Si  Si9  1  0.886699  0.750001  0.000000  1
  Si  Si10  1  0.113302  0.250001  0.500000  1
  Si  Si11  1  0.886699  0.750001  0.500000  1
  Se  Se12  1  0.427907  0.375893  0.250000  1
  Se  Se13  1  0.572093  0.875893  0.250000  1
  Se  Se14  1  0.427907  0.124107  0.750000  1
  Se  Se15  1  0.572093  0.624107  0.750000  1
  O  O16  1  0.274778  0.070892  0.031527  1
  O  O17  1  0.725222  0.570892  0.031527  1
  O  O18  1  0.948912  0.261612  0.119539  1
  O  O19  1  0.051089  0.761612  0.119539  1
  O  O20  1  0.948912  0.261612  0.380461  1
  O  O21  1  0.051089  0.761612  0.380461  1
  O  O22  1  0.274778  0.070892  0.468473  1
  O  O23  1  0.725222  0.570892  0.468473  1
  O  O24  1  0.274778  0.429108  0.531527  1
  O  O25  1  0.725222  0.929108  0.531527  1
  O  O26  1  0.948912  0.238388  0.619539  1
  O  O27  1  0.051089  0.738388  0.619539  1
  O  O28  1  0.948912  0.238388  0.880461  1
  O  O29  1  0.051089  0.738388  0.880461  1
  O  O30  1  0.274778  0.429108  0.968473  1
  O  O31  1  0.725222  0.929108  0.968473  1
