# generated using pymatgen
data_HoFeMo(PRh)3
_symmetry_space_group_name_H-M   'P 1'
_cell_length_a   3.85573800
_cell_length_b   10.73745800
_cell_length_c   12.41017400
_cell_angle_alpha   90.00000000
_cell_angle_beta   90.00000000
_cell_angle_gamma   90.00000000
_symmetry_Int_Tables_number   1
_chemical_formula_structural   HoFeMo(PRh)3
_chemical_formula_sum   'Ho4 Fe4 Mo4 P12 Rh12'
_cell_volume   513.79143993
_cell_formula_units_Z   4
loop_
 _symmetry_equiv_pos_site_id
 _symmetry_equiv_pos_as_xyz
  1  'x, y, z'
loop_
 _atom_site_type_symbol
 _atom_site_label
 _atom_site_symmetry_multiplicity
 _atom_site_fract_x
 _atom_site_fract_y
 _atom_site_fract_z
 _atom_site_occupancy
  Ho  Ho0  1  0.250000  0.582705  0.709596  1
  Ho  Ho1  1  0.250000  0.917295  0.209596  1
  Ho  Ho2  1  0.750000  0.417295  0.290404  1
  Ho  Ho3  1  0.750000  0.082705  0.790404  1
  Fe  Fe4  1  0.250000  0.462725  0.936419  1
  Fe  Fe5  1  0.250000  0.037275  0.436419  1
  Fe  Fe6  1  0.750000  0.537275  0.063581  1
  Fe  Fe7  1  0.750000  0.962725  0.563581  1
  Mo  Mo8  1  0.250000  0.704040  0.988156  1
  Mo  Mo9  1  0.250000  0.795960  0.488156  1
  Mo  Mo10  1  0.750000  0.295960  0.011844  1
  Mo  Mo11  1  0.750000  0.204040  0.511844  1
  P  P12  1  0.250000  0.426119  0.107027  1
  P  P13  1  0.250000  0.073881  0.607027  1
  P  P14  1  0.750000  0.573881  0.892973  1
  P  P15  1  0.750000  0.926119  0.392973  1
  P  P16  1  0.250000  0.269936  0.870944  1
  P  P17  1  0.250000  0.230064  0.370944  1
  P  P18  1  0.750000  0.730064  0.129056  1
  P  P19  1  0.750000  0.769936  0.629056  1
  P  P20  1  0.250000  0.600269  0.391523  1
  P  P21  1  0.250000  0.899731  0.891523  1
  P  P22  1  0.750000  0.399731  0.608477  1
  P  P23  1  0.750000  0.100269  0.108477  1
  Rh  Rh24  1  0.250000  0.405665  0.484454  1
  Rh  Rh25  1  0.250000  0.094335  0.984454  1
  Rh  Rh26  1  0.750000  0.594335  0.515546  1
  Rh  Rh27  1  0.750000  0.905665  0.015546  1
  Rh  Rh28  1  0.250000  0.230659  0.178884  1
  Rh  Rh29  1  0.250000  0.269341  0.678884  1
  Rh  Rh30  1  0.750000  0.769341  0.821116  1
  Rh  Rh31  1  0.750000  0.730659  0.321116  1
  Rh  Rh32  1  0.250000  0.888487  0.701337  1
  Rh  Rh33  1  0.250000  0.611513  0.201337  1
  Rh  Rh34  1  0.750000  0.111513  0.298663  1
  Rh  Rh35  1  0.750000  0.388487  0.798663  1
