# generated using pymatgen
data_Ho16MgIn3Ru3Pt
_symmetry_space_group_name_H-M   'P 1'
_cell_length_a   9.64065920
_cell_length_b   9.61259453
_cell_length_c   9.61253699
_cell_angle_alpha   59.73164860
_cell_angle_beta   59.90135667
_cell_angle_gamma   59.90122955
_symmetry_Int_Tables_number   1
_chemical_formula_structural   Ho16MgIn3Ru3Pt
_chemical_formula_sum   'Ho16 Mg1 In3 Ru3 Pt1'
_cell_volume   627.67512707
_cell_formula_units_Z   1
loop_
 _symmetry_equiv_pos_site_id
 _symmetry_equiv_pos_as_xyz
  1  'x, y, z'
loop_
 _atom_site_type_symbol
 _atom_site_label
 _atom_site_symmetry_multiplicity
 _atom_site_fract_x
 _atom_site_fract_y
 _atom_site_fract_z
 _atom_site_occupancy
  Ho  Ho0  1  0.346695  0.347372  0.347397  1
  Ho  Ho1  1  0.352096  0.349518  0.954707  1
  Ho  Ho2  1  0.352090  0.954717  0.349526  1
  Ho  Ho3  1  0.949896  0.351877  0.351916  1
  Ho  Ho4  1  0.801188  0.193075  0.193083  1
  Ho  Ho5  1  0.187231  0.810375  0.810345  1
  Ho  Ho6  1  0.190844  0.805076  0.189305  1
  Ho  Ho7  1  0.807362  0.189829  0.807482  1
  Ho  Ho8  1  0.190844  0.189314  0.805065  1
  Ho  Ho9  1  0.807367  0.807473  0.189832  1
  Ho  Ho10  1  0.939680  0.560901  0.560904  1
  Ho  Ho11  1  0.562240  0.939344  0.939338  1
  Ho  Ho12  1  0.561027  0.939518  0.560633  1
  Ho  Ho13  1  0.939110  0.562999  0.939123  1
  Ho  Ho14  1  0.561021  0.560640  0.939515  1
  Ho  Ho15  1  0.939110  0.939117  0.563000  1
  Mg  Mg16  1  0.268609  0.576652  0.576651  1
  In  In17  1  0.582067  0.582770  0.582766  1
  In  In18  1  0.581484  0.583675  0.251681  1
  In  In19  1  0.581483  0.251682  0.583673  1
  Ru  Ru20  1  0.139229  0.141633  0.579209  1
  Ru  Ru21  1  0.139233  0.579211  0.141624  1
  Ru  Ru22  1  0.579850  0.141034  0.141029  1
  Pt  Pt23  1  0.140242  0.142195  0.142195  1
