# generated using pymatgen
data_Sc2CoNi2P7Ru9
_symmetry_space_group_name_H-M   'P 1'
_cell_length_a   9.31678643
_cell_length_b   9.26125558
_cell_length_c   3.76457700
_cell_angle_alpha   90.00000000
_cell_angle_beta   90.00000000
_cell_angle_gamma   119.80506586
_symmetry_Int_Tables_number   1
_chemical_formula_structural   Sc2CoNi2P7Ru9
_chemical_formula_sum   'Sc2 Co1 Ni2 P7 Ru9'
_cell_volume   281.85942226
_cell_formula_units_Z   1
loop_
 _symmetry_equiv_pos_site_id
 _symmetry_equiv_pos_as_xyz
  1  'x, y, z'
loop_
 _atom_site_type_symbol
 _atom_site_label
 _atom_site_symmetry_multiplicity
 _atom_site_fract_x
 _atom_site_fract_y
 _atom_site_fract_z
 _atom_site_occupancy
  Sc  Sc0  1  0.667500  0.334515  0.500000  1
  Sc  Sc1  1  0.331914  0.663140  0.000000  1
  Co  Co2  1  0.160232  0.275594  0.000000  1
  Ni  Ni3  1  0.726467  0.887384  0.000000  1
  Ni  Ni4  1  0.113298  0.839198  0.000000  1
  P  P5  1  0.593353  0.711194  0.500000  1
  P  P6  1  0.001880  0.004162  0.000000  1
  P  P7  1  0.289011  0.881517  0.500000  1
  P  P8  1  0.120458  0.404818  0.500000  1
  P  P9  1  0.884970  0.585662  0.000000  1
  P  P10  1  0.412182  0.300057  0.000000  1
  P  P11  1  0.698666  0.116401  0.000000  1
  Ru  Ru12  1  0.564067  0.946367  0.500000  1
  Ru  Ru13  1  0.383456  0.437067  0.500000  1
  Ru  Ru14  1  0.917079  0.122722  0.500000  1
  Ru  Ru15  1  0.206461  0.084739  0.500000  1
  Ru  Ru16  1  0.875434  0.789680  0.500000  1
  Ru  Ru17  1  0.428146  0.064015  0.000000  1
  Ru  Ru18  1  0.934209  0.364286  0.000000  1
  Ru  Ru19  1  0.635029  0.569979  0.000000  1
  Ru  Ru20  1  0.056192  0.617498  0.500000  1
