# generated using pymatgen
data_Tb8Ho8Sc4Ga13Si3
_symmetry_space_group_name_H-M   'P 1'
_cell_length_a   7.41286624
_cell_length_b   7.73432916
_cell_length_c   14.89123700
_cell_angle_alpha   90.00000000
_cell_angle_beta   90.00000000
_cell_angle_gamma   90.07356836
_symmetry_Int_Tables_number   1
_chemical_formula_structural   Tb8Ho8Sc4Ga13Si3
_chemical_formula_sum   'Tb8 Ho8 Sc4 Ga13 Si3'
_cell_volume   853.76674079
_cell_formula_units_Z   1
loop_
 _symmetry_equiv_pos_site_id
 _symmetry_equiv_pos_as_xyz
  1  'x, y, z'
loop_
 _atom_site_type_symbol
 _atom_site_label
 _atom_site_symmetry_multiplicity
 _atom_site_fract_x
 _atom_site_fract_y
 _atom_site_fract_z
 _atom_site_occupancy
  Tb  Tb0  1  0.014583  0.181109  0.098567  1
  Tb  Tb1  1  0.985086  0.818610  0.902709  1
  Tb  Tb2  1  0.486060  0.679893  0.903131  1
  Tb  Tb3  1  0.985086  0.818610  0.597291  1
  Tb  Tb4  1  0.514409  0.318267  0.098320  1
  Tb  Tb5  1  0.014583  0.181109  0.401433  1
  Tb  Tb6  1  0.514409  0.318267  0.401680  1
  Tb  Tb7  1  0.486060  0.679893  0.596869  1
  Ho  Ho8  1  0.329125  0.173590  0.622238  1
  Ho  Ho9  1  0.671351  0.827666  0.377849  1
  Ho  Ho10  1  0.171465  0.672199  0.377542  1
  Ho  Ho11  1  0.671351  0.827666  0.122151  1
  Ho  Ho12  1  0.827743  0.328239  0.622315  1
  Ho  Ho13  1  0.329125  0.173590  0.877762  1
  Ho  Ho14  1  0.827743  0.328239  0.877685  1
  Ho  Ho15  1  0.171465  0.672199  0.122458  1
  Sc  Sc16  1  0.161600  0.510683  0.750000  1
  Sc  Sc17  1  0.837523  0.487335  0.250000  1
  Sc  Sc18  1  0.337915  0.012825  0.250000  1
  Sc  Sc19  1  0.664752  0.988212  0.750000  1
  Ga  Ga20  1  0.029531  0.107171  0.750000  1
  Ga  Ga21  1  0.970004  0.898784  0.250000  1
  Ga  Ga22  1  0.470336  0.601133  0.250000  1
  Ga  Ga23  1  0.529995  0.398631  0.750000  1
  Ga  Ga24  1  0.283509  0.867006  0.750000  1
  Ga  Ga25  1  0.158856  0.469445  0.541192  1
  Ga  Ga26  1  0.840170  0.529651  0.457255  1
  Ga  Ga27  1  0.340207  0.969711  0.457354  1
  Ga  Ga28  1  0.840170  0.529651  0.042745  1
  Ga  Ga29  1  0.660126  0.030613  0.541513  1
  Ga  Ga30  1  0.158856  0.469445  0.958808  1
  Ga  Ga31  1  0.660126  0.030613  0.958487  1
  Ga  Ga32  1  0.340207  0.969711  0.042646  1
  Si  Si33  1  0.717013  0.131048  0.250000  1
  Si  Si34  1  0.216854  0.368455  0.250000  1
  Si  Si35  1  0.782610  0.630733  0.750000  1
