# generated using pymatgen
data_Pr6Al24Ir2(OsRh)3
_symmetry_space_group_name_H-M   'P 1'
_cell_length_a   8.90712700
_cell_length_b   8.94903935
_cell_length_c   9.70971555
_cell_angle_alpha   90.10214286
_cell_angle_beta   90.00000000
_cell_angle_gamma   119.84519707
_symmetry_Int_Tables_number   1
_chemical_formula_structural   Pr6Al24Ir2(OsRh)3
_chemical_formula_sum   'Pr6 Al24 Ir2 Os3 Rh3'
_cell_volume   671.31388110
_cell_formula_units_Z   1
loop_
 _symmetry_equiv_pos_site_id
 _symmetry_equiv_pos_as_xyz
  1  'x, y, z'
loop_
 _atom_site_type_symbol
 _atom_site_label
 _atom_site_symmetry_multiplicity
 _atom_site_fract_x
 _atom_site_fract_y
 _atom_site_fract_z
 _atom_site_occupancy
  Pr  Pr0  1  0.190455  0.380909  0.250486  1
  Pr  Pr1  1  0.809545  0.619091  0.749514  1
  Pr  Pr2  1  0.618584  0.811502  0.250077  1
  Pr  Pr3  1  0.381416  0.188498  0.749923  1
  Pr  Pr4  1  0.192918  0.811502  0.250077  1
  Pr  Pr5  1  0.807082  0.188498  0.749923  1
  Al  Al6  1  0.333348  0.666699  0.020533  1
  Al  Al7  1  0.666652  0.333301  0.979467  1
  Al  Al8  1  0.665642  0.331284  0.520472  1
  Al  Al9  1  0.334358  0.668716  0.479528  1
  Al  Al10  1  0.163358  0.326714  0.574901  1
  Al  Al11  1  0.836642  0.673286  0.425099  1
  Al  Al12  1  0.671793  0.837574  0.573892  1
  Al  Al13  1  0.836464  0.672929  0.073255  1
  Al  Al14  1  0.328207  0.162426  0.426108  1
  Al  Al15  1  0.163536  0.327071  0.926745  1
  Al  Al16  1  0.165782  0.837574  0.573892  1
  Al  Al17  1  0.327642  0.165302  0.074644  1
  Al  Al18  1  0.834218  0.162426  0.426108  1
  Al  Al19  1  0.672358  0.834698  0.925356  1
  Al  Al20  1  0.837658  0.165302  0.074644  1
  Al  Al21  1  0.162342  0.834698  0.925356  1
  Al  Al22  1  0.563691  0.127382  0.250661  1
  Al  Al23  1  0.436309  0.872618  0.749339  1
  Al  Al24  1  0.874169  0.437915  0.249813  1
  Al  Al25  1  0.125831  0.562085  0.750187  1
  Al  Al26  1  0.563747  0.437915  0.249813  1
  Al  Al27  1  0.436253  0.562085  0.750187  1
  Al  Al28  1  0.000917  0.001833  0.249982  1
  Al  Al29  1  0.999083  0.998167  0.750018  1
  Ir  Ir30  1  0.000000  0.500000  0.000000  1
  Ir  Ir31  1  0.500000  0.500000  0.000000  1
  Os  Os32  1  0.500000  0.000000  0.500000  1
  Os  Os33  1  0.000000  0.000000  0.000000  1
  Os  Os34  1  0.000000  0.000000  0.500000  1
  Rh  Rh35  1  0.500000  0.000000  0.000000  1
  Rh  Rh36  1  0.000000  0.500000  0.500000  1
  Rh  Rh37  1  0.500000  0.500000  0.500000  1
