# generated using pymatgen
data_CsTa2TcS6
_symmetry_space_group_name_H-M   'P 1'
_cell_length_a   5.65702700
_cell_length_b   5.65702804
_cell_length_c   18.02416500
_cell_angle_alpha   90.00000000
_cell_angle_beta   90.00000000
_cell_angle_gamma   119.99999979
_symmetry_Int_Tables_number   1
_chemical_formula_structural   CsTa2TcS6
_chemical_formula_sum   'Cs2 Ta4 Tc2 S12'
_cell_volume   499.53091351
_cell_formula_units_Z   2
loop_
 _symmetry_equiv_pos_site_id
 _symmetry_equiv_pos_as_xyz
  1  'x, y, z'
loop_
 _atom_site_type_symbol
 _atom_site_label
 _atom_site_symmetry_multiplicity
 _atom_site_fract_x
 _atom_site_fract_y
 _atom_site_fract_z
 _atom_site_occupancy
  Cs  Cs0  1  0.000000  0.000000  0.000000  1
  Cs  Cs1  1  0.000000  0.000000  0.500000  1
  Ta  Ta2  1  0.333333  0.666667  0.250000  1
  Ta  Ta3  1  0.666667  0.333333  0.750000  1
  Ta  Ta4  1  0.666667  0.333333  0.250000  1
  Ta  Ta5  1  0.333333  0.666667  0.750000  1
  Tc  Tc6  1  0.000000  0.000000  0.750000  1
  Tc  Tc7  1  0.000000  0.000000  0.250000  1
  S  S8  1  0.328105  0.000000  0.163616  1
  S  S9  1  0.000000  0.328105  0.163616  1
  S  S10  1  0.671895  0.671895  0.163616  1
  S  S11  1  0.328105  0.328105  0.663616  1
  S  S12  1  0.671895  0.671895  0.336384  1
  S  S13  1  0.671895  0.000000  0.663616  1
  S  S14  1  0.000000  0.671895  0.663616  1
  S  S15  1  0.000000  0.671895  0.836384  1
  S  S16  1  0.328105  0.328105  0.836384  1
  S  S17  1  0.000000  0.328105  0.336384  1
  S  S18  1  0.328105  0.000000  0.336384  1
  S  S19  1  0.671895  0.000000  0.836384  1
