# generated using pymatgen
data_Pr2Ga6PdAu
_symmetry_space_group_name_H-M   'P 1'
_cell_length_a   6.11197588
_cell_length_b   6.11197718
_cell_length_c   6.14812100
_cell_angle_alpha   90.00000000
_cell_angle_beta   90.00000000
_cell_angle_gamma   118.16925170
_symmetry_Int_Tables_number   1
_chemical_formula_structural   Pr2Ga6PdAu
_chemical_formula_sum   'Pr2 Ga6 Pd1 Au1'
_cell_volume   202.46787411
_cell_formula_units_Z   1
loop_
 _symmetry_equiv_pos_site_id
 _symmetry_equiv_pos_as_xyz
  1  'x, y, z'
loop_
 _atom_site_type_symbol
 _atom_site_label
 _atom_site_symmetry_multiplicity
 _atom_site_fract_x
 _atom_site_fract_y
 _atom_site_fract_z
 _atom_site_occupancy
  Pr  Pr0  1  0.239973  0.760027  0.750000  1
  Pr  Pr1  1  0.760011  0.239989  0.250000  1
  Ga  Ga2  1  0.652710  0.347290  0.750000  1
  Ga  Ga3  1  0.338739  0.661261  0.250000  1
  Ga  Ga4  1  0.726265  0.721278  0.007882  1
  Ga  Ga5  1  0.726265  0.721278  0.492118  1
  Ga  Ga6  1  0.278722  0.273735  0.007882  1
  Ga  Ga7  1  0.278722  0.273735  0.492118  1
  Pd  Pd8  1  0.104858  0.895142  0.250000  1
  Au  Au9  1  0.893735  0.106265  0.750000  1
