# generated using pymatgen
data_La6Mg4Pt13
_symmetry_space_group_name_H-M   'P 1'
_cell_length_a   8.55694301
_cell_length_b   8.55694365
_cell_length_c   8.55694400
_cell_angle_alpha   109.47122384
_cell_angle_beta   109.47122535
_cell_angle_gamma   109.47121775
_symmetry_Int_Tables_number   1
_chemical_formula_structural   La6Mg4Pt13
_chemical_formula_sum   'La6 Mg4 Pt13'
_cell_volume   482.31868115
_cell_formula_units_Z   1
loop_
 _symmetry_equiv_pos_site_id
 _symmetry_equiv_pos_as_xyz
  1  'x, y, z'
loop_
 _atom_site_type_symbol
 _atom_site_label
 _atom_site_symmetry_multiplicity
 _atom_site_fract_x
 _atom_site_fract_y
 _atom_site_fract_z
 _atom_site_occupancy
  La  La0  1  0.695570  0.695570  0.000000  1
  La  La1  1  0.304430  0.000000  0.304430  1
  La  La2  1  0.000000  0.304430  0.304430  1
  La  La3  1  0.304430  0.304430  0.000000  1
  La  La4  1  0.695570  0.000000  0.695570  1
  La  La5  1  0.000000  0.695570  0.695570  1
  Mg  Mg6  1  0.000000  0.000000  0.500000  1
  Mg  Mg7  1  0.000000  0.500000  0.000000  1
  Mg  Mg8  1  0.500000  0.000000  0.000000  1
  Mg  Mg9  1  0.500000  0.500000  0.500000  1
  Pt  Pt10  1  0.330057  0.330057  0.660114  1
  Pt  Pt11  1  0.669943  0.000000  0.330057  1
  Pt  Pt12  1  0.000000  0.669943  0.330057  1
  Pt  Pt13  1  0.669943  0.330057  0.000000  1
  Pt  Pt14  1  0.330057  0.660114  0.330057  1
  Pt  Pt15  1  0.000000  0.330057  0.669943  1
  Pt  Pt16  1  0.330057  0.669943  0.000000  1
  Pt  Pt17  1  0.330057  0.000000  0.669943  1
  Pt  Pt18  1  0.660114  0.330057  0.330057  1
  Pt  Pt19  1  0.669943  0.669943  0.339886  1
  Pt  Pt20  1  0.669943  0.339886  0.669943  1
  Pt  Pt21  1  0.339886  0.669943  0.669943  1
  Pt  Pt22  1  0.000000  0.000000  0.000000  1
