# generated using pymatgen
data_Tb6Er6InCo4Ir
_symmetry_space_group_name_H-M   'P 1'
_cell_length_a   8.26173015
_cell_length_b   8.27301997
_cell_length_c   8.26172984
_cell_angle_alpha   110.99645155
_cell_angle_beta   110.83126130
_cell_angle_gamma   106.57041157
_symmetry_Int_Tables_number   1
_chemical_formula_structural   Tb6Er6InCo4Ir
_chemical_formula_sum   'Tb6 Er6 In1 Co4 Ir1'
_cell_volume   434.15987981
_cell_formula_units_Z   1
loop_
 _symmetry_equiv_pos_site_id
 _symmetry_equiv_pos_as_xyz
  1  'x, y, z'
loop_
 _atom_site_type_symbol
 _atom_site_label
 _atom_site_symmetry_multiplicity
 _atom_site_fract_x
 _atom_site_fract_y
 _atom_site_fract_z
 _atom_site_occupancy
  Tb  Tb0  1  0.183826  0.285201  0.471235  1
  Tb  Tb1  1  0.816174  0.714799  0.528765  1
  Tb  Tb2  1  0.186034  0.714799  0.898625  1
  Tb  Tb3  1  0.813966  0.285201  0.101375  1
  Tb  Tb4  1  0.314728  0.620282  0.305554  1
  Tb  Tb5  1  0.685272  0.379718  0.694446  1
  Er  Er6  1  0.315205  0.008500  0.693296  1
  Er  Er7  1  0.684795  0.991500  0.306704  1
  Er  Er8  1  0.409452  0.215177  0.192407  1
  Er  Er9  1  0.590548  0.784823  0.807593  1
  Er  Er10  1  0.022769  0.215177  0.805724  1
  Er  Er11  1  0.977231  0.784823  0.194276  1
  In  In12  1  0.500000  0.500000  0.000000  1
  Co  Co13  1  0.111938  0.612890  0.500952  1
  Co  Co14  1  0.888062  0.387110  0.499048  1
  Co  Co15  1  0.377514  0.000000  0.377514  1
  Co  Co16  1  0.622486  0.000000  0.622486  1
  Ir  Ir17  1  0.000000  0.000000  0.000000  1
