# generated using pymatgen
data_Nb4Si2Ru9Pt
_symmetry_space_group_name_H-M   'P 1'
_cell_length_a   4.06818300
_cell_length_b   5.44105495
_cell_length_c   10.68113276
_cell_angle_alpha   88.99670880
_cell_angle_beta   90.00000000
_cell_angle_gamma   90.00000000
_symmetry_Int_Tables_number   1
_chemical_formula_structural   Nb4Si2Ru9Pt
_chemical_formula_sum   'Nb4 Si2 Ru9 Pt1'
_cell_volume   236.39284050
_cell_formula_units_Z   1
loop_
 _symmetry_equiv_pos_site_id
 _symmetry_equiv_pos_as_xyz
  1  'x, y, z'
loop_
 _atom_site_type_symbol
 _atom_site_label
 _atom_site_symmetry_multiplicity
 _atom_site_fract_x
 _atom_site_fract_y
 _atom_site_fract_z
 _atom_site_occupancy
  Nb  Nb0  1  0.500000  0.846280  0.364172  1
  Nb  Nb1  1  0.500000  0.172308  0.642408  1
  Nb  Nb2  1  0.500000  0.317606  0.135170  1
  Nb  Nb3  1  0.500000  0.665910  0.857418  1
  Si  Si4  1  0.000000  0.506033  0.502695  1
  Si  Si5  1  0.000000  0.996936  0.998087  1
  Ru  Ru6  1  0.000000  0.496653  0.997656  1
  Ru  Ru7  1  0.000000  0.013638  0.503567  1
  Ru  Ru8  1  0.000000  0.414272  0.747327  1
  Ru  Ru9  1  0.000000  0.078569  0.247987  1
  Ru  Ru10  1  0.000000  0.912841  0.753722  1
  Ru  Ru11  1  0.500000  0.817328  0.106226  1
  Ru  Ru12  1  0.500000  0.173325  0.895156  1
  Ru  Ru13  1  0.500000  0.329203  0.393727  1
  Ru  Ru14  1  0.500000  0.680503  0.604544  1
  Pt  Pt15  1  0.000000  0.578595  0.250138  1
