# generated using pymatgen
data_Ca2Yb2SiN4
_symmetry_space_group_name_H-M   'P 1'
_cell_length_a   5.96638400
_cell_length_b   9.11888152
_cell_length_c   10.93111850
_cell_angle_alpha   63.75252001
_cell_angle_beta   90.00000000
_cell_angle_gamma   90.00000000
_symmetry_Int_Tables_number   1
_chemical_formula_structural   Ca2Yb2SiN4
_chemical_formula_sum   'Ca8 Yb8 Si4 N16'
_cell_volume   533.40566103
_cell_formula_units_Z   4
loop_
 _symmetry_equiv_pos_site_id
 _symmetry_equiv_pos_as_xyz
  1  'x, y, z'
loop_
 _atom_site_type_symbol
 _atom_site_label
 _atom_site_symmetry_multiplicity
 _atom_site_fract_x
 _atom_site_fract_y
 _atom_site_fract_z
 _atom_site_occupancy
  Ca  Ca0  1  0.849240  0.853964  0.769560  1
  Ca  Ca1  1  0.349240  0.146036  0.730440  1
  Ca  Ca2  1  0.150760  0.146036  0.230440  1
  Ca  Ca3  1  0.650760  0.853964  0.269560  1
  Ca  Ca4  1  0.255983  0.918138  0.544084  1
  Ca  Ca5  1  0.755983  0.081862  0.955916  1
  Ca  Ca6  1  0.744017  0.081862  0.455916  1
  Ca  Ca7  1  0.244017  0.918138  0.044084  1
  Yb  Yb8  1  0.924326  0.350403  0.653996  1
  Yb  Yb9  1  0.424326  0.649597  0.846004  1
  Yb  Yb10  1  0.075674  0.649597  0.346004  1
  Yb  Yb11  1  0.575674  0.350403  0.153996  1
  Yb  Yb12  1  0.919587  0.454633  0.877483  1
  Yb  Yb13  1  0.419587  0.545367  0.622517  1
  Yb  Yb14  1  0.080413  0.545367  0.122517  1
  Yb  Yb15  1  0.580413  0.454633  0.377483  1
  Si  Si16  1  0.853666  0.730385  0.549499  1
  Si  Si17  1  0.353666  0.269615  0.950501  1
  Si  Si18  1  0.146334  0.269615  0.450501  1
  Si  Si19  1  0.646334  0.730385  0.049499  1
  N  N20  1  0.746122  0.591057  0.988593  1
  N  N21  1  0.246122  0.408943  0.511407  1
  N  N22  1  0.253878  0.408943  0.011407  1
  N  N23  1  0.753878  0.591057  0.488593  1
  N  N24  1  0.069788  0.659274  0.676096  1
  N  N25  1  0.569788  0.340726  0.823904  1
  N  N26  1  0.930212  0.340726  0.323904  1
  N  N27  1  0.430212  0.659274  0.176096  1
  N  N28  1  0.619686  0.797431  0.613114  1
  N  N29  1  0.119686  0.202569  0.886886  1
  N  N30  1  0.380314  0.202569  0.386886  1
  N  N31  1  0.880314  0.797431  0.113114  1
  N  N32  1  0.528924  0.896645  0.894643  1
  N  N33  1  0.028924  0.103355  0.605357  1
  N  N34  1  0.471076  0.103355  0.105357  1
  N  N35  1  0.971076  0.896645  0.394643  1
