# generated using pymatgen
data_La2V3Ni9As7
_symmetry_space_group_name_H-M   'P 1'
_cell_length_a   3.88745000
_cell_length_b   9.53448319
_cell_length_c   9.53448400
_cell_angle_alpha   120.00000187
_cell_angle_beta   90.00000000
_cell_angle_gamma   90.00000000
_symmetry_Int_Tables_number   1
_chemical_formula_structural   La2V3Ni9As7
_chemical_formula_sum   'La2 V3 Ni9 As7'
_cell_volume   306.04817315
_cell_formula_units_Z   1
loop_
 _symmetry_equiv_pos_site_id
 _symmetry_equiv_pos_as_xyz
  1  'x, y, z'
loop_
 _atom_site_type_symbol
 _atom_site_label
 _atom_site_symmetry_multiplicity
 _atom_site_fract_x
 _atom_site_fract_y
 _atom_site_fract_z
 _atom_site_occupancy
  La  La0  1  0.000000  0.666667  0.333333  1
  La  La1  1  0.500000  0.333333  0.666667  1
  V  V2  1  0.500000  0.788365  0.895876  1
  V  V3  1  0.500000  0.107511  0.211635  1
  V  V4  1  0.500000  0.104124  0.892489  1
  Ni  Ni5  1  0.000000  0.571571  0.935976  1
  Ni  Ni6  1  0.000000  0.364404  0.428429  1
  Ni  Ni7  1  0.000000  0.064024  0.635596  1
  Ni  Ni8  1  0.000000  0.868933  0.147127  1
  Ni  Ni9  1  0.000000  0.278194  0.131067  1
  Ni  Ni10  1  0.000000  0.852873  0.721806  1
  Ni  Ni11  1  0.500000  0.944644  0.373367  1
  Ni  Ni12  1  0.500000  0.428722  0.055356  1
  Ni  Ni13  1  0.500000  0.626633  0.571278  1
  As  As14  1  0.000000  0.000000  0.000000  1
  As  As15  1  0.500000  0.703280  0.102763  1
  As  As16  1  0.500000  0.399483  0.296720  1
  As  As17  1  0.500000  0.897237  0.600517  1
  As  As18  1  0.000000  0.596082  0.700505  1
  As  As19  1  0.000000  0.104423  0.403918  1
  As  As20  1  0.000000  0.299495  0.895577  1
