# generated using pymatgen
data_Ta16Co3NiTe16
_symmetry_space_group_name_H-M   'P 1'
_cell_length_a   4.78991300
_cell_length_b   10.79548401
_cell_length_c   18.80930002
_cell_angle_alpha   89.99444311
_cell_angle_beta   90.00000000
_cell_angle_gamma   90.00000000
_symmetry_Int_Tables_number   1
_chemical_formula_structural   Ta16Co3NiTe16
_chemical_formula_sum   'Ta16 Co3 Ni1 Te16'
_cell_volume   972.61816348
_cell_formula_units_Z   1
loop_
 _symmetry_equiv_pos_site_id
 _symmetry_equiv_pos_as_xyz
  1  'x, y, z'
loop_
 _atom_site_type_symbol
 _atom_site_label
 _atom_site_symmetry_multiplicity
 _atom_site_fract_x
 _atom_site_fract_y
 _atom_site_fract_z
 _atom_site_occupancy
  Ta  Ta0  1  0.499400  0.565021  0.382625  1
  Ta  Ta1  1  0.499400  0.434979  0.617375  1
  Ta  Ta2  1  0.500010  0.064661  0.116825  1
  Ta  Ta3  1  0.500010  0.935339  0.883175  1
  Ta  Ta4  1  0.499422  0.705595  0.536587  1
  Ta  Ta5  1  0.499422  0.294405  0.463413  1
  Ta  Ta6  1  0.499840  0.204652  0.963495  1
  Ta  Ta7  1  0.499840  0.795348  0.036505  1
  Ta  Ta8  1  0.001066  0.691008  0.442570  1
  Ta  Ta9  1  0.001066  0.308992  0.557430  1
  Ta  Ta10  1  0.000122  0.190096  0.057176  1
  Ta  Ta11  1  0.000122  0.809904  0.942824  1
  Ta  Ta12  1  0.000078  0.400369  0.391042  1
  Ta  Ta13  1  0.000078  0.599631  0.608958  1
  Ta  Ta14  1  0.999889  0.900822  0.108432  1
  Ta  Ta15  1  0.999889  0.099178  0.891568  1
  Co  Co16  1  0.750032  0.000000  0.000000  1
  Co  Co17  1  0.749925  0.500000  0.500000  1
  Co  Co18  1  0.249951  0.000000  0.000000  1
  Ni  Ni19  1  0.250494  0.500000  0.500000  1
  Te  Te20  1  0.999028  0.853004  0.563832  1
  Te  Te21  1  0.999028  0.146996  0.436168  1
  Te  Te22  1  0.999974  0.353004  0.936144  1
  Te  Te23  1  0.999974  0.646996  0.063856  1
  Te  Te24  1  0.500697  0.329907  0.312702  1
  Te  Te25  1  0.500697  0.670093  0.687298  1
  Te  Te26  1  0.499866  0.829963  0.187349  1
  Te  Te27  1  0.499866  0.170037  0.812651  1
  Te  Te28  1  0.501358  0.828978  0.401492  1
  Te  Te29  1  0.501358  0.171022  0.598508  1
  Te  Te30  1  0.499985  0.328884  0.098421  1
  Te  Te31  1  0.499985  0.671116  0.901579  1
  Te  Te32  1  0.999039  0.609547  0.297511  1
  Te  Te33  1  0.999039  0.390453  0.702489  1
  Te  Te34  1  0.000024  0.109531  0.202420  1
  Te  Te35  1  0.000024  0.890469  0.797580  1
