# generated using pymatgen
data_Tb2NdCu2Rh7
_symmetry_space_group_name_H-M   'P 1'
_cell_length_a   5.35944800
_cell_length_b   5.35944840
_cell_length_c   16.89328400
_cell_angle_alpha   90.00000000
_cell_angle_beta   90.00000000
_cell_angle_gamma   120.00000989
_symmetry_Int_Tables_number   1
_chemical_formula_structural   Tb2NdCu2Rh7
_chemical_formula_sum   'Tb4 Nd2 Cu4 Rh14'
_cell_volume   420.22784581
_cell_formula_units_Z   2
loop_
 _symmetry_equiv_pos_site_id
 _symmetry_equiv_pos_as_xyz
  1  'x, y, z'
loop_
 _atom_site_type_symbol
 _atom_site_label
 _atom_site_symmetry_multiplicity
 _atom_site_fract_x
 _atom_site_fract_y
 _atom_site_fract_z
 _atom_site_occupancy
  Tb  Tb0  1  0.333333  0.666667  0.539538  1
  Tb  Tb1  1  0.666667  0.333333  0.039538  1
  Tb  Tb2  1  0.666667  0.333333  0.460462  1
  Tb  Tb3  1  0.333333  0.666667  0.960462  1
  Nd  Nd4  1  0.333333  0.666667  0.750000  1
  Nd  Nd5  1  0.666667  0.333333  0.250000  1
  Cu  Cu6  1  0.000000  0.000000  0.250000  1
  Cu  Cu7  1  0.000000  0.000000  0.750000  1
  Cu  Cu8  1  0.333333  0.666667  0.250000  1
  Cu  Cu9  1  0.666667  0.333333  0.750000  1
  Rh  Rh10  1  0.168123  0.336245  0.125730  1
  Rh  Rh11  1  0.831877  0.663755  0.625730  1
  Rh  Rh12  1  0.663755  0.831877  0.125730  1
  Rh  Rh13  1  0.168123  0.831877  0.125730  1
  Rh  Rh14  1  0.831877  0.168123  0.625730  1
  Rh  Rh15  1  0.336245  0.168123  0.625730  1
  Rh  Rh16  1  0.831877  0.663755  0.874270  1
  Rh  Rh17  1  0.831877  0.168123  0.874270  1
  Rh  Rh18  1  0.336245  0.168123  0.874270  1
  Rh  Rh19  1  0.663755  0.831877  0.374270  1
  Rh  Rh20  1  0.168123  0.831877  0.374270  1
  Rh  Rh21  1  0.168123  0.336245  0.374270  1
  Rh  Rh22  1  0.000000  0.000000  0.000000  1
  Rh  Rh23  1  0.000000  0.000000  0.500000  1
