# generated using pymatgen
data_Er4Co16Si9Mo4P3
_symmetry_space_group_name_H-M   'P 1'
_cell_length_a   3.70423700
_cell_length_b   10.48476044
_cell_length_c   12.00928859
_cell_angle_alpha   89.94042640
_cell_angle_beta   90.00000000
_cell_angle_gamma   90.00000000
_symmetry_Int_Tables_number   1
_chemical_formula_structural   Er4Co16Si9Mo4P3
_chemical_formula_sum   'Er4 Co16 Si9 Mo4 P3'
_cell_volume   466.41694944
_cell_formula_units_Z   1
loop_
 _symmetry_equiv_pos_site_id
 _symmetry_equiv_pos_as_xyz
  1  'x, y, z'
loop_
 _atom_site_type_symbol
 _atom_site_label
 _atom_site_symmetry_multiplicity
 _atom_site_fract_x
 _atom_site_fract_y
 _atom_site_fract_z
 _atom_site_occupancy
  Er  Er0  1  0.250000  0.574812  0.702078  1
  Er  Er1  1  0.250000  0.923595  0.203701  1
  Er  Er2  1  0.750000  0.422348  0.294328  1
  Er  Er3  1  0.750000  0.076259  0.796657  1
  Co  Co4  1  0.250000  0.406111  0.490193  1
  Co  Co5  1  0.250000  0.089991  0.988281  1
  Co  Co6  1  0.750000  0.589656  0.514020  1
  Co  Co7  1  0.750000  0.910711  0.012033  1
  Co  Co8  1  0.250000  0.213232  0.171120  1
  Co  Co9  1  0.250000  0.285435  0.672257  1
  Co  Co10  1  0.750000  0.787801  0.829229  1
  Co  Co11  1  0.750000  0.714694  0.328363  1
  Co  Co12  1  0.250000  0.883365  0.704122  1
  Co  Co13  1  0.250000  0.617988  0.199462  1
  Co  Co14  1  0.750000  0.117324  0.297091  1
  Co  Co15  1  0.750000  0.382470  0.796608  1
  Co  Co16  1  0.250000  0.465324  0.931399  1
  Co  Co17  1  0.250000  0.035241  0.432976  1
  Co  Co18  1  0.750000  0.535009  0.065190  1
  Co  Co19  1  0.750000  0.965411  0.568003  1
  Si  Si20  1  0.250000  0.420614  0.115413  1
  Si  Si21  1  0.250000  0.079566  0.616936  1
  Si  Si22  1  0.750000  0.580137  0.881980  1
  Si  Si23  1  0.750000  0.920463  0.383625  1
  Si  Si24  1  0.250000  0.266510  0.860731  1
  Si  Si25  1  0.250000  0.233913  0.360549  1
  Si  Si26  1  0.750000  0.733059  0.139633  1
  Si  Si27  1  0.750000  0.766754  0.641084  1
  Si  Si28  1  0.250000  0.596469  0.392489  1
  Mo  Mo29  1  0.250000  0.702970  0.991371  1
  Mo  Mo30  1  0.250000  0.801033  0.495068  1
  Mo  Mo31  1  0.750000  0.296651  0.007892  1
  Mo  Mo32  1  0.750000  0.202303  0.507981  1
  P  P33  1  0.250000  0.903566  0.892993  1
  P  P34  1  0.750000  0.401807  0.607205  1
  P  P35  1  0.750000  0.097407  0.107939  1
