# generated using pymatgen
data_Dy4ReSi4Ru
_symmetry_space_group_name_H-M   'P 1'
_cell_length_a   5.77403450
_cell_length_b   5.77403505
_cell_length_c   10.06465075
_cell_angle_alpha   116.63688787
_cell_angle_beta   116.63688869
_cell_angle_gamma   42.92553392
_symmetry_Int_Tables_number   1
_chemical_formula_structural   Dy4ReSi4Ru
_chemical_formula_sum   'Dy4 Re1 Si4 Ru1'
_cell_volume   200.26008708
_cell_formula_units_Z   1
loop_
 _symmetry_equiv_pos_site_id
 _symmetry_equiv_pos_as_xyz
  1  'x, y, z'
loop_
 _atom_site_type_symbol
 _atom_site_label
 _atom_site_symmetry_multiplicity
 _atom_site_fract_x
 _atom_site_fract_y
 _atom_site_fract_z
 _atom_site_occupancy
  Dy  Dy0  1  0.185242  0.185242  0.109270  1
  Dy  Dy1  1  0.995459  0.995459  0.322054  1
  Dy  Dy2  1  0.008003  0.008003  0.679574  1
  Dy  Dy3  1  0.812966  0.812966  0.889471  1
  Re  Re4  1  0.727455  0.727455  0.371206  1
  Si  Si5  1  0.497857  0.497857  0.121880  1
  Si  Si6  1  0.356169  0.356169  0.440990  1
  Si  Si7  1  0.645742  0.645742  0.562849  1
  Si  Si8  1  0.500620  0.500620  0.875511  1
  Ru  Ru9  1  0.270487  0.270487  0.627193  1
