# generated using pymatgen
data_PrNd(Er2Ni9)2
_symmetry_space_group_name_H-M   'P 1'
_cell_length_a   5.02304000
_cell_length_b   5.02329646
_cell_length_c   16.58549000
_cell_angle_alpha   90.00000000
_cell_angle_beta   90.00000000
_cell_angle_gamma   119.97221107
_symmetry_Int_Tables_number   1
_chemical_formula_structural   PrNd(Er2Ni9)2
_chemical_formula_sum   'Pr1 Nd1 Er4 Ni18'
_cell_volume   362.52330221
_cell_formula_units_Z   1
loop_
 _symmetry_equiv_pos_site_id
 _symmetry_equiv_pos_as_xyz
  1  'x, y, z'
loop_
 _atom_site_type_symbol
 _atom_site_label
 _atom_site_symmetry_multiplicity
 _atom_site_fract_x
 _atom_site_fract_y
 _atom_site_fract_z
 _atom_site_occupancy
  Pr  Pr0  1  0.333879  0.667329  0.750000  1
  Nd  Nd1  1  0.666419  0.332887  0.250000  1
  Er  Er2  1  0.333323  0.666737  0.541036  1
  Er  Er3  1  0.666503  0.333146  0.041177  1
  Er  Er4  1  0.666503  0.333146  0.458823  1
  Er  Er5  1  0.333323  0.666737  0.958964  1
  Ni  Ni6  1  0.167167  0.334461  0.124624  1
  Ni  Ni7  1  0.832964  0.665631  0.624601  1
  Ni  Ni8  1  0.664869  0.832314  0.124535  1
  Ni  Ni9  1  0.167043  0.832088  0.124453  1
  Ni  Ni10  1  0.833116  0.168002  0.624357  1
  Ni  Ni11  1  0.335209  0.167722  0.624157  1
  Ni  Ni12  1  0.832964  0.665631  0.875399  1
  Ni  Ni13  1  0.833116  0.168002  0.875643  1
  Ni  Ni14  1  0.335209  0.167722  0.875843  1
  Ni  Ni15  1  0.664869  0.832314  0.375465  1
  Ni  Ni16  1  0.167043  0.832088  0.375547  1
  Ni  Ni17  1  0.167167  0.334461  0.375376  1
  Ni  Ni18  1  0.999854  0.999041  0.250000  1
  Ni  Ni19  1  0.001475  0.001918  0.750000  1
  Ni  Ni20  1  0.333166  0.666913  0.250000  1
  Ni  Ni21  1  0.665648  0.332291  0.750000  1
  Ni  Ni22  1  0.999587  0.999709  0.000061  1
  Ni  Ni23  1  0.999587  0.999709  0.499939  1
