# generated using pymatgen
data_La10Al7Si11Hg2
_symmetry_space_group_name_H-M   'P 1'
_cell_length_a   4.26119986
_cell_length_b   4.44307038
_cell_length_c   37.69305200
_cell_angle_alpha   86.62115204
_cell_angle_beta   86.75963329
_cell_angle_gamma   90.00001799
_symmetry_Int_Tables_number   1
_chemical_formula_structural   La10Al7Si11Hg2
_chemical_formula_sum   'La10 Al7 Si11 Hg2'
_cell_volume   711.25191910
_cell_formula_units_Z   1
loop_
 _symmetry_equiv_pos_site_id
 _symmetry_equiv_pos_as_xyz
  1  'x, y, z'
loop_
 _atom_site_type_symbol
 _atom_site_label
 _atom_site_symmetry_multiplicity
 _atom_site_fract_x
 _atom_site_fract_y
 _atom_site_fract_z
 _atom_site_occupancy
  La  La0  1  0.950089  0.450089  0.099821  1
  La  La1  1  0.350545  0.850545  0.298912  1
  La  La2  1  0.751059  0.251059  0.497883  1
  La  La3  1  0.147873  0.647873  0.704255  1
  La  La4  1  0.544936  0.044936  0.910129  1
  La  La5  1  0.999796  0.999796  0.000407  1
  La  La6  1  0.400653  0.400653  0.198693  1
  La  La7  1  0.801289  0.801289  0.397423  1
  La  La8  1  0.204651  0.204651  0.590697  1
  La  La9  1  0.602298  0.602298  0.795402  1
  Al  Al10  1  0.466947  0.966947  0.066108  1
  Al  Al11  1  0.867577  0.367577  0.264844  1
  Al  Al12  1  0.268258  0.768258  0.463484  1
  Al  Al13  1  0.666575  0.166575  0.666849  1
  Al  Al14  1  0.064060  0.564060  0.871880  1
  Al  Al15  1  0.916876  0.916876  0.166248  1
  Al  Al16  1  0.317397  0.317397  0.365208  1
  Si  Si17  1  0.719313  0.719313  0.561372  1
  Si  Si18  1  0.116813  0.116813  0.766374  1
  Si  Si19  1  0.514661  0.514661  0.970677  1
  Si  Si20  1  0.434010  0.934010  0.131978  1
  Si  Si21  1  0.834468  0.334468  0.331064  1
  Si  Si22  1  0.235332  0.735332  0.529337  1
  Si  Si23  1  0.633431  0.133431  0.733136  1
  Si  Si24  1  0.031098  0.531098  0.937807  1
  Si  Si25  1  0.482912  0.482912  0.034176  1
  Si  Si26  1  0.883767  0.883767  0.232467  1
  Si  Si27  1  0.284320  0.284320  0.431358  1
  Hg  Hg28  1  0.684404  0.684404  0.631191  1
  Hg  Hg29  1  0.081791  0.081791  0.836418  1
