# generated using pymatgen
data_Th14ReOs4Ru
_symmetry_space_group_name_H-M   'P 1'
_cell_length_a   9.98211561
_cell_length_b   10.03501995
_cell_length_c   6.33354343
_cell_angle_alpha   89.88531521
_cell_angle_beta   89.88186617
_cell_angle_gamma   119.74710809
_symmetry_Int_Tables_number   1
_chemical_formula_structural   Th14ReOs4Ru
_chemical_formula_sum   'Th14 Re1 Os4 Ru1'
_cell_volume   550.82766723
_cell_formula_units_Z   1
loop_
 _symmetry_equiv_pos_site_id
 _symmetry_equiv_pos_as_xyz
  1  'x, y, z'
loop_
 _atom_site_type_symbol
 _atom_site_label
 _atom_site_symmetry_multiplicity
 _atom_site_fract_x
 _atom_site_fract_y
 _atom_site_fract_z
 _atom_site_occupancy
  Th  Th0  1  0.463643  0.541200  0.297818  1
  Th  Th1  1  0.078357  0.542430  0.297871  1
  Th  Th2  1  0.920415  0.458435  0.798548  1
  Th  Th3  1  0.252293  0.126285  0.503826  1
  Th  Th4  1  0.540232  0.079192  0.797670  1
  Th  Th5  1  0.748973  0.873760  0.005421  1
  Th  Th6  1  0.665839  0.332427  0.284685  1
  Th  Th7  1  0.124754  0.873624  0.004843  1
  Th  Th8  1  0.458902  0.920022  0.299049  1
  Th  Th9  1  0.538682  0.459228  0.798623  1
  Th  Th10  1  0.874082  0.126902  0.503683  1
  Th  Th11  1  0.126977  0.254064  0.004288  1
  Th  Th12  1  0.874669  0.748475  0.507716  1
  Th  Th13  1  0.333762  0.666958  0.786768  1
  Re  Re14  1  0.813346  0.625676  0.052331  1
  Os  Os15  1  0.812144  0.184265  0.047796  1
  Os  Os16  1  0.625524  0.813931  0.550914  1
  Os  Os17  1  0.371662  0.183809  0.047422  1
  Os  Os18  1  0.187579  0.375043  0.546699  1
  Ru  Ru19  1  0.188163  0.814275  0.548030  1
