# generated using pymatgen
data_YbDy3Y3FeI12
_symmetry_space_group_name_H-M   'P 1'
_cell_length_a   9.73936805
_cell_length_b   9.80003347
_cell_length_c   9.74180155
_cell_angle_alpha   106.95670615
_cell_angle_beta   106.87379645
_cell_angle_gamma   106.86070934
_symmetry_Int_Tables_number   1
_chemical_formula_structural   YbDy3Y3FeI12
_chemical_formula_sum   'Yb1 Dy3 Y3 Fe1 I12'
_cell_volume   776.52422600
_cell_formula_units_Z   1
loop_
 _symmetry_equiv_pos_site_id
 _symmetry_equiv_pos_as_xyz
  1  'x, y, z'
loop_
 _atom_site_type_symbol
 _atom_site_label
 _atom_site_symmetry_multiplicity
 _atom_site_fract_x
 _atom_site_fract_y
 _atom_site_fract_z
 _atom_site_occupancy
  Yb  Yb0  1  0.500164  0.499938  0.500184  1
  Dy  Dy1  1  0.714919  0.975820  0.907184  1
  Dy  Dy2  1  0.975729  0.908012  0.714311  1
  Dy  Dy3  1  0.096798  0.299686  0.024250  1
  Y  Y4  1  0.285892  0.024269  0.092543  1
  Y  Y5  1  0.902647  0.698458  0.975585  1
  Y  Y6  1  0.024200  0.092422  0.286357  1
  Fe  Fe7  1  0.999407  0.999940  0.999275  1
  I  I8  1  0.072231  0.222590  0.681103  1
  I  I9  1  0.378644  0.151104  0.455329  1
  I  I10  1  0.622090  0.849110  0.545297  1
  I  I11  1  0.226258  0.682219  0.073999  1
  I  I12  1  0.773743  0.317554  0.926378  1
  I  I13  1  0.683347  0.072445  0.222573  1
  I  I14  1  0.543762  0.624093  0.850129  1
  I  I15  1  0.850913  0.546234  0.621677  1
  I  I16  1  0.927838  0.777408  0.319290  1
  I  I17  1  0.315412  0.926988  0.776175  1
  I  I18  1  0.456272  0.377159  0.150178  1
  I  I19  1  0.149735  0.454549  0.378183  1
