# generated using pymatgen
data_NdPa5(Fe3P2)6
_symmetry_space_group_name_H-M   'P 1'
_cell_length_a   3.72150000
_cell_length_b   10.54309800
_cell_length_c   12.19442200
_cell_angle_alpha   90.00000000
_cell_angle_beta   90.00000000
_cell_angle_gamma   90.00000000
_symmetry_Int_Tables_number   1
_chemical_formula_structural   NdPa5(Fe3P2)6
_chemical_formula_sum   'Nd1 Pa5 Fe18 P12'
_cell_volume   478.46203914
_cell_formula_units_Z   1
loop_
 _symmetry_equiv_pos_site_id
 _symmetry_equiv_pos_as_xyz
  1  'x, y, z'
loop_
 _atom_site_type_symbol
 _atom_site_label
 _atom_site_symmetry_multiplicity
 _atom_site_fract_x
 _atom_site_fract_y
 _atom_site_fract_z
 _atom_site_occupancy
  Nd  Nd0  1  0.500000  0.000000  0.480016  1
  Pa  Pa1  1  0.000000  0.500000  0.523725  1
  Pa  Pa2  1  0.500000  0.819918  0.206985  1
  Pa  Pa3  1  0.500000  0.180082  0.206985  1
  Pa  Pa4  1  0.000000  0.681711  0.793378  1
  Pa  Pa5  1  0.000000  0.318289  0.793378  1
  Fe  Fe6  1  0.500000  0.500000  0.150918  1
  Fe  Fe7  1  0.000000  0.000000  0.849051  1
  Fe  Fe8  1  0.500000  0.500000  0.701403  1
  Fe  Fe9  1  0.000000  0.000000  0.290563  1
  Fe  Fe10  1  0.000000  0.500000  0.985962  1
  Fe  Fe11  1  0.500000  0.000000  0.012527  1
  Fe  Fe12  1  0.500000  0.333056  0.993640  1
  Fe  Fe13  1  0.500000  0.666944  0.993640  1
  Fe  Fe14  1  0.000000  0.167950  0.005399  1
  Fe  Fe15  1  0.000000  0.832050  0.005399  1
  Fe  Fe16  1  0.500000  0.305172  0.428597  1
  Fe  Fe17  1  0.500000  0.694828  0.428597  1
  Fe  Fe18  1  0.000000  0.204985  0.574037  1
  Fe  Fe19  1  0.000000  0.795015  0.574037  1
  Fe  Fe20  1  0.500000  0.879072  0.716667  1
  Fe  Fe21  1  0.500000  0.120928  0.716667  1
  Fe  Fe22  1  0.000000  0.619304  0.284069  1
  Fe  Fe23  1  0.000000  0.380696  0.284069  1
  P  P24  1  0.500000  0.500000  0.885971  1
  P  P25  1  0.000000  0.000000  0.111098  1
  P  P26  1  0.500000  0.500000  0.337267  1
  P  P27  1  0.000000  0.000000  0.664014  1
  P  P28  1  0.500000  0.305438  0.613022  1
  P  P29  1  0.500000  0.694562  0.613022  1
  P  P30  1  0.000000  0.197249  0.387603  1
  P  P31  1  0.000000  0.802751  0.387603  1
  P  P32  1  0.500000  0.847591  0.897050  1
  P  P33  1  0.500000  0.152409  0.897050  1
  P  P34  1  0.000000  0.652024  0.103295  1
  P  P35  1  0.000000  0.347976  0.103295  1
