# generated using pymatgen
data_Zr4TaFe(B2Ru5)2
_symmetry_space_group_name_H-M   'P 1'
_cell_length_a   9.43128600
_cell_length_b   9.43128600
_cell_length_c   3.10109800
_cell_angle_alpha   90.00000000
_cell_angle_beta   90.00000000
_cell_angle_gamma   90.00000000
_symmetry_Int_Tables_number   1
_chemical_formula_structural   Zr4TaFe(B2Ru5)2
_chemical_formula_sum   'Zr4 Ta1 Fe1 B4 Ru10'
_cell_volume   275.84004858
_cell_formula_units_Z   1
loop_
 _symmetry_equiv_pos_site_id
 _symmetry_equiv_pos_as_xyz
  1  'x, y, z'
loop_
 _atom_site_type_symbol
 _atom_site_label
 _atom_site_symmetry_multiplicity
 _atom_site_fract_x
 _atom_site_fract_y
 _atom_site_fract_z
 _atom_site_occupancy
  Zr  Zr0  1  0.821817  0.673897  0.000000  1
  Zr  Zr1  1  0.178183  0.326103  0.000000  1
  Zr  Zr2  1  0.326103  0.821817  0.000000  1
  Zr  Zr3  1  0.673897  0.178183  0.000000  1
  Ta  Ta4  1  0.000000  0.000000  0.000000  1
  Fe  Fe5  1  0.500000  0.500000  0.000000  1
  B  B6  1  0.619213  0.873670  0.000000  1
  B  B7  1  0.380787  0.126330  0.000000  1
  B  B8  1  0.126330  0.619213  0.000000  1
  B  B9  1  0.873670  0.380787  0.000000  1
  Ru  Ru10  1  0.568247  0.713285  0.500000  1
  Ru  Ru11  1  0.431753  0.286715  0.500000  1
  Ru  Ru12  1  0.072294  0.780877  0.500000  1
  Ru  Ru13  1  0.927706  0.219123  0.500000  1
  Ru  Ru14  1  0.286715  0.568247  0.500000  1
  Ru  Ru15  1  0.713285  0.431753  0.500000  1
  Ru  Ru16  1  0.219123  0.072294  0.500000  1
  Ru  Ru17  1  0.780877  0.927706  0.500000  1
  Ru  Ru18  1  0.500000  0.000000  0.500000  1
  Ru  Ru19  1  0.000000  0.500000  0.500000  1
