# generated using pymatgen
data_PaNiAsN
_symmetry_space_group_name_H-M   'P 1'
_cell_length_a   3.93614800
_cell_length_b   3.93614800
_cell_length_c   7.86425600
_cell_angle_alpha   89.99991262
_cell_angle_beta   89.99991262
_cell_angle_gamma   89.99985444
_symmetry_Int_Tables_number   1
_chemical_formula_structural   PaNiAsN
_chemical_formula_sum   'Pa2 Ni2 As2 N2'
_cell_volume   121.84297139
_cell_formula_units_Z   2
loop_
 _symmetry_equiv_pos_site_id
 _symmetry_equiv_pos_as_xyz
  1  'x, y, z'
loop_
 _atom_site_type_symbol
 _atom_site_label
 _atom_site_symmetry_multiplicity
 _atom_site_fract_x
 _atom_site_fract_y
 _atom_site_fract_z
 _atom_site_occupancy
  Pa  Pa0  1  0.250001  0.250001  0.150410  1
  Pa  Pa1  1  0.750002  0.750002  0.849613  1
  Ni  Ni2  1  0.750001  0.250002  0.499992  1
  Ni  Ni3  1  0.250002  0.750001  0.499992  1
  As  As4  1  0.750000  0.750000  0.336330  1
  As  As5  1  0.250003  0.250003  0.663688  1
  N  N6  1  0.750002  0.250002  0.999987  1
  N  N7  1  0.250002  0.750002  0.999987  1
