# generated using pymatgen
data_Er16In4Ni3Os
_symmetry_space_group_name_H-M   'P 1'
_cell_length_a   9.49432060
_cell_length_b   9.52567322
_cell_length_c   9.49432100
_cell_angle_alpha   60.10882048
_cell_angle_beta   60.00000208
_cell_angle_gamma   60.10882179
_symmetry_Int_Tables_number   1
_chemical_formula_structural   Er16In4Ni3Os
_chemical_formula_sum   'Er16 In4 Ni3 Os1'
_cell_volume   608.16423618
_cell_formula_units_Z   1
loop_
 _symmetry_equiv_pos_site_id
 _symmetry_equiv_pos_as_xyz
  1  'x, y, z'
loop_
 _atom_site_type_symbol
 _atom_site_label
 _atom_site_symmetry_multiplicity
 _atom_site_fract_x
 _atom_site_fract_y
 _atom_site_fract_z
 _atom_site_occupancy
  Er  Er0  1  0.062966  0.062498  0.437268  1
  Er  Er1  1  0.652484  0.042547  0.652484  1
  Er  Er2  1  0.188397  0.811386  0.188397  1
  Er  Er3  1  0.437268  0.062498  0.437268  1
  Er  Er4  1  0.188933  0.188188  0.811439  1
  Er  Er5  1  0.650918  0.653197  0.650918  1
  Er  Er6  1  0.044967  0.653197  0.650918  1
  Er  Er7  1  0.437268  0.062498  0.062966  1
  Er  Er8  1  0.650918  0.653197  0.044967  1
  Er  Er9  1  0.188397  0.811386  0.811821  1
  Er  Er10  1  0.811439  0.188188  0.811439  1
  Er  Er11  1  0.811439  0.188188  0.188933  1
  Er  Er12  1  0.811821  0.811386  0.188397  1
  Er  Er13  1  0.059170  0.436590  0.445072  1
  Er  Er14  1  0.445072  0.436590  0.059170  1
  Er  Er15  1  0.059170  0.436590  0.059170  1
  In  In16  1  0.748205  0.416197  0.417800  1
  In  In17  1  0.417800  0.416197  0.748205  1
  In  In18  1  0.416329  0.751013  0.416329  1
  In  In19  1  0.417800  0.416197  0.417800  1
  Ni  Ni20  1  0.858240  0.858457  0.858240  1
  Ni  Ni21  1  0.425062  0.858457  0.858240  1
  Ni  Ni22  1  0.858240  0.858457  0.425062  1
  Os  Os23  1  0.857701  0.426898  0.857701  1
