# generated using pymatgen
data_Cu2HgF8
_symmetry_space_group_name_H-M   'P 1'
_cell_length_a   5.62770400
_cell_length_b   5.62770400
_cell_length_c   10.21808500
_cell_angle_alpha   90.00000000
_cell_angle_beta   90.00000000
_cell_angle_gamma   90.00000000
_symmetry_Int_Tables_number   1
_chemical_formula_structural   Cu2HgF8
_chemical_formula_sum   'Cu4 Hg2 F16'
_cell_volume   323.61750456
_cell_formula_units_Z   2
loop_
 _symmetry_equiv_pos_site_id
 _symmetry_equiv_pos_as_xyz
  1  'x, y, z'
loop_
 _atom_site_type_symbol
 _atom_site_label
 _atom_site_symmetry_multiplicity
 _atom_site_fract_x
 _atom_site_fract_y
 _atom_site_fract_z
 _atom_site_occupancy
  Cu  Cu0  1  0.500000  0.000000  0.500000  1
  Cu  Cu1  1  0.000000  0.500000  0.500000  1
  Cu  Cu2  1  0.500000  0.000000  0.000000  1
  Cu  Cu3  1  0.000000  0.500000  0.000000  1
  Hg  Hg4  1  0.000000  0.000000  0.750000  1
  Hg  Hg5  1  0.000000  0.000000  0.250000  1
  F  F6  1  0.673690  0.851241  0.621856  1
  F  F7  1  0.326310  0.148759  0.621856  1
  F  F8  1  0.851241  0.673690  0.878144  1
  F  F9  1  0.851241  0.326310  0.621856  1
  F  F10  1  0.148759  0.673690  0.621856  1
  F  F11  1  0.326310  0.851241  0.878144  1
  F  F12  1  0.851241  0.673690  0.121856  1
  F  F13  1  0.326310  0.851241  0.121856  1
  F  F14  1  0.673690  0.148759  0.121856  1
  F  F15  1  0.851241  0.326310  0.378144  1
  F  F16  1  0.148759  0.673690  0.378144  1
  F  F17  1  0.148759  0.326310  0.121856  1
  F  F18  1  0.673690  0.851241  0.378144  1
  F  F19  1  0.326310  0.148759  0.378144  1
  F  F20  1  0.148759  0.326310  0.878144  1
  F  F21  1  0.673690  0.148759  0.878144  1
