# generated using pymatgen
data_La2Tb3GdNb2O14
_symmetry_space_group_name_H-M   'P 1'
_cell_length_a   6.55614857
_cell_length_b   6.57121698
_cell_length_c   7.69289300
_cell_angle_alpha   90.00000000
_cell_angle_beta   90.00000000
_cell_angle_gamma   109.06489987
_symmetry_Int_Tables_number   1
_chemical_formula_structural   La2Tb3GdNb2O14
_chemical_formula_sum   'La2 Tb3 Gd1 Nb2 O14'
_cell_volume   313.24536545
_cell_formula_units_Z   1
loop_
 _symmetry_equiv_pos_site_id
 _symmetry_equiv_pos_as_xyz
  1  'x, y, z'
loop_
 _atom_site_type_symbol
 _atom_site_label
 _atom_site_symmetry_multiplicity
 _atom_site_fract_x
 _atom_site_fract_y
 _atom_site_fract_z
 _atom_site_occupancy
  La  La0  1  0.500220  0.500188  0.499520  1
  La  La1  1  0.500220  0.500188  0.000480  1
  Tb  Tb2  1  0.534843  0.000899  0.750000  1
  Tb  Tb3  1  0.000759  0.535209  0.250000  1
  Tb  Tb4  1  0.465366  0.999100  0.250000  1
  Gd  Gd5  1  0.999071  0.466045  0.750000  1
  Nb  Nb6  1  0.000203  0.000423  0.499579  1
  Nb  Nb7  1  0.000203  0.000423  0.000421  1
  O  O8  1  0.680647  0.933559  0.467395  1
  O  O9  1  0.931522  0.680599  0.530144  1
  O  O10  1  0.680647  0.933559  0.032605  1
  O  O11  1  0.931522  0.680599  0.969856  1
  O  O12  1  0.319027  0.066642  0.532795  1
  O  O13  1  0.067396  0.318290  0.465433  1
  O  O14  1  0.319027  0.066642  0.967205  1
  O  O15  1  0.067396  0.318290  0.034567  1
  O  O16  1  0.366340  0.637887  0.750000  1
  O  O17  1  0.636363  0.363178  0.250000  1
  O  O18  1  0.641199  0.357288  0.750000  1
  O  O19  1  0.357390  0.643273  0.250000  1
  O  O20  1  0.934209  0.063122  0.750000  1
  O  O21  1  0.066427  0.934597  0.250000  1
