# generated using pymatgen
data_Hf4SiPRh10
_symmetry_space_group_name_H-M   'P 1'
_cell_length_a   4.01161800
_cell_length_b   5.58535742
_cell_length_c   10.81952077
_cell_angle_alpha   90.10715653
_cell_angle_beta   90.00000000
_cell_angle_gamma   90.00000000
_symmetry_Int_Tables_number   1
_chemical_formula_structural   Hf4SiPRh10
_chemical_formula_sum   'Hf4 Si1 P1 Rh10'
_cell_volume   242.42522464
_cell_formula_units_Z   1
loop_
 _symmetry_equiv_pos_site_id
 _symmetry_equiv_pos_as_xyz
  1  'x, y, z'
loop_
 _atom_site_type_symbol
 _atom_site_label
 _atom_site_symmetry_multiplicity
 _atom_site_fract_x
 _atom_site_fract_y
 _atom_site_fract_z
 _atom_site_occupancy
  Hf  Hf0  1  0.500000  0.173446  0.642606  1
  Hf  Hf1  1  0.500000  0.826554  0.357394  1
  Hf  Hf2  1  0.500000  0.676549  0.859721  1
  Hf  Hf3  1  0.500000  0.323451  0.140279  1
  Si  Si4  1  0.000000  0.000000  0.000000  1
  P  P5  1  0.000000  0.500000  0.500000  1
  Rh  Rh6  1  0.500000  0.181560  0.896973  1
  Rh  Rh7  1  0.500000  0.818440  0.103027  1
  Rh  Rh8  1  0.500000  0.679940  0.600892  1
  Rh  Rh9  1  0.500000  0.320060  0.399108  1
  Rh  Rh10  1  0.000000  0.430346  0.739055  1
  Rh  Rh11  1  0.000000  0.569654  0.260945  1
  Rh  Rh12  1  0.000000  0.000000  0.500000  1
  Rh  Rh13  1  0.000000  0.500000  0.000000  1
  Rh  Rh14  1  0.000000  0.070620  0.240909  1
  Rh  Rh15  1  0.000000  0.929380  0.759091  1
