# generated using pymatgen
data_Rb6Sc(IrCl6)3
_symmetry_space_group_name_H-M   'P 1'
_cell_length_a   7.24403300
_cell_length_b   7.24403259
_cell_length_c   18.14664200
_cell_angle_alpha   90.00000000
_cell_angle_beta   90.00000000
_cell_angle_gamma   119.99998816
_symmetry_Int_Tables_number   1
_chemical_formula_structural   Rb6Sc(IrCl6)3
_chemical_formula_sum   'Rb6 Sc1 Ir3 Cl18'
_cell_volume   824.68438355
_cell_formula_units_Z   1
loop_
 _symmetry_equiv_pos_site_id
 _symmetry_equiv_pos_as_xyz
  1  'x, y, z'
loop_
 _atom_site_type_symbol
 _atom_site_label
 _atom_site_symmetry_multiplicity
 _atom_site_fract_x
 _atom_site_fract_y
 _atom_site_fract_z
 _atom_site_occupancy
  Rb  Rb0  1  0.333333  0.666667  0.068191  1
  Rb  Rb1  1  0.666667  0.333333  0.934714  1
  Rb  Rb2  1  0.666667  0.333333  0.569969  1
  Rb  Rb3  1  0.333333  0.666667  0.435400  1
  Rb  Rb4  1  0.000000  0.000000  0.250740  1
  Rb  Rb5  1  0.000000  0.000000  0.745605  1
  Sc  Sc6  1  0.333333  0.666667  0.838670  1
  Ir  Ir7  1  0.333333  0.666667  0.667765  1
  Ir  Ir8  1  0.666667  0.333333  0.336145  1
  Ir  Ir9  1  0.666667  0.333333  0.163963  1
  Cl  Cl10  1  0.179989  0.359978  0.593956  1
  Cl  Cl11  1  0.820910  0.641820  0.408254  1
  Cl  Cl12  1  0.640022  0.820011  0.593956  1
  Cl  Cl13  1  0.820834  0.641667  0.091700  1
  Cl  Cl14  1  0.358180  0.179090  0.408254  1
  Cl  Cl15  1  0.169991  0.339983  0.908328  1
  Cl  Cl16  1  0.179989  0.820011  0.593956  1
  Cl  Cl17  1  0.358333  0.179166  0.091700  1
  Cl  Cl18  1  0.820910  0.179090  0.408254  1
  Cl  Cl19  1  0.660017  0.830009  0.908328  1
  Cl  Cl20  1  0.820834  0.179166  0.091700  1
  Cl  Cl21  1  0.169991  0.830009  0.908328  1
  Cl  Cl22  1  0.519423  0.038846  0.249948  1
  Cl  Cl23  1  0.490315  0.980629  0.744094  1
  Cl  Cl24  1  0.961154  0.480577  0.249948  1
  Cl  Cl25  1  0.019371  0.509685  0.744094  1
  Cl  Cl26  1  0.519423  0.480577  0.249948  1
  Cl  Cl27  1  0.490315  0.509685  0.744094  1
