# generated using pymatgen
data_Sc6B4Ir9Rh
_symmetry_space_group_name_H-M   'P 1'
_cell_length_a   9.56288259
_cell_length_b   9.56288259
_cell_length_c   3.10582000
_cell_angle_alpha   90.00000000
_cell_angle_beta   90.00000000
_cell_angle_gamma   90.11226829
_symmetry_Int_Tables_number   1
_chemical_formula_structural   Sc6B4Ir9Rh
_chemical_formula_sum   'Sc6 B4 Ir9 Rh1'
_cell_volume   284.02272893
_cell_formula_units_Z   1
loop_
 _symmetry_equiv_pos_site_id
 _symmetry_equiv_pos_as_xyz
  1  'x, y, z'
loop_
 _atom_site_type_symbol
 _atom_site_label
 _atom_site_symmetry_multiplicity
 _atom_site_fract_x
 _atom_site_fract_y
 _atom_site_fract_z
 _atom_site_occupancy
  Sc  Sc0  1  0.824850  0.324850  0.000000  1
  Sc  Sc1  1  0.324046  0.175954  0.000000  1
  Sc  Sc2  1  0.675954  0.824046  0.000000  1
  Sc  Sc3  1  0.175150  0.675150  0.000000  1
  Sc  Sc4  1  0.000000  0.000000  0.000000  1
  Sc  Sc5  1  0.500000  0.500000  0.000000  1
  B  B6  1  0.621852  0.121852  0.000000  1
  B  B7  1  0.121838  0.378162  0.000000  1
  B  B8  1  0.878162  0.621838  0.000000  1
  B  B9  1  0.378148  0.878148  0.000000  1
  Ir  Ir10  1  0.069884  0.223114  0.500000  1
  Ir  Ir11  1  0.222107  0.928918  0.500000  1
  Ir  Ir12  1  0.777893  0.071082  0.500000  1
  Ir  Ir13  1  0.930116  0.776886  0.500000  1
  Ir  Ir14  1  0.428918  0.722107  0.500000  1
  Ir  Ir15  1  0.571082  0.277893  0.500000  1
  Ir  Ir16  1  0.723114  0.569884  0.500000  1
  Ir  Ir17  1  0.276886  0.430116  0.500000  1
  Ir  Ir18  1  0.500000  0.000000  0.500000  1
  Rh  Rh19  1  0.000000  0.500000  0.500000  1
