# generated using pymatgen
data_Nd20Si9P7
_symmetry_space_group_name_H-M   'P 1'
_cell_length_a   7.78179545
_cell_length_b   7.87488967
_cell_length_c   14.88120194
_cell_angle_alpha   89.89193259
_cell_angle_beta   89.68216876
_cell_angle_gamma   90.31846941
_symmetry_Int_Tables_number   1
_chemical_formula_structural   Nd20Si9P7
_chemical_formula_sum   'Nd20 Si9 P7'
_cell_volume   911.90187831
_cell_formula_units_Z   1
loop_
 _symmetry_equiv_pos_site_id
 _symmetry_equiv_pos_as_xyz
  1  'x, y, z'
loop_
 _atom_site_type_symbol
 _atom_site_label
 _atom_site_symmetry_multiplicity
 _atom_site_fract_x
 _atom_site_fract_y
 _atom_site_fract_z
 _atom_site_occupancy
  Nd  Nd0  1  0.218680  0.994103  0.749726  1
  Nd  Nd1  1  0.781415  0.004879  0.250044  1
  Nd  Nd2  1  0.281552  0.496986  0.249199  1
  Nd  Nd3  1  0.718444  0.503550  0.749896  1
  Nd  Nd4  1  0.044280  0.671567  0.605101  1
  Nd  Nd5  1  0.956195  0.328801  0.395979  1
  Nd  Nd6  1  0.456806  0.173086  0.395516  1
  Nd  Nd7  1  0.957325  0.327176  0.105491  1
  Nd  Nd8  1  0.544232  0.827392  0.605210  1
  Nd  Nd9  1  0.038727  0.672856  0.893959  1
  Nd  Nd10  1  0.535733  0.821093  0.896420  1
  Nd  Nd11  1  0.460534  0.173884  0.104969  1
  Nd  Nd12  1  0.395717  0.334287  0.610777  1
  Nd  Nd13  1  0.603959  0.666099  0.389839  1
  Nd  Nd14  1  0.103856  0.835138  0.389517  1
  Nd  Nd15  1  0.610977  0.665744  0.112467  1
  Nd  Nd16  1  0.895632  0.164971  0.611304  1
  Nd  Nd17  1  0.394680  0.330499  0.885951  1
  Nd  Nd18  1  0.895122  0.166211  0.888425  1
  Nd  Nd19  1  0.106286  0.838596  0.111860  1
  Si  Si20  1  0.103969  0.388698  0.748705  1
  Si  Si21  1  0.896127  0.609768  0.251980  1
  Si  Si22  1  0.395151  0.891473  0.251304  1
  Si  Si23  1  0.605152  0.107762  0.749542  1
  Si  Si24  1  0.331268  0.618337  0.749138  1
  Si  Si25  1  0.669207  0.381272  0.251663  1
  Si  Si26  1  0.169858  0.120854  0.251299  1
  Si  Si27  1  0.830585  0.880186  0.749791  1
  Si  Si28  1  0.268793  0.523443  0.046010  1
  P  P29  1  0.234675  0.015566  0.550455  1
  P  P30  1  0.765706  0.985250  0.449664  1
  P  P31  1  0.265766  0.517180  0.450545  1
  P  P32  1  0.765990  0.982191  0.048982  1
  P  P33  1  0.734718  0.484059  0.550525  1
  P  P34  1  0.231539  0.017325  0.948836  1
  P  P35  1  0.731345  0.479719  0.949914  1
