# generated using pymatgen
data_Rb6BiTe4Br
_symmetry_space_group_name_H-M   'P 1'
_cell_length_a   12.09270300
_cell_length_b   12.09270325
_cell_length_c   8.73442300
_cell_angle_alpha   90.00000000
_cell_angle_beta   90.00000000
_cell_angle_gamma   120.00000205
_symmetry_Int_Tables_number   1
_chemical_formula_structural   Rb6BiTe4Br
_chemical_formula_sum   'Rb12 Bi2 Te8 Br2'
_cell_volume   1106.14389203
_cell_formula_units_Z   2
loop_
 _symmetry_equiv_pos_site_id
 _symmetry_equiv_pos_as_xyz
  1  'x, y, z'
loop_
 _atom_site_type_symbol
 _atom_site_label
 _atom_site_symmetry_multiplicity
 _atom_site_fract_x
 _atom_site_fract_y
 _atom_site_fract_z
 _atom_site_occupancy
  Rb  Rb0  1  0.127818  0.872182  0.512552  1
  Rb  Rb1  1  0.744363  0.872182  0.512552  1
  Rb  Rb2  1  0.949704  0.474852  0.322002  1
  Rb  Rb3  1  0.525148  0.474852  0.322002  1
  Rb  Rb4  1  0.872182  0.744363  0.012552  1
  Rb  Rb5  1  0.255637  0.127818  0.012552  1
  Rb  Rb6  1  0.525148  0.050296  0.322002  1
  Rb  Rb7  1  0.127818  0.255637  0.512552  1
  Rb  Rb8  1  0.872182  0.127818  0.012552  1
  Rb  Rb9  1  0.050296  0.525148  0.822002  1
  Rb  Rb10  1  0.474852  0.949704  0.822002  1
  Rb  Rb11  1  0.474852  0.525148  0.822002  1
  Bi  Bi12  1  0.666667  0.333333  0.710701  1
  Bi  Bi13  1  0.333333  0.666667  0.210701  1
  Te  Te14  1  0.394292  0.197146  0.597513  1
  Te  Te15  1  0.605708  0.802854  0.097513  1
  Te  Te16  1  0.666667  0.333333  0.060769  1
  Te  Te17  1  0.802854  0.605708  0.597513  1
  Te  Te18  1  0.197146  0.394292  0.097513  1
  Te  Te19  1  0.333333  0.666667  0.560769  1
  Te  Te20  1  0.197146  0.802854  0.097513  1
  Te  Te21  1  0.802854  0.197146  0.597513  1
  Br  Br22  1  0.000000  0.000000  0.272927  1
  Br  Br23  1  0.000000  0.000000  0.772927  1
