# generated using pymatgen
data_V2CdTeO7
_symmetry_space_group_name_H-M   'P 1'
_cell_length_a   6.90245483
_cell_length_b   7.15097023
_cell_length_c   8.28720223
_cell_angle_alpha   93.95377829
_cell_angle_beta   114.07088722
_cell_angle_gamma   114.97393464
_symmetry_Int_Tables_number   1
_chemical_formula_structural   V2CdTeO7
_chemical_formula_sum   'V4 Cd2 Te2 O14'
_cell_volume   323.86982791
_cell_formula_units_Z   2
loop_
 _symmetry_equiv_pos_site_id
 _symmetry_equiv_pos_as_xyz
  1  'x, y, z'
loop_
 _atom_site_type_symbol
 _atom_site_label
 _atom_site_symmetry_multiplicity
 _atom_site_fract_x
 _atom_site_fract_y
 _atom_site_fract_z
 _atom_site_occupancy
  V  V0  1  0.023093  0.886188  0.660021  1
  V  V1  1  0.503321  0.573236  0.334278  1
  V  V2  1  0.496679  0.426764  0.665722  1
  V  V3  1  0.976907  0.113812  0.339979  1
  Cd  Cd4  1  0.433046  0.067340  0.176984  1
  Cd  Cd5  1  0.566954  0.932660  0.823016  1
  Te  Te6  1  0.045145  0.692583  0.292128  1
  Te  Te7  1  0.954855  0.307417  0.707872  1
  O  O8  1  0.133376  0.978589  0.260349  1
  O  O9  1  0.446356  0.386600  0.160191  1
  O  O10  1  0.183709  0.176638  0.626524  1
  O  O11  1  0.329127  0.735608  0.263496  1
  O  O12  1  0.195374  0.767448  0.553319  1
  O  O13  1  0.670873  0.264392  0.736504  1
  O  O14  1  0.816291  0.823362  0.373476  1
  O  O15  1  0.759937  0.098948  0.130168  1
  O  O16  1  0.866624  0.021411  0.739651  1
  O  O17  1  0.269012  0.401442  0.418450  1
  O  O18  1  0.553644  0.613400  0.839809  1
  O  O19  1  0.804626  0.232552  0.446681  1
  O  O20  1  0.240063  0.901052  0.869832  1
  O  O21  1  0.730988  0.598558  0.581550  1
