# generated using pymatgen
data_Yb3Mg2CdPt3
_symmetry_space_group_name_H-M   'P 1'
_cell_length_a   7.34003900
_cell_length_b   7.27714992
_cell_length_c   4.19692100
_cell_angle_alpha   90.00000000
_cell_angle_beta   90.00000000
_cell_angle_gamma   120.28629351
_symmetry_Int_Tables_number   1
_chemical_formula_structural   Yb3Mg2CdPt3
_chemical_formula_sum   'Yb3 Mg2 Cd1 Pt3'
_cell_volume   193.58022229
_cell_formula_units_Z   1
loop_
 _symmetry_equiv_pos_site_id
 _symmetry_equiv_pos_as_xyz
  1  'x, y, z'
loop_
 _atom_site_type_symbol
 _atom_site_label
 _atom_site_symmetry_multiplicity
 _atom_site_fract_x
 _atom_site_fract_y
 _atom_site_fract_z
 _atom_site_occupancy
  Yb  Yb0  1  0.417315  0.000000  0.000000  1
  Yb  Yb1  1  0.993742  0.405109  0.000000  1
  Yb  Yb2  1  0.588633  0.594891  0.000000  1
  Mg  Mg3  1  0.000927  0.751934  0.500000  1
  Mg  Mg4  1  0.248993  0.248066  0.500000  1
  Cd  Cd5  1  0.750623  0.000000  0.500000  1
  Pt  Pt6  1  0.321054  0.657765  0.500000  1
  Pt  Pt7  1  0.663290  0.342235  0.500000  1
  Pt  Pt8  1  0.015422  0.000000  0.000000  1
