# generated using pymatgen
data_Pr3Sm(Pd2O5)2
_symmetry_space_group_name_H-M   'P 1'
_cell_length_a   6.66455914
_cell_length_b   6.67757252
_cell_length_c   5.63421000
_cell_angle_alpha   90.00000000
_cell_angle_beta   90.00000000
_cell_angle_gamma   89.89520463
_symmetry_Int_Tables_number   1
_chemical_formula_structural   Pr3Sm(Pd2O5)2
_chemical_formula_sum   'Pr3 Sm1 Pd4 O10'
_cell_volume   250.73926207
_cell_formula_units_Z   1
loop_
 _symmetry_equiv_pos_site_id
 _symmetry_equiv_pos_as_xyz
  1  'x, y, z'
loop_
 _atom_site_type_symbol
 _atom_site_label
 _atom_site_symmetry_multiplicity
 _atom_site_fract_x
 _atom_site_fract_y
 _atom_site_fract_z
 _atom_site_occupancy
  Pr  Pr0  1  0.107716  0.261084  0.000000  1
  Pr  Pr1  1  0.890744  0.741229  0.000000  1
  Pr  Pr2  1  0.261784  0.893324  0.500000  1
  Sm  Sm3  1  0.742671  0.108582  0.500000  1
  Pd  Pd4  1  0.595889  0.304400  0.000000  1
  Pd  Pd5  1  0.404841  0.694642  0.000000  1
  Pd  Pd6  1  0.307450  0.404267  0.500000  1
  Pd  Pd7  1  0.693441  0.595181  0.500000  1
  O  O8  1  0.404982  0.194968  0.259922  1
  O  O9  1  0.597941  0.805881  0.740083  1
  O  O10  1  0.597941  0.805881  0.259917  1
  O  O11  1  0.196173  0.597629  0.758568  1
  O  O12  1  0.404982  0.194968  0.740078  1
  O  O13  1  0.802743  0.398068  0.245090  1
  O  O14  1  0.802743  0.398068  0.754910  1
  O  O15  1  0.196173  0.597629  0.241432  1
  O  O16  1  0.995893  0.002098  0.252165  1
  O  O17  1  0.995893  0.002098  0.747835  1
