# generated using pymatgen
data_Pr2Dy2Al15(GaIr2)3
_symmetry_space_group_name_H-M   'P 1'
_cell_length_a   7.56977128
_cell_length_b   7.56869078
_cell_length_c   9.64006500
_cell_angle_alpha   90.00000000
_cell_angle_beta   90.00000000
_cell_angle_gamma   119.31895151
_symmetry_Int_Tables_number   1
_chemical_formula_structural   Pr2Dy2Al15(GaIr2)3
_chemical_formula_sum   'Pr2 Dy2 Al15 Ga3 Ir6'
_cell_volume   481.56378920
_cell_formula_units_Z   1
loop_
 _symmetry_equiv_pos_site_id
 _symmetry_equiv_pos_as_xyz
  1  'x, y, z'
loop_
 _atom_site_type_symbol
 _atom_site_label
 _atom_site_symmetry_multiplicity
 _atom_site_fract_x
 _atom_site_fract_y
 _atom_site_fract_z
 _atom_site_occupancy
  Pr  Pr0  1  0.998186  0.674486  0.250000  1
  Pr  Pr1  1  0.669443  0.990726  0.250000  1
  Dy  Dy2  1  0.005845  0.324954  0.750000  1
  Dy  Dy3  1  0.324155  0.003991  0.750000  1
  Al  Al4  1  0.003148  0.335251  0.067577  1
  Al  Al5  1  0.998577  0.663536  0.923535  1
  Al  Al6  1  0.998577  0.663536  0.576465  1
  Al  Al7  1  0.336369  0.005497  0.432070  1
  Al  Al8  1  0.003148  0.335251  0.432423  1
  Al  Al9  1  0.663715  0.999144  0.576301  1
  Al  Al10  1  0.663715  0.999144  0.923699  1
  Al  Al11  1  0.336369  0.005497  0.067930  1
  Al  Al12  1  0.334246  0.334422  0.557408  1
  Al  Al13  1  0.665364  0.664854  0.456662  1
  Al  Al14  1  0.665364  0.664854  0.043338  1
  Al  Al15  1  0.334246  0.334422  0.942592  1
  Al  Al16  1  0.661712  0.449388  0.750000  1
  Al  Al17  1  0.547107  0.339367  0.250000  1
  Al  Al18  1  0.449841  0.661587  0.750000  1
  Ga  Ga19  1  0.134549  0.135403  0.250000  1
  Ga  Ga20  1  0.865616  0.865458  0.750000  1
  Ga  Ga21  1  0.338500  0.542403  0.250000  1
  Ir  Ir22  1  0.670595  0.329398  0.998069  1
  Ir  Ir23  1  0.328791  0.671925  0.995755  1
  Ir  Ir24  1  0.328791  0.671925  0.504245  1
  Ir  Ir25  1  0.670595  0.329398  0.501931  1
  Ir  Ir26  1  0.001714  0.002091  0.996973  1
  Ir  Ir27  1  0.001714  0.002091  0.503027  1
