# generated using pymatgen
data_Hf3Zr6CrRe3Ni
_symmetry_space_group_name_H-M   'P 1'
_cell_length_a   8.66438000
_cell_length_b   8.66437984
_cell_length_c   8.40735000
_cell_angle_alpha   90.00000000
_cell_angle_beta   90.00000000
_cell_angle_gamma   120.00000062
_symmetry_Int_Tables_number   1
_chemical_formula_structural   Hf3Zr6CrRe3Ni
_chemical_formula_sum   'Hf6 Zr12 Cr2 Re6 Ni2'
_cell_volume   546.59383726
_cell_formula_units_Z   2
loop_
 _symmetry_equiv_pos_site_id
 _symmetry_equiv_pos_as_xyz
  1  'x, y, z'
loop_
 _atom_site_type_symbol
 _atom_site_label
 _atom_site_symmetry_multiplicity
 _atom_site_fract_x
 _atom_site_fract_y
 _atom_site_fract_z
 _atom_site_occupancy
  Hf  Hf0  1  0.804626  0.195374  0.942834  1
  Hf  Hf1  1  0.804626  0.609252  0.942834  1
  Hf  Hf2  1  0.390748  0.195374  0.942834  1
  Hf  Hf3  1  0.195374  0.804626  0.057166  1
  Hf  Hf4  1  0.195374  0.390748  0.057166  1
  Hf  Hf5  1  0.609252  0.804626  0.057166  1
  Zr  Zr6  1  0.196705  0.803295  0.442941  1
  Zr  Zr7  1  0.196705  0.393410  0.442941  1
  Zr  Zr8  1  0.606590  0.803295  0.442941  1
  Zr  Zr9  1  0.803295  0.196705  0.557059  1
  Zr  Zr10  1  0.803295  0.606590  0.557059  1
  Zr  Zr11  1  0.393410  0.196705  0.557059  1
  Zr  Zr12  1  0.542166  0.457834  0.246443  1
  Zr  Zr13  1  0.542166  0.084332  0.246443  1
  Zr  Zr14  1  0.915668  0.457834  0.246443  1
  Zr  Zr15  1  0.457834  0.542166  0.753557  1
  Zr  Zr16  1  0.457834  0.915668  0.753557  1
  Zr  Zr17  1  0.084332  0.542166  0.753557  1
  Cr  Cr18  1  0.000000  0.000000  0.500000  1
  Cr  Cr19  1  0.000000  0.000000  0.000000  1
  Re  Re20  1  0.893409  0.106591  0.248184  1
  Re  Re21  1  0.893409  0.786817  0.248184  1
  Re  Re22  1  0.213183  0.106591  0.248184  1
  Re  Re23  1  0.106591  0.893409  0.751816  1
  Re  Re24  1  0.106591  0.213183  0.751816  1
  Re  Re25  1  0.786817  0.893409  0.751816  1
  Ni  Ni26  1  0.333333  0.666667  0.244540  1
  Ni  Ni27  1  0.666667  0.333333  0.755460  1
