# generated using pymatgen
data_Hf8Ni16As11P
_symmetry_space_group_name_H-M   'P 1'
_cell_length_a   12.61912010
_cell_length_b   12.61860080
_cell_length_c   3.75259700
_cell_angle_alpha   90.00000000
_cell_angle_beta   90.00000000
_cell_angle_gamma   119.99864085
_symmetry_Int_Tables_number   1
_chemical_formula_structural   Hf8Ni16As11P
_chemical_formula_sum   'Hf8 Ni16 As11 P1'
_cell_volume   517.49812626
_cell_formula_units_Z   1
loop_
 _symmetry_equiv_pos_site_id
 _symmetry_equiv_pos_as_xyz
  1  'x, y, z'
loop_
 _atom_site_type_symbol
 _atom_site_label
 _atom_site_symmetry_multiplicity
 _atom_site_fract_x
 _atom_site_fract_y
 _atom_site_fract_z
 _atom_site_occupancy
  Hf  Hf0  1  0.832063  0.825256  0.500000  1
  Hf  Hf1  1  0.445773  0.445957  0.000000  1
  Hf  Hf2  1  0.000000  0.174069  0.500000  1
  Hf  Hf3  1  0.554227  0.000184  0.000000  1
  Hf  Hf4  1  0.333496  0.667377  0.000000  1
  Hf  Hf5  1  0.666504  0.333880  0.000000  1
  Hf  Hf6  1  0.000000  0.555990  0.000000  1
  Hf  Hf7  1  0.167937  0.993192  0.500000  1
  Ni  Ni8  1  0.630079  0.821259  0.000000  1
  Ni  Ni9  1  0.369921  0.191180  0.000000  1
  Ni  Ni10  1  0.000000  0.729941  0.500000  1
  Ni  Ni11  1  0.277936  0.279069  0.500000  1
  Ni  Ni12  1  0.877566  0.355150  0.500000  1
  Ni  Ni13  1  0.722064  0.001132  0.500000  1
  Ni  Ni14  1  0.829264  0.639459  0.000000  1
  Ni  Ni15  1  0.170736  0.810195  0.000000  1
  Ni  Ni16  1  0.354584  0.877099  0.500000  1
  Ni  Ni17  1  0.122434  0.477584  0.500000  1
  Ni  Ni18  1  0.645416  0.522516  0.500000  1
  Ni  Ni19  1  0.000000  0.991910  0.000000  1
  Ni  Ni20  1  0.523427  0.645246  0.500000  1
  Ni  Ni21  1  0.476573  0.121818  0.500000  1
  Ni  Ni22  1  0.190752  0.367285  0.000000  1
  Ni  Ni23  1  0.809248  0.176533  0.000000  1
  As  As24  1  0.000000  0.347601  0.000000  1
  As  As25  1  0.826118  0.512361  0.500000  1
  As  As26  1  0.685584  0.175049  0.500000  1
  As  As27  1  0.174176  0.172528  0.000000  1
  As  As28  1  0.655050  0.653850  0.000000  1
  As  As29  1  0.825824  0.998352  0.000000  1
  As  As30  1  0.511539  0.825762  0.500000  1
  As  As31  1  0.173882  0.686242  0.500000  1
  As  As32  1  0.344950  0.998800  0.000000  1
  As  As33  1  0.488461  0.314223  0.500000  1
  As  As34  1  0.314416  0.489465  0.500000  1
  P  P35  1  0.000000  0.822486  0.000000  1
