# generated using pymatgen
data_Pr5Nd3Cd2NiOs
_symmetry_space_group_name_H-M   'P 1'
_cell_length_a   9.95858253
_cell_length_b   9.95959730
_cell_length_c   10.04741629
_cell_angle_alpha   59.70292303
_cell_angle_beta   59.70912225
_cell_angle_gamma   59.62125776
_symmetry_Int_Tables_number   1
_chemical_formula_structural   Pr5Nd3Cd2NiOs
_chemical_formula_sum   'Pr10 Nd6 Cd4 Ni2 Os2'
_cell_volume   699.49904593
_cell_formula_units_Z   2
loop_
 _symmetry_equiv_pos_site_id
 _symmetry_equiv_pos_as_xyz
  1  'x, y, z'
loop_
 _atom_site_type_symbol
 _atom_site_label
 _atom_site_symmetry_multiplicity
 _atom_site_fract_x
 _atom_site_fract_y
 _atom_site_fract_z
 _atom_site_occupancy
  Pr  Pr0  1  0.188340  0.810110  0.191392  1
  Pr  Pr1  1  0.810109  0.188342  0.810164  1
  Pr  Pr2  1  0.189887  0.189888  0.810114  1
  Pr  Pr3  1  0.807270  0.807264  0.192728  1
  Pr  Pr4  1  0.939430  0.555919  0.564515  1
  Pr  Pr5  1  0.555914  0.939433  0.940141  1
  Pr  Pr6  1  0.555710  0.939526  0.564684  1
  Pr  Pr7  1  0.939529  0.555712  0.940079  1
  Pr  Pr8  1  0.563985  0.563990  0.936016  1
  Pr  Pr9  1  0.941978  0.941987  0.558023  1
  Nd  Nd10  1  0.348711  0.348128  0.345609  1
  Nd  Nd11  1  0.348120  0.348721  0.957550  1
  Nd  Nd12  1  0.348107  0.958506  0.346980  1
  Nd  Nd13  1  0.958503  0.348112  0.346406  1
  Nd  Nd14  1  0.809824  0.188946  0.191936  1
  Nd  Nd15  1  0.188943  0.809828  0.809294  1
  Cd  Cd16  1  0.578437  0.579066  0.580391  1
  Cd  Cd17  1  0.579064  0.578434  0.262111  1
  Cd  Cd18  1  0.580109  0.260603  0.579347  1
  Cd  Cd19  1  0.260598  0.580112  0.579944  1
  Ni  Ni20  1  0.145770  0.574656  0.139190  1
  Ni  Ni21  1  0.574677  0.145720  0.140380  1
  Os  Os22  1  0.142887  0.144101  0.137681  1
  Os  Os23  1  0.144097  0.142900  0.575324  1
