# generated using pymatgen
data_AgAu(S2O7)2
_symmetry_space_group_name_H-M   'P 1'
_cell_length_a   5.84934127
_cell_length_b   7.04143699
_cell_length_c   9.06123899
_cell_angle_alpha   106.56271246
_cell_angle_beta   93.57898404
_cell_angle_gamma   103.76963314
_symmetry_Int_Tables_number   1
_chemical_formula_structural   AgAu(S2O7)2
_chemical_formula_sum   'Ag1 Au1 S4 O14'
_cell_volume   344.02743953
_cell_formula_units_Z   1
loop_
 _symmetry_equiv_pos_site_id
 _symmetry_equiv_pos_as_xyz
  1  'x, y, z'
loop_
 _atom_site_type_symbol
 _atom_site_label
 _atom_site_symmetry_multiplicity
 _atom_site_fract_x
 _atom_site_fract_y
 _atom_site_fract_z
 _atom_site_occupancy
  Ag  Ag0  1  0.500000  0.000000  0.000000  1
  Au  Au1  1  0.500000  0.500000  0.500000  1
  S  S2  1  0.935583  0.728426  0.758516  1
  S  S3  1  0.064417  0.271574  0.241484  1
  S  S4  1  0.662408  0.317641  0.751051  1
  S  S5  1  0.337592  0.682359  0.248949  1
  O  O6  1  0.849179  0.654265  0.583207  1
  O  O7  1  0.150821  0.345735  0.416793  1
  O  O8  1  0.470594  0.406644  0.693943  1
  O  O9  1  0.529406  0.593356  0.306057  1
  O  O10  1  0.189535  0.812885  0.777111  1
  O  O11  1  0.810465  0.187115  0.222889  1
  O  O12  1  0.794428  0.845820  0.849059  1
  O  O13  1  0.205572  0.154180  0.150941  1
  O  O14  1  0.601112  0.283705  0.894819  1
  O  O15  1  0.398888  0.716295  0.105181  1
  O  O16  1  0.907688  0.517697  0.807173  1
  O  O17  1  0.092312  0.482303  0.192827  1
  O  O18  1  0.725701  0.163481  0.633159  1
  O  O19  1  0.274299  0.836519  0.366841  1
