# generated using pymatgen
data_TbHo15In2(HgRh2)2
_symmetry_space_group_name_H-M   'P 1'
_cell_length_a   9.59042564
_cell_length_b   9.59040114
_cell_length_c   9.58153100
_cell_angle_alpha   60.03056843
_cell_angle_beta   60.03080643
_cell_angle_gamma   60.10969061
_symmetry_Int_Tables_number   1
_chemical_formula_structural   TbHo15In2(HgRh2)2
_chemical_formula_sum   'Tb1 Ho15 In2 Hg2 Rh4'
_cell_volume   623.95737102
_cell_formula_units_Z   1
loop_
 _symmetry_equiv_pos_site_id
 _symmetry_equiv_pos_as_xyz
  1  'x, y, z'
loop_
 _atom_site_type_symbol
 _atom_site_label
 _atom_site_symmetry_multiplicity
 _atom_site_fract_x
 _atom_site_fract_y
 _atom_site_fract_z
 _atom_site_occupancy
  Tb  Tb0  1  0.186444  0.186445  0.813556  1
  Ho  Ho1  1  0.600524  0.600533  0.199288  1
  Ho  Ho2  1  0.438801  0.060163  0.440654  1
  Ho  Ho3  1  0.440433  0.440435  0.059567  1
  Ho  Ho4  1  0.812205  0.184577  0.813954  1
  Ho  Ho5  1  0.184577  0.812205  0.189263  1
  Ho  Ho6  1  0.438801  0.060162  0.060383  1
  Ho  Ho7  1  0.184577  0.812204  0.813954  1
  Ho  Ho8  1  0.060165  0.438800  0.060380  1
  Ho  Ho9  1  0.812841  0.812843  0.187158  1
  Ho  Ho10  1  0.196870  0.601902  0.600614  1
  Ho  Ho11  1  0.060164  0.438803  0.440654  1
  Ho  Ho12  1  0.061122  0.061114  0.438881  1
  Ho  Ho13  1  0.812204  0.184577  0.189266  1
  Ho  Ho14  1  0.601896  0.196869  0.600616  1
  Ho  Ho15  1  0.600524  0.600532  0.599656  1
  In  In16  1  0.503882  0.831951  0.832084  1
  In  In17  1  0.831950  0.503884  0.832083  1
  Hg  Hg18  1  0.835443  0.835444  0.836001  1
  Hg  Hg19  1  0.835443  0.835444  0.493113  1
  Rh  Rh20  1  0.392636  0.822631  0.392368  1
  Rh  Rh21  1  0.392927  0.392926  0.392654  1
  Rh  Rh22  1  0.822643  0.392632  0.392365  1
  Rh  Rh23  1  0.392927  0.392925  0.821494  1
