# generated using pymatgen
data_Dy7Er3(In2Au)4
_symmetry_space_group_name_H-M   'P 1'
_cell_length_a   3.67094200
_cell_length_b   8.18470914
_cell_length_c   18.30661400
_cell_angle_alpha   89.92981453
_cell_angle_beta   90.00000000
_cell_angle_gamma   90.00000000
_symmetry_Int_Tables_number   1
_chemical_formula_structural   Dy7Er3(In2Au)4
_chemical_formula_sum   'Dy7 Er3 In8 Au4'
_cell_volume   550.03265240
_cell_formula_units_Z   1
loop_
 _symmetry_equiv_pos_site_id
 _symmetry_equiv_pos_as_xyz
  1  'x, y, z'
loop_
 _atom_site_type_symbol
 _atom_site_label
 _atom_site_symmetry_multiplicity
 _atom_site_fract_x
 _atom_site_fract_y
 _atom_site_fract_z
 _atom_site_occupancy
  Dy  Dy0  1  0.000000  0.620718  0.079785  1
  Dy  Dy1  1  0.000000  0.238829  0.217110  1
  Dy  Dy2  1  0.000000  0.761579  0.782976  1
  Dy  Dy3  1  0.000000  0.261285  0.716192  1
  Dy  Dy4  1  0.000000  0.738813  0.283996  1
  Dy  Dy5  1  0.000000  0.999882  0.999631  1
  Dy  Dy6  1  0.000000  0.499949  0.500274  1
  Er  Er7  1  0.000000  0.120893  0.419679  1
  Er  Er8  1  0.000000  0.879249  0.580398  1
  Er  Er9  1  0.000000  0.379149  0.919116  1
  In  In10  1  0.500000  0.420248  0.353948  1
  In  In11  1  0.500000  0.579941  0.646885  1
  In  In12  1  0.500000  0.079559  0.852797  1
  In  In13  1  0.500000  0.921842  0.147300  1
  In  In14  1  0.500000  0.290958  0.065073  1
  In  In15  1  0.500000  0.707198  0.933804  1
  In  In16  1  0.500000  0.206478  0.564603  1
  In  In17  1  0.500000  0.793657  0.435793  1
  Au  Au18  1  0.500000  0.029444  0.304382  1
  Au  Au19  1  0.500000  0.970977  0.695735  1
  Au  Au20  1  0.500000  0.470346  0.803470  1
  Au  Au21  1  0.500000  0.529004  0.197052  1
