# generated using pymatgen
data_HoCo2(AsRu)3
_symmetry_space_group_name_H-M   'P 1'
_cell_length_a   3.88474300
_cell_length_b   11.02013400
_cell_length_c   12.52388700
_cell_angle_alpha   90.00000000
_cell_angle_beta   90.00000000
_cell_angle_gamma   90.00000000
_symmetry_Int_Tables_number   1
_chemical_formula_structural   HoCo2(AsRu)3
_chemical_formula_sum   'Ho4 Co8 As12 Ru12'
_cell_volume   536.15246694
_cell_formula_units_Z   4
loop_
 _symmetry_equiv_pos_site_id
 _symmetry_equiv_pos_as_xyz
  1  'x, y, z'
loop_
 _atom_site_type_symbol
 _atom_site_label
 _atom_site_symmetry_multiplicity
 _atom_site_fract_x
 _atom_site_fract_y
 _atom_site_fract_z
 _atom_site_occupancy
  Ho  Ho0  1  0.250000  0.585336  0.704357  1
  Ho  Ho1  1  0.250000  0.914664  0.204357  1
  Ho  Ho2  1  0.750000  0.414664  0.295643  1
  Ho  Ho3  1  0.750000  0.085336  0.795643  1
  Co  Co4  1  0.250000  0.886305  0.694588  1
  Co  Co5  1  0.250000  0.613695  0.194588  1
  Co  Co6  1  0.750000  0.113695  0.305412  1
  Co  Co7  1  0.750000  0.386305  0.805412  1
  Co  Co8  1  0.250000  0.465427  0.934467  1
  Co  Co9  1  0.250000  0.034573  0.434467  1
  Co  Co10  1  0.750000  0.534573  0.065533  1
  Co  Co11  1  0.750000  0.965427  0.565533  1
  As  As12  1  0.250000  0.423934  0.114379  1
  As  As13  1  0.250000  0.076066  0.614379  1
  As  As14  1  0.750000  0.576066  0.885621  1
  As  As15  1  0.750000  0.923934  0.385621  1
  As  As16  1  0.250000  0.271457  0.872438  1
  As  As17  1  0.250000  0.228543  0.372438  1
  As  As18  1  0.750000  0.728543  0.127562  1
  As  As19  1  0.750000  0.771457  0.627562  1
  As  As20  1  0.250000  0.598930  0.384682  1
  As  As21  1  0.250000  0.901070  0.884682  1
  As  As22  1  0.750000  0.401070  0.615318  1
  As  As23  1  0.750000  0.098930  0.115318  1
  Ru  Ru24  1  0.250000  0.705241  0.985856  1
  Ru  Ru25  1  0.250000  0.794759  0.485856  1
  Ru  Ru26  1  0.750000  0.294759  0.014144  1
  Ru  Ru27  1  0.750000  0.205241  0.514144  1
  Ru  Ru28  1  0.250000  0.406227  0.486482  1
  Ru  Ru29  1  0.250000  0.093773  0.986482  1
  Ru  Ru30  1  0.750000  0.593773  0.513518  1
  Ru  Ru31  1  0.750000  0.906227  0.013518  1
  Ru  Ru32  1  0.250000  0.221053  0.180016  1
  Ru  Ru33  1  0.250000  0.278947  0.680016  1
  Ru  Ru34  1  0.750000  0.778947  0.819984  1
  Ru  Ru35  1  0.750000  0.721053  0.319984  1
