# generated using pymatgen
data_Pa(Re2Si)2
_symmetry_space_group_name_H-M   'P 1'
_cell_length_a   7.48024300
_cell_length_b   7.48024300
_cell_length_c   4.09249100
_cell_angle_alpha   90.00000000
_cell_angle_beta   90.00000000
_cell_angle_gamma   90.00000000
_symmetry_Int_Tables_number   1
_chemical_formula_structural   Pa(Re2Si)2
_chemical_formula_sum   'Pa2 Re8 Si4'
_cell_volume   228.99138604
_cell_formula_units_Z   2
loop_
 _symmetry_equiv_pos_site_id
 _symmetry_equiv_pos_as_xyz
  1  'x, y, z'
loop_
 _atom_site_type_symbol
 _atom_site_label
 _atom_site_symmetry_multiplicity
 _atom_site_fract_x
 _atom_site_fract_y
 _atom_site_fract_z
 _atom_site_occupancy
  Pa  Pa0  1  0.500000  0.500000  0.000000  1
  Pa  Pa1  1  0.000000  0.000000  0.500000  1
  Re  Re2  1  0.656172  0.908869  0.000000  1
  Re  Re3  1  0.156172  0.591131  0.500000  1
  Re  Re4  1  0.091131  0.343828  0.000000  1
  Re  Re5  1  0.908869  0.656172  0.000000  1
  Re  Re6  1  0.408869  0.843828  0.500000  1
  Re  Re7  1  0.591131  0.156172  0.500000  1
  Re  Re8  1  0.343828  0.091131  0.000000  1
  Re  Re9  1  0.843828  0.408869  0.500000  1
  Si  Si10  1  0.210435  0.789565  0.000000  1
  Si  Si11  1  0.789565  0.210435  0.000000  1
  Si  Si12  1  0.710435  0.710435  0.500000  1
  Si  Si13  1  0.289565  0.289565  0.500000  1
