# generated using pymatgen
data_Y4SiTc6Os
_symmetry_space_group_name_H-M   'P 1'
_cell_length_a   5.30653600
_cell_length_b   5.30653465
_cell_length_c   8.96588900
_cell_angle_alpha   90.00000000
_cell_angle_beta   90.00000000
_cell_angle_gamma   119.99999595
_symmetry_Int_Tables_number   1
_chemical_formula_structural   Y4SiTc6Os
_chemical_formula_sum   'Y4 Si1 Tc6 Os1'
_cell_volume   218.64831081
_cell_formula_units_Z   1
loop_
 _symmetry_equiv_pos_site_id
 _symmetry_equiv_pos_as_xyz
  1  'x, y, z'
loop_
 _atom_site_type_symbol
 _atom_site_label
 _atom_site_symmetry_multiplicity
 _atom_site_fract_x
 _atom_site_fract_y
 _atom_site_fract_z
 _atom_site_occupancy
  Y  Y0  1  0.333333  0.666667  0.433372  1
  Y  Y1  1  0.666667  0.333333  0.566628  1
  Y  Y2  1  0.666667  0.333333  0.936230  1
  Y  Y3  1  0.333333  0.666667  0.063770  1
  Si  Si4  1  0.000000  0.000000  0.500000  1
  Tc  Tc5  1  0.829799  0.170201  0.254221  1
  Tc  Tc6  1  0.829799  0.659599  0.254221  1
  Tc  Tc7  1  0.340401  0.170201  0.254221  1
  Tc  Tc8  1  0.170201  0.829799  0.745779  1
  Tc  Tc9  1  0.170201  0.340401  0.745779  1
  Tc  Tc10  1  0.659599  0.829799  0.745779  1
  Os  Os11  1  0.000000  0.000000  0.000000  1
