# generated using pymatgen
data_Hf8Co7Si14Rh
_symmetry_space_group_name_H-M   'P 1'
_cell_length_a   9.48959003
_cell_length_b   9.48549761
_cell_length_c   9.47798148
_cell_angle_alpha   94.14751487
_cell_angle_beta   94.17090888
_cell_angle_gamma   148.76918166
_symmetry_Int_Tables_number   1
_chemical_formula_structural   Hf8Co7Si14Rh
_chemical_formula_sum   'Hf8 Co7 Si14 Rh1'
_cell_volume   425.98570992
_cell_formula_units_Z   1
loop_
 _symmetry_equiv_pos_site_id
 _symmetry_equiv_pos_as_xyz
  1  'x, y, z'
loop_
 _atom_site_type_symbol
 _atom_site_label
 _atom_site_symmetry_multiplicity
 _atom_site_fract_x
 _atom_site_fract_y
 _atom_site_fract_z
 _atom_site_occupancy
  Hf  Hf0  1  0.137188  0.137186  0.274380  1
  Hf  Hf1  1  0.862430  0.862435  0.724857  1
  Hf  Hf2  1  0.135485  0.861758  0.999167  1
  Hf  Hf3  1  0.863684  0.137412  0.999162  1
  Hf  Hf4  1  0.304119  0.498901  0.802928  1
  Hf  Hf5  1  0.695851  0.501424  0.195730  1
  Hf  Hf6  1  0.499873  0.694299  0.195733  1
  Hf  Hf7  1  0.498820  0.304042  0.802934  1
  Co  Co8  1  0.396101  0.896106  0.792190  1
  Co  Co9  1  0.899693  0.101879  0.502221  1
  Co  Co10  1  0.602530  0.400338  0.502228  1
  Co  Co11  1  0.601954  0.101960  0.203902  1
  Co  Co12  1  0.898951  0.398953  0.797881  1
  Co  Co13  1  0.102365  0.898290  0.499940  1
  Co  Co14  1  0.397565  0.601641  0.499935  1
  Si  Si15  1  0.290206  0.290202  0.580430  1
  Si  Si16  1  0.709762  0.709755  0.419509  1
  Si  Si17  1  0.301372  0.718630  0.995175  1
  Si  Si18  1  0.693815  0.276558  0.995177  1
  Si  Si19  1  0.091474  0.499307  0.591583  1
  Si  Si20  1  0.893425  0.488037  0.413612  1
  Si  Si21  1  0.520204  0.925598  0.413611  1
  Si  Si22  1  0.500098  0.092272  0.591585  1
  Si  Si23  1  0.251216  0.251371  0.999491  1
  Si  Si24  1  0.748276  0.748124  0.999489  1
  Si  Si25  1  0.307066  0.012425  0.301193  1
  Si  Si26  1  0.700394  0.000468  0.700062  1
  Si  Si27  1  0.999688  0.699625  0.700067  1
  Si  Si28  1  0.994093  0.288733  0.301176  1
  Rh  Rh29  1  0.102304  0.602271  0.204654  1
