# generated using pymatgen
data_Hf18CuMo8Ir
_symmetry_space_group_name_H-M   'P 1'
_cell_length_a   8.71081600
_cell_length_b   8.71081605
_cell_length_c   8.55259100
_cell_angle_alpha   90.00000000
_cell_angle_beta   90.00000000
_cell_angle_gamma   119.99999981
_symmetry_Int_Tables_number   1
_chemical_formula_structural   Hf18CuMo8Ir
_chemical_formula_sum   'Hf18 Cu1 Mo8 Ir1'
_cell_volume   562.01255697
_cell_formula_units_Z   1
loop_
 _symmetry_equiv_pos_site_id
 _symmetry_equiv_pos_as_xyz
  1  'x, y, z'
loop_
 _atom_site_type_symbol
 _atom_site_label
 _atom_site_symmetry_multiplicity
 _atom_site_fract_x
 _atom_site_fract_y
 _atom_site_fract_z
 _atom_site_occupancy
  Hf  Hf0  1  0.198062  0.801938  0.445720  1
  Hf  Hf1  1  0.198062  0.396125  0.445720  1
  Hf  Hf2  1  0.603875  0.801938  0.445720  1
  Hf  Hf3  1  0.802112  0.197888  0.553463  1
  Hf  Hf4  1  0.802112  0.604226  0.553463  1
  Hf  Hf5  1  0.395774  0.197888  0.553463  1
  Hf  Hf6  1  0.802112  0.197888  0.946537  1
  Hf  Hf7  1  0.802112  0.604226  0.946537  1
  Hf  Hf8  1  0.395774  0.197888  0.946537  1
  Hf  Hf9  1  0.198062  0.801938  0.054280  1
  Hf  Hf10  1  0.198062  0.396125  0.054280  1
  Hf  Hf11  1  0.603875  0.801938  0.054280  1
  Hf  Hf12  1  0.541498  0.458502  0.250000  1
  Hf  Hf13  1  0.541498  0.082995  0.250000  1
  Hf  Hf14  1  0.917005  0.458502  0.250000  1
  Hf  Hf15  1  0.457544  0.542456  0.750000  1
  Hf  Hf16  1  0.457544  0.915087  0.750000  1
  Hf  Hf17  1  0.084913  0.542456  0.750000  1
  Cu  Cu18  1  0.333333  0.666667  0.250000  1
  Mo  Mo19  1  0.888635  0.111365  0.250000  1
  Mo  Mo20  1  0.888635  0.777267  0.250000  1
  Mo  Mo21  1  0.222733  0.111365  0.250000  1
  Mo  Mo22  1  0.112119  0.887881  0.750000  1
  Mo  Mo23  1  0.112119  0.224240  0.750000  1
  Mo  Mo24  1  0.775760  0.887881  0.750000  1
  Mo  Mo25  1  0.000000  0.000000  0.501029  1
  Mo  Mo26  1  0.000000  0.000000  0.998971  1
  Ir  Ir27  1  0.666667  0.333333  0.750000  1
