# generated using pymatgen
data_La10FeIrI15
_symmetry_space_group_name_H-M   'P 1'
_cell_length_a   10.01844228
_cell_length_b   11.14339151
_cell_length_c   12.00602800
_cell_angle_alpha   92.52434401
_cell_angle_beta   113.44301576
_cell_angle_gamma   109.75315400
_symmetry_Int_Tables_number   1
_chemical_formula_structural   La10FeIrI15
_chemical_formula_sum   'La10 Fe1 Ir1 I15'
_cell_volume   1132.34997605
_cell_formula_units_Z   1
loop_
 _symmetry_equiv_pos_site_id
 _symmetry_equiv_pos_as_xyz
  1  'x, y, z'
loop_
 _atom_site_type_symbol
 _atom_site_label
 _atom_site_symmetry_multiplicity
 _atom_site_fract_x
 _atom_site_fract_y
 _atom_site_fract_z
 _atom_site_occupancy
  La  La0  1  0.219733  0.578842  0.050539  1
  La  La1  1  0.780908  0.412474  0.943040  1
  La  La2  1  0.306121  0.908649  0.276660  1
  La  La3  1  0.700698  0.096804  0.728186  1
  La  La4  1  0.092055  0.543913  0.333930  1
  La  La5  1  0.908749  0.454983  0.666866  1
  La  La6  1  0.833228  0.746761  0.173957  1
  La  La7  1  0.148885  0.258612  0.830350  1
  La  La8  1  0.974681  0.795932  0.900267  1
  La  La9  1  0.025607  0.204753  0.098404  1
  Fe  Fe10  1  0.971917  0.320820  0.876920  1
  Ir  Ir11  1  0.034443  0.674157  0.119706  1
  I  I12  1  0.343603  0.441951  0.299877  1
  I  I13  1  0.658298  0.557916  0.701244  1
  I  I14  1  0.214486  0.736410  0.814942  1
  I  I15  1  0.786717  0.264826  0.184239  1
  I  I16  1  0.142698  0.385150  0.581619  1
  I  I17  1  0.855979  0.615783  0.417161  1
  I  I18  1  0.390170  0.802318  0.530579  1
  I  I19  1  0.610249  0.198305  0.469378  1
  I  I20  1  0.266627  0.087510  0.054261  1
  I  I21  1  0.733132  0.913068  0.946698  1
  I  I22  1  0.568350  0.842729  0.226259  1
  I  I23  1  0.433592  0.159283  0.774651  1
  I  I24  1  0.087891  0.036758  0.335722  1
  I  I25  1  0.909915  0.961861  0.665295  1
  I  I26  1  0.501270  0.499430  0.999249  1
