# generated using pymatgen
data_BaYbGa4
_symmetry_space_group_name_H-M   'P 1'
_cell_length_a   4.57643300
_cell_length_b   4.57643168
_cell_length_c   8.09322700
_cell_angle_alpha   90.00000000
_cell_angle_beta   90.00000000
_cell_angle_gamma   120.00000232
_symmetry_Int_Tables_number   1
_chemical_formula_structural   BaYbGa4
_chemical_formula_sum   'Ba1 Yb1 Ga4'
_cell_volume   146.79336803
_cell_formula_units_Z   1
loop_
 _symmetry_equiv_pos_site_id
 _symmetry_equiv_pos_as_xyz
  1  'x, y, z'
loop_
 _atom_site_type_symbol
 _atom_site_label
 _atom_site_symmetry_multiplicity
 _atom_site_fract_x
 _atom_site_fract_y
 _atom_site_fract_z
 _atom_site_occupancy
  Ba  Ba0  1  0.000000  0.000000  0.000000  1
  Yb  Yb1  1  0.000000  0.000000  0.500000  1
  Ga  Ga2  1  0.666668  0.333334  0.309383  1
  Ga  Ga3  1  0.333334  0.666667  0.311268  1
  Ga  Ga4  1  0.333334  0.666667  0.688732  1
  Ga  Ga5  1  0.666668  0.333334  0.690617  1
