# generated using pymatgen
data_CaPr2(SiSe4)2
_symmetry_space_group_name_H-M   'P 1'
_cell_length_a   10.79513426
_cell_length_b   10.87042749
_cell_length_c   10.87042800
_cell_angle_alpha   51.64530888
_cell_angle_beta   51.58086303
_cell_angle_gamma   51.58086306
_symmetry_Int_Tables_number   1
_chemical_formula_structural   CaPr2(SiSe4)2
_chemical_formula_sum   'Ca2 Pr4 Si4 Se16'
_cell_volume   723.71512939
_cell_formula_units_Z   2
loop_
 _symmetry_equiv_pos_site_id
 _symmetry_equiv_pos_as_xyz
  1  'x, y, z'
loop_
 _atom_site_type_symbol
 _atom_site_label
 _atom_site_symmetry_multiplicity
 _atom_site_fract_x
 _atom_site_fract_y
 _atom_site_fract_z
 _atom_site_occupancy
  Ca  Ca0  1  0.571961  0.927994  0.254040  1
  Ca  Ca1  1  0.071961  0.754040  0.427994  1
  Pr  Pr2  1  0.246760  0.559575  0.939266  1
  Pr  Pr3  1  0.438697  0.061784  0.750218  1
  Pr  Pr4  1  0.746760  0.439266  0.059575  1
  Pr  Pr5  1  0.938697  0.250218  0.561784  1
  Si  Si6  1  0.842165  0.844808  0.835013  1
  Si  Si7  1  0.658715  0.655976  0.663337  1
  Si  Si8  1  0.342165  0.335013  0.344808  1
  Si  Si9  1  0.158715  0.163337  0.155976  1
  Se  Se10  1  0.219706  0.956906  0.391676  1
  Se  Se11  1  0.719706  0.891676  0.456906  1
  Se  Se12  1  0.433370  0.416402  0.417322  1
  Se  Se13  1  0.276178  0.103527  0.570513  1
  Se  Se14  1  0.933369  0.917323  0.916402  1
  Se  Se15  1  0.052400  0.607027  0.775929  1
  Se  Se16  1  0.575075  0.572724  0.584814  1
  Se  Se17  1  0.101110  0.548269  0.287426  1
  Se  Se18  1  0.439734  0.714858  0.902891  1
  Se  Se19  1  0.776178  0.070513  0.603527  1
  Se  Se20  1  0.601110  0.787426  0.048269  1
  Se  Se21  1  0.075075  0.084815  0.072724  1
  Se  Se22  1  0.894127  0.432260  0.725443  1
  Se  Se23  1  0.394127  0.225443  0.932260  1
  Se  Se24  1  0.552400  0.275929  0.107027  1
  Se  Se25  1  0.939734  0.402891  0.214858  1
