# generated using pymatgen
data_Li3TmCo8(PIr)12
_symmetry_space_group_name_H-M   'P 1'
_cell_length_a   3.77663200
_cell_length_b   10.54023668
_cell_length_c   12.12896878
_cell_angle_alpha   90.29766648
_cell_angle_beta   90.00000000
_cell_angle_gamma   90.00000000
_symmetry_Int_Tables_number   1
_chemical_formula_structural   Li3TmCo8(PIr)12
_chemical_formula_sum   'Li3 Tm1 Co8 P12 Ir12'
_cell_volume   482.80643407
_cell_formula_units_Z   1
loop_
 _symmetry_equiv_pos_site_id
 _symmetry_equiv_pos_as_xyz
  1  'x, y, z'
loop_
 _atom_site_type_symbol
 _atom_site_label
 _atom_site_symmetry_multiplicity
 _atom_site_fract_x
 _atom_site_fract_y
 _atom_site_fract_z
 _atom_site_occupancy
  Li  Li0  1  0.250000  0.585426  0.710491  1
  Li  Li1  1  0.250000  0.911261  0.209497  1
  Li  Li2  1  0.750000  0.415109  0.290330  1
  Tm  Tm3  1  0.750000  0.081921  0.787994  1
  Co  Co4  1  0.250000  0.884356  0.694424  1
  Co  Co5  1  0.250000  0.618805  0.196986  1
  Co  Co6  1  0.750000  0.123337  0.305480  1
  Co  Co7  1  0.750000  0.382317  0.803949  1
  Co  Co8  1  0.250000  0.464476  0.933604  1
  Co  Co9  1  0.250000  0.038919  0.428497  1
  Co  Co10  1  0.750000  0.538709  0.067173  1
  Co  Co11  1  0.750000  0.957394  0.563680  1
  P  P12  1  0.250000  0.432607  0.115031  1
  P  P13  1  0.250000  0.067706  0.606997  1
  P  P14  1  0.750000  0.569163  0.885524  1
  P  P15  1  0.750000  0.933557  0.381648  1
  P  P16  1  0.250000  0.273738  0.872676  1
  P  P17  1  0.250000  0.233901  0.369231  1
  P  P18  1  0.750000  0.731650  0.131308  1
  P  P19  1  0.750000  0.766172  0.629378  1
  P  P20  1  0.250000  0.595340  0.377289  1
  P  P21  1  0.250000  0.898580  0.878441  1
  P  P22  1  0.750000  0.406129  0.623731  1
  P  P23  1  0.750000  0.095608  0.127512  1
  Ir  Ir24  1  0.250000  0.718790  0.991400  1
  Ir  Ir25  1  0.250000  0.780714  0.490309  1
  Ir  Ir26  1  0.750000  0.277711  0.009720  1
  Ir  Ir27  1  0.750000  0.218188  0.514442  1
  Ir  Ir28  1  0.250000  0.409770  0.479477  1
  Ir  Ir29  1  0.250000  0.088871  0.976786  1
  Ir  Ir30  1  0.750000  0.588818  0.521178  1
  Ir  Ir31  1  0.750000  0.911434  0.025866  1
  Ir  Ir32  1  0.250000  0.228141  0.179225  1
  Ir  Ir33  1  0.250000  0.270159  0.682000  1
  Ir  Ir34  1  0.750000  0.773105  0.818602  1
  Ir  Ir35  1  0.750000  0.728117  0.320126  1
