# generated using pymatgen
data_Yb3AlAs3
_symmetry_space_group_name_H-M   'P 1'
_cell_length_a   4.21131500
_cell_length_b   12.22791200
_cell_length_c   13.32089500
_cell_angle_alpha   90.00000000
_cell_angle_beta   90.00000000
_cell_angle_gamma   90.00000000
_symmetry_Int_Tables_number   1
_chemical_formula_structural   Yb3AlAs3
_chemical_formula_sum   'Yb12 Al4 As12'
_cell_volume   685.96733702
_cell_formula_units_Z   4
loop_
 _symmetry_equiv_pos_site_id
 _symmetry_equiv_pos_as_xyz
  1  'x, y, z'
loop_
 _atom_site_type_symbol
 _atom_site_label
 _atom_site_symmetry_multiplicity
 _atom_site_fract_x
 _atom_site_fract_y
 _atom_site_fract_z
 _atom_site_occupancy
  Yb  Yb0  1  0.250000  0.852542  0.500285  1
  Yb  Yb1  1  0.250000  0.352542  0.999715  1
  Yb  Yb2  1  0.750000  0.147458  0.499715  1
  Yb  Yb3  1  0.750000  0.228101  0.212800  1
  Yb  Yb4  1  0.750000  0.433432  0.392593  1
  Yb  Yb5  1  0.250000  0.566568  0.607407  1
  Yb  Yb6  1  0.750000  0.933432  0.107407  1
  Yb  Yb7  1  0.250000  0.066568  0.892593  1
  Yb  Yb8  1  0.250000  0.271899  0.712800  1
  Yb  Yb9  1  0.750000  0.728101  0.287200  1
  Yb  Yb10  1  0.250000  0.771899  0.787200  1
  Yb  Yb11  1  0.750000  0.647458  0.000285  1
  Al  Al12  1  0.750000  0.939530  0.702387  1
  Al  Al13  1  0.250000  0.060470  0.297613  1
  Al  Al14  1  0.250000  0.560470  0.202387  1
  Al  Al15  1  0.750000  0.439530  0.797613  1
  As  As16  1  0.750000  0.458392  0.148093  1
  As  As17  1  0.250000  0.541608  0.851907  1
  As  As18  1  0.750000  0.958392  0.351907  1
  As  As19  1  0.250000  0.041608  0.648093  1
  As  As20  1  0.750000  0.396178  0.613624  1
  As  As21  1  0.250000  0.603822  0.386376  1
  As  As22  1  0.750000  0.896178  0.886376  1
  As  As23  1  0.250000  0.103822  0.113624  1
  As  As24  1  0.750000  0.251773  0.875833  1
  As  As25  1  0.250000  0.748227  0.124167  1
  As  As26  1  0.750000  0.751773  0.624167  1
  As  As27  1  0.250000  0.248227  0.375833  1
