# generated using pymatgen
data_MnClO2F5
_symmetry_space_group_name_H-M   'P 1'
_cell_length_a   8.57163590
_cell_length_b   8.57163596
_cell_length_c   8.98943300
_cell_angle_alpha   90.00000000
_cell_angle_beta   90.00000000
_cell_angle_gamma   127.11245884
_symmetry_Int_Tables_number   1
_chemical_formula_structural   MnClO2F5
_chemical_formula_sum   'Mn4 Cl4 O8 F20'
_cell_volume   526.70166301
_cell_formula_units_Z   4
loop_
 _symmetry_equiv_pos_site_id
 _symmetry_equiv_pos_as_xyz
  1  'x, y, z'
loop_
 _atom_site_type_symbol
 _atom_site_label
 _atom_site_symmetry_multiplicity
 _atom_site_fract_x
 _atom_site_fract_y
 _atom_site_fract_z
 _atom_site_occupancy
  Mn  Mn0  1  0.995995  0.772030  0.931865  1
  Mn  Mn1  1  0.004005  0.227970  0.431865  1
  Mn  Mn2  1  0.772030  0.995995  0.068135  1
  Mn  Mn3  1  0.227970  0.004005  0.568135  1
  Cl  Cl4  1  0.388064  0.611936  0.750000  1
  Cl  Cl5  1  0.274451  0.725549  0.250000  1
  Cl  Cl6  1  0.611936  0.388064  0.250000  1
  Cl  Cl7  1  0.725549  0.274451  0.750000  1
  O  O8  1  0.658049  0.526952  0.362375  1
  O  O9  1  0.341951  0.473048  0.862375  1
  O  O10  1  0.252195  0.609377  0.126692  1
  O  O11  1  0.473048  0.341951  0.137625  1
  O  O12  1  0.390623  0.747805  0.373308  1
  O  O13  1  0.609377  0.252195  0.873308  1
  O  O14  1  0.747805  0.390623  0.626692  1
  O  O15  1  0.526952  0.658049  0.637625  1
  F  F16  1  0.923878  0.243340  0.997025  1
  F  F17  1  0.398345  0.966648  0.647592  1
  F  F18  1  0.031115  0.031115  0.500000  1
  F  F19  1  0.076122  0.756660  0.497025  1
  F  F20  1  0.370996  0.251505  0.636694  1
  F  F21  1  0.966648  0.398345  0.352408  1
  F  F22  1  0.601655  0.033352  0.147592  1
  F  F23  1  0.629004  0.748495  0.136694  1
  F  F24  1  0.913572  0.639686  0.110255  1
  F  F25  1  0.033352  0.601655  0.852408  1
  F  F26  1  0.968885  0.968885  0.000000  1
  F  F27  1  0.079334  0.920666  0.750000  1
  F  F28  1  0.251505  0.370996  0.363306  1
  F  F29  1  0.748495  0.629004  0.863306  1
  F  F30  1  0.756660  0.076122  0.502975  1
  F  F31  1  0.639686  0.913572  0.889745  1
  F  F32  1  0.086428  0.360314  0.610255  1
  F  F33  1  0.360314  0.086428  0.389745  1
  F  F34  1  0.243340  0.923878  0.002975  1
  F  F35  1  0.920666  0.079334  0.250000  1
