# generated using pymatgen
data_TmLuAl8SiRh3
_symmetry_space_group_name_H-M   'P 1'
_cell_length_a   7.51677576
_cell_length_b   7.48916293
_cell_length_c   9.36464506
_cell_angle_alpha   89.99574683
_cell_angle_beta   89.84213293
_cell_angle_gamma   119.69403489
_symmetry_Int_Tables_number   1
_chemical_formula_structural   TmLuAl8SiRh3
_chemical_formula_sum   'Tm2 Lu2 Al16 Si2 Rh6'
_cell_volume   457.94710687
_cell_formula_units_Z   2
loop_
 _symmetry_equiv_pos_site_id
 _symmetry_equiv_pos_as_xyz
  1  'x, y, z'
loop_
 _atom_site_type_symbol
 _atom_site_label
 _atom_site_symmetry_multiplicity
 _atom_site_fract_x
 _atom_site_fract_y
 _atom_site_fract_z
 _atom_site_occupancy
  Tm  Tm0  1  0.994779  0.664793  0.242767  1
  Tm  Tm1  1  0.005221  0.335207  0.757233  1
  Lu  Lu2  1  0.676714  0.001850  0.247369  1
  Lu  Lu3  1  0.323286  0.998150  0.752631  1
  Al  Al4  1  0.128214  0.126446  0.250428  1
  Al  Al5  1  0.871786  0.873554  0.749572  1
  Al  Al6  1  0.999349  0.665572  0.570610  1
  Al  Al7  1  0.335158  0.998599  0.423792  1
  Al  Al8  1  0.000651  0.334428  0.429390  1
  Al  Al9  1  0.664842  0.001401  0.576208  1
  Al  Al10  1  0.660915  0.997247  0.921528  1
  Al  Al11  1  0.339085  0.002753  0.078472  1
  Al  Al12  1  0.332458  0.331269  0.555831  1
  Al  Al13  1  0.667542  0.668731  0.444169  1
  Al  Al14  1  0.664356  0.667777  0.056131  1
  Al  Al15  1  0.335644  0.332223  0.943869  1
  Al  Al16  1  0.339820  0.551246  0.249864  1
  Al  Al17  1  0.660180  0.448754  0.750136  1
  Al  Al18  1  0.548698  0.341480  0.250235  1
  Al  Al19  1  0.451302  0.658520  0.749765  1
  Si  Si20  1  0.001983  0.328514  0.078913  1
  Si  Si21  1  0.998017  0.671486  0.921087  1
  Rh  Rh22  1  0.690268  0.336962  0.001634  1
  Rh  Rh23  1  0.309732  0.663038  0.998366  1
  Rh  Rh24  1  0.326797  0.671663  0.500515  1
  Rh  Rh25  1  0.673203  0.328337  0.499485  1
  Rh  Rh26  1  0.000000  0.000000  0.000000  1
  Rh  Rh27  1  0.000000  0.000000  0.500000  1
