# generated using pymatgen
data_Dy9Lu11Si15Sn
_symmetry_space_group_name_H-M   'P 1'
_cell_length_a   7.39348484
_cell_length_b   7.60768037
_cell_length_c   14.45424794
_cell_angle_alpha   90.01884404
_cell_angle_beta   90.13501432
_cell_angle_gamma   90.29485898
_symmetry_Int_Tables_number   1
_chemical_formula_structural   Dy9Lu11Si15Sn
_chemical_formula_sum   'Dy9 Lu11 Si15 Sn1'
_cell_volume   812.99890865
_cell_formula_units_Z   1
loop_
 _symmetry_equiv_pos_site_id
 _symmetry_equiv_pos_as_xyz
  1  'x, y, z'
loop_
 _atom_site_type_symbol
 _atom_site_label
 _atom_site_symmetry_multiplicity
 _atom_site_fract_x
 _atom_site_fract_y
 _atom_site_fract_z
 _atom_site_occupancy
  Dy  Dy0  1  0.859336  0.669396  0.878707  1
  Dy  Dy1  1  0.506333  0.319150  0.901751  1
  Dy  Dy2  1  0.005954  0.179704  0.598949  1
  Dy  Dy3  1  0.500370  0.682440  0.407303  1
  Dy  Dy4  1  0.988581  0.829051  0.091989  1
  Dy  Dy5  1  0.499193  0.682759  0.093155  1
  Dy  Dy6  1  0.989235  0.828177  0.409236  1
  Dy  Dy7  1  0.504767  0.320143  0.597524  1
  Dy  Dy8  1  0.007242  0.179479  0.900149  1
  Lu  Lu9  1  0.358344  0.829414  0.876856  1
  Lu  Lu10  1  0.857467  0.669949  0.622356  1
  Lu  Lu11  1  0.644691  0.169272  0.380605  1
  Lu  Lu12  1  0.138855  0.324188  0.117996  1
  Lu  Lu13  1  0.643134  0.169026  0.120588  1
  Lu  Lu14  1  0.139682  0.322652  0.381521  1
  Lu  Lu15  1  0.357598  0.828673  0.622035  1
  Lu  Lu16  1  0.193734  0.495427  0.749759  1
  Lu  Lu17  1  0.692792  0.003761  0.749326  1
  Lu  Lu18  1  0.797192  0.500888  0.250231  1
  Lu  Lu19  1  0.312630  0.008933  0.250044  1
  Si  Si20  1  0.308987  0.035632  0.039301  1
  Si  Si21  1  0.809560  0.463354  0.459734  1
  Si  Si22  1  0.692075  0.963048  0.542738  1
  Si  Si23  1  0.198669  0.535567  0.958258  1
  Si  Si24  1  0.691053  0.965996  0.957606  1
  Si  Si25  1  0.190077  0.536321  0.541318  1
  Si  Si26  1  0.310118  0.035139  0.460194  1
  Si  Si27  1  0.805851  0.462433  0.042994  1
  Si  Si28  1  0.563432  0.610418  0.748612  1
  Si  Si29  1  0.065473  0.889688  0.749361  1
  Si  Si30  1  0.437383  0.373153  0.250670  1
  Si  Si31  1  0.935351  0.110250  0.250199  1
  Si  Si32  1  0.305644  0.128284  0.749257  1
  Si  Si33  1  0.804930  0.369400  0.748757  1
  Si  Si34  1  0.695683  0.872333  0.250505  1
  Sn  Sn35  1  0.188583  0.636501  0.250414  1
