# generated using pymatgen
data_Dy4Er12Cd4Ni3Os
_symmetry_space_group_name_H-M   'P 1'
_cell_length_a   9.53247696
_cell_length_b   9.53247696
_cell_length_c   9.53247766
_cell_angle_alpha   59.45727832
_cell_angle_beta   59.45727674
_cell_angle_gamma   59.45728436
_symmetry_Int_Tables_number   1
_chemical_formula_structural   Dy4Er12Cd4Ni3Os
_chemical_formula_sum   'Dy4 Er12 Cd4 Ni3 Os1'
_cell_volume   604.93276327
_cell_formula_units_Z   1
loop_
 _symmetry_equiv_pos_site_id
 _symmetry_equiv_pos_as_xyz
  1  'x, y, z'
loop_
 _atom_site_type_symbol
 _atom_site_label
 _atom_site_symmetry_multiplicity
 _atom_site_fract_x
 _atom_site_fract_y
 _atom_site_fract_z
 _atom_site_occupancy
  Dy  Dy0  1  0.347852  0.347852  0.347852  1
  Dy  Dy1  1  0.352493  0.352493  0.951391  1
  Dy  Dy2  1  0.352493  0.951391  0.352493  1
  Dy  Dy3  1  0.951391  0.352493  0.352493  1
  Er  Er4  1  0.810143  0.187815  0.187815  1
  Er  Er5  1  0.186237  0.811476  0.811476  1
  Er  Er6  1  0.187815  0.810143  0.187815  1
  Er  Er7  1  0.811476  0.186237  0.811476  1
  Er  Er8  1  0.187815  0.187815  0.810143  1
  Er  Er9  1  0.811476  0.811476  0.186237  1
  Er  Er10  1  0.935260  0.566580  0.566580  1
  Er  Er11  1  0.557333  0.939079  0.939079  1
  Er  Er12  1  0.566580  0.935260  0.566580  1
  Er  Er13  1  0.939079  0.557333  0.939079  1
  Er  Er14  1  0.566580  0.566580  0.935260  1
  Er  Er15  1  0.939079  0.939079  0.557333  1
  Cd  Cd16  1  0.580237  0.580237  0.580237  1
  Cd  Cd17  1  0.579740  0.579740  0.255261  1
  Cd  Cd18  1  0.579740  0.255261  0.579740  1
  Cd  Cd19  1  0.255261  0.579740  0.579740  1
  Ni  Ni20  1  0.141186  0.141186  0.576426  1
  Ni  Ni21  1  0.141186  0.576426  0.141186  1
  Ni  Ni22  1  0.576426  0.141186  0.141186  1
  Os  Os23  1  0.143122  0.143122  0.143122  1
