# generated using pymatgen
data_DyY6(ErPb2)3
_symmetry_space_group_name_H-M   'P 1'
_cell_length_a   9.05885500
_cell_length_b   9.05885427
_cell_length_c   6.62546200
_cell_angle_alpha   90.00000000
_cell_angle_beta   90.00000000
_cell_angle_gamma   119.99999903
_symmetry_Int_Tables_number   1
_chemical_formula_structural   DyY6(ErPb2)3
_chemical_formula_sum   'Dy1 Y6 Er3 Pb6'
_cell_volume   470.86171988
_cell_formula_units_Z   1
loop_
 _symmetry_equiv_pos_site_id
 _symmetry_equiv_pos_as_xyz
  1  'x, y, z'
loop_
 _atom_site_type_symbol
 _atom_site_label
 _atom_site_symmetry_multiplicity
 _atom_site_fract_x
 _atom_site_fract_y
 _atom_site_fract_z
 _atom_site_occupancy
  Dy  Dy0  1  0.666667  0.333333  0.000000  1
  Y  Y1  1  0.760357  0.760425  0.749928  1
  Y  Y2  1  0.239575  0.999932  0.749928  1
  Y  Y3  1  0.000068  0.239643  0.749928  1
  Y  Y4  1  0.239575  0.239643  0.250072  1
  Y  Y5  1  0.760357  0.999932  0.250072  1
  Y  Y6  1  0.000068  0.760425  0.250072  1
  Er  Er7  1  0.333333  0.666667  0.000000  1
  Er  Er8  1  0.333333  0.666667  0.500000  1
  Er  Er9  1  0.666667  0.333333  0.500000  1
  Pb  Pb10  1  0.394180  0.394404  0.749814  1
  Pb  Pb11  1  0.605596  0.999776  0.749814  1
  Pb  Pb12  1  0.000224  0.605820  0.749814  1
  Pb  Pb13  1  0.605596  0.605820  0.250186  1
  Pb  Pb14  1  0.394180  0.999776  0.250186  1
  Pb  Pb15  1  0.000224  0.394404  0.250186  1
