# generated using pymatgen
data_Y7Tm3(Bi2Sb)2
_symmetry_space_group_name_H-M   'P 1'
_cell_length_a   8.16503500
_cell_length_b   9.43507203
_cell_length_c   12.00935004
_cell_angle_alpha   90.00932152
_cell_angle_beta   90.00000000
_cell_angle_gamma   90.00000000
_symmetry_Int_Tables_number   1
_chemical_formula_structural   Y7Tm3(Bi2Sb)2
_chemical_formula_sum   'Y14 Tm6 Bi8 Sb4'
_cell_volume   925.17261360
_cell_formula_units_Z   2
loop_
 _symmetry_equiv_pos_site_id
 _symmetry_equiv_pos_as_xyz
  1  'x, y, z'
loop_
 _atom_site_type_symbol
 _atom_site_label
 _atom_site_symmetry_multiplicity
 _atom_site_fract_x
 _atom_site_fract_y
 _atom_site_fract_z
 _atom_site_occupancy
  Y  Y0  1  0.182866  0.749922  0.718262  1
  Y  Y1  1  0.682866  0.750078  0.781738  1
  Y  Y2  1  0.817441  0.249504  0.282157  1
  Y  Y3  1  0.317441  0.250496  0.217843  1
  Y  Y4  1  0.689773  0.938365  0.058199  1
  Y  Y5  1  0.189773  0.561635  0.441801  1
  Y  Y6  1  0.690251  0.561387  0.058294  1
  Y  Y7  1  0.190251  0.938613  0.441706  1
  Y  Y8  1  0.309505  0.061996  0.941593  1
  Y  Y9  1  0.809505  0.438004  0.558407  1
  Y  Y10  1  0.354279  0.750256  0.213151  1
  Y  Y11  1  0.854279  0.749744  0.286849  1
  Y  Y12  1  0.646424  0.249849  0.786632  1
  Y  Y13  1  0.146424  0.250151  0.713368  1
  Tm  Tm14  1  0.028499  0.749720  0.988509  1
  Tm  Tm15  1  0.528499  0.750280  0.511491  1
  Tm  Tm16  1  0.972745  0.250587  0.011171  1
  Tm  Tm17  1  0.472745  0.249413  0.488829  1
  Tm  Tm18  1  0.309694  0.435160  0.941385  1
  Tm  Tm19  1  0.809694  0.064840  0.558615  1
  Bi  Bi20  1  0.434590  0.003539  0.672229  1
  Bi  Bi21  1  0.934590  0.496461  0.827771  1
  Bi  Bi22  1  0.565851  0.503529  0.327592  1
  Bi  Bi23  1  0.065851  0.996471  0.172408  1
  Bi  Bi24  1  0.565982  0.996342  0.327957  1
  Bi  Bi25  1  0.065982  0.503658  0.172043  1
  Bi  Bi26  1  0.433824  0.496266  0.672542  1
  Bi  Bi27  1  0.933824  0.003734  0.827458  1
  Sb  Sb28  1  0.406768  0.747289  0.958585  1
  Sb  Sb29  1  0.906768  0.752711  0.541415  1
  Sb  Sb30  1  0.591507  0.250719  0.040239  1
  Sb  Sb31  1  0.091507  0.249281  0.459761  1
