# generated using pymatgen
data_Mn(IrS4)2
_symmetry_space_group_name_H-M   'P 1'
_cell_length_a   5.64826913
_cell_length_b   5.64143317
_cell_length_c   5.63520737
_cell_angle_alpha   89.82580916
_cell_angle_beta   89.78368511
_cell_angle_gamma   89.67526126
_symmetry_Int_Tables_number   1
_chemical_formula_structural   Mn(IrS4)2
_chemical_formula_sum   'Mn1 Ir2 S8'
_cell_volume   179.55714127
_cell_formula_units_Z   1
loop_
 _symmetry_equiv_pos_site_id
 _symmetry_equiv_pos_as_xyz
  1  'x, y, z'
loop_
 _atom_site_type_symbol
 _atom_site_label
 _atom_site_symmetry_multiplicity
 _atom_site_fract_x
 _atom_site_fract_y
 _atom_site_fract_z
 _atom_site_occupancy
  Mn  Mn0  1  0.000000  0.500000  0.500000  1
  Ir  Ir1  1  0.500000  0.000000  0.500000  1
  Ir  Ir2  1  0.500000  0.500000  0.000000  1
  S  S3  1  0.390327  0.892163  0.107405  1
  S  S4  1  0.107512  0.401800  0.878610  1
  S  S5  1  0.892534  0.117133  0.399850  1
  S  S6  1  0.609673  0.107837  0.892595  1
  S  S7  1  0.892488  0.598200  0.121390  1
  S  S8  1  0.107466  0.882867  0.600150  1
  S  S9  1  0.627345  0.611221  0.609944  1
  S  S10  1  0.372655  0.388779  0.390056  1
