# generated using pymatgen
data_Tb7LuHf6O24
_symmetry_space_group_name_H-M   'P 1'
_cell_length_a   6.37468674
_cell_length_b   6.45894097
_cell_length_c   12.88022417
_cell_angle_alpha   99.05392891
_cell_angle_beta   99.38816242
_cell_angle_gamma   99.34136398
_symmetry_Int_Tables_number   1
_chemical_formula_structural   Tb7LuHf6O24
_chemical_formula_sum   'Tb7 Lu1 Hf6 O24'
_cell_volume   506.99576082
_cell_formula_units_Z   1
loop_
 _symmetry_equiv_pos_site_id
 _symmetry_equiv_pos_as_xyz
  1  'x, y, z'
loop_
 _atom_site_type_symbol
 _atom_site_label
 _atom_site_symmetry_multiplicity
 _atom_site_fract_x
 _atom_site_fract_y
 _atom_site_fract_z
 _atom_site_occupancy
  Tb  Tb0  1  0.295389  0.609939  0.817160  1
  Tb  Tb1  1  0.385593  0.866106  0.596489  1
  Tb  Tb2  1  0.860484  0.696207  0.948293  1
  Tb  Tb3  1  0.310050  0.615897  0.318449  1
  Tb  Tb4  1  0.141655  0.303879  0.052931  1
  Tb  Tb5  1  0.704955  0.387142  0.182761  1
  Tb  Tb6  1  0.691364  0.387830  0.681341  1
  Lu  Lu7  1  0.611362  0.136718  0.405111  1
  Hf  Hf8  1  0.009635  0.008390  0.256015  1
  Hf  Hf9  1  0.396291  0.855316  0.091294  1
  Hf  Hf10  1  0.991653  0.992887  0.745677  1
  Hf  Hf11  1  0.851089  0.669669  0.447169  1
  Hf  Hf12  1  0.145322  0.327907  0.550580  1
  Hf  Hf13  1  0.607446  0.144804  0.906732  1
  O  O14  1  0.316118  0.969906  0.796449  1
  O  O15  1  0.084514  0.921678  0.098912  1
  O  O16  1  0.321163  0.957938  0.294117  1
  O  O17  1  0.022404  0.880248  0.589975  1
  O  O18  1  0.564334  0.833936  0.961739  1
  O  O19  1  0.594282  0.822428  0.460260  1
  O  O20  1  0.189443  0.596909  0.971842  1
  O  O21  1  0.929520  0.684245  0.778587  1
  O  O22  1  0.428543  0.589019  0.158306  1
  O  O23  1  0.169576  0.576064  0.465794  1
  O  O24  1  0.926412  0.700858  0.295771  1
  O  O25  1  0.572335  0.412643  0.842445  1
  O  O26  1  0.402983  0.562957  0.655348  1
  O  O27  1  0.070421  0.315778  0.221912  1
  O  O28  1  0.811805  0.401320  0.027829  1
  O  O29  1  0.596419  0.430691  0.345024  1
  O  O30  1  0.074235  0.297369  0.703275  1
  O  O31  1  0.827330  0.420654  0.532789  1
  O  O32  1  0.436181  0.165551  0.036507  1
  O  O33  1  0.407567  0.183089  0.534512  1
  O  O34  1  0.920514  0.076250  0.903317  1
  O  O35  1  0.683471  0.028078  0.201709  1
  O  O36  1  0.966584  0.117480  0.409914  1
  O  O37  1  0.681561  0.052218  0.713664  1
