# generated using pymatgen
data_Ho16ZnCo4Hg3
_symmetry_space_group_name_H-M   'P 1'
_cell_length_a   9.38074074
_cell_length_b   9.36728385
_cell_length_c   9.38074100
_cell_angle_alpha   59.95246941
_cell_angle_beta   60.00000261
_cell_angle_gamma   59.95247262
_symmetry_Int_Tables_number   1
_chemical_formula_structural   Ho16ZnCo4Hg3
_chemical_formula_sum   'Ho16 Zn1 Co4 Hg3'
_cell_volume   582.45261419
_cell_formula_units_Z   1
loop_
 _symmetry_equiv_pos_site_id
 _symmetry_equiv_pos_as_xyz
  1  'x, y, z'
loop_
 _atom_site_type_symbol
 _atom_site_label
 _atom_site_symmetry_multiplicity
 _atom_site_fract_x
 _atom_site_fract_y
 _atom_site_fract_z
 _atom_site_occupancy
  Ho  Ho0  1  0.935469  0.939352  0.562589  1
  Ho  Ho1  1  0.811691  0.187649  0.188968  1
  Ho  Ho2  1  0.937924  0.562014  0.562139  1
  Ho  Ho3  1  0.937924  0.562014  0.937924  1
  Ho  Ho4  1  0.811729  0.811742  0.188265  1
  Ho  Ho5  1  0.348530  0.347610  0.348530  1
  Ho  Ho6  1  0.562589  0.939352  0.935469  1
  Ho  Ho7  1  0.562589  0.939352  0.562589  1
  Ho  Ho8  1  0.188265  0.811742  0.811729  1
  Ho  Ho9  1  0.188968  0.187649  0.811691  1
  Ho  Ho10  1  0.348530  0.347610  0.955331  1
  Ho  Ho11  1  0.348258  0.955226  0.348258  1
  Ho  Ho12  1  0.811691  0.187649  0.811691  1
  Ho  Ho13  1  0.562139  0.562014  0.937924  1
  Ho  Ho14  1  0.188265  0.811742  0.188265  1
  Ho  Ho15  1  0.955331  0.347610  0.348530  1
  Zn  Zn16  1  0.579499  0.261504  0.579499  1
  Co  Co17  1  0.576123  0.140861  0.141508  1
  Co  Co18  1  0.141508  0.140861  0.141508  1
  Co  Co19  1  0.141533  0.575402  0.141533  1
  Co  Co20  1  0.141508  0.140861  0.576123  1
  Hg  Hg21  1  0.584314  0.580060  0.251313  1
  Hg  Hg22  1  0.251313  0.580060  0.584314  1
  Hg  Hg23  1  0.584314  0.580060  0.584314  1
