# generated using pymatgen
data_Y2Ga4Ni5Rh
_symmetry_space_group_name_H-M   'P 1'
_cell_length_a   4.10357600
_cell_length_b   8.85145818
_cell_length_c   15.35207517
_cell_angle_alpha   91.64906767
_cell_angle_beta   90.00000000
_cell_angle_gamma   90.00000000
_symmetry_Int_Tables_number   1
_chemical_formula_structural   Y2Ga4Ni5Rh
_chemical_formula_sum   'Y6 Ga12 Ni15 Rh3'
_cell_volume   557.39681785
_cell_formula_units_Z   3
loop_
 _symmetry_equiv_pos_site_id
 _symmetry_equiv_pos_as_xyz
  1  'x, y, z'
loop_
 _atom_site_type_symbol
 _atom_site_label
 _atom_site_symmetry_multiplicity
 _atom_site_fract_x
 _atom_site_fract_y
 _atom_site_fract_z
 _atom_site_occupancy
  Y  Y0  1  0.000000  0.998384  0.333012  1
  Y  Y1  1  0.000000  0.496706  0.832254  1
  Y  Y2  1  0.000000  0.502841  0.168933  1
  Y  Y3  1  0.000000  0.999747  0.665826  1
  Y  Y4  1  0.500000  0.005940  0.002898  1
  Y  Y5  1  0.500000  0.502818  0.505595  1
  Ga  Ga6  1  0.500000  0.025823  0.494020  1
  Ga  Ga7  1  0.500000  0.531071  0.998166  1
  Ga  Ga8  1  0.500000  0.735679  0.262041  1
  Ga  Ga9  1  0.500000  0.232180  0.762725  1
  Ga  Ga10  1  0.500000  0.241545  0.236729  1
  Ga  Ga11  1  0.500000  0.734353  0.734129  1
  Ga  Ga12  1  0.000000  0.777922  0.497919  1
  Ga  Ga13  1  0.000000  0.285090  0.000808  1
  Ga  Ga14  1  0.000000  0.859533  0.136698  1
  Ga  Ga15  1  0.000000  0.355311  0.635834  1
  Ga  Ga16  1  0.000000  0.364925  0.366480  1
  Ga  Ga17  1  0.000000  0.856470  0.864296  1
  Ni  Ni18  1  0.500000  0.976001  0.191535  1
  Ni  Ni19  1  0.500000  0.470247  0.691035  1
  Ni  Ni20  1  0.500000  0.228180  0.396390  1
  Ni  Ni21  1  0.500000  0.725867  0.896658  1
  Ni  Ni22  1  0.500000  0.782270  0.412943  1
  Ni  Ni23  1  0.500000  0.296836  0.915755  1
  Ni  Ni24  1  0.500000  0.487645  0.318229  1
  Ni  Ni25  1  0.500000  0.974453  0.813228  1
  Ni  Ni26  1  0.500000  0.725797  0.103269  1
  Ni  Ni27  1  0.500000  0.220537  0.601432  1
  Ni  Ni28  1  0.500000  0.306904  0.084658  1
  Ni  Ni29  1  0.500000  0.805928  0.582927  1
  Ni  Ni30  1  0.000000  0.209458  0.497392  1
  Ni  Ni31  1  0.000000  0.711871  0.998993  1
  Ni  Ni32  1  0.000000  0.642380  0.354948  1
  Rh  Rh33  1  0.000000  0.141141  0.855061  1
  Rh  Rh34  1  0.000000  0.146579  0.144804  1
  Rh  Rh35  1  0.000000  0.641767  0.642381  1
