# generated using pymatgen
data_Ba3ScTiIrO9
_symmetry_space_group_name_H-M   'P 1'
_cell_length_a   5.87244500
_cell_length_b   5.87244564
_cell_length_c   14.41582400
_cell_angle_alpha   90.00000000
_cell_angle_beta   90.00000000
_cell_angle_gamma   120.00000204
_symmetry_Int_Tables_number   1
_chemical_formula_structural   Ba3ScTiIrO9
_chemical_formula_sum   'Ba6 Sc2 Ti2 Ir2 O18'
_cell_volume   430.53459797
_cell_formula_units_Z   2
loop_
 _symmetry_equiv_pos_site_id
 _symmetry_equiv_pos_as_xyz
  1  'x, y, z'
loop_
 _atom_site_type_symbol
 _atom_site_label
 _atom_site_symmetry_multiplicity
 _atom_site_fract_x
 _atom_site_fract_y
 _atom_site_fract_z
 _atom_site_occupancy
  Ba  Ba0  1  0.333333  0.666667  0.599053  1
  Ba  Ba1  1  0.666667  0.333333  0.400947  1
  Ba  Ba2  1  0.666667  0.333333  0.093609  1
  Ba  Ba3  1  0.333333  0.666667  0.906391  1
  Ba  Ba4  1  0.000000  0.000000  0.248947  1
  Ba  Ba5  1  0.000000  0.000000  0.751053  1
  Sc  Sc6  1  0.000000  0.000000  0.500000  1
  Sc  Sc7  1  0.000000  0.000000  0.000000  1
  Ti  Ti8  1  0.333333  0.666667  0.352322  1
  Ti  Ti9  1  0.666667  0.333333  0.647678  1
  Ir  Ir10  1  0.666667  0.333333  0.840944  1
  Ir  Ir11  1  0.333333  0.666667  0.159056  1
  O  O12  1  0.484372  0.515628  0.248534  1
  O  O13  1  0.484372  0.968743  0.248534  1
  O  O14  1  0.031257  0.515628  0.248534  1
  O  O15  1  0.515628  0.484372  0.751466  1
  O  O16  1  0.515628  0.031257  0.751466  1
  O  O17  1  0.968743  0.484372  0.751466  1
  O  O18  1  0.170730  0.829270  0.082818  1
  O  O19  1  0.170730  0.341459  0.082818  1
  O  O20  1  0.658541  0.829270  0.082818  1
  O  O21  1  0.829270  0.170730  0.917182  1
  O  O22  1  0.829270  0.658541  0.917182  1
  O  O23  1  0.341459  0.170730  0.917182  1
  O  O24  1  0.828840  0.171160  0.584600  1
  O  O25  1  0.828840  0.657681  0.584600  1
  O  O26  1  0.342319  0.171160  0.584600  1
  O  O27  1  0.171160  0.828840  0.415400  1
  O  O28  1  0.171160  0.342319  0.415400  1
  O  O29  1  0.657681  0.828840  0.415400  1
