# generated using pymatgen
data_Pr(Sb3Ru)4
_symmetry_space_group_name_H-M   'P 1'
_cell_length_a   8.13072917
_cell_length_b   8.13072975
_cell_length_c   8.13073000
_cell_angle_alpha   109.47121878
_cell_angle_beta   109.47122020
_cell_angle_gamma   109.47122317
_symmetry_Int_Tables_number   1
_chemical_formula_structural   Pr(Sb3Ru)4
_chemical_formula_sum   'Pr1 Sb12 Ru4'
_cell_volume   413.77730706
_cell_formula_units_Z   1
loop_
 _symmetry_equiv_pos_site_id
 _symmetry_equiv_pos_as_xyz
  1  'x, y, z'
loop_
 _atom_site_type_symbol
 _atom_site_label
 _atom_site_symmetry_multiplicity
 _atom_site_fract_x
 _atom_site_fract_y
 _atom_site_fract_z
 _atom_site_occupancy
  Pr  Pr0  1  0.000000  0.000000  0.000000  1
  Sb  Sb1  1  0.338860  0.181010  0.842149  1
  Sb  Sb2  1  0.661139  0.818990  0.157851  1
  Sb  Sb3  1  0.661139  0.503289  0.842149  1
  Sb  Sb4  1  0.338861  0.496711  0.157851  1
  Sb  Sb5  1  0.181010  0.842149  0.338861  1
  Sb  Sb6  1  0.818990  0.157851  0.661140  1
  Sb  Sb7  1  0.503289  0.842149  0.661140  1
  Sb  Sb8  1  0.496711  0.157851  0.338861  1
  Sb  Sb9  1  0.842149  0.338860  0.181010  1
  Sb  Sb10  1  0.157851  0.661139  0.818990  1
  Sb  Sb11  1  0.842149  0.661139  0.503289  1
  Sb  Sb12  1  0.157851  0.338861  0.496711  1
  Ru  Ru13  1  0.000000  0.000000  0.500000  1
  Ru  Ru14  1  0.500000  0.000000  0.000000  1
  Ru  Ru15  1  0.000000  0.500000  0.000000  1
  Ru  Ru16  1  0.500000  0.500000  0.500000  1
