# generated using pymatgen
data_Dy5YEr10(CdPt)4
_symmetry_space_group_name_H-M   'P 1'
_cell_length_a   9.62761016
_cell_length_b   9.62907547
_cell_length_c   9.62506110
_cell_angle_alpha   60.06255019
_cell_angle_beta   60.04885546
_cell_angle_gamma   60.05960526
_symmetry_Int_Tables_number   1
_chemical_formula_structural   Dy5YEr10(CdPt)4
_chemical_formula_sum   'Dy5 Y1 Er10 Cd4 Pt4'
_cell_volume   631.76024743
_cell_formula_units_Z   1
loop_
 _symmetry_equiv_pos_site_id
 _symmetry_equiv_pos_as_xyz
  1  'x, y, z'
loop_
 _atom_site_type_symbol
 _atom_site_label
 _atom_site_symmetry_multiplicity
 _atom_site_fract_x
 _atom_site_fract_y
 _atom_site_fract_z
 _atom_site_occupancy
  Dy  Dy0  1  0.935083  0.564833  0.565312  1
  Dy  Dy1  1  0.561450  0.937666  0.937982  1
  Dy  Dy2  1  0.564821  0.935045  0.565368  1
  Dy  Dy3  1  0.937668  0.561529  0.937890  1
  Dy  Dy4  1  0.565271  0.565320  0.934852  1
  Y  Y5  1  0.937597  0.937469  0.561744  1
  Er  Er6  1  0.349809  0.349842  0.349698  1
  Er  Er7  1  0.355245  0.355171  0.939707  1
  Er  Er8  1  0.355397  0.939733  0.355067  1
  Er  Er9  1  0.939759  0.355319  0.355038  1
  Er  Er10  1  0.811319  0.190198  0.189753  1
  Er  Er11  1  0.186919  0.811849  0.812004  1
  Er  Er12  1  0.190194  0.811339  0.189714  1
  Er  Er13  1  0.811888  0.186803  0.812121  1
  Er  Er14  1  0.190043  0.190084  0.811346  1
  Er  Er15  1  0.811762  0.811870  0.186779  1
  Cd  Cd16  1  0.581029  0.580997  0.581047  1
  Cd  Cd17  1  0.581073  0.581112  0.254373  1
  Cd  Cd18  1  0.580896  0.254724  0.580944  1
  Cd  Cd19  1  0.254704  0.580903  0.580925  1
  Pt  Pt20  1  0.144653  0.144575  0.144705  1
  Pt  Pt21  1  0.141465  0.141541  0.570510  1
  Pt  Pt22  1  0.141564  0.570474  0.141573  1
  Pt  Pt23  1  0.570390  0.141603  0.141551  1
