# generated using pymatgen
data_La3SmB3(PdRh)6
_symmetry_space_group_name_H-M   'P 1'
_cell_length_a   4.28420000
_cell_length_b   4.28420000
_cell_length_c   17.04226600
_cell_angle_alpha   90.00000000
_cell_angle_beta   90.00000000
_cell_angle_gamma   90.00000000
_symmetry_Int_Tables_number   1
_chemical_formula_structural   La3SmB3(PdRh)6
_chemical_formula_sum   'La3 Sm1 B3 Pd6 Rh6'
_cell_volume   312.80004967
_cell_formula_units_Z   1
loop_
 _symmetry_equiv_pos_site_id
 _symmetry_equiv_pos_as_xyz
  1  'x, y, z'
loop_
 _atom_site_type_symbol
 _atom_site_label
 _atom_site_symmetry_multiplicity
 _atom_site_fract_x
 _atom_site_fract_y
 _atom_site_fract_z
 _atom_site_occupancy
  La  La0  1  0.000000  0.000000  0.873007  1
  La  La1  1  0.000000  0.000000  0.125141  1
  La  La2  1  0.000000  0.000000  0.376549  1
  Sm  Sm3  1  0.000000  0.000000  0.625422  1
  B  B4  1  0.500000  0.500000  0.237344  1
  B  B5  1  0.500000  0.500000  0.500453  1
  B  B6  1  0.500000  0.500000  0.761653  1
  Pd  Pd7  1  0.500000  0.500000  0.886062  1
  Pd  Pd8  1  0.500000  0.500000  0.113331  1
  Pd  Pd9  1  0.500000  0.500000  0.372104  1
  Pd  Pd10  1  0.500000  0.500000  0.627996  1
  Pd  Pd11  1  0.500000  0.000000  0.999696  1
  Pd  Pd12  1  0.000000  0.500000  0.999696  1
  Rh  Rh13  1  0.500000  0.000000  0.251151  1
  Rh  Rh14  1  0.500000  0.000000  0.502746  1
  Rh  Rh15  1  0.500000  0.000000  0.746875  1
  Rh  Rh16  1  0.000000  0.500000  0.251151  1
  Rh  Rh17  1  0.000000  0.500000  0.502746  1
  Rh  Rh18  1  0.000000  0.500000  0.746875  1
