# generated using pymatgen
data_Nb4V4SiGe2P
_symmetry_space_group_name_H-M   'P 1'
_cell_length_a   3.44177700
_cell_length_b   6.59444847
_cell_length_c   7.95411628
_cell_angle_alpha   89.57680996
_cell_angle_beta   90.00000000
_cell_angle_gamma   90.00000000
_symmetry_Int_Tables_number   1
_chemical_formula_structural   Nb4V4SiGe2P
_chemical_formula_sum   'Nb4 V4 Si1 Ge2 P1'
_cell_volume   180.52663882
_cell_formula_units_Z   1
loop_
 _symmetry_equiv_pos_site_id
 _symmetry_equiv_pos_as_xyz
  1  'x, y, z'
loop_
 _atom_site_type_symbol
 _atom_site_label
 _atom_site_symmetry_multiplicity
 _atom_site_fract_x
 _atom_site_fract_y
 _atom_site_fract_z
 _atom_site_occupancy
  Nb  Nb0  1  0.250000  0.030601  0.836347  1
  Nb  Nb1  1  0.250000  0.553536  0.676278  1
  Nb  Nb2  1  0.750000  0.962688  0.162925  1
  Nb  Nb3  1  0.750000  0.447771  0.327761  1
  V  V4  1  0.250000  0.129810  0.437048  1
  V  V5  1  0.250000  0.631257  0.054234  1
  V  V6  1  0.750000  0.867700  0.565685  1
  V  V7  1  0.750000  0.377508  0.940717  1
  Si  Si8  1  0.250000  0.255771  0.134893  1
  Ge  Ge9  1  0.250000  0.751806  0.359919  1
  Ge  Ge10  1  0.750000  0.246896  0.639959  1
  P  P11  1  0.750000  0.744653  0.864233  1
