# generated using pymatgen
data_Hf2Zr8Sn3Sb4
_symmetry_space_group_name_H-M   'P 1'
_cell_length_a   5.89049600
_cell_length_b   8.67666174
_cell_length_c   8.67669100
_cell_angle_alpha   120.00015830
_cell_angle_beta   89.99991085
_cell_angle_gamma   89.99978839
_symmetry_Int_Tables_number   1
_chemical_formula_structural   Hf2Zr8Sn3Sb4
_chemical_formula_sum   'Hf2 Zr8 Sn3 Sb4'
_cell_volume   384.05073669
_cell_formula_units_Z   1
loop_
 _symmetry_equiv_pos_site_id
 _symmetry_equiv_pos_as_xyz
  1  'x, y, z'
loop_
 _atom_site_type_symbol
 _atom_site_label
 _atom_site_symmetry_multiplicity
 _atom_site_fract_x
 _atom_site_fract_y
 _atom_site_fract_z
 _atom_site_occupancy
  Hf  Hf0  1  0.499306  0.333333  0.666667  1
  Hf  Hf1  1  0.499308  0.666664  0.333332  1
  Zr  Zr2  1  0.002032  0.666664  0.333328  1
  Zr  Zr3  1  0.002029  0.333336  0.666672  1
  Zr  Zr4  1  0.769778  0.267467  0.000000  1
  Zr  Zr5  1  0.769761  0.732536  0.732541  1
  Zr  Zr6  1  0.769759  0.999996  0.267460  1
  Zr  Zr7  1  0.229754  0.731121  0.999999  1
  Zr  Zr8  1  0.229756  0.268884  0.268882  1
  Zr  Zr9  1  0.229755  0.000001  0.731118  1
  Sn  Sn10  1  0.256134  0.385842  0.000000  1
  Sn  Sn11  1  0.256126  0.614159  0.614159  1
  Sn  Sn12  1  0.256127  0.999999  0.385840  1
  Sb  Sb13  1  0.744331  0.611693  0.000001  1
  Sb  Sb14  1  0.744333  0.388306  0.388307  1
  Sb  Sb15  1  0.744333  0.999999  0.611692  1
  Sb  Sb16  1  0.497376  0.000003  0.000001  1
