# generated using pymatgen
data_Sc7Ti(Si4Ru3)4
_symmetry_space_group_name_H-M   'P 1'
_cell_length_a   9.88799215
_cell_length_b   9.90269508
_cell_length_c   13.33093000
_cell_angle_alpha   53.92625344
_cell_angle_beta   53.89188114
_cell_angle_gamma   31.13248900
_symmetry_Int_Tables_number   1
_chemical_formula_structural   Sc7Ti(Si4Ru3)4
_chemical_formula_sum   'Sc7 Ti1 Si16 Ru12'
_cell_volume   533.99803102
_cell_formula_units_Z   1
loop_
 _symmetry_equiv_pos_site_id
 _symmetry_equiv_pos_as_xyz
  1  'x, y, z'
loop_
 _atom_site_type_symbol
 _atom_site_label
 _atom_site_symmetry_multiplicity
 _atom_site_fract_x
 _atom_site_fract_y
 _atom_site_fract_z
 _atom_site_occupancy
  Sc  Sc0  1  0.295967  0.559047  0.644326  1
  Sc  Sc1  1  0.438995  0.707286  0.855609  1
  Sc  Sc2  1  0.706144  0.440995  0.353853  1
  Sc  Sc3  1  0.561453  0.291846  0.145893  1
  Sc  Sc4  1  0.036164  0.293023  0.638882  1
  Sc  Sc5  1  0.708123  0.962924  0.860392  1
  Sc  Sc6  1  0.963577  0.707191  0.360656  1
  Ti  Ti7  1  0.299989  0.040142  0.131008  1
  Si  Si8  1  0.876535  0.125678  0.250229  1
  Si  Si9  1  0.128418  0.872217  0.749759  1
  Si  Si10  1  0.383695  0.619837  0.249235  1
  Si  Si11  1  0.615637  0.383044  0.750923  1
  Si  Si12  1  0.975079  0.252933  0.893130  1
  Si  Si13  1  0.747575  0.024978  0.606913  1
  Si  Si14  1  0.025889  0.744922  0.108207  1
  Si  Si15  1  0.251879  0.977399  0.388986  1
  Si  Si16  1  0.573104  0.080205  0.066418  1
  Si  Si17  1  0.921028  0.424163  0.432957  1
  Si  Si18  1  0.425608  0.919190  0.936655  1
  Si  Si19  1  0.079321  0.575015  0.567916  1
  Si  Si20  1  0.386724  0.142167  0.397991  1
  Si  Si21  1  0.852219  0.613022  0.103182  1
  Si  Si22  1  0.610747  0.861270  0.601055  1
  Si  Si23  1  0.143182  0.384899  0.899224  1
  Ru  Ru24  1  0.648233  0.830321  0.281481  1
  Ru  Ru25  1  0.167757  0.349433  0.216610  1
  Ru  Ru26  1  0.754605  0.485270  0.070206  1
  Ru  Ru27  1  0.828582  0.649599  0.783508  1
  Ru  Ru28  1  0.897061  0.141912  0.585725  1
  Ru  Ru29  1  0.857095  0.103349  0.914571  1
  Ru  Ru30  1  0.104586  0.856529  0.414378  1
  Ru  Ru31  1  0.143283  0.896511  0.086431  1
  Ru  Ru32  1  0.240846  0.512566  0.933288  1
  Ru  Ru33  1  0.493734  0.749897  0.568410  1
  Ru  Ru34  1  0.506207  0.250613  0.432194  1
  Ru  Ru35  1  0.350961  0.170608  0.719799  1
