# generated using pymatgen
data_Li2Ca3Th(ZnSi3)2
_symmetry_space_group_name_H-M   'P 1'
_cell_length_a   9.42553870
_cell_length_b   9.42553807
_cell_length_c   6.83384534
_cell_angle_alpha   89.31400796
_cell_angle_beta   90.68599149
_cell_angle_gamma   153.37448725
_symmetry_Int_Tables_number   1
_chemical_formula_structural   Li2Ca3Th(ZnSi3)2
_chemical_formula_sum   'Li2 Ca3 Th1 Zn2 Si6'
_cell_volume   272.06644324
_cell_formula_units_Z   1
loop_
 _symmetry_equiv_pos_site_id
 _symmetry_equiv_pos_as_xyz
  1  'x, y, z'
loop_
 _atom_site_type_symbol
 _atom_site_label
 _atom_site_symmetry_multiplicity
 _atom_site_fract_x
 _atom_site_fract_y
 _atom_site_fract_z
 _atom_site_occupancy
  Li  Li0  1  0.811512  0.188488  0.939648  1
  Li  Li1  1  0.187466  0.812534  0.436731  1
  Ca  Ca2  1  0.552510  0.447490  0.255716  1
  Ca  Ca3  1  0.656019  0.343981  0.745189  1
  Ca  Ca4  1  0.344415  0.655585  0.244914  1
  Th  Th5  1  0.448369  0.551631  0.754040  1
  Zn  Zn6  1  0.193476  0.806524  0.055912  1
  Zn  Zn7  1  0.807133  0.192867  0.555389  1
  Si  Si8  1  0.280730  0.719270  0.747664  1
  Si  Si9  1  0.721742  0.278258  0.247587  1
  Si  Si10  1  0.938753  0.061247  0.428950  1
  Si  Si11  1  0.055395  0.944605  0.581012  1
  Si  Si12  1  0.943028  0.056972  0.078061  1
  Si  Si13  1  0.059452  0.940548  0.929189  1
