# generated using pymatgen
data_Tb13Lu3Tl3InPdRh3
_symmetry_space_group_name_H-M   'P 1'
_cell_length_a   9.69182328
_cell_length_b   9.67416082
_cell_length_c   9.67073700
_cell_angle_alpha   60.03752693
_cell_angle_beta   59.91940058
_cell_angle_gamma   59.82458045
_symmetry_Int_Tables_number   1
_chemical_formula_structural   Tb13Lu3Tl3InPdRh3
_chemical_formula_sum   'Tb13 Lu3 Tl3 In1 Pd1 Rh3'
_cell_volume   640.09184423
_cell_formula_units_Z   1
loop_
 _symmetry_equiv_pos_site_id
 _symmetry_equiv_pos_as_xyz
  1  'x, y, z'
loop_
 _atom_site_type_symbol
 _atom_site_label
 _atom_site_symmetry_multiplicity
 _atom_site_fract_x
 _atom_site_fract_y
 _atom_site_fract_z
 _atom_site_occupancy
  Tb  Tb0  1  0.648917  0.050961  0.649103  1
  Tb  Tb1  1  0.057690  0.063080  0.440185  1
  Tb  Tb2  1  0.437733  0.437379  0.061295  1
  Tb  Tb3  1  0.650070  0.653789  0.647440  1
  Tb  Tb4  1  0.813435  0.183083  0.190897  1
  Tb  Tb5  1  0.186857  0.814503  0.812357  1
  Tb  Tb6  1  0.053718  0.650785  0.646960  1
  Tb  Tb7  1  0.441098  0.060352  0.057674  1
  Tb  Tb8  1  0.437893  0.062199  0.437251  1
  Tb  Tb9  1  0.060012  0.438070  0.063078  1
  Tb  Tb10  1  0.647579  0.651233  0.053781  1
  Tb  Tb11  1  0.188102  0.812608  0.187027  1
  Tb  Tb12  1  0.059808  0.437592  0.437163  1
  Lu  Lu13  1  0.811075  0.812262  0.188393  1
  Lu  Lu14  1  0.812866  0.183987  0.811770  1
  Lu  Lu15  1  0.193090  0.184044  0.810591  1
  Tl  Tl16  1  0.415700  0.413672  0.414114  1
  Tl  Tl17  1  0.417025  0.415634  0.755190  1
  Tl  Tl18  1  0.415561  0.756277  0.415541  1
  In  In19  1  0.748734  0.417482  0.418788  1
  Pd  Pd20  1  0.861864  0.424935  0.855442  1
  Rh  Rh21  1  0.855393  0.859237  0.860954  1
  Rh  Rh22  1  0.857923  0.855659  0.427275  1
  Rh  Rh23  1  0.427858  0.861180  0.857733  1
