# generated using pymatgen
data_Y7Er(CdPd)2
_symmetry_space_group_name_H-M   'P 1'
_cell_length_a   9.71745162
_cell_length_b   9.71745112
_cell_length_c   9.72520600
_cell_angle_alpha   59.97359764
_cell_angle_beta   59.97359935
_cell_angle_gamma   59.93097335
_symmetry_Int_Tables_number   1
_chemical_formula_structural   Y7Er(CdPd)2
_chemical_formula_sum   'Y14 Er2 Cd4 Pd4'
_cell_volume   648.76625068
_cell_formula_units_Z   2
loop_
 _symmetry_equiv_pos_site_id
 _symmetry_equiv_pos_as_xyz
  1  'x, y, z'
loop_
 _atom_site_type_symbol
 _atom_site_label
 _atom_site_symmetry_multiplicity
 _atom_site_fract_x
 _atom_site_fract_y
 _atom_site_fract_z
 _atom_site_occupancy
  Y  Y0  1  0.356450  0.934798  0.354376  1
  Y  Y1  1  0.934798  0.356450  0.354376  1
  Y  Y2  1  0.810165  0.189622  0.190147  1
  Y  Y3  1  0.189622  0.810165  0.810066  1
  Y  Y4  1  0.189622  0.810165  0.190147  1
  Y  Y5  1  0.810165  0.189622  0.810066  1
  Y  Y6  1  0.190827  0.190827  0.809173  1
  Y  Y7  1  0.811215  0.811215  0.188785  1
  Y  Y8  1  0.934776  0.564667  0.565909  1
  Y  Y9  1  0.564667  0.934776  0.934648  1
  Y  Y10  1  0.564667  0.934776  0.565909  1
  Y  Y11  1  0.934776  0.564667  0.934648  1
  Y  Y12  1  0.565295  0.565295  0.934705  1
  Y  Y13  1  0.934620  0.934620  0.565380  1
  Er  Er14  1  0.353090  0.353090  0.352272  1
  Er  Er15  1  0.353090  0.353090  0.941548  1
  Cd  Cd16  1  0.582276  0.582276  0.582924  1
  Cd  Cd17  1  0.582276  0.582276  0.252525  1
  Cd  Cd18  1  0.582123  0.252574  0.582652  1
  Cd  Cd19  1  0.252574  0.582123  0.582652  1
  Pd  Pd20  1  0.146066  0.146066  0.142918  1
  Pd  Pd21  1  0.146066  0.146066  0.564948  1
  Pd  Pd22  1  0.147818  0.562958  0.144612  1
  Pd  Pd23  1  0.562958  0.147818  0.144612  1
