# generated using pymatgen
data_Ca3TbPd4
_symmetry_space_group_name_H-M   'P 1'
_cell_length_a   4.42707100
_cell_length_b   5.79104738
_cell_length_c   7.33511470
_cell_angle_alpha   89.17564767
_cell_angle_beta   90.00000000
_cell_angle_gamma   90.00000000
_symmetry_Int_Tables_number   1
_chemical_formula_structural   Ca3TbPd4
_chemical_formula_sum   'Ca3 Tb1 Pd4'
_cell_volume   188.03364401
_cell_formula_units_Z   1
loop_
 _symmetry_equiv_pos_site_id
 _symmetry_equiv_pos_as_xyz
  1  'x, y, z'
loop_
 _atom_site_type_symbol
 _atom_site_label
 _atom_site_symmetry_multiplicity
 _atom_site_fract_x
 _atom_site_fract_y
 _atom_site_fract_z
 _atom_site_occupancy
  Ca  Ca0  1  0.250000  0.360431  0.681132  1
  Ca  Ca1  1  0.250000  0.138704  0.183264  1
  Ca  Ca2  1  0.750000  0.640243  0.317437  1
  Tb  Tb3  1  0.750000  0.863074  0.816144  1
  Pd  Pd4  1  0.250000  0.856440  0.552764  1
  Pd  Pd5  1  0.250000  0.651759  0.021576  1
  Pd  Pd6  1  0.750000  0.137885  0.469059  1
  Pd  Pd7  1  0.750000  0.351464  0.958624  1
