# generated using pymatgen
data_Er18Tm2Sn7Pb9
_symmetry_space_group_name_H-M   'P 1'
_cell_length_a   8.09412627
_cell_length_b   8.14197719
_cell_length_c   15.44845800
_cell_angle_alpha   90.00000000
_cell_angle_beta   90.00000000
_cell_angle_gamma   90.02739133
_symmetry_Int_Tables_number   1
_chemical_formula_structural   Er18Tm2Sn7Pb9
_chemical_formula_sum   'Er18 Tm2 Sn7 Pb9'
_cell_volume   1018.08712147
_cell_formula_units_Z   1
loop_
 _symmetry_equiv_pos_site_id
 _symmetry_equiv_pos_as_xyz
  1  'x, y, z'
loop_
 _atom_site_type_symbol
 _atom_site_label
 _atom_site_symmetry_multiplicity
 _atom_site_fract_x
 _atom_site_fract_y
 _atom_site_fract_z
 _atom_site_occupancy
  Er  Er0  1  0.380165  0.838497  0.876612  1
  Er  Er1  1  0.880462  0.661053  0.623515  1
  Er  Er2  1  0.619813  0.161114  0.377221  1
  Er  Er3  1  0.119651  0.337421  0.122943  1
  Er  Er4  1  0.619813  0.161114  0.122779  1
  Er  Er5  1  0.119651  0.337421  0.377057  1
  Er  Er6  1  0.380165  0.838497  0.623388  1
  Er  Er7  1  0.880462  0.661053  0.876485  1
  Er  Er8  1  0.537936  0.324874  0.895827  1
  Er  Er9  1  0.038393  0.174583  0.604384  1
  Er  Er10  1  0.464680  0.675160  0.397162  1
  Er  Er11  1  0.959897  0.827092  0.101561  1
  Er  Er12  1  0.464680  0.675160  0.102838  1
  Er  Er13  1  0.959897  0.827092  0.398439  1
  Er  Er14  1  0.537936  0.324874  0.604173  1
  Er  Er15  1  0.038393  0.174583  0.895616  1
  Er  Er16  1  0.787340  0.494804  0.250000  1
  Er  Er17  1  0.291255  0.006559  0.250000  1
  Tm  Tm18  1  0.210986  0.503503  0.750000  1
  Tm  Tm19  1  0.710930  0.996389  0.750000  1
  Sn  Sn20  1  0.575646  0.622918  0.750000  1
  Sn  Sn21  1  0.075871  0.876469  0.750000  1
  Sn  Sn22  1  0.424779  0.376252  0.250000  1
  Sn  Sn23  1  0.923985  0.121974  0.250000  1
  Sn  Sn24  1  0.346102  0.149406  0.750000  1
  Sn  Sn25  1  0.846024  0.350715  0.750000  1
  Sn  Sn26  1  0.655073  0.850386  0.250000  1
  Pb  Pb27  1  0.280345  0.031676  0.040927  1
  Pb  Pb28  1  0.781515  0.467412  0.459152  1
  Pb  Pb29  1  0.718479  0.968484  0.542017  1
  Pb  Pb30  1  0.219055  0.531478  0.958749  1
  Pb  Pb31  1  0.718479  0.968484  0.957983  1
  Pb  Pb32  1  0.219055  0.531478  0.541251  1
  Pb  Pb33  1  0.280345  0.031676  0.459073  1
  Pb  Pb34  1  0.781515  0.467412  0.040848  1
  Pb  Pb35  1  0.151224  0.652936  0.250000  1
