# generated using pymatgen
data_Th4Si4PdRh3
_symmetry_space_group_name_H-M   'P 1'
_cell_length_a   5.84711238
_cell_length_b   7.79374383
_cell_length_c   10.78075714
_cell_angle_alpha   88.07993231
_cell_angle_beta   89.91258888
_cell_angle_gamma   89.87192704
_symmetry_Int_Tables_number   1
_chemical_formula_structural   Th4Si4PdRh3
_chemical_formula_sum   'Th8 Si8 Pd2 Rh6'
_cell_volume   491.01118037
_cell_formula_units_Z   2
loop_
 _symmetry_equiv_pos_site_id
 _symmetry_equiv_pos_as_xyz
  1  'x, y, z'
loop_
 _atom_site_type_symbol
 _atom_site_label
 _atom_site_symmetry_multiplicity
 _atom_site_fract_x
 _atom_site_fract_y
 _atom_site_fract_z
 _atom_site_occupancy
  Th  Th0  1  0.350878  0.969677  0.138409  1
  Th  Th1  1  0.649122  0.030323  0.861591  1
  Th  Th2  1  0.852766  0.540492  0.859476  1
  Th  Th3  1  0.147234  0.459508  0.140524  1
  Th  Th4  1  0.871920  0.829365  0.370978  1
  Th  Th5  1  0.128080  0.170635  0.629022  1
  Th  Th6  1  0.364994  0.679166  0.631506  1
  Th  Th7  1  0.635006  0.320834  0.368494  1
  Si  Si8  1  0.864203  0.538032  0.575026  1
  Si  Si9  1  0.135797  0.461968  0.424974  1
  Si  Si10  1  0.369191  0.969040  0.420919  1
  Si  Si11  1  0.630809  0.030960  0.579081  1
  Si  Si12  1  0.652962  0.618819  0.145642  1
  Si  Si13  1  0.347038  0.381181  0.854358  1
  Si  Si14  1  0.152831  0.882190  0.853868  1
  Si  Si15  1  0.847169  0.117810  0.146132  1
  Pd  Pd16  1  0.394868  0.678215  0.333043  1
  Pd  Pd17  1  0.605132  0.321785  0.666957  1
  Rh  Rh18  1  0.909467  0.832715  0.051019  1
  Rh  Rh19  1  0.090533  0.167285  0.948981  1
  Rh  Rh20  1  0.404591  0.665864  0.952036  1
  Rh  Rh21  1  0.595409  0.334136  0.047964  1
  Rh  Rh22  1  0.893058  0.819562  0.672797  1
  Rh  Rh23  1  0.106942  0.180438  0.327203  1
