# generated using pymatgen
data_Tb20CoBi8Ru2Pt
_symmetry_space_group_name_H-M   'P 1'
_cell_length_a   8.04406545
_cell_length_b   9.01233100
_cell_length_c   12.49833145
_cell_angle_alpha   90.00000000
_cell_angle_beta   90.21932645
_cell_angle_gamma   90.00000000
_symmetry_Int_Tables_number   1
_chemical_formula_structural   Tb20CoBi8Ru2Pt
_chemical_formula_sum   'Tb20 Co1 Bi8 Ru2 Pt1'
_cell_volume   906.06965389
_cell_formula_units_Z   1
loop_
 _symmetry_equiv_pos_site_id
 _symmetry_equiv_pos_as_xyz
  1  'x, y, z'
loop_
 _atom_site_type_symbol
 _atom_site_label
 _atom_site_symmetry_multiplicity
 _atom_site_fract_x
 _atom_site_fract_y
 _atom_site_fract_z
 _atom_site_occupancy
  Tb  Tb0  1  0.845294  0.750000  0.799456  1
  Tb  Tb1  1  0.154582  0.250000  0.204184  1
  Tb  Tb2  1  0.340184  0.250000  0.710046  1
  Tb  Tb3  1  0.655074  0.750000  0.295170  1
  Tb  Tb4  1  0.377552  0.750000  0.694112  1
  Tb  Tb5  1  0.625712  0.250000  0.302923  1
  Tb  Tb6  1  0.877428  0.250000  0.806482  1
  Tb  Tb7  1  0.118746  0.750000  0.189592  1
  Tb  Tb8  1  0.949807  0.750000  0.503644  1
  Tb  Tb9  1  0.049155  0.250000  0.497174  1
  Tb  Tb10  1  0.450386  0.250000  0.997401  1
  Tb  Tb11  1  0.551875  0.750000  0.003233  1
  Tb  Tb12  1  0.679038  0.037151  0.565788  1
  Tb  Tb13  1  0.319877  0.952228  0.434200  1
  Tb  Tb14  1  0.176768  0.959340  0.936263  1
  Tb  Tb15  1  0.319877  0.547772  0.434200  1
  Tb  Tb16  1  0.823862  0.036547  0.062817  1
  Tb  Tb17  1  0.679038  0.462849  0.565788  1
  Tb  Tb18  1  0.823862  0.463453  0.062817  1
  Tb  Tb19  1  0.176768  0.540660  0.936263  1
  Co  Co20  1  0.933014  0.750000  0.008831  1
  Bi  Bi21  1  0.571961  0.491921  0.827260  1
  Bi  Bi22  1  0.428745  0.508555  0.172857  1
  Bi  Bi23  1  0.070816  0.508124  0.673725  1
  Bi  Bi24  1  0.428745  0.991445  0.172857  1
  Bi  Bi25  1  0.929196  0.492297  0.326268  1
  Bi  Bi26  1  0.571961  0.008079  0.827260  1
  Bi  Bi27  1  0.929196  0.007703  0.326268  1
  Bi  Bi28  1  0.070816  0.991876  0.673725  1
  Ru  Ru29  1  0.572285  0.750000  0.511504  1
  Ru  Ru30  1  0.071686  0.250000  0.988591  1
  Pt  Pt31  1  0.426693  0.250000  0.489302  1
