# generated using pymatgen
data_Dy3Er17(HgBi5)2
_symmetry_space_group_name_H-M   'P 1'
_cell_length_a   8.16767508
_cell_length_b   9.43313000
_cell_length_c   11.97603009
_cell_angle_alpha   90.00000000
_cell_angle_beta   90.00084562
_cell_angle_gamma   90.00000000
_symmetry_Int_Tables_number   1
_chemical_formula_structural   Dy3Er17(HgBi5)2
_chemical_formula_sum   'Dy3 Er17 Hg2 Bi10'
_cell_volume   922.71408641
_cell_formula_units_Z   1
loop_
 _symmetry_equiv_pos_site_id
 _symmetry_equiv_pos_as_xyz
  1  'x, y, z'
loop_
 _atom_site_type_symbol
 _atom_site_label
 _atom_site_symmetry_multiplicity
 _atom_site_fract_x
 _atom_site_fract_y
 _atom_site_fract_z
 _atom_site_occupancy
  Dy  Dy0  1  0.817156  0.250000  0.283430  1
  Dy  Dy1  1  0.687653  0.750000  0.781746  1
  Dy  Dy2  1  0.187518  0.750000  0.718282  1
  Er  Er3  1  0.350134  0.750000  0.216209  1
  Er  Er4  1  0.850054  0.750000  0.283675  1
  Er  Er5  1  0.646001  0.250000  0.789713  1
  Er  Er6  1  0.145826  0.250000  0.710316  1
  Er  Er7  1  0.693591  0.554975  0.059273  1
  Er  Er8  1  0.193277  0.945253  0.440550  1
  Er  Er9  1  0.312390  0.068598  0.942440  1
  Er  Er10  1  0.812303  0.431368  0.557838  1
  Er  Er11  1  0.312390  0.431402  0.942440  1
  Er  Er12  1  0.812303  0.068632  0.557838  1
  Er  Er13  1  0.693591  0.945025  0.059273  1
  Er  Er14  1  0.193277  0.554747  0.440550  1
  Er  Er15  1  0.468363  0.250000  0.490373  1
  Er  Er16  1  0.968499  0.250000  0.009804  1
  Er  Er17  1  0.521887  0.750000  0.510628  1
  Er  Er18  1  0.022225  0.750000  0.989415  1
  Er  Er19  1  0.316847  0.250000  0.216179  1
  Hg  Hg20  1  0.592879  0.250000  0.042129  1
  Hg  Hg21  1  0.094104  0.250000  0.458056  1
  Bi  Bi22  1  0.405325  0.750000  0.957588  1
  Bi  Bi23  1  0.905208  0.750000  0.542385  1
  Bi  Bi24  1  0.561982  0.996866  0.323960  1
  Bi  Bi25  1  0.063126  0.503187  0.175905  1
  Bi  Bi26  1  0.436745  0.495999  0.674864  1
  Bi  Bi27  1  0.936745  0.004062  0.825204  1
  Bi  Bi28  1  0.436745  0.004001  0.674864  1
  Bi  Bi29  1  0.936745  0.495938  0.825204  1
  Bi  Bi30  1  0.561982  0.503134  0.323960  1
  Bi  Bi31  1  0.063126  0.996813  0.175905  1
