# generated using pymatgen
data_Y8Be(Pt11Au)2
_symmetry_space_group_name_H-M   'P 1'
_cell_length_a   8.34569100
_cell_length_b   8.42097100
_cell_length_c   8.41296500
_cell_angle_alpha   90.00000000
_cell_angle_beta   90.00000000
_cell_angle_gamma   90.00000000
_symmetry_Int_Tables_number   1
_chemical_formula_structural   Y8Be(Pt11Au)2
_chemical_formula_sum   'Y8 Be1 Pt22 Au2'
_cell_volume   591.25326877
_cell_formula_units_Z   1
loop_
 _symmetry_equiv_pos_site_id
 _symmetry_equiv_pos_as_xyz
  1  'x, y, z'
loop_
 _atom_site_type_symbol
 _atom_site_label
 _atom_site_symmetry_multiplicity
 _atom_site_fract_x
 _atom_site_fract_y
 _atom_site_fract_z
 _atom_site_occupancy
  Y  Y0  1  0.251219  0.244106  0.251295  1
  Y  Y1  1  0.748605  0.747296  0.748795  1
  Y  Y2  1  0.748605  0.747296  0.251205  1
  Y  Y3  1  0.748605  0.252704  0.748795  1
  Y  Y4  1  0.251219  0.244106  0.748705  1
  Y  Y5  1  0.251219  0.755894  0.251295  1
  Y  Y6  1  0.251219  0.755894  0.748705  1
  Y  Y7  1  0.748605  0.252704  0.251205  1
  Be  Be8  1  0.999105  0.000000  0.000000  1
  Pt  Pt9  1  0.746310  0.500000  0.000000  1
  Pt  Pt10  1  0.999365  0.252796  0.500000  1
  Pt  Pt11  1  0.500613  0.253419  0.000000  1
  Pt  Pt12  1  0.999365  0.747204  0.500000  1
  Pt  Pt13  1  0.500613  0.746581  0.000000  1
  Pt  Pt14  1  0.501731  0.000000  0.254431  1
  Pt  Pt15  1  0.253187  0.000000  0.500000  1
  Pt  Pt16  1  0.501731  0.000000  0.745569  1
  Pt  Pt17  1  0.746104  0.000000  0.500000  1
  Pt  Pt18  1  0.001173  0.500000  0.253392  1
  Pt  Pt19  1  0.001173  0.500000  0.746608  1
  Pt  Pt20  1  0.749261  0.500000  0.500000  1
  Pt  Pt21  1  0.500661  0.249909  0.500000  1
  Pt  Pt22  1  0.500661  0.750091  0.500000  1
  Pt  Pt23  1  0.499221  0.500000  0.251308  1
  Pt  Pt24  1  0.499221  0.500000  0.748692  1
  Pt  Pt25  1  0.269610  0.000000  0.000000  1
  Pt  Pt26  1  0.729954  0.000000  0.000000  1
  Pt  Pt27  1  0.999850  0.267519  0.000000  1
  Pt  Pt28  1  0.999850  0.732481  0.000000  1
  Pt  Pt29  1  0.997800  0.000000  0.268343  1
  Pt  Pt30  1  0.997800  0.000000  0.731657  1
  Au  Au31  1  0.254992  0.500000  0.000000  1
  Au  Au32  1  0.251356  0.500000  0.500000  1
