# generated using pymatgen
data_Sm2DyCr(Co4P3)2
_symmetry_space_group_name_H-M   'P 1'
_cell_length_a   3.72014700
_cell_length_b   10.57597500
_cell_length_c   12.26065000
_cell_angle_alpha   90.00000000
_cell_angle_beta   90.00000000
_cell_angle_gamma   90.00000000
_symmetry_Int_Tables_number   1
_chemical_formula_structural   Sm2DyCr(Co4P3)2
_chemical_formula_sum   'Sm4 Dy2 Cr2 Co16 P12'
_cell_volume   482.38524097
_cell_formula_units_Z   2
loop_
 _symmetry_equiv_pos_site_id
 _symmetry_equiv_pos_as_xyz
  1  'x, y, z'
loop_
 _atom_site_type_symbol
 _atom_site_label
 _atom_site_symmetry_multiplicity
 _atom_site_fract_x
 _atom_site_fract_y
 _atom_site_fract_z
 _atom_site_occupancy
  Sm  Sm0  1  0.000000  0.500000  0.521855  1
  Sm  Sm1  1  0.500000  0.000000  0.477129  1
  Sm  Sm2  1  0.000000  0.682392  0.795690  1
  Sm  Sm3  1  0.000000  0.317608  0.795690  1
  Dy  Dy4  1  0.500000  0.818057  0.204150  1
  Dy  Dy5  1  0.500000  0.181943  0.204150  1
  Cr  Cr6  1  0.500000  0.500000  0.154702  1
  Cr  Cr7  1  0.000000  0.000000  0.845988  1
  Co  Co8  1  0.500000  0.500000  0.703059  1
  Co  Co9  1  0.000000  0.000000  0.295838  1
  Co  Co10  1  0.000000  0.500000  0.989367  1
  Co  Co11  1  0.500000  0.000000  0.013946  1
  Co  Co12  1  0.500000  0.331968  0.994660  1
  Co  Co13  1  0.500000  0.668032  0.994660  1
  Co  Co14  1  0.000000  0.166764  0.008523  1
  Co  Co15  1  0.000000  0.833236  0.008523  1
  Co  Co16  1  0.500000  0.295627  0.428696  1
  Co  Co17  1  0.500000  0.704373  0.428696  1
  Co  Co18  1  0.000000  0.203685  0.568467  1
  Co  Co19  1  0.000000  0.796315  0.568467  1
  Co  Co20  1  0.500000  0.880663  0.709523  1
  Co  Co21  1  0.500000  0.119337  0.709523  1
  Co  Co22  1  0.000000  0.620340  0.289427  1
  Co  Co23  1  0.000000  0.379660  0.289427  1
  P  P24  1  0.500000  0.500000  0.885441  1
  P  P25  1  0.000000  0.000000  0.117811  1
  P  P26  1  0.500000  0.500000  0.340316  1
  P  P27  1  0.000000  0.000000  0.659197  1
  P  P28  1  0.500000  0.308636  0.614322  1
  P  P29  1  0.500000  0.691364  0.614322  1
  P  P30  1  0.000000  0.190312  0.382448  1
  P  P31  1  0.000000  0.809688  0.382448  1
  P  P32  1  0.500000  0.849641  0.893841  1
  P  P33  1  0.500000  0.150359  0.893841  1
  P  P34  1  0.000000  0.652519  0.107927  1
  P  P35  1  0.000000  0.347481  0.107927  1
