# generated using pymatgen
data_PrMn4TcP3
_symmetry_space_group_name_H-M   'P 1'
_cell_length_a   3.76990900
_cell_length_b   10.77632500
_cell_length_c   12.23176000
_cell_angle_alpha   90.00000000
_cell_angle_beta   90.00000000
_cell_angle_gamma   90.00000000
_symmetry_Int_Tables_number   1
_chemical_formula_structural   PrMn4TcP3
_chemical_formula_sum   'Pr4 Mn16 Tc4 P12'
_cell_volume   496.92460246
_cell_formula_units_Z   4
loop_
 _symmetry_equiv_pos_site_id
 _symmetry_equiv_pos_as_xyz
  1  'x, y, z'
loop_
 _atom_site_type_symbol
 _atom_site_label
 _atom_site_symmetry_multiplicity
 _atom_site_fract_x
 _atom_site_fract_y
 _atom_site_fract_z
 _atom_site_occupancy
  Pr  Pr0  1  0.250000  0.588234  0.705752  1
  Pr  Pr1  1  0.250000  0.911766  0.205752  1
  Pr  Pr2  1  0.750000  0.411766  0.294248  1
  Pr  Pr3  1  0.750000  0.088234  0.794248  1
  Mn  Mn4  1  0.250000  0.410507  0.495611  1
  Mn  Mn5  1  0.250000  0.089493  0.995611  1
  Mn  Mn6  1  0.750000  0.589493  0.504389  1
  Mn  Mn7  1  0.750000  0.910507  0.004389  1
  Mn  Mn8  1  0.250000  0.209569  0.181693  1
  Mn  Mn9  1  0.250000  0.290431  0.681693  1
  Mn  Mn10  1  0.750000  0.790431  0.818307  1
  Mn  Mn11  1  0.750000  0.709569  0.318307  1
  Mn  Mn12  1  0.250000  0.884835  0.691853  1
  Mn  Mn13  1  0.250000  0.615165  0.191853  1
  Mn  Mn14  1  0.750000  0.115165  0.308147  1
  Mn  Mn15  1  0.750000  0.384835  0.808147  1
  Mn  Mn16  1  0.250000  0.466849  0.935823  1
  Mn  Mn17  1  0.250000  0.033151  0.435823  1
  Mn  Mn18  1  0.750000  0.533151  0.064177  1
  Mn  Mn19  1  0.750000  0.966849  0.564177  1
  Tc  Tc20  1  0.250000  0.709397  0.983821  1
  Tc  Tc21  1  0.250000  0.790603  0.483821  1
  Tc  Tc22  1  0.750000  0.290603  0.016179  1
  Tc  Tc23  1  0.750000  0.209397  0.516179  1
  P  P24  1  0.250000  0.411529  0.112586  1
  P  P25  1  0.250000  0.088471  0.612586  1
  P  P26  1  0.750000  0.588471  0.887414  1
  P  P27  1  0.750000  0.911529  0.387414  1
  P  P28  1  0.250000  0.269141  0.876234  1
  P  P29  1  0.250000  0.230859  0.376234  1
  P  P30  1  0.750000  0.730859  0.123766  1
  P  P31  1  0.750000  0.769141  0.623766  1
  P  P32  1  0.250000  0.596266  0.386766  1
  P  P33  1  0.250000  0.903734  0.886766  1
  P  P34  1  0.750000  0.403734  0.613234  1
  P  P35  1  0.750000  0.096266  0.113234  1
