# generated using pymatgen
data_Er3In3PtAu
_symmetry_space_group_name_H-M   'P 1'
_cell_length_a   7.74162100
_cell_length_b   7.74162172
_cell_length_c   3.64183800
_cell_angle_alpha   90.00000000
_cell_angle_beta   90.00000000
_cell_angle_gamma   120.00000118
_symmetry_Int_Tables_number   1
_chemical_formula_structural   Er3In3PtAu
_chemical_formula_sum   'Er3 In3 Pt1 Au1'
_cell_volume   189.02319627
_cell_formula_units_Z   1
loop_
 _symmetry_equiv_pos_site_id
 _symmetry_equiv_pos_as_xyz
  1  'x, y, z'
loop_
 _atom_site_type_symbol
 _atom_site_label
 _atom_site_symmetry_multiplicity
 _atom_site_fract_x
 _atom_site_fract_y
 _atom_site_fract_z
 _atom_site_occupancy
  Er  Er0  1  0.574311  0.988349  0.500000  1
  Er  Er1  1  0.414039  0.425690  0.500000  1
  Er  Er2  1  0.011651  0.585961  0.500000  1
  In  In3  1  0.229250  0.998972  0.000000  1
  In  In4  1  0.001028  0.230278  0.000000  1
  In  In5  1  0.769722  0.770751  0.000000  1
  Pt  Pt6  1  0.333333  0.666666  0.000000  1
  Au  Au7  1  0.666668  0.333334  0.000000  1
