# generated using pymatgen
data_LuPa3(ZnIr)4
_symmetry_space_group_name_H-M   'P 1'
_cell_length_a   3.97362400
_cell_length_b   6.96234273
_cell_length_c   8.28621583
_cell_angle_alpha   89.78521364
_cell_angle_beta   90.00000000
_cell_angle_gamma   90.00000000
_symmetry_Int_Tables_number   1
_chemical_formula_structural   LuPa3(ZnIr)4
_chemical_formula_sum   'Lu1 Pa3 Zn4 Ir4'
_cell_volume   229.24261700
_cell_formula_units_Z   1
loop_
 _symmetry_equiv_pos_site_id
 _symmetry_equiv_pos_as_xyz
  1  'x, y, z'
loop_
 _atom_site_type_symbol
 _atom_site_label
 _atom_site_symmetry_multiplicity
 _atom_site_fract_x
 _atom_site_fract_y
 _atom_site_fract_z
 _atom_site_occupancy
  Lu  Lu0  1  0.250000  0.052421  0.313337  1
  Pa  Pa1  1  0.250000  0.553199  0.190212  1
  Pa  Pa2  1  0.750000  0.451801  0.813473  1
  Pa  Pa3  1  0.750000  0.952161  0.680866  1
  Zn  Zn4  1  0.250000  0.622875  0.556444  1
  Zn  Zn5  1  0.750000  0.360637  0.439814  1
  Zn  Zn6  1  0.750000  0.883766  0.061581  1
  Zn  Zn7  1  0.250000  0.123011  0.946936  1
  Ir  Ir8  1  0.250000  0.734499  0.866795  1
  Ir  Ir9  1  0.750000  0.278541  0.123161  1
  Ir  Ir10  1  0.750000  0.753425  0.368894  1
  Ir  Ir11  1  0.250000  0.233663  0.638488  1
