# generated using pymatgen
data_Er3Tm9(OsRh)2
_symmetry_space_group_name_H-M   'P 1'
_cell_length_a   7.22283794
_cell_length_b   8.96956800
_cell_length_c   6.32401481
_cell_angle_alpha   90.00000000
_cell_angle_beta   89.63685243
_cell_angle_gamma   90.00000000
_symmetry_Int_Tables_number   1
_chemical_formula_structural   Er3Tm9(OsRh)2
_chemical_formula_sum   'Er3 Tm9 Os2 Rh2'
_cell_volume   409.69772506
_cell_formula_units_Z   1
loop_
 _symmetry_equiv_pos_site_id
 _symmetry_equiv_pos_as_xyz
  1  'x, y, z'
loop_
 _atom_site_type_symbol
 _atom_site_label
 _atom_site_symmetry_multiplicity
 _atom_site_fract_x
 _atom_site_fract_y
 _atom_site_fract_z
 _atom_site_occupancy
  Er  Er0  1  0.038244  0.250000  0.621381  1
  Er  Er1  1  0.961604  0.750000  0.378562  1
  Er  Er2  1  0.465183  0.750000  0.127391  1
  Tm  Tm3  1  0.535282  0.250000  0.872502  1
  Tm  Tm4  1  0.174071  0.059376  0.166403  1
  Tm  Tm5  1  0.825931  0.940918  0.833065  1
  Tm  Tm6  1  0.319824  0.935513  0.675946  1
  Tm  Tm7  1  0.825931  0.559082  0.833065  1
  Tm  Tm8  1  0.680391  0.065086  0.323789  1
  Tm  Tm9  1  0.174071  0.440624  0.166403  1
  Tm  Tm10  1  0.680391  0.434914  0.323789  1
  Tm  Tm11  1  0.319824  0.564487  0.675946  1
  Os  Os12  1  0.114469  0.750000  0.967880  1
  Os  Os13  1  0.885214  0.250000  0.031245  1
  Rh  Rh14  1  0.388243  0.250000  0.457937  1
  Rh  Rh15  1  0.611327  0.750000  0.544697  1
