# generated using pymatgen
data_Pr3Nd2CoRuO12
_symmetry_space_group_name_H-M   'P 1'
_cell_length_a   7.07164988
_cell_length_b   7.07164955
_cell_length_c   7.60040750
_cell_angle_alpha   74.37840608
_cell_angle_beta   74.37840584
_cell_angle_gamma   50.09651979
_symmetry_Int_Tables_number   1
_chemical_formula_structural   Pr3Nd2CoRuO12
_chemical_formula_sum   'Pr3 Nd2 Co1 Ru1 O12'
_cell_volume   278.39356777
_cell_formula_units_Z   1
loop_
 _symmetry_equiv_pos_site_id
 _symmetry_equiv_pos_as_xyz
  1  'x, y, z'
loop_
 _atom_site_type_symbol
 _atom_site_label
 _atom_site_symmetry_multiplicity
 _atom_site_fract_x
 _atom_site_fract_y
 _atom_site_fract_z
 _atom_site_occupancy
  Pr  Pr0  1  0.696106  0.690837  0.164334  1
  Pr  Pr1  1  0.309163  0.303894  0.835666  1
  Pr  Pr2  1  0.998296  0.001704  0.500000  1
  Nd  Nd3  1  0.315476  0.297860  0.356435  1
  Nd  Nd4  1  0.702140  0.684524  0.643565  1
  Co  Co5  1  0.747167  0.252833  0.000000  1
  Ru  Ru6  1  0.235952  0.764048  0.000000  1
  O  O7  1  0.099497  0.595021  0.575823  1
  O  O8  1  0.987699  0.011092  0.168893  1
  O  O9  1  0.404979  0.900503  0.424177  1
  O  O10  1  0.502398  0.497517  0.169552  1
  O  O11  1  0.100467  0.581948  0.079238  1
  O  O12  1  0.910446  0.401455  0.422246  1
  O  O13  1  0.988908  0.012301  0.831107  1
  O  O14  1  0.598545  0.089553  0.577754  1
  O  O15  1  0.502483  0.497602  0.830448  1
  O  O16  1  0.586739  0.104510  0.076952  1
  O  O17  1  0.418052  0.899533  0.920762  1
  O  O18  1  0.895490  0.413261  0.923048  1
