# generated using pymatgen
data_Mg4AlGePt10
_symmetry_space_group_name_H-M   'P 1'
_cell_length_a   4.09177100
_cell_length_b   5.54186833
_cell_length_c   10.88215466
_cell_angle_alpha   90.03982052
_cell_angle_beta   90.00000000
_cell_angle_gamma   90.00000000
_symmetry_Int_Tables_number   1
_chemical_formula_structural   Mg4AlGePt10
_chemical_formula_sum   'Mg4 Al1 Ge1 Pt10'
_cell_volume   246.76429030
_cell_formula_units_Z   1
loop_
 _symmetry_equiv_pos_site_id
 _symmetry_equiv_pos_as_xyz
  1  'x, y, z'
loop_
 _atom_site_type_symbol
 _atom_site_label
 _atom_site_symmetry_multiplicity
 _atom_site_fract_x
 _atom_site_fract_y
 _atom_site_fract_z
 _atom_site_occupancy
  Mg  Mg0  1  0.500000  0.182344  0.641123  1
  Mg  Mg1  1  0.500000  0.817656  0.358877  1
  Mg  Mg2  1  0.500000  0.684676  0.861135  1
  Mg  Mg3  1  0.500000  0.315324  0.138865  1
  Al  Al4  1  0.000000  0.000000  0.000000  1
  Ge  Ge5  1  0.000000  0.500000  0.500000  1
  Pt  Pt6  1  0.500000  0.303501  0.392626  1
  Pt  Pt7  1  0.500000  0.696499  0.607374  1
  Pt  Pt8  1  0.500000  0.806720  0.106695  1
  Pt  Pt9  1  0.500000  0.193280  0.893305  1
  Pt  Pt10  1  0.000000  0.439518  0.741034  1
  Pt  Pt11  1  0.000000  0.560482  0.258966  1
  Pt  Pt12  1  0.000000  0.938748  0.759527  1
  Pt  Pt13  1  0.000000  0.061252  0.240473  1
  Pt  Pt14  1  0.000000  0.500000  0.000000  1
  Pt  Pt15  1  0.000000  0.000000  0.500000  1
