# generated using pymatgen
data_Sr4AlSi6Pd
_symmetry_space_group_name_H-M   'P 1'
_cell_length_a   11.84530268
_cell_length_b   10.23154788
_cell_length_c   8.38860405
_cell_angle_alpha   78.32310508
_cell_angle_beta   57.76720675
_cell_angle_gamma   43.90969138
_symmetry_Int_Tables_number   1
_chemical_formula_structural   Sr4AlSi6Pd
_chemical_formula_sum   'Sr8 Al2 Si12 Pd2'
_cell_volume   567.03753774
_cell_formula_units_Z   2
loop_
 _symmetry_equiv_pos_site_id
 _symmetry_equiv_pos_as_xyz
  1  'x, y, z'
loop_
 _atom_site_type_symbol
 _atom_site_label
 _atom_site_symmetry_multiplicity
 _atom_site_fract_x
 _atom_site_fract_y
 _atom_site_fract_z
 _atom_site_occupancy
  Sr  Sr0  1  0.118905  0.129726  0.878987  1
  Sr  Sr1  1  0.878988  0.872384  0.118904  1
  Sr  Sr2  1  0.120275  0.131096  0.377616  1
  Sr  Sr3  1  0.377617  0.371013  0.120274  1
  Sr  Sr4  1  0.628933  0.619024  0.373797  1
  Sr  Sr5  1  0.373797  0.378247  0.628933  1
  Sr  Sr6  1  0.630977  0.621067  0.871753  1
  Sr  Sr7  1  0.871754  0.876204  0.630976  1
  Al  Al8  1  0.167911  0.832089  0.167911  1
  Al  Al9  1  0.417911  0.082089  0.417911  1
  Si  Si10  1  0.921749  0.584771  0.408780  1
  Si  Si11  1  0.069441  0.432313  0.589172  1
  Si  Si12  1  0.408780  0.084699  0.921749  1
  Si  Si13  1  0.589172  0.909075  0.069441  1
  Si  Si14  1  0.340925  0.660828  0.817687  1
  Si  Si15  1  0.665229  0.328251  0.165301  1
  Si  Si16  1  0.817687  0.180559  0.340925  1
  Si  Si17  1  0.165301  0.841220  0.665229  1
  Si  Si18  1  0.919232  0.580769  0.919231  1
  Si  Si19  1  0.590364  0.909637  0.590363  1
  Si  Si20  1  0.340364  0.659637  0.340364  1
  Si  Si21  1  0.669231  0.330769  0.669231  1
  Pd  Pd22  1  0.082731  0.417269  0.082731  1
  Pd  Pd23  1  0.832731  0.167269  0.832731  1
