# generated using pymatgen
data_TbCe3Ho6(SiB4)4
_symmetry_space_group_name_H-M   'P 1'
_cell_length_a   7.25211309
_cell_length_b   7.25211252
_cell_length_c   8.16402100
_cell_angle_alpha   89.99758446
_cell_angle_beta   89.99758555
_cell_angle_gamma   90.14813557
_symmetry_Int_Tables_number   1
_chemical_formula_structural   TbCe3Ho6(SiB4)4
_chemical_formula_sum   'Tb1 Ce3 Ho6 Si4 B16'
_cell_volume   429.37006456
_cell_formula_units_Z   1
loop_
 _symmetry_equiv_pos_site_id
 _symmetry_equiv_pos_as_xyz
  1  'x, y, z'
loop_
 _atom_site_type_symbol
 _atom_site_label
 _atom_site_symmetry_multiplicity
 _atom_site_fract_x
 _atom_site_fract_y
 _atom_site_fract_z
 _atom_site_occupancy
  Tb  Tb0  1  0.681560  0.181560  0.777961  1
  Ce  Ce1  1  0.681858  0.181858  0.229019  1
  Ce  Ce2  1  0.317520  0.817520  0.770801  1
  Ce  Ce3  1  0.318376  0.818376  0.229756  1
  Ho  Ho4  1  0.819937  0.679906  0.220378  1
  Ho  Ho5  1  0.819766  0.680272  0.779466  1
  Ho  Ho6  1  0.180272  0.319766  0.779466  1
  Ho  Ho7  1  0.179906  0.319937  0.220378  1
  Ho  Ho8  1  0.999286  0.000916  0.500453  1
  Ho  Ho9  1  0.500916  0.499286  0.500453  1
  Si  Si10  1  0.113929  0.613929  0.500594  1
  Si  Si11  1  0.884397  0.384397  0.500895  1
  Si  Si12  1  0.384815  0.115769  0.501204  1
  Si  Si13  1  0.615769  0.884815  0.501204  1
  B  B14  1  0.172370  0.038979  0.998833  1
  B  B15  1  0.827282  0.961337  0.999432  1
  B  B16  1  0.960049  0.172464  0.999185  1
  B  B17  1  0.328344  0.539297  0.998980  1
  B  B18  1  0.039297  0.828344  0.998980  1
  B  B19  1  0.672464  0.460049  0.999185  1
  B  B20  1  0.538979  0.672370  0.998833  1
  B  B21  1  0.461337  0.327282  0.999432  1
  B  B22  1  0.091184  0.591184  0.999144  1
  B  B23  1  0.909105  0.409105  0.000682  1
  B  B24  1  0.409735  0.090479  0.999523  1
  B  B25  1  0.590479  0.909735  0.999523  1
  B  B26  1  0.999802  0.000159  0.160248  1
  B  B27  1  0.000675  0.000433  0.837873  1
  B  B28  1  0.500433  0.500675  0.837873  1
  B  B29  1  0.500159  0.499802  0.160248  1
