# generated using pymatgen
data_Hf13Nb3(Fe2N)4
_symmetry_space_group_name_H-M   'P 1'
_cell_length_a   8.46655550
_cell_length_b   8.46655511
_cell_length_c   8.45029783
_cell_angle_alpha   59.93633548
_cell_angle_beta   59.93633420
_cell_angle_gamma   59.99999716
_symmetry_Int_Tables_number   1
_chemical_formula_structural   Hf13Nb3(Fe2N)4
_chemical_formula_sum   'Hf13 Nb3 Fe8 N4'
_cell_volume   427.90948751
_cell_formula_units_Z   1
loop_
 _symmetry_equiv_pos_site_id
 _symmetry_equiv_pos_as_xyz
  1  'x, y, z'
loop_
 _atom_site_type_symbol
 _atom_site_label
 _atom_site_symmetry_multiplicity
 _atom_site_fract_x
 _atom_site_fract_y
 _atom_site_fract_z
 _atom_site_occupancy
  Hf  Hf0  1  0.625000  0.625000  0.125000  1
  Hf  Hf1  1  0.813503  0.813503  0.187298  1
  Hf  Hf2  1  0.187554  0.187554  0.812050  1
  Hf  Hf3  1  0.812843  0.187554  0.812050  1
  Hf  Hf4  1  0.185696  0.813503  0.187298  1
  Hf  Hf5  1  0.187554  0.812843  0.812050  1
  Hf  Hf6  1  0.813503  0.185696  0.187298  1
  Hf  Hf7  1  0.436497  0.436497  0.062702  1
  Hf  Hf8  1  0.062446  0.062446  0.437950  1
  Hf  Hf9  1  0.437157  0.062446  0.437950  1
  Hf  Hf10  1  0.064304  0.436497  0.062702  1
  Hf  Hf11  1  0.062446  0.437157  0.437950  1
  Hf  Hf12  1  0.436497  0.064304  0.062702  1
  Nb  Nb13  1  0.125000  0.625000  0.625000  1
  Nb  Nb14  1  0.625000  0.125000  0.625000  1
  Nb  Nb15  1  0.625000  0.625000  0.625000  1
  Fe  Fe16  1  0.748572  0.414021  0.423387  1
  Fe  Fe17  1  0.414021  0.748572  0.423387  1
  Fe  Fe18  1  0.417875  0.417875  0.746377  1
  Fe  Fe19  1  0.414021  0.414021  0.423387  1
  Fe  Fe20  1  0.501428  0.835979  0.826613  1
  Fe  Fe21  1  0.835979  0.501428  0.826613  1
  Fe  Fe22  1  0.832125  0.832125  0.503623  1
  Fe  Fe23  1  0.835979  0.835979  0.826613  1
  N  N24  1  0.625000  0.125000  0.125000  1
  N  N25  1  0.125000  0.625000  0.125000  1
  N  N26  1  0.125000  0.125000  0.625000  1
  N  N27  1  0.125000  0.125000  0.125000  1
