# generated using pymatgen
data_KSr(RuO3)2
_symmetry_space_group_name_H-M   'P 1'
_cell_length_a   5.70648121
_cell_length_b   9.62452701
_cell_length_c   5.70644301
_cell_angle_alpha   89.99524251
_cell_angle_beta   119.99812622
_cell_angle_gamma   90.00006457
_symmetry_Int_Tables_number   1
_chemical_formula_structural   KSr(RuO3)2
_chemical_formula_sum   'K2 Sr2 Ru4 O12'
_cell_volume   271.42640872
_cell_formula_units_Z   2
loop_
 _symmetry_equiv_pos_site_id
 _symmetry_equiv_pos_as_xyz
  1  'x, y, z'
loop_
 _atom_site_type_symbol
 _atom_site_label
 _atom_site_symmetry_multiplicity
 _atom_site_fract_x
 _atom_site_fract_y
 _atom_site_fract_z
 _atom_site_occupancy
  K  K0  1  0.000002  0.500013  0.000002  1
  K  K1  1  0.999996  0.000052  0.999998  1
  Sr  Sr2  1  0.666685  0.750289  0.333380  1
  Sr  Sr3  1  0.333316  0.249759  0.666619  1
  Ru  Ru4  1  0.333330  0.892664  0.666676  1
  Ru  Ru5  1  0.333334  0.607168  0.666678  1
  Ru  Ru6  1  0.666665  0.106309  0.333318  1
  Ru  Ru7  1  0.666670  0.393775  0.333328  1
  O  O8  1  0.499936  0.500081  0.500071  1
  O  O9  1  0.499933  0.500081  0.999867  1
  O  O10  1  0.000137  0.500081  0.500068  1
  O  O11  1  0.499992  0.999918  0.500004  1
  O  O12  1  0.499990  0.999919  0.999983  1
  O  O13  1  0.000011  0.999917  0.500003  1
  O  O14  1  0.185084  0.749927  0.814929  1
  O  O15  1  0.185097  0.749942  0.370194  1
  O  O16  1  0.629826  0.749929  0.814921  1
  O  O17  1  0.814128  0.250064  0.185858  1
  O  O18  1  0.814119  0.250049  0.628231  1
  O  O19  1  0.371751  0.250064  0.185872  1
