# generated using pymatgen
data_Tb15ThTl3InRh4
_symmetry_space_group_name_H-M   'P 1'
_cell_length_a   9.75120449
_cell_length_b   9.75440953
_cell_length_c   9.68139100
_cell_angle_alpha   60.24732077
_cell_angle_beta   60.23655559
_cell_angle_gamma   59.97092051
_symmetry_Int_Tables_number   1
_chemical_formula_structural   Tb15ThTl3InRh4
_chemical_formula_sum   'Tb15 Th1 Tl3 In1 Rh4'
_cell_volume   653.37769553
_cell_formula_units_Z   1
loop_
 _symmetry_equiv_pos_site_id
 _symmetry_equiv_pos_as_xyz
  1  'x, y, z'
loop_
 _atom_site_type_symbol
 _atom_site_label
 _atom_site_symmetry_multiplicity
 _atom_site_fract_x
 _atom_site_fract_y
 _atom_site_fract_z
 _atom_site_occupancy
  Tb  Tb0  1  0.813521  0.193760  0.805939  1
  Tb  Tb1  1  0.189744  0.189187  0.810535  1
  Tb  Tb2  1  0.650745  0.048791  0.650232  1
  Tb  Tb3  1  0.060895  0.062669  0.438218  1
  Tb  Tb4  1  0.435479  0.435269  0.064626  1
  Tb  Tb5  1  0.647925  0.647298  0.656059  1
  Tb  Tb6  1  0.813521  0.193760  0.186778  1
  Tb  Tb7  1  0.193713  0.812896  0.807036  1
  Tb  Tb8  1  0.048693  0.650412  0.650448  1
  Tb  Tb9  1  0.440810  0.059698  0.059293  1
  Tb  Tb10  1  0.440810  0.059698  0.440200  1
  Tb  Tb11  1  0.059263  0.440117  0.060589  1
  Tb  Tb12  1  0.647925  0.647298  0.048717  1
  Tb  Tb13  1  0.193713  0.812896  0.186354  1
  Tb  Tb14  1  0.059263  0.440117  0.440032  1
  Th  Th15  1  0.815745  0.814209  0.185023  1
  Tl  Tl16  1  0.416008  0.414642  0.414399  1
  Tl  Tl17  1  0.416008  0.414642  0.754950  1
  Tl  Tl18  1  0.412907  0.754604  0.416243  1
  In  In19  1  0.749526  0.414193  0.418140  1
  Rh  Rh20  1  0.860004  0.428635  0.855680  1
  Rh  Rh21  1  0.852464  0.852604  0.874322  1
  Rh  Rh22  1  0.852464  0.852604  0.420610  1
  Rh  Rh23  1  0.428850  0.860000  0.855575  1
