# generated using pymatgen
data_Lu5In4PdAu
_symmetry_space_group_name_H-M   'P 1'
_cell_length_a   3.60656200
_cell_length_b   8.05110443
_cell_length_c   18.01017447
_cell_angle_alpha   90.08919256
_cell_angle_beta   90.00000000
_cell_angle_gamma   90.00000000
_symmetry_Int_Tables_number   1
_chemical_formula_structural   Lu5In4PdAu
_chemical_formula_sum   'Lu10 In8 Pd2 Au2'
_cell_volume   522.95733194
_cell_formula_units_Z   2
loop_
 _symmetry_equiv_pos_site_id
 _symmetry_equiv_pos_as_xyz
  1  'x, y, z'
loop_
 _atom_site_type_symbol
 _atom_site_label
 _atom_site_symmetry_multiplicity
 _atom_site_fract_x
 _atom_site_fract_y
 _atom_site_fract_z
 _atom_site_occupancy
  Lu  Lu0  1  0.000000  0.500000  0.500000  1
  Lu  Lu1  1  0.000000  0.000000  0.000000  1
  Lu  Lu2  1  0.000000  0.749431  0.282845  1
  Lu  Lu3  1  0.000000  0.250569  0.717155  1
  Lu  Lu4  1  0.000000  0.768743  0.778983  1
  Lu  Lu5  1  0.000000  0.231257  0.221017  1
  Lu  Lu6  1  0.000000  0.617914  0.081406  1
  Lu  Lu7  1  0.000000  0.382086  0.918594  1
  Lu  Lu8  1  0.000000  0.885388  0.582922  1
  Lu  Lu9  1  0.000000  0.114612  0.417078  1
  In  In10  1  0.500000  0.711472  0.933857  1
  In  In11  1  0.500000  0.288528  0.066143  1
  In  In12  1  0.500000  0.790507  0.433738  1
  In  In13  1  0.500000  0.209493  0.566262  1
  In  In14  1  0.500000  0.584139  0.646008  1
  In  In15  1  0.500000  0.415861  0.353992  1
  In  In16  1  0.500000  0.921993  0.148218  1
  In  In17  1  0.500000  0.078007  0.851782  1
  Pd  Pd18  1  0.500000  0.972984  0.694848  1
  Pd  Pd19  1  0.500000  0.027016  0.305152  1
  Au  Au20  1  0.500000  0.525116  0.198461  1
  Au  Au21  1  0.500000  0.474884  0.801539  1
