# generated using pymatgen
data_Zr20(TlSb3)3
_symmetry_space_group_name_H-M   'P 1'
_cell_length_a   5.65547200
_cell_length_b   8.46902888
_cell_length_c   15.98750100
_cell_angle_alpha   90.00000000
_cell_angle_beta   90.00000000
_cell_angle_gamma   109.50120642
_symmetry_Int_Tables_number   1
_chemical_formula_structural   Zr20(TlSb3)3
_chemical_formula_sum   'Zr20 Tl3 Sb9'
_cell_volume   721.81577429
_cell_formula_units_Z   1
loop_
 _symmetry_equiv_pos_site_id
 _symmetry_equiv_pos_as_xyz
  1  'x, y, z'
loop_
 _atom_site_type_symbol
 _atom_site_label
 _atom_site_symmetry_multiplicity
 _atom_site_fract_x
 _atom_site_fract_y
 _atom_site_fract_z
 _atom_site_occupancy
  Zr  Zr0  1  0.427129  0.850758  0.348555  1
  Zr  Zr1  1  0.927423  0.854365  0.849297  1
  Zr  Zr2  1  0.073094  0.145629  0.150724  1
  Zr  Zr3  1  0.576384  0.149245  0.651412  1
  Zr  Zr4  1  0.649597  0.300872  0.074513  1
  Zr  Zr5  1  0.151276  0.303565  0.573663  1
  Zr  Zr6  1  0.847711  0.696422  0.426311  1
  Zr  Zr7  1  0.348733  0.699139  0.925508  1
  Zr  Zr8  1  0.850403  0.699128  0.074513  1
  Zr  Zr9  1  0.348724  0.696435  0.573663  1
  Zr  Zr10  1  0.652289  0.303578  0.426311  1
  Zr  Zr11  1  0.151267  0.300861  0.925508  1
  Zr  Zr12  1  0.072871  0.149242  0.348555  1
  Zr  Zr13  1  0.572577  0.145635  0.849297  1
  Zr  Zr14  1  0.426906  0.854371  0.150724  1
  Zr  Zr15  1  0.923616  0.850755  0.651412  1
  Zr  Zr16  1  0.500532  0.502783  0.249125  1
  Zr  Zr17  1  0.997760  0.497234  0.750870  1
  Zr  Zr18  1  0.999468  0.497217  0.249125  1
  Zr  Zr19  1  0.502240  0.502766  0.750870  1
  Tl  Tl20  1  0.750000  0.000000  0.499976  1
  Tl  Tl21  1  0.750000  0.000000  0.000021  1
  Tl  Tl22  1  0.250000  0.000000  0.499977  1
  Sb  Sb23  1  0.916070  0.827687  0.251094  1
  Sb  Sb24  1  0.411647  0.827713  0.748943  1
  Sb  Sb25  1  0.583930  0.172313  0.251094  1
  Sb  Sb26  1  0.088353  0.172287  0.748943  1
  Sb  Sb27  1  0.250000  0.500000  0.085780  1
  Sb  Sb28  1  0.750000  0.500000  0.586792  1
  Sb  Sb29  1  0.250000  0.500000  0.413179  1
  Sb  Sb30  1  0.750000  0.500000  0.914232  1
  Sb  Sb31  1  0.250000  0.000000  0.000010  1
