# generated using pymatgen
data_Tb5TaCrO12
_symmetry_space_group_name_H-M   'P 1'
_cell_length_a   6.86316904
_cell_length_b   6.86316860
_cell_length_c   7.35606868
_cell_angle_alpha   74.37547065
_cell_angle_beta   74.37546277
_cell_angle_gamma   51.07579539
_symmetry_Int_Tables_number   1
_chemical_formula_structural   Tb5TaCrO12
_chemical_formula_sum   'Tb5 Ta1 Cr1 O12'
_cell_volume   257.27515961
_cell_formula_units_Z   1
loop_
 _symmetry_equiv_pos_site_id
 _symmetry_equiv_pos_as_xyz
  1  'x, y, z'
loop_
 _atom_site_type_symbol
 _atom_site_label
 _atom_site_symmetry_multiplicity
 _atom_site_fract_x
 _atom_site_fract_y
 _atom_site_fract_z
 _atom_site_occupancy
  Tb  Tb0  1  0.697087  0.687302  0.669657  1
  Tb  Tb1  1  0.704282  0.690387  0.140050  1
  Tb  Tb2  1  0.997884  0.002116  0.000000  1
  Tb  Tb3  1  0.309613  0.295718  0.859950  1
  Tb  Tb4  1  0.312698  0.302913  0.330343  1
  Ta  Ta5  1  0.225402  0.774598  0.500000  1
  Cr  Cr6  1  0.741685  0.258315  0.500000  1
  O  O7  1  0.407220  0.898916  0.924036  1
  O  O8  1  0.582212  0.099598  0.581329  1
  O  O9  1  0.900402  0.417788  0.418671  1
  O  O10  1  0.101084  0.592780  0.075964  1
  O  O11  1  0.992121  0.007756  0.314975  1
  O  O12  1  0.497750  0.502977  0.682414  1
  O  O13  1  0.907405  0.400147  0.925749  1
  O  O14  1  0.101454  0.567421  0.582347  1
  O  O15  1  0.432579  0.898546  0.417653  1
  O  O16  1  0.599853  0.092595  0.074251  1
  O  O17  1  0.497023  0.502250  0.317586  1
  O  O18  1  0.992244  0.007879  0.685025  1
