# generated using pymatgen
data_LiPrCdCu9
_symmetry_space_group_name_H-M   'P 1'
_cell_length_a   5.08969400
_cell_length_b   5.08969324
_cell_length_c   16.24584900
_cell_angle_alpha   90.00000000
_cell_angle_beta   90.00000000
_cell_angle_gamma   119.99999195
_symmetry_Int_Tables_number   1
_chemical_formula_structural   LiPrCdCu9
_chemical_formula_sum   'Li2 Pr2 Cd2 Cu18'
_cell_volume   364.46544546
_cell_formula_units_Z   2
loop_
 _symmetry_equiv_pos_site_id
 _symmetry_equiv_pos_as_xyz
  1  'x, y, z'
loop_
 _atom_site_type_symbol
 _atom_site_label
 _atom_site_symmetry_multiplicity
 _atom_site_fract_x
 _atom_site_fract_y
 _atom_site_fract_z
 _atom_site_occupancy
  Li  Li0  1  0.666667  0.333333  0.472348  1
  Li  Li1  1  0.333333  0.666667  0.972348  1
  Pr  Pr2  1  0.666667  0.333333  0.246034  1
  Pr  Pr3  1  0.333333  0.666667  0.746034  1
  Cd  Cd4  1  0.666667  0.333333  0.028925  1
  Cd  Cd5  1  0.333333  0.666667  0.528925  1
  Cu  Cu6  1  0.333333  0.666667  0.251005  1
  Cu  Cu7  1  0.666667  0.333333  0.751005  1
  Cu  Cu8  1  0.168051  0.831949  0.377393  1
  Cu  Cu9  1  0.168051  0.336103  0.377393  1
  Cu  Cu10  1  0.000000  0.000000  0.751264  1
  Cu  Cu11  1  0.000000  0.000000  0.251264  1
  Cu  Cu12  1  0.000000  0.000000  0.999999  1
  Cu  Cu13  1  0.000000  0.000000  0.499999  1
  Cu  Cu14  1  0.168047  0.336094  0.122749  1
  Cu  Cu15  1  0.831953  0.168047  0.622749  1
  Cu  Cu16  1  0.336094  0.168047  0.622749  1
  Cu  Cu17  1  0.663906  0.831953  0.122749  1
  Cu  Cu18  1  0.168047  0.831953  0.122749  1
  Cu  Cu19  1  0.831949  0.663897  0.877393  1
  Cu  Cu20  1  0.831949  0.168051  0.877393  1
  Cu  Cu21  1  0.831953  0.663906  0.622749  1
  Cu  Cu22  1  0.336103  0.168051  0.877393  1
  Cu  Cu23  1  0.663897  0.831949  0.377393  1
