# generated using pymatgen
data_Dy3Y3TaCo17P12
_symmetry_space_group_name_H-M   'P 1'
_cell_length_a   3.70077300
_cell_length_b   10.57204700
_cell_length_c   12.26535700
_cell_angle_alpha   90.00038121
_cell_angle_beta   90.00000000
_cell_angle_gamma   90.00000000
_symmetry_Int_Tables_number   1
_chemical_formula_structural   Dy3Y3TaCo17P12
_chemical_formula_sum   'Dy3 Y3 Ta1 Co17 P12'
_cell_volume   479.87897835
_cell_formula_units_Z   1
loop_
 _symmetry_equiv_pos_site_id
 _symmetry_equiv_pos_as_xyz
  1  'x, y, z'
loop_
 _atom_site_type_symbol
 _atom_site_label
 _atom_site_symmetry_multiplicity
 _atom_site_fract_x
 _atom_site_fract_y
 _atom_site_fract_z
 _atom_site_occupancy
  Dy  Dy0  1  0.500000  0.819954  0.207140  1
  Dy  Dy1  1  0.500000  0.180050  0.207134  1
  Dy  Dy2  1  0.000000  0.317226  0.795993  1
  Y  Y3  1  0.000000  0.500003  0.526656  1
  Y  Y4  1  0.500000  0.999990  0.477847  1
  Y  Y5  1  0.000000  0.682786  0.795972  1
  Ta  Ta6  1  0.500000  0.499993  0.154142  1
  Co  Co7  1  0.000000  0.000008  0.838871  1
  Co  Co8  1  0.500000  0.499959  0.701974  1
  Co  Co9  1  0.000000  0.999999  0.296694  1
  Co  Co10  1  0.000000  0.499983  0.985332  1
  Co  Co11  1  0.500000  0.000003  0.014241  1
  Co  Co12  1  0.500000  0.330262  0.990167  1
  Co  Co13  1  0.500000  0.669733  0.990186  1
  Co  Co14  1  0.000000  0.163928  0.004032  1
  Co  Co15  1  0.000000  0.836089  0.004045  1
  Co  Co16  1  0.500000  0.295290  0.432463  1
  Co  Co17  1  0.500000  0.704713  0.432467  1
  Co  Co18  1  0.000000  0.202553  0.569681  1
  Co  Co19  1  0.000000  0.797455  0.569667  1
  Co  Co20  1  0.500000  0.879709  0.708407  1
  Co  Co21  1  0.500000  0.120310  0.708420  1
  Co  Co22  1  0.000000  0.622323  0.293150  1
  Co  Co23  1  0.000000  0.377677  0.293150  1
  P  P24  1  0.500000  0.499962  0.880668  1
  P  P25  1  0.000000  0.000000  0.117086  1
  P  P26  1  0.500000  0.499998  0.356000  1
  P  P27  1  0.000000  0.000004  0.656055  1
  P  P28  1  0.500000  0.309691  0.617088  1
  P  P29  1  0.500000  0.690304  0.617058  1
  P  P30  1  0.000000  0.188502  0.385686  1
  P  P31  1  0.000000  0.811499  0.385689  1
  P  P32  1  0.500000  0.851259  0.890234  1
  P  P33  1  0.500000  0.148782  0.890218  1
  P  P34  1  0.000000  0.661112  0.103196  1
  P  P35  1  0.000000  0.338890  0.103193  1
