# generated using pymatgen
data_NiI35
_symmetry_space_group_name_H-M   'P 1'
_cell_length_a   17.58017498
_cell_length_b   12.54030950
_cell_length_c   11.87107100
_cell_angle_alpha   88.81408644
_cell_angle_beta   66.02770740
_cell_angle_gamma   92.31545562
_symmetry_Int_Tables_number   1
_chemical_formula_structural   NiI35
_chemical_formula_sum   'Ni1 I35'
_cell_volume   2387.43274716
_cell_formula_units_Z   1
loop_
 _symmetry_equiv_pos_site_id
 _symmetry_equiv_pos_as_xyz
  1  'x, y, z'
loop_
 _atom_site_type_symbol
 _atom_site_label
 _atom_site_symmetry_multiplicity
 _atom_site_fract_x
 _atom_site_fract_y
 _atom_site_fract_z
 _atom_site_occupancy
  Ni  Ni0  1  0.212492  0.439933  0.448060  1
  I  I1  1  0.511056  0.290799  0.542506  1
  I  I2  1  0.753164  0.576313  0.585263  1
  I  I3  1  0.464907  0.697842  0.735768  1
  I  I4  1  0.083317  0.908719  0.816189  1
  I  I5  1  0.886845  0.139849  0.051281  1
  I  I6  1  0.642205  0.325888  0.290137  1
  I  I7  1  0.601388  0.310625  0.856058  1
  I  I8  1  0.325349  0.795193  0.707114  1
  I  I9  1  0.303114  0.563899  0.252920  1
  I  I10  1  0.656127  0.103687  0.810365  1
  I  I11  1  0.915006  0.546809  0.378311  1
  I  I12  1  0.088943  0.960762  0.574078  1
  I  I13  1  0.889869  0.089769  0.296997  1
  I  I14  1  0.875068  0.198039  0.824405  1
  I  I15  1  0.638211  0.061418  0.240778  1
  I  I16  1  0.059149  0.836805  0.069484  1
  I  I17  1  0.351963  0.018819  0.752438  1
  I  I18  1  0.897183  0.310941  0.343242  1
  I  I19  1  0.900989  0.917465  0.660082  1
  I  I20  1  0.000651  0.642646  0.743039  1
  I  I21  1  0.308036  0.035951  0.234014  1
  I  I22  1  0.276782  0.305472  0.282964  1
  I  I23  1  0.593225  0.596232  0.793649  1
  I  I24  1  0.078618  0.477674  0.416241  1
  I  I25  1  0.725531  0.875279  0.757876  1
  I  I26  1  0.928735  0.423642  0.795283  1
  I  I27  1  0.476412  0.047875  0.239503  1
  I  I28  1  0.142377  0.268381  0.570998  1
  I  I29  1  0.694022  0.794720  0.256970  1
  I  I30  1  0.876439  0.811839  0.165662  1
  I  I31  1  0.382138  0.243329  0.789121  1
  I  I32  1  0.331518  0.465261  0.546264  1
  I  I33  1  0.663763  0.557785  0.267501  1
  I  I34  1  0.174615  0.567585  0.642424  1
  I  I35  1  0.290795  0.792757  0.263019  1
