# generated using pymatgen
data_Y10IrRu2Rh
_symmetry_space_group_name_H-M   'P 1'
_cell_length_a   6.44523303
_cell_length_b   7.29575577
_cell_length_c   8.54674045
_cell_angle_alpha   96.62721905
_cell_angle_beta   112.05670007
_cell_angle_gamma   90.10140517
_symmetry_Int_Tables_number   1
_chemical_formula_structural   Y10IrRu2Rh
_chemical_formula_sum   'Y10 Ir1 Ru2 Rh1'
_cell_volume   369.54537089
_cell_formula_units_Z   1
loop_
 _symmetry_equiv_pos_site_id
 _symmetry_equiv_pos_as_xyz
  1  'x, y, z'
loop_
 _atom_site_type_symbol
 _atom_site_label
 _atom_site_symmetry_multiplicity
 _atom_site_fract_x
 _atom_site_fract_y
 _atom_site_fract_z
 _atom_site_occupancy
  Y  Y0  1  0.979908  0.917569  0.185689  1
  Y  Y1  1  0.793476  0.583340  0.813092  1
  Y  Y2  1  0.022983  0.085439  0.815212  1
  Y  Y3  1  0.208327  0.413675  0.184627  1
  Y  Y4  1  0.644561  0.818704  0.436707  1
  Y  Y5  1  0.211853  0.683095  0.565827  1
  Y  Y6  1  0.351670  0.183848  0.562633  1
  Y  Y7  1  0.789432  0.315107  0.437745  1
  Y  Y8  1  0.423080  0.750618  0.998924  1
  Y  Y9  1  0.574797  0.248789  0.999440  1
  Ir  Ir10  1  0.603438  0.923097  0.778800  1
  Ru  Ru11  1  0.175647  0.425514  0.779616  1
  Ru  Ru12  1  0.395648  0.075075  0.219955  1
  Rh  Rh13  1  0.825179  0.576128  0.221733  1
