# generated using pymatgen
data_Pr2Er4FeCo17P12
_symmetry_space_group_name_H-M   'P 1'
_cell_length_a   3.72299800
_cell_length_b   10.57405700
_cell_length_c   12.24453000
_cell_angle_alpha   90.00000000
_cell_angle_beta   90.00000000
_cell_angle_gamma   90.00000000
_symmetry_Int_Tables_number   1
_chemical_formula_structural   Pr2Er4FeCo17P12
_chemical_formula_sum   'Pr2 Er4 Fe1 Co17 P12'
_cell_volume   482.03277647
_cell_formula_units_Z   1
loop_
 _symmetry_equiv_pos_site_id
 _symmetry_equiv_pos_as_xyz
  1  'x, y, z'
loop_
 _atom_site_type_symbol
 _atom_site_label
 _atom_site_symmetry_multiplicity
 _atom_site_fract_x
 _atom_site_fract_y
 _atom_site_fract_z
 _atom_site_occupancy
  Pr  Pr0  1  0.750000  0.250000  0.477758  1
  Pr  Pr1  1  0.250000  0.750000  0.522579  1
  Er  Er2  1  0.250000  0.931958  0.795512  1
  Er  Er3  1  0.250000  0.568042  0.795512  1
  Er  Er4  1  0.750000  0.067775  0.203979  1
  Er  Er5  1  0.750000  0.432225  0.203979  1
  Fe  Fe6  1  0.250000  0.250000  0.845295  1
  Co  Co7  1  0.750000  0.750000  0.156119  1
  Co  Co8  1  0.250000  0.250000  0.293094  1
  Co  Co9  1  0.750000  0.750000  0.707236  1
  Co  Co10  1  0.750000  0.250000  0.013354  1
  Co  Co11  1  0.250000  0.750000  0.987093  1
  Co  Co12  1  0.250000  0.417193  0.005302  1
  Co  Co13  1  0.250000  0.082807  0.005302  1
  Co  Co14  1  0.750000  0.583164  0.994400  1
  Co  Co15  1  0.750000  0.916836  0.994400  1
  Co  Co16  1  0.250000  0.453980  0.571181  1
  Co  Co17  1  0.250000  0.046020  0.571181  1
  Co  Co18  1  0.750000  0.546325  0.428254  1
  Co  Co19  1  0.750000  0.953675  0.428254  1
  Co  Co20  1  0.250000  0.870620  0.286702  1
  Co  Co21  1  0.250000  0.629380  0.286702  1
  Co  Co22  1  0.750000  0.128798  0.713241  1
  Co  Co23  1  0.750000  0.371202  0.713241  1
  P  P24  1  0.250000  0.250000  0.116222  1
  P  P25  1  0.750000  0.750000  0.883841  1
  P  P26  1  0.250000  0.250000  0.662428  1
  P  P27  1  0.750000  0.750000  0.338460  1
  P  P28  1  0.250000  0.443089  0.381375  1
  P  P29  1  0.250000  0.056911  0.381375  1
  P  P30  1  0.750000  0.556737  0.618418  1
  P  P31  1  0.750000  0.943263  0.618418  1
  P  P32  1  0.250000  0.903868  0.105920  1
  P  P33  1  0.250000  0.596132  0.105920  1
  P  P34  1  0.750000  0.096464  0.893977  1
  P  P35  1  0.750000  0.403536  0.893977  1
