# generated using pymatgen
data_SrAc(BIr)4
_symmetry_space_group_name_H-M   'P 1'
_cell_length_a   7.21030010
_cell_length_b   6.22207816
_cell_length_c   5.67264139
_cell_angle_alpha   74.46631372
_cell_angle_beta   56.24512465
_cell_angle_gamma   49.28855618
_symmetry_Int_Tables_number   1
_chemical_formula_structural   SrAc(BIr)4
_chemical_formula_sum   'Sr1 Ac1 B4 Ir4'
_cell_volume   158.56868588
_cell_formula_units_Z   1
loop_
 _symmetry_equiv_pos_site_id
 _symmetry_equiv_pos_as_xyz
  1  'x, y, z'
loop_
 _atom_site_type_symbol
 _atom_site_label
 _atom_site_symmetry_multiplicity
 _atom_site_fract_x
 _atom_site_fract_y
 _atom_site_fract_z
 _atom_site_occupancy
  Sr  Sr0  1  0.750000  0.750000  0.750000  1
  Ac  Ac1  1  0.500000  0.500000  0.500000  1
  B  B2  1  0.827069  0.172931  0.827069  1
  B  B3  1  0.073529  0.426471  0.073529  1
  B  B4  1  0.172931  0.827069  0.172931  1
  B  B5  1  0.426471  0.073529  0.426471  1
  Ir  Ir6  1  0.131584  0.131584  0.868416  1
  Ir  Ir7  1  0.379484  0.379484  0.120516  1
  Ir  Ir8  1  0.120516  0.120516  0.379484  1
  Ir  Ir9  1  0.868416  0.868416  0.131584  1
