# generated using pymatgen
data_Tb2Y2AsI6
_symmetry_space_group_name_H-M   'P 1'
_cell_length_a   4.26454000
_cell_length_b   13.95548100
_cell_length_c   14.74507700
_cell_angle_alpha   90.00000000
_cell_angle_beta   90.00000000
_cell_angle_gamma   90.00000000
_symmetry_Int_Tables_number   1
_chemical_formula_structural   Tb2Y2AsI6
_chemical_formula_sum   'Tb4 Y4 As2 I12'
_cell_volume   877.53419144
_cell_formula_units_Z   2
loop_
 _symmetry_equiv_pos_site_id
 _symmetry_equiv_pos_as_xyz
  1  'x, y, z'
loop_
 _atom_site_type_symbol
 _atom_site_label
 _atom_site_symmetry_multiplicity
 _atom_site_fract_x
 _atom_site_fract_y
 _atom_site_fract_z
 _atom_site_occupancy
  Tb  Tb0  1  0.000000  0.109931  0.573264  1
  Tb  Tb1  1  0.000000  0.890069  0.426736  1
  Tb  Tb2  1  0.000000  0.609931  0.926736  1
  Tb  Tb3  1  0.000000  0.390069  0.073264  1
  Y  Y4  1  0.500000  0.114870  0.347298  1
  Y  Y5  1  0.500000  0.885130  0.652702  1
  Y  Y6  1  0.500000  0.614870  0.152702  1
  Y  Y7  1  0.500000  0.385130  0.847298  1
  As  As8  1  0.500000  0.000000  0.500000  1
  As  As9  1  0.500000  0.500000  0.000000  1
  I  I10  1  0.500000  0.245499  0.160788  1
  I  I11  1  0.500000  0.754501  0.839212  1
  I  I12  1  0.500000  0.745499  0.339212  1
  I  I13  1  0.500000  0.254501  0.660788  1
  I  I14  1  0.000000  0.258756  0.413994  1
  I  I15  1  0.000000  0.741244  0.586006  1
  I  I16  1  0.000000  0.758756  0.086006  1
  I  I17  1  0.000000  0.241244  0.913994  1
  I  I18  1  0.000000  0.999901  0.240819  1
  I  I19  1  0.000000  0.000099  0.759181  1
  I  I20  1  0.000000  0.499901  0.259181  1
  I  I21  1  0.000000  0.500099  0.740819  1
