# generated using pymatgen
data_Tb15TmCd4Co3Ni
_symmetry_space_group_name_H-M   'P 1'
_cell_length_a   9.53497187
_cell_length_b   9.53497249
_cell_length_c   9.53872629
_cell_angle_alpha   60.07113068
_cell_angle_beta   60.07112709
_cell_angle_gamma   60.05904058
_symmetry_Int_Tables_number   1
_chemical_formula_structural   Tb15TmCd4Co3Ni
_chemical_formula_sum   'Tb15 Tm1 Cd4 Co3 Ni1'
_cell_volume   614.14957074
_cell_formula_units_Z   1
loop_
 _symmetry_equiv_pos_site_id
 _symmetry_equiv_pos_as_xyz
  1  'x, y, z'
loop_
 _atom_site_type_symbol
 _atom_site_label
 _atom_site_symmetry_multiplicity
 _atom_site_fract_x
 _atom_site_fract_y
 _atom_site_fract_z
 _atom_site_occupancy
  Tb  Tb0  1  0.595303  0.595303  0.596896  1
  Tb  Tb1  1  0.188825  0.812047  0.813038  1
  Tb  Tb2  1  0.061419  0.061419  0.436325  1
  Tb  Tb3  1  0.436533  0.062458  0.061171  1
  Tb  Tb4  1  0.812047  0.188825  0.813038  1
  Tb  Tb5  1  0.438910  0.057969  0.438087  1
  Tb  Tb6  1  0.599505  0.207477  0.599928  1
  Tb  Tb7  1  0.812640  0.812640  0.188629  1
  Tb  Tb8  1  0.207477  0.599505  0.599928  1
  Tb  Tb9  1  0.811658  0.188445  0.187861  1
  Tb  Tb10  1  0.057969  0.438910  0.438087  1
  Tb  Tb11  1  0.188445  0.811658  0.187861  1
  Tb  Tb12  1  0.599655  0.599655  0.206917  1
  Tb  Tb13  1  0.187943  0.187943  0.812385  1
  Tb  Tb14  1  0.062458  0.436533  0.061171  1
  Tm  Tm15  1  0.438950  0.438950  0.057068  1
  Cd  Cd16  1  0.830424  0.830424  0.507838  1
  Cd  Cd17  1  0.830172  0.830172  0.830140  1
  Cd  Cd18  1  0.507740  0.829969  0.830704  1
  Cd  Cd19  1  0.829969  0.507740  0.830704  1
  Co  Co20  1  0.826721  0.391519  0.391804  1
  Co  Co21  1  0.391519  0.826721  0.391804  1
  Co  Co22  1  0.391628  0.391628  0.827278  1
  Ni  Ni23  1  0.392092  0.392092  0.391340  1
