# generated using pymatgen
data_Cs5Tl5(Tc3S7)2
_symmetry_space_group_name_H-M   'P 1'
_cell_length_a   10.85100766
_cell_length_b   10.74535308
_cell_length_c   11.06317500
_cell_angle_alpha   59.13523443
_cell_angle_beta   59.45855028
_cell_angle_gamma   60.32310029
_symmetry_Int_Tables_number   1
_chemical_formula_structural   Cs5Tl5(Tc3S7)2
_chemical_formula_sum   'Cs5 Tl5 Tc6 S14'
_cell_volume   904.43314000
_cell_formula_units_Z   1
loop_
 _symmetry_equiv_pos_site_id
 _symmetry_equiv_pos_as_xyz
  1  'x, y, z'
loop_
 _atom_site_type_symbol
 _atom_site_label
 _atom_site_symmetry_multiplicity
 _atom_site_fract_x
 _atom_site_fract_y
 _atom_site_fract_z
 _atom_site_occupancy
  Cs  Cs0  1  0.992025  0.436090  0.575967  1
  Cs  Cs1  1  0.021098  0.008825  0.478182  1
  Cs  Cs2  1  0.988490  0.436783  0.992053  1
  Cs  Cs3  1  0.198323  0.579252  0.107099  1
  Cs  Cs4  1  0.553550  0.168003  0.135345  1
  Tl  Tl5  1  0.010407  0.033764  0.977267  1
  Tl  Tl6  1  0.401566  0.971936  0.006962  1
  Tl  Tl7  1  0.400809  0.976124  0.614626  1
  Tl  Tl8  1  0.825028  0.880850  0.893617  1
  Tl  Tl9  1  0.818316  0.878077  0.396578  1
  Tc  Tc10  1  0.381778  0.620320  0.615808  1
  Tc  Tc11  1  0.381491  0.370687  0.622618  1
  Tc  Tc12  1  0.381337  0.619054  0.379191  1
  Tc  Tc13  1  0.624166  0.371979  0.619836  1
  Tc  Tc14  1  0.626732  0.619324  0.374737  1
  Tc  Tc15  1  0.623592  0.370832  0.381658  1
  S  S16  1  0.231958  0.187810  0.789233  1
  S  S17  1  0.209926  0.800640  0.757860  1
  S  S18  1  0.390027  0.383452  0.830213  1
  S  S19  1  0.169602  0.605121  0.611209  1
  S  S20  1  0.613645  0.610459  0.604760  1
  S  S21  1  0.210146  0.796560  0.228252  1
  S  S22  1  0.389275  0.381275  0.394941  1
  S  S23  1  0.400777  0.832858  0.380965  1
  S  S24  1  0.609312  0.158527  0.614953  1
  S  S25  1  0.788280  0.199029  0.778580  1
  S  S26  1  0.836605  0.388088  0.385793  1
  S  S27  1  0.612447  0.608398  0.168731  1
  S  S28  1  0.797879  0.783513  0.205277  1
  S  S29  1  0.786213  0.197175  0.232493  1
