# generated using pymatgen
data_Sr4Si8Os7Pt
_symmetry_space_group_name_H-M   'P 1'
_cell_length_a   6.12671601
_cell_length_b   8.12735161
_cell_length_c   8.12743827
_cell_angle_alpha   78.28018590
_cell_angle_beta   90.42488846
_cell_angle_gamma   89.57580248
_symmetry_Int_Tables_number   1
_chemical_formula_structural   Sr4Si8Os7Pt
_chemical_formula_sum   'Sr4 Si8 Os7 Pt1'
_cell_volume   396.23327728
_cell_formula_units_Z   1
loop_
 _symmetry_equiv_pos_site_id
 _symmetry_equiv_pos_as_xyz
  1  'x, y, z'
loop_
 _atom_site_type_symbol
 _atom_site_label
 _atom_site_symmetry_multiplicity
 _atom_site_fract_x
 _atom_site_fract_y
 _atom_site_fract_z
 _atom_site_occupancy
  Sr  Sr0  1  0.375623  0.000269  0.254090  1
  Sr  Sr1  1  0.874496  0.503459  0.749702  1
  Sr  Sr2  1  0.624888  0.998042  0.748123  1
  Sr  Sr3  1  0.125022  0.499346  0.249226  1
  Si  Si4  1  0.370188  0.321188  0.924642  1
  Si  Si5  1  0.880526  0.174795  0.071411  1
  Si  Si6  1  0.613393  0.690130  0.070771  1
  Si  Si7  1  0.126920  0.818751  0.930987  1
  Si  Si8  1  0.636364  0.320878  0.439889  1
  Si  Si9  1  0.122927  0.180901  0.569049  1
  Si  Si10  1  0.372999  0.679745  0.567251  1
  Si  Si11  1  0.876609  0.817356  0.429741  1
  Os  Os12  1  0.124829  0.879021  0.629125  1
  Os  Os13  1  0.624822  0.620300  0.370145  1
  Os  Os14  1  0.872978  0.120299  0.370146  1
  Os  Os15  1  0.374614  0.378762  0.626925  1
  Os  Os16  1  0.875362  0.877021  0.128753  1
  Os  Os17  1  0.377029  0.619981  0.870215  1
  Os  Os18  1  0.125191  0.120807  0.871065  1
  Pt  Pt19  1  0.625215  0.378950  0.128746  1
