# generated using pymatgen
data_DyHo3CoAg
_symmetry_space_group_name_H-M   'P 1'
_cell_length_a   9.37928684
_cell_length_b   9.37935165
_cell_length_c   9.37977300
_cell_angle_alpha   59.99973698
_cell_angle_beta   59.99954585
_cell_angle_gamma   59.99846635
_symmetry_Int_Tables_number   1
_chemical_formula_structural   DyHo3CoAg
_chemical_formula_sum   'Dy4 Ho12 Co4 Ag4'
_cell_volume   583.46200376
_cell_formula_units_Z   4
loop_
 _symmetry_equiv_pos_site_id
 _symmetry_equiv_pos_as_xyz
  1  'x, y, z'
loop_
 _atom_site_type_symbol
 _atom_site_label
 _atom_site_symmetry_multiplicity
 _atom_site_fract_x
 _atom_site_fract_y
 _atom_site_fract_z
 _atom_site_occupancy
  Dy  Dy0  1  0.348190  0.348197  0.348210  1
  Dy  Dy1  1  0.348217  0.348214  0.955381  1
  Dy  Dy2  1  0.348204  0.955396  0.348218  1
  Dy  Dy3  1  0.955399  0.348201  0.348222  1
  Ho  Ho4  1  0.811511  0.188548  0.188572  1
  Ho  Ho5  1  0.188453  0.811608  0.811415  1
  Ho  Ho6  1  0.188529  0.811346  0.188634  1
  Ho  Ho7  1  0.811647  0.188511  0.811324  1
  Ho  Ho8  1  0.188512  0.188583  0.811267  1
  Ho  Ho9  1  0.811563  0.811349  0.188555  1
  Ho  Ho10  1  0.937309  0.562632  0.562748  1
  Ho  Ho11  1  0.562708  0.937254  0.937315  1
  Ho  Ho12  1  0.562602  0.937319  0.562742  1
  Ho  Ho13  1  0.937230  0.562769  0.937266  1
  Ho  Ho14  1  0.562723  0.562755  0.937278  1
  Ho  Ho15  1  0.937346  0.937315  0.562742  1
  Co  Co16  1  0.140852  0.140868  0.140887  1
  Co  Co17  1  0.140847  0.140862  0.577404  1
  Co  Co18  1  0.140836  0.577403  0.140881  1
  Co  Co19  1  0.577422  0.140848  0.140868  1
  Ag  Ag20  1  0.581352  0.581391  0.581411  1
  Ag  Ag21  1  0.581363  0.581387  0.255856  1
  Ag  Ag22  1  0.581345  0.255868  0.581399  1
  Ag  Ag23  1  0.255839  0.581378  0.581407  1
