# generated using pymatgen
data_Dy3Tm4Th(InAu2)4
_symmetry_space_group_name_H-M   'P 1'
_cell_length_a   8.00157978
_cell_length_b   8.00158104
_cell_length_c   7.37175500
_cell_angle_alpha   90.00000000
_cell_angle_beta   90.00000000
_cell_angle_gamma   90.05759246
_symmetry_Int_Tables_number   1
_chemical_formula_structural   Dy3Tm4Th(InAu2)4
_chemical_formula_sum   'Dy3 Tm4 Th1 In4 Au8'
_cell_volume   471.97850638
_cell_formula_units_Z   1
loop_
 _symmetry_equiv_pos_site_id
 _symmetry_equiv_pos_as_xyz
  1  'x, y, z'
loop_
 _atom_site_type_symbol
 _atom_site_label
 _atom_site_symmetry_multiplicity
 _atom_site_fract_x
 _atom_site_fract_y
 _atom_site_fract_z
 _atom_site_occupancy
  Dy  Dy0  1  0.160211  0.839789  0.500000  1
  Dy  Dy1  1  0.680324  0.681327  0.500000  1
  Dy  Dy2  1  0.318673  0.319676  0.500000  1
  Tm  Tm3  1  0.340244  0.343322  0.000000  1
  Tm  Tm4  1  0.656678  0.659756  0.000000  1
  Tm  Tm5  1  0.182584  0.817416  0.000000  1
  Tm  Tm6  1  0.819872  0.180128  0.000000  1
  Th  Th7  1  0.840749  0.159251  0.500000  1
  In  In8  1  0.497436  0.998018  0.249734  1
  In  In9  1  0.001982  0.502564  0.750266  1
  In  In10  1  0.497436  0.998018  0.750266  1
  In  In11  1  0.001982  0.502564  0.249734  1
  Au  Au12  1  0.626572  0.373428  0.263701  1
  Au  Au13  1  0.370450  0.629550  0.269307  1
  Au  Au14  1  0.131484  0.127592  0.779447  1
  Au  Au15  1  0.872408  0.868516  0.779447  1
  Au  Au16  1  0.370450  0.629550  0.730693  1
  Au  Au17  1  0.626572  0.373428  0.736299  1
  Au  Au18  1  0.872408  0.868516  0.220553  1
  Au  Au19  1  0.131484  0.127592  0.220553  1
