# generated using pymatgen
data_FeAg(SeO4)2
_symmetry_space_group_name_H-M   'P 1'
_cell_length_a   5.04869673
_cell_length_b   9.02989674
_cell_length_c   8.86452937
_cell_angle_alpha   68.67861106
_cell_angle_beta   101.98092377
_cell_angle_gamma   76.35389349
_symmetry_Int_Tables_number   1
_chemical_formula_structural   FeAg(SeO4)2
_chemical_formula_sum   'Fe2 Ag2 Se4 O16'
_cell_volume   346.09625773
_cell_formula_units_Z   2
loop_
 _symmetry_equiv_pos_site_id
 _symmetry_equiv_pos_as_xyz
  1  'x, y, z'
loop_
 _atom_site_type_symbol
 _atom_site_label
 _atom_site_symmetry_multiplicity
 _atom_site_fract_x
 _atom_site_fract_y
 _atom_site_fract_z
 _atom_site_occupancy
  Fe  Fe0  1  0.000072  0.499952  0.500048  1
  Fe  Fe1  1  0.000069  0.999951  0.000046  1
  Ag  Ag2  1  0.999978  0.250015  0.249982  1
  Ag  Ag3  1  0.999978  0.750015  0.749982  1
  Se  Se4  1  0.360642  0.569588  0.208853  1
  Se  Se5  1  0.360643  0.069587  0.708855  1
  Se  Se6  1  0.639376  0.430399  0.791170  1
  Se  Se7  1  0.639375  0.930401  0.291168  1
  O  O8  1  0.281872  0.429635  0.147812  1
  O  O9  1  0.281872  0.929635  0.647813  1
  O  O10  1  0.718088  0.570391  0.852165  1
  O  O11  1  0.718088  0.070392  0.352164  1
  O  O12  1  0.766499  0.404704  0.638149  1
  O  O13  1  0.766498  0.904704  0.138148  1
  O  O14  1  0.233448  0.595317  0.361838  1
  O  O15  1  0.233447  0.095316  0.861839  1
  O  O16  1  0.767511  0.238054  0.963509  1
  O  O17  1  0.767509  0.738055  0.463509  1
  O  O18  1  0.232517  0.761925  0.036488  1
  O  O19  1  0.232518  0.261925  0.536488  1
  O  O20  1  0.274582  0.484617  0.716954  1
  O  O21  1  0.274582  0.984618  0.216952  1
  O  O22  1  0.725418  0.515402  0.283035  1
  O  O23  1  0.725418  0.015401  0.783037  1
