# generated using pymatgen
data_EuCrCo4P3
_symmetry_space_group_name_H-M   'P 1'
_cell_length_a   3.67197600
_cell_length_b   10.44160400
_cell_length_c   11.93558700
_cell_angle_alpha   90.00000000
_cell_angle_beta   90.00000000
_cell_angle_gamma   90.00000000
_symmetry_Int_Tables_number   1
_chemical_formula_structural   EuCrCo4P3
_chemical_formula_sum   'Eu4 Cr4 Co16 P12'
_cell_volume   457.62615207
_cell_formula_units_Z   4
loop_
 _symmetry_equiv_pos_site_id
 _symmetry_equiv_pos_as_xyz
  1  'x, y, z'
loop_
 _atom_site_type_symbol
 _atom_site_label
 _atom_site_symmetry_multiplicity
 _atom_site_fract_x
 _atom_site_fract_y
 _atom_site_fract_z
 _atom_site_occupancy
  Eu  Eu0  1  0.250000  0.583172  0.703298  1
  Eu  Eu1  1  0.250000  0.916828  0.203298  1
  Eu  Eu2  1  0.750000  0.416828  0.296702  1
  Eu  Eu3  1  0.750000  0.083172  0.796702  1
  Cr  Cr4  1  0.250000  0.705200  0.988785  1
  Cr  Cr5  1  0.250000  0.794800  0.488785  1
  Cr  Cr6  1  0.750000  0.294800  0.011215  1
  Cr  Cr7  1  0.750000  0.205200  0.511215  1
  Co  Co8  1  0.250000  0.404984  0.491369  1
  Co  Co9  1  0.250000  0.095016  0.991369  1
  Co  Co10  1  0.750000  0.595016  0.508631  1
  Co  Co11  1  0.750000  0.904984  0.008631  1
  Co  Co12  1  0.250000  0.220056  0.175565  1
  Co  Co13  1  0.250000  0.279944  0.675565  1
  Co  Co14  1  0.750000  0.779944  0.824435  1
  Co  Co15  1  0.750000  0.720056  0.324435  1
  Co  Co16  1  0.250000  0.883411  0.697623  1
  Co  Co17  1  0.250000  0.616589  0.197623  1
  Co  Co18  1  0.750000  0.116589  0.302377  1
  Co  Co19  1  0.750000  0.383411  0.802377  1
  Co  Co20  1  0.250000  0.466032  0.934834  1
  Co  Co21  1  0.250000  0.033968  0.434834  1
  Co  Co22  1  0.750000  0.533968  0.065166  1
  Co  Co23  1  0.750000  0.966032  0.565166  1
  P  P24  1  0.250000  0.418408  0.112932  1
  P  P25  1  0.250000  0.081592  0.612932  1
  P  P26  1  0.750000  0.581592  0.887068  1
  P  P27  1  0.750000  0.918408  0.387068  1
  P  P28  1  0.250000  0.272591  0.867541  1
  P  P29  1  0.250000  0.227409  0.367541  1
  P  P30  1  0.750000  0.727409  0.132459  1
  P  P31  1  0.750000  0.772591  0.632459  1
  P  P32  1  0.250000  0.601787  0.392477  1
  P  P33  1  0.250000  0.898213  0.892477  1
  P  P34  1  0.750000  0.398213  0.607523  1
  P  P35  1  0.750000  0.101787  0.107523  1
