# generated using pymatgen
data_NdEr7Sc12(GaSi3)4
_symmetry_space_group_name_H-M   'P 1'
_cell_length_a   7.12154465
_cell_length_b   7.39618987
_cell_length_c   14.13955100
_cell_angle_alpha   90.10093314
_cell_angle_beta   89.86433902
_cell_angle_gamma   90.20666591
_symmetry_Int_Tables_number   1
_chemical_formula_structural   NdEr7Sc12(GaSi3)4
_chemical_formula_sum   'Nd1 Er7 Sc12 Ga4 Si12'
_cell_volume   744.75454422
_cell_formula_units_Z   1
loop_
 _symmetry_equiv_pos_site_id
 _symmetry_equiv_pos_as_xyz
  1  'x, y, z'
loop_
 _atom_site_type_symbol
 _atom_site_label
 _atom_site_symmetry_multiplicity
 _atom_site_fract_x
 _atom_site_fract_y
 _atom_site_fract_z
 _atom_site_occupancy
  Nd  Nd0  1  0.012355  0.172480  0.094672  1
  Er  Er1  1  0.988867  0.825217  0.899716  1
  Er  Er2  1  0.488824  0.677998  0.900120  1
  Er  Er3  1  0.988418  0.827463  0.600991  1
  Er  Er4  1  0.510498  0.320686  0.097119  1
  Er  Er5  1  0.008052  0.174757  0.400033  1
  Er  Er6  1  0.509913  0.324101  0.401874  1
  Er  Er7  1  0.490984  0.676532  0.601486  1
  Sc  Sc8  1  0.164131  0.501553  0.751032  1
  Sc  Sc9  1  0.834917  0.497938  0.250953  1
  Sc  Sc10  1  0.334214  0.000489  0.249294  1
  Sc  Sc11  1  0.664607  0.999179  0.750028  1
  Sc  Sc12  1  0.334956  0.174602  0.628646  1
  Sc  Sc13  1  0.667069  0.825754  0.374679  1
  Sc  Sc14  1  0.169583  0.672151  0.373891  1
  Sc  Sc15  1  0.667079  0.826037  0.126098  1
  Sc  Sc16  1  0.830159  0.325084  0.627334  1
  Sc  Sc17  1  0.332034  0.176281  0.874190  1
  Sc  Sc18  1  0.830042  0.325641  0.873347  1
  Sc  Sc19  1  0.173523  0.673797  0.123922  1
  Ga  Ga20  1  0.162815  0.460372  0.540023  1
  Ga  Ga21  1  0.838092  0.538240  0.462324  1
  Ga  Ga22  1  0.336891  0.961174  0.462841  1
  Ga  Ga23  1  0.837577  0.543317  0.036966  1
  Si  Si24  1  0.034012  0.116286  0.751214  1
  Si  Si25  1  0.964799  0.879649  0.250535  1
  Si  Si26  1  0.466334  0.613004  0.248924  1
  Si  Si27  1  0.533959  0.386863  0.751300  1
  Si  Si28  1  0.287373  0.871625  0.750975  1
  Si  Si29  1  0.710544  0.127479  0.250611  1
  Si  Si30  1  0.215416  0.372504  0.249873  1
  Si  Si31  1  0.788280  0.630624  0.751192  1
  Si  Si32  1  0.658885  0.036331  0.539752  1
  Si  Si33  1  0.159343  0.468302  0.958425  1
  Si  Si34  1  0.656789  0.035698  0.959920  1
  Si  Si35  1  0.348667  0.960793  0.035700  1
