# generated using pymatgen
data_Dy2TmCd3Ga2Ag
_symmetry_space_group_name_H-M   'P 1'
_cell_length_a   7.35054246
_cell_length_b   7.35054301
_cell_length_c   4.33283900
_cell_angle_alpha   90.00000000
_cell_angle_beta   90.00000000
_cell_angle_gamma   119.94591348
_symmetry_Int_Tables_number   1
_chemical_formula_structural   Dy2TmCd3Ga2Ag
_chemical_formula_sum   'Dy2 Tm1 Cd3 Ga2 Ag1'
_cell_volume   202.85159882
_cell_formula_units_Z   1
loop_
 _symmetry_equiv_pos_site_id
 _symmetry_equiv_pos_as_xyz
  1  'x, y, z'
loop_
 _atom_site_type_symbol
 _atom_site_label
 _atom_site_symmetry_multiplicity
 _atom_site_fract_x
 _atom_site_fract_y
 _atom_site_fract_z
 _atom_site_occupancy
  Dy  Dy0  1  0.578004  0.999414  0.500000  1
  Dy  Dy1  1  0.999414  0.578004  0.500000  1
  Tm  Tm2  1  0.421317  0.421317  0.500000  1
  Cd  Cd3  1  0.748412  0.748412  0.000000  1
  Cd  Cd4  1  0.251472  0.000013  0.000000  1
  Cd  Cd5  1  0.000013  0.251472  0.000000  1
  Ga  Ga6  1  0.665414  0.333730  0.000000  1
  Ga  Ga7  1  0.333730  0.665414  0.000000  1
  Ag  Ag8  1  0.002223  0.002223  0.500000  1
