# generated using pymatgen
data_Mn6TlSe7
_symmetry_space_group_name_H-M   'P 1'
_cell_length_a   9.29697860
_cell_length_b   9.29697885
_cell_length_c   9.29697900
_cell_angle_alpha   61.09541081
_cell_angle_beta   61.09540996
_cell_angle_gamma   61.09541318
_symmetry_Int_Tables_number   1
_chemical_formula_structural   Mn6TlSe7
_chemical_formula_sum   'Mn12 Tl2 Se14'
_cell_volume   582.22315062
_cell_formula_units_Z   2
loop_
 _symmetry_equiv_pos_site_id
 _symmetry_equiv_pos_as_xyz
  1  'x, y, z'
loop_
 _atom_site_type_symbol
 _atom_site_label
 _atom_site_symmetry_multiplicity
 _atom_site_fract_x
 _atom_site_fract_y
 _atom_site_fract_z
 _atom_site_occupancy
  Mn  Mn0  1  0.608655  0.310644  0.441424  1
  Mn  Mn1  1  0.310644  0.441424  0.608655  1
  Mn  Mn2  1  0.441424  0.608655  0.310644  1
  Mn  Mn3  1  0.391345  0.689356  0.558576  1
  Mn  Mn4  1  0.689356  0.558576  0.391345  1
  Mn  Mn5  1  0.558576  0.391345  0.689356  1
  Mn  Mn6  1  0.376530  0.202407  0.501594  1
  Mn  Mn7  1  0.202407  0.501594  0.376530  1
  Mn  Mn8  1  0.501594  0.376530  0.202407  1
  Mn  Mn9  1  0.623470  0.797593  0.498406  1
  Mn  Mn10  1  0.797593  0.498406  0.623470  1
  Mn  Mn11  1  0.498406  0.623470  0.797593  1
  Tl  Tl12  1  0.121763  0.121763  0.121763  1
  Tl  Tl13  1  0.878237  0.878237  0.878237  1
  Se  Se14  1  0.669182  0.316352  0.911815  1
  Se  Se15  1  0.088185  0.330818  0.683648  1
  Se  Se16  1  0.277278  0.277278  0.277278  1
  Se  Se17  1  0.722722  0.722722  0.722722  1
  Se  Se18  1  0.848607  0.263127  0.518701  1
  Se  Se19  1  0.263127  0.518701  0.848607  1
  Se  Se20  1  0.518701  0.848607  0.263127  1
  Se  Se21  1  0.151393  0.736873  0.481299  1
  Se  Se22  1  0.736873  0.481299  0.151393  1
  Se  Se23  1  0.481299  0.151393  0.736873  1
  Se  Se24  1  0.330818  0.683648  0.088185  1
  Se  Se25  1  0.683648  0.088185  0.330818  1
  Se  Se26  1  0.911815  0.669182  0.316352  1
  Se  Se27  1  0.316352  0.911815  0.669182  1
