# generated using pymatgen
data_Dy5Y3(ErBi)12
_symmetry_space_group_name_H-M   'P 1'
_cell_length_a   8.24868362
_cell_length_b   9.46481400
_cell_length_c   12.05789300
_cell_angle_alpha   90.00000000
_cell_angle_beta   89.97775874
_cell_angle_gamma   90.00000000
_symmetry_Int_Tables_number   1
_chemical_formula_structural   Dy5Y3(ErBi)12
_chemical_formula_sum   'Dy5 Y3 Er12 Bi12'
_cell_volume   941.38684087
_cell_formula_units_Z   1
loop_
 _symmetry_equiv_pos_site_id
 _symmetry_equiv_pos_as_xyz
  1  'x, y, z'
loop_
 _atom_site_type_symbol
 _atom_site_label
 _atom_site_symmetry_multiplicity
 _atom_site_fract_x
 _atom_site_fract_y
 _atom_site_fract_z
 _atom_site_occupancy
  Dy  Dy0  1  0.186498  0.750000  0.718606  1
  Dy  Dy1  1  0.686582  0.750000  0.781387  1
  Dy  Dy2  1  0.813524  0.250000  0.281429  1
  Dy  Dy3  1  0.313448  0.250000  0.218554  1
  Dy  Dy4  1  0.354194  0.750000  0.215889  1
  Y  Y5  1  0.853877  0.750000  0.284251  1
  Y  Y6  1  0.646053  0.250000  0.784336  1
  Y  Y7  1  0.145969  0.250000  0.715796  1
  Er  Er8  1  0.025452  0.750000  0.988362  1
  Er  Er9  1  0.525524  0.750000  0.511627  1
  Er  Er10  1  0.974531  0.250000  0.011616  1
  Er  Er11  1  0.474651  0.250000  0.488417  1
  Er  Er12  1  0.306732  0.435243  0.940476  1
  Er  Er13  1  0.806725  0.064860  0.559604  1
  Er  Er14  1  0.693040  0.935163  0.059524  1
  Er  Er15  1  0.193362  0.564897  0.440290  1
  Er  Er16  1  0.693040  0.564837  0.059524  1
  Er  Er17  1  0.193362  0.935103  0.440290  1
  Er  Er18  1  0.306732  0.064757  0.940476  1
  Er  Er19  1  0.806725  0.435140  0.559604  1
  Bi  Bi20  1  0.433794  0.004004  0.673161  1
  Bi  Bi21  1  0.933788  0.496087  0.826791  1
  Bi  Bi22  1  0.566195  0.503972  0.326832  1
  Bi  Bi23  1  0.066300  0.996016  0.173222  1
  Bi  Bi24  1  0.566195  0.996028  0.326832  1
  Bi  Bi25  1  0.066300  0.503984  0.173222  1
  Bi  Bi26  1  0.433794  0.495996  0.673161  1
  Bi  Bi27  1  0.933788  0.003913  0.826791  1
  Bi  Bi28  1  0.407853  0.750000  0.957723  1
  Bi  Bi29  1  0.908050  0.750000  0.542185  1
  Bi  Bi30  1  0.591925  0.250000  0.042148  1
  Bi  Bi31  1  0.092001  0.250000  0.457874  1
