# generated using pymatgen
data_Er3Al9Si3Os4
_symmetry_space_group_name_H-M   'P 1'
_cell_length_a   8.69796200
_cell_length_b   8.67574144
_cell_length_c   9.52489800
_cell_angle_alpha   90.00000000
_cell_angle_beta   90.00000000
_cell_angle_gamma   120.08476099
_symmetry_Int_Tables_number   1
_chemical_formula_structural   Er3Al9Si3Os4
_chemical_formula_sum   'Er6 Al18 Si6 Os8'
_cell_volume   621.93285983
_cell_formula_units_Z   2
loop_
 _symmetry_equiv_pos_site_id
 _symmetry_equiv_pos_as_xyz
  1  'x, y, z'
loop_
 _atom_site_type_symbol
 _atom_site_label
 _atom_site_symmetry_multiplicity
 _atom_site_fract_x
 _atom_site_fract_y
 _atom_site_fract_z
 _atom_site_occupancy
  Er  Er0  1  0.194542  0.389086  0.250000  1
  Er  Er1  1  0.805458  0.610914  0.750000  1
  Er  Er2  1  0.608191  0.806890  0.250000  1
  Er  Er3  1  0.391809  0.193110  0.750000  1
  Er  Er4  1  0.198698  0.806890  0.250000  1
  Er  Er5  1  0.801302  0.193110  0.750000  1
  Al  Al6  1  0.164677  0.329354  0.579196  1
  Al  Al7  1  0.835323  0.670646  0.420804  1
  Al  Al8  1  0.670971  0.834764  0.577782  1
  Al  Al9  1  0.835323  0.670646  0.079196  1
  Al  Al10  1  0.329029  0.165236  0.422218  1
  Al  Al11  1  0.164677  0.329354  0.920804  1
  Al  Al12  1  0.163793  0.834764  0.577782  1
  Al  Al13  1  0.329029  0.165236  0.077782  1
  Al  Al14  1  0.836207  0.165236  0.422218  1
  Al  Al15  1  0.670971  0.834764  0.922218  1
  Al  Al16  1  0.836207  0.165236  0.077782  1
  Al  Al17  1  0.163793  0.834764  0.922218  1
  Al  Al18  1  0.872839  0.433575  0.250000  1
  Al  Al19  1  0.127161  0.566425  0.750000  1
  Al  Al20  1  0.560735  0.433575  0.250000  1
  Al  Al21  1  0.439265  0.566425  0.750000  1
  Al  Al22  1  0.999722  0.999444  0.250000  1
  Al  Al23  1  0.000278  0.000556  0.750000  1
  Si  Si24  1  0.332065  0.664130  0.038959  1
  Si  Si25  1  0.667935  0.335870  0.961041  1
  Si  Si26  1  0.667935  0.335870  0.538959  1
  Si  Si27  1  0.332065  0.664130  0.461041  1
  Si  Si28  1  0.563269  0.126537  0.250000  1
  Si  Si29  1  0.436731  0.873463  0.750000  1
  Os  Os30  1  0.500000  0.000000  0.000000  1
  Os  Os31  1  0.000000  0.500000  0.000000  1
  Os  Os32  1  0.500000  0.000000  0.500000  1
  Os  Os33  1  0.500000  0.500000  0.000000  1
  Os  Os34  1  0.000000  0.500000  0.500000  1
  Os  Os35  1  0.500000  0.500000  0.500000  1
  Os  Os36  1  0.000000  0.000000  0.000000  1
  Os  Os37  1  0.000000  0.000000  0.500000  1
