# generated using pymatgen
data_GaFeAsO5
_symmetry_space_group_name_H-M   'P 1'
_cell_length_a   7.58156127
_cell_length_b   10.90365600
_cell_length_c   5.71005829
_cell_angle_alpha   90.00000000
_cell_angle_beta   98.47824085
_cell_angle_gamma   90.00000000
_symmetry_Int_Tables_number   1
_chemical_formula_structural   GaFeAsO5
_chemical_formula_sum   'Ga4 Fe4 As4 O20'
_cell_volume   466.87348116
_cell_formula_units_Z   4
loop_
 _symmetry_equiv_pos_site_id
 _symmetry_equiv_pos_as_xyz
  1  'x, y, z'
loop_
 _atom_site_type_symbol
 _atom_site_label
 _atom_site_symmetry_multiplicity
 _atom_site_fract_x
 _atom_site_fract_y
 _atom_site_fract_z
 _atom_site_occupancy
  Ga  Ga0  1  0.858545  0.675757  0.049988  1
  Ga  Ga1  1  0.141454  0.175758  0.450012  1
  Ga  Ga2  1  0.858545  0.824242  0.549988  1
  Ga  Ga3  1  0.141455  0.324242  0.950012  1
  Fe  Fe4  1  0.518286  0.857277  0.105413  1
  Fe  Fe5  1  0.481713  0.357278  0.394587  1
  Fe  Fe6  1  0.518286  0.642722  0.605413  1
  Fe  Fe7  1  0.481714  0.142722  0.894587  1
  As  As8  1  0.273730  0.603153  0.065405  1
  As  As9  1  0.726269  0.103154  0.434594  1
  As  As10  1  0.273730  0.896846  0.565405  1
  As  As11  1  0.726269  0.396846  0.934594  1
  O  O12  1  0.579427  0.311223  0.070513  1
  O  O13  1  0.807225  0.513299  0.124674  1
  O  O14  1  0.103355  0.696208  0.126252  1
  O  O15  1  0.615443  0.043756  0.173859  1
  O  O16  1  0.240348  0.283052  0.254831  1
  O  O17  1  0.759651  0.783052  0.245167  1
  O  O18  1  0.384557  0.543756  0.326140  1
  O  O19  1  0.896645  0.196209  0.373749  1
  O  O20  1  0.192776  0.013299  0.375327  1
  O  O21  1  0.420574  0.811223  0.429487  1
  O  O22  1  0.579427  0.188777  0.570513  1
  O  O23  1  0.807225  0.986701  0.624674  1
  O  O24  1  0.103354  0.803791  0.626250  1
  O  O25  1  0.615444  0.456244  0.673859  1
  O  O26  1  0.240349  0.216947  0.754831  1
  O  O27  1  0.759651  0.716948  0.745167  1
  O  O28  1  0.384556  0.956244  0.826140  1
  O  O29  1  0.896645  0.303791  0.873749  1
  O  O30  1  0.192776  0.486701  0.875327  1
  O  O31  1  0.420574  0.688778  0.929487  1
