# generated using pymatgen
data_AcSiAgRh2
_symmetry_space_group_name_H-M   'P 1'
_cell_length_a   4.18400300
_cell_length_b   4.18400300
_cell_length_c   11.40092300
_cell_angle_alpha   90.00000000
_cell_angle_beta   90.00000000
_cell_angle_gamma   90.00000000
_symmetry_Int_Tables_number   1
_chemical_formula_structural   AcSiAgRh2
_chemical_formula_sum   'Ac2 Si2 Ag2 Rh4'
_cell_volume   199.58320251
_cell_formula_units_Z   2
loop_
 _symmetry_equiv_pos_site_id
 _symmetry_equiv_pos_as_xyz
  1  'x, y, z'
loop_
 _atom_site_type_symbol
 _atom_site_label
 _atom_site_symmetry_multiplicity
 _atom_site_fract_x
 _atom_site_fract_y
 _atom_site_fract_z
 _atom_site_occupancy
  Ac  Ac0  1  0.000000  0.500000  0.255516  1
  Ac  Ac1  1  0.500000  0.000000  0.744484  1
  Si  Si2  1  0.000000  0.500000  0.892705  1
  Si  Si3  1  0.500000  0.000000  0.107295  1
  Ag  Ag4  1  0.000000  0.000000  0.500000  1
  Ag  Ag5  1  0.500000  0.500000  0.500000  1
  Rh  Rh6  1  0.000000  0.000000  0.000000  1
  Rh  Rh7  1  0.500000  0.500000  0.000000  1
  Rh  Rh8  1  0.000000  0.500000  0.685360  1
  Rh  Rh9  1  0.500000  0.000000  0.314640  1
