# generated using pymatgen
data_Hf2Sc5Co8Si14W
_symmetry_space_group_name_H-M   'P 1'
_cell_length_a   9.45670722
_cell_length_b   9.45656762
_cell_length_c   9.44024707
_cell_angle_alpha   94.12489441
_cell_angle_beta   94.04066077
_cell_angle_gamma   149.07657203
_symmetry_Int_Tables_number   1
_chemical_formula_structural   Hf2Sc5Co8Si14W
_chemical_formula_sum   'Hf2 Sc5 Co8 Si14 W1'
_cell_volume   418.08154308
_cell_formula_units_Z   1
loop_
 _symmetry_equiv_pos_site_id
 _symmetry_equiv_pos_as_xyz
  1  'x, y, z'
loop_
 _atom_site_type_symbol
 _atom_site_label
 _atom_site_symmetry_multiplicity
 _atom_site_fract_x
 _atom_site_fract_y
 _atom_site_fract_z
 _atom_site_occupancy
  Hf  Hf0  1  0.502978  0.694690  0.197708  1
  Hf  Hf1  1  0.501271  0.304736  0.805996  1
  Sc  Sc2  1  0.862477  0.863081  0.725543  1
  Sc  Sc3  1  0.139000  0.860749  0.999797  1
  Sc  Sc4  1  0.860034  0.138133  0.998174  1
  Sc  Sc5  1  0.303540  0.500847  0.804363  1
  Sc  Sc6  1  0.697151  0.502051  0.199181  1
  Co  Co7  1  0.103786  0.603120  0.206394  1
  Co  Co8  1  0.396787  0.897753  0.794767  1
  Co  Co9  1  0.898134  0.102239  0.497074  1
  Co  Co10  1  0.599631  0.395185  0.498811  1
  Co  Co11  1  0.603245  0.102557  0.206367  1
  Co  Co12  1  0.897073  0.398020  0.794817  1
  Co  Co13  1  0.103620  0.899170  0.498780  1
  Co  Co14  1  0.394806  0.598873  0.497032  1
  Si  Si15  1  0.286678  0.286895  0.573792  1
  Si  Si16  1  0.711136  0.709917  0.420741  1
  Si  Si17  1  0.291018  0.709408  0.000409  1
  Si  Si18  1  0.710095  0.290770  0.000884  1
  Si  Si19  1  0.091372  0.500148  0.591519  1
  Si  Si20  1  0.908446  0.500344  0.408748  1
  Si  Si21  1  0.500369  0.907934  0.408307  1
  Si  Si22  1  0.500272  0.091573  0.591907  1
  Si  Si23  1  0.252153  0.252257  0.008221  1
  Si  Si24  1  0.755961  0.756065  0.008204  1
  Si  Si25  1  0.297556  0.002521  0.300240  1
  Si  Si26  1  0.696771  0.999277  0.696061  1
  Si  Si27  1  0.999095  0.699666  0.698665  1
  Si  Si28  1  0.001669  0.296637  0.298268  1
  W  W29  1  0.133875  0.135385  0.269228  1
