# generated using pymatgen
data_Ta8CrTc4Os3
_symmetry_space_group_name_H-M   'P 1'
_cell_length_a   6.36242400
_cell_length_b   4.50115200
_cell_length_c   8.97901900
_cell_angle_alpha   90.00000000
_cell_angle_beta   89.99949261
_cell_angle_gamma   90.00000000
_symmetry_Int_Tables_number   1
_chemical_formula_structural   Ta8CrTc4Os3
_chemical_formula_sum   'Ta8 Cr1 Tc4 Os3'
_cell_volume   257.14327875
_cell_formula_units_Z   1
loop_
 _symmetry_equiv_pos_site_id
 _symmetry_equiv_pos_as_xyz
  1  'x, y, z'
loop_
 _atom_site_type_symbol
 _atom_site_label
 _atom_site_symmetry_multiplicity
 _atom_site_fract_x
 _atom_site_fract_y
 _atom_site_fract_z
 _atom_site_occupancy
  Ta  Ta0  1  0.493820  0.749999  0.125001  1
  Ta  Ta1  1  0.006169  0.749999  0.124999  1
  Ta  Ta2  1  0.496495  0.250000  0.369831  1
  Ta  Ta3  1  0.003502  0.250000  0.369821  1
  Ta  Ta4  1  0.999437  0.749999  0.625000  1
  Ta  Ta5  1  0.500545  0.749999  0.625000  1
  Ta  Ta6  1  0.003496  0.250000  0.880175  1
  Ta  Ta7  1  0.496500  0.250000  0.880170  1
  Cr  Cr8  1  0.250087  0.250000  0.125004  1
  Tc  Tc9  1  0.749997  0.250000  0.125002  1
  Tc  Tc10  1  0.249993  0.749999  0.375995  1
  Tc  Tc11  1  0.749993  0.250000  0.624990  1
  Tc  Tc12  1  0.249993  0.749999  0.873992  1
  Os  Os13  1  0.749992  0.749999  0.375344  1
  Os  Os14  1  0.249991  0.250000  0.624999  1
  Os  Os15  1  0.749990  0.749999  0.874678  1
