# generated using pymatgen
data_AcPr11(Si7Br3)2
_symmetry_space_group_name_H-M   'P 1'
_cell_length_a   4.12969000
_cell_length_b   11.88920500
_cell_length_c   16.69906700
_cell_angle_alpha   90.00000000
_cell_angle_beta   90.00000000
_cell_angle_gamma   90.00000000
_symmetry_Int_Tables_number   1
_chemical_formula_structural   AcPr11(Si7Br3)2
_chemical_formula_sum   'Ac1 Pr11 Si14 Br6'
_cell_volume   819.90299852
_cell_formula_units_Z   1
loop_
 _symmetry_equiv_pos_site_id
 _symmetry_equiv_pos_as_xyz
  1  'x, y, z'
loop_
 _atom_site_type_symbol
 _atom_site_label
 _atom_site_symmetry_multiplicity
 _atom_site_fract_x
 _atom_site_fract_y
 _atom_site_fract_z
 _atom_site_occupancy
  Ac  Ac0  1  0.500000  0.335070  0.500000  1
  Pr  Pr1  1  0.000000  0.657019  0.000000  1
  Pr  Pr2  1  0.500000  0.359825  0.757818  1
  Pr  Pr3  1  0.000000  0.642679  0.744919  1
  Pr  Pr4  1  0.500000  0.359825  0.242182  1
  Pr  Pr5  1  0.000000  0.642679  0.255081  1
  Pr  Pr6  1  0.500000  0.066610  0.880839  1
  Pr  Pr7  1  0.000000  0.931419  0.620514  1
  Pr  Pr8  1  0.500000  0.066610  0.119161  1
  Pr  Pr9  1  0.000000  0.931419  0.379486  1
  Pr  Pr10  1  0.500000  0.356200  0.000000  1
  Pr  Pr11  1  0.000000  0.643831  0.500000  1
  Si  Si12  1  0.000000  0.152422  0.000000  1
  Si  Si13  1  0.500000  0.847646  0.500000  1
  Si  Si14  1  0.500000  0.566203  0.876862  1
  Si  Si15  1  0.000000  0.437647  0.626350  1
  Si  Si16  1  0.500000  0.566203  0.123138  1
  Si  Si17  1  0.000000  0.437647  0.373650  1
  Si  Si18  1  0.000000  0.253796  0.874182  1
  Si  Si19  1  0.500000  0.746675  0.626342  1
  Si  Si20  1  0.000000  0.253796  0.125818  1
  Si  Si21  1  0.500000  0.746675  0.373658  1
  Si  Si22  1  0.000000  0.457929  0.876847  1
  Si  Si23  1  0.500000  0.544296  0.625263  1
  Si  Si24  1  0.500000  0.544296  0.374737  1
  Si  Si25  1  0.000000  0.457929  0.123153  1
  Br  Br26  1  0.500000  0.108997  0.692326  1
  Br  Br27  1  0.000000  0.892625  0.807289  1
  Br  Br28  1  0.000000  0.129260  0.500000  1
  Br  Br29  1  0.500000  0.861147  0.000000  1
  Br  Br30  1  0.500000  0.108997  0.307674  1
  Br  Br31  1  0.000000  0.892625  0.192711  1
