# generated using pymatgen
data_Cs2Na2TiSe4
_symmetry_space_group_name_H-M   'P 1'
_cell_length_a   6.84115200
_cell_length_b   6.84115200
_cell_length_c   14.47571300
_cell_angle_alpha   90.00000000
_cell_angle_beta   90.00000000
_cell_angle_gamma   90.00000000
_symmetry_Int_Tables_number   1
_chemical_formula_structural   Cs2Na2TiSe4
_chemical_formula_sum   'Cs4 Na4 Ti2 Se8'
_cell_volume   677.48306532
_cell_formula_units_Z   2
loop_
 _symmetry_equiv_pos_site_id
 _symmetry_equiv_pos_as_xyz
  1  'x, y, z'
loop_
 _atom_site_type_symbol
 _atom_site_label
 _atom_site_symmetry_multiplicity
 _atom_site_fract_x
 _atom_site_fract_y
 _atom_site_fract_z
 _atom_site_occupancy
  Cs  Cs0  1  0.253361  0.253361  0.000000  1
  Cs  Cs1  1  0.746639  0.746639  0.000000  1
  Cs  Cs2  1  0.746639  0.253361  0.500000  1
  Cs  Cs3  1  0.253361  0.746639  0.500000  1
  Na  Na4  1  0.000000  0.500000  0.250000  1
  Na  Na5  1  0.000000  0.500000  0.750000  1
  Na  Na6  1  0.500000  0.000000  0.750000  1
  Na  Na7  1  0.500000  0.000000  0.250000  1
  Ti  Ti8  1  0.000000  0.000000  0.250000  1
  Ti  Ti9  1  0.000000  0.000000  0.750000  1
  Se  Se10  1  0.199641  0.199641  0.350985  1
  Se  Se11  1  0.800359  0.800359  0.649015  1
  Se  Se12  1  0.800359  0.800359  0.350985  1
  Se  Se13  1  0.800359  0.199641  0.850985  1
  Se  Se14  1  0.800359  0.199641  0.149015  1
  Se  Se15  1  0.199641  0.199641  0.649015  1
  Se  Se16  1  0.199641  0.800359  0.149015  1
  Se  Se17  1  0.199641  0.800359  0.850985  1
