# generated using pymatgen
data_Hg7BiS6Cl5
_symmetry_space_group_name_H-M   'P 1'
_cell_length_a   7.70535642
_cell_length_b   11.26835294
_cell_length_c   14.26228610
_cell_angle_alpha   110.26569078
_cell_angle_beta   105.89041237
_cell_angle_gamma   90.10242266
_symmetry_Int_Tables_number   1
_chemical_formula_structural   Hg7BiS6Cl5
_chemical_formula_sum   'Hg14 Bi2 S12 Cl10'
_cell_volume   1110.87192307
_cell_formula_units_Z   2
loop_
 _symmetry_equiv_pos_site_id
 _symmetry_equiv_pos_as_xyz
  1  'x, y, z'
loop_
 _atom_site_type_symbol
 _atom_site_label
 _atom_site_symmetry_multiplicity
 _atom_site_fract_x
 _atom_site_fract_y
 _atom_site_fract_z
 _atom_site_occupancy
  Hg  Hg0  1  0.000000  0.000000  0.000000  1
  Hg  Hg1  1  0.358045  0.944879  0.221817  1
  Hg  Hg2  1  0.641955  0.055121  0.778183  1
  Hg  Hg3  1  0.619974  0.543934  0.771194  1
  Hg  Hg4  1  0.380026  0.456066  0.228806  1
  Hg  Hg5  1  0.715080  0.879649  0.426076  1
  Hg  Hg6  1  0.284920  0.120351  0.573924  1
  Hg  Hg7  1  0.306261  0.705524  0.944095  1
  Hg  Hg8  1  0.693739  0.294476  0.055905  1
  Hg  Hg9  1  0.234945  0.383642  0.947218  1
  Hg  Hg10  1  0.765055  0.616358  0.052782  1
  Hg  Hg11  1  0.042957  0.394011  0.671990  1
  Hg  Hg12  1  0.957043  0.605989  0.328010  1
  Hg  Hg13  1  0.500000  0.500000  0.500000  1
  Bi  Bi14  1  0.882282  0.134586  0.317965  1
  Bi  Bi15  1  0.117718  0.865414  0.682035  1
  S  S16  1  0.055480  0.506151  0.855955  1
  S  S17  1  0.944520  0.493849  0.144045  1
  S  S18  1  0.653610  0.394792  0.612839  1
  S  S19  1  0.346390  0.605208  0.387161  1
  S  S20  1  0.620305  0.716637  0.930367  1
  S  S21  1  0.379695  0.283363  0.069633  1
  S  S22  1  0.122392  0.834925  0.060892  1
  S  S23  1  0.877608  0.165075  0.939108  1
  S  S24  1  0.854636  0.715336  0.478250  1
  S  S25  1  0.145364  0.284664  0.521750  1
  S  S26  1  0.581750  0.053983  0.385349  1
  S  S27  1  0.418250  0.946017  0.614651  1
  Cl  Cl28  1  0.511976  0.336080  0.843930  1
  Cl  Cl29  1  0.488024  0.663920  0.156070  1
  Cl  Cl30  1  0.675013  0.028389  0.123382  1
  Cl  Cl31  1  0.324987  0.971611  0.876618  1
  Cl  Cl32  1  0.137500  0.194403  0.242269  1
  Cl  Cl33  1  0.862500  0.805597  0.757731  1
  Cl  Cl34  1  0.042429  0.919081  0.329932  1
  Cl  Cl35  1  0.957571  0.080919  0.670068  1
  Cl  Cl36  1  0.747262  0.360084  0.332165  1
  Cl  Cl37  1  0.252738  0.639916  0.667835  1
