# generated using pymatgen
data_Zr6Al7(CuNi3)4
_symmetry_space_group_name_H-M   'P 1'
_cell_length_a   8.32036658
_cell_length_b   8.32036656
_cell_length_c   8.32036600
_cell_angle_alpha   60.00000224
_cell_angle_beta   60.00000232
_cell_angle_gamma   60.00000146
_symmetry_Int_Tables_number   1
_chemical_formula_structural   Zr6Al7(CuNi3)4
_chemical_formula_sum   'Zr6 Al7 Cu4 Ni12'
_cell_volume   407.29809024
_cell_formula_units_Z   1
loop_
 _symmetry_equiv_pos_site_id
 _symmetry_equiv_pos_as_xyz
  1  'x, y, z'
loop_
 _atom_site_type_symbol
 _atom_site_label
 _atom_site_symmetry_multiplicity
 _atom_site_fract_x
 _atom_site_fract_y
 _atom_site_fract_z
 _atom_site_occupancy
  Zr  Zr0  1  0.703793  0.296208  0.296208  1
  Zr  Zr1  1  0.296209  0.703792  0.703792  1
  Zr  Zr2  1  0.296208  0.703793  0.296208  1
  Zr  Zr3  1  0.296208  0.296208  0.703793  1
  Zr  Zr4  1  0.703792  0.296209  0.703792  1
  Zr  Zr5  1  0.703792  0.703792  0.296209  1
  Al  Al6  1  0.498543  0.001456  0.001456  1
  Al  Al7  1  0.001455  0.498544  0.498544  1
  Al  Al8  1  0.001456  0.498543  0.001456  1
  Al  Al9  1  0.001456  0.001456  0.498543  1
  Al  Al10  1  0.498544  0.001455  0.498544  1
  Al  Al11  1  0.498544  0.498544  0.001455  1
  Al  Al12  1  0.000000  0.000000  0.000000  1
  Cu  Cu13  1  0.880125  0.880125  0.880125  1
  Cu  Cu14  1  0.880125  0.880125  0.359625  1
  Cu  Cu15  1  0.880125  0.359625  0.880125  1
  Cu  Cu16  1  0.359625  0.880125  0.880125  1
  Ni  Ni17  1  0.330937  0.330937  0.330937  1
  Ni  Ni18  1  0.330937  0.330937  0.007190  1
  Ni  Ni19  1  0.007190  0.330937  0.330937  1
  Ni  Ni20  1  0.330937  0.007190  0.330937  1
  Ni  Ni21  1  0.669402  0.669402  0.669402  1
  Ni  Ni22  1  0.669402  0.669402  0.991796  1
  Ni  Ni23  1  0.669402  0.991796  0.669402  1
  Ni  Ni24  1  0.991796  0.669402  0.669402  1
  Ni  Ni25  1  0.120495  0.120495  0.120495  1
  Ni  Ni26  1  0.120495  0.120495  0.638516  1
  Ni  Ni27  1  0.638516  0.120495  0.120495  1
  Ni  Ni28  1  0.120495  0.638516  0.120495  1
