# generated using pymatgen
data_Tb3Y3Al24(Os3Pt)2
_symmetry_space_group_name_H-M   'P 1'
_cell_length_a   8.83990721
_cell_length_b   8.81852829
_cell_length_c   9.58570533
_cell_angle_alpha   90.05795581
_cell_angle_beta   90.11462554
_cell_angle_gamma   119.61601647
_symmetry_Int_Tables_number   1
_chemical_formula_structural   Tb3Y3Al24(Os3Pt)2
_chemical_formula_sum   'Tb3 Y3 Al24 Os6 Pt2'
_cell_volume   649.62680976
_cell_formula_units_Z   1
loop_
 _symmetry_equiv_pos_site_id
 _symmetry_equiv_pos_as_xyz
  1  'x, y, z'
loop_
 _atom_site_type_symbol
 _atom_site_label
 _atom_site_symmetry_multiplicity
 _atom_site_fract_x
 _atom_site_fract_y
 _atom_site_fract_z
 _atom_site_occupancy
  Tb  Tb0  1  0.190105  0.386293  0.252875  1
  Tb  Tb1  1  0.809975  0.613748  0.747135  1
  Tb  Tb2  1  0.615888  0.808530  0.252361  1
  Y  Y3  1  0.384395  0.191663  0.747578  1
  Y  Y4  1  0.190902  0.804371  0.252287  1
  Y  Y5  1  0.809076  0.195577  0.747727  1
  Al  Al6  1  0.328533  0.664746  0.024757  1
  Al  Al7  1  0.671337  0.335181  0.975224  1
  Al  Al8  1  0.666599  0.332779  0.522171  1
  Al  Al9  1  0.333278  0.667133  0.477882  1
  Al  Al10  1  0.164447  0.328162  0.575470  1
  Al  Al11  1  0.835589  0.671823  0.424546  1
  Al  Al12  1  0.672721  0.836575  0.574840  1
  Al  Al13  1  0.841888  0.674540  0.077701  1
  Al  Al14  1  0.327279  0.163403  0.425225  1
  Al  Al15  1  0.158139  0.325474  0.922314  1
  Al  Al16  1  0.164608  0.836770  0.575599  1
  Al  Al17  1  0.323546  0.161861  0.078828  1
  Al  Al18  1  0.835493  0.163354  0.424447  1
  Al  Al19  1  0.676450  0.838147  0.921146  1
  Al  Al20  1  0.841415  0.167570  0.077581  1
  Al  Al21  1  0.158612  0.832451  0.922417  1
  Al  Al22  1  0.561852  0.124827  0.251828  1
  Al  Al23  1  0.438121  0.875327  0.748145  1
  Al  Al24  1  0.876477  0.438886  0.249009  1
  Al  Al25  1  0.123547  0.561109  0.751003  1
  Al  Al26  1  0.562536  0.437144  0.252041  1
  Al  Al27  1  0.437441  0.562683  0.747943  1
  Al  Al28  1  0.997851  0.999382  0.250356  1
  Al  Al29  1  0.001995  0.000512  0.749646  1
  Os  Os30  1  0.999909  0.499965  0.999974  1
  Os  Os31  1  0.499986  0.999987  0.499951  1
  Os  Os32  1  0.999906  0.499981  0.500059  1
  Os  Os33  1  0.499970  0.499950  0.499998  1
  Os  Os34  1  0.000109  0.000071  0.999979  1
  Os  Os35  1  0.000124  0.000092  0.500039  1
  Pt  Pt36  1  0.499965  0.000027  0.999973  1
  Pt  Pt37  1  0.499936  0.499907  0.999946  1
