# generated using pymatgen
data_LiLa8CdTc2
_symmetry_space_group_name_H-M   'P 1'
_cell_length_a   10.10365062
_cell_length_b   10.06710100
_cell_length_c   10.10365020
_cell_angle_alpha   60.11959549
_cell_angle_beta   59.88236195
_cell_angle_gamma   60.11959358
_symmetry_Int_Tables_number   1
_chemical_formula_structural   LiLa8CdTc2
_chemical_formula_sum   'Li2 La16 Cd2 Tc4'
_cell_volume   727.34384469
_cell_formula_units_Z   2
loop_
 _symmetry_equiv_pos_site_id
 _symmetry_equiv_pos_as_xyz
  1  'x, y, z'
loop_
 _atom_site_type_symbol
 _atom_site_label
 _atom_site_symmetry_multiplicity
 _atom_site_fract_x
 _atom_site_fract_y
 _atom_site_fract_z
 _atom_site_occupancy
  Li  Li0  1  0.673137  0.680941  0.964979  1
  Li  Li1  1  0.964979  0.680941  0.673137  1
  La  La2  1  0.905090  0.907492  0.905090  1
  La  La3  1  0.437642  0.437647  0.062076  1
  La  La4  1  0.062076  0.062635  0.437642  1
  La  La5  1  0.437642  0.062635  0.062076  1
  La  La6  1  0.306558  0.693442  0.306558  1
  La  La7  1  0.695236  0.694395  0.308732  1
  La  La8  1  0.695236  0.301636  0.308732  1
  La  La9  1  0.284986  0.904828  0.905359  1
  La  La10  1  0.905090  0.282331  0.905090  1
  La  La11  1  0.308732  0.694395  0.695236  1
  La  La12  1  0.905359  0.904828  0.284986  1
  La  La13  1  0.063207  0.436793  0.063207  1
  La  La14  1  0.308732  0.301636  0.695236  1
  La  La15  1  0.062076  0.437647  0.437642  1
  La  La16  1  0.438492  0.061508  0.438492  1
  La  La17  1  0.690769  0.309231  0.690769  1
  Cd  Cd18  1  0.671979  0.985076  0.671979  1
  Cd  Cd19  1  0.671979  0.670965  0.671979  1
  Tc  Tc20  1  0.118329  0.113281  0.655106  1
  Tc  Tc21  1  0.118783  0.115707  0.118783  1
  Tc  Tc22  1  0.118783  0.646727  0.118783  1
  Tc  Tc23  1  0.655106  0.113281  0.118329  1
