# generated using pymatgen
data_Dy2Mn3Co5(MoP3)2
_symmetry_space_group_name_H-M   'P 1'
_cell_length_a   3.67254200
_cell_length_b   10.49175800
_cell_length_c   12.12653900
_cell_angle_alpha   90.00000000
_cell_angle_beta   90.00000000
_cell_angle_gamma   90.00000000
_symmetry_Int_Tables_number   1
_chemical_formula_structural   Dy2Mn3Co5(MoP3)2
_chemical_formula_sum   'Dy4 Mn6 Co10 Mo4 P12'
_cell_volume   467.25279050
_cell_formula_units_Z   2
loop_
 _symmetry_equiv_pos_site_id
 _symmetry_equiv_pos_as_xyz
  1  'x, y, z'
loop_
 _atom_site_type_symbol
 _atom_site_label
 _atom_site_symmetry_multiplicity
 _atom_site_fract_x
 _atom_site_fract_y
 _atom_site_fract_z
 _atom_site_occupancy
  Dy  Dy0  1  0.250000  0.587191  0.709815  1
  Dy  Dy1  1  0.250000  0.912809  0.209815  1
  Dy  Dy2  1  0.750000  0.417788  0.290989  1
  Dy  Dy3  1  0.750000  0.082212  0.790989  1
  Mn  Mn4  1  0.250000  0.409514  0.492544  1
  Mn  Mn5  1  0.250000  0.090486  0.992544  1
  Mn  Mn6  1  0.750000  0.593366  0.507764  1
  Mn  Mn7  1  0.750000  0.906634  0.007764  1
  Mn  Mn8  1  0.250000  0.216778  0.175902  1
  Mn  Mn9  1  0.250000  0.283222  0.675902  1
  Co  Co10  1  0.750000  0.776537  0.822127  1
  Co  Co11  1  0.750000  0.723463  0.322127  1
  Co  Co12  1  0.250000  0.884348  0.697836  1
  Co  Co13  1  0.250000  0.615652  0.197836  1
  Co  Co14  1  0.750000  0.114930  0.301508  1
  Co  Co15  1  0.750000  0.385070  0.801508  1
  Co  Co16  1  0.250000  0.466162  0.933067  1
  Co  Co17  1  0.250000  0.033838  0.433067  1
  Co  Co18  1  0.750000  0.534990  0.065602  1
  Co  Co19  1  0.750000  0.965010  0.565602  1
  Mo  Mo20  1  0.250000  0.710112  0.987931  1
  Mo  Mo21  1  0.250000  0.789888  0.487931  1
  Mo  Mo22  1  0.750000  0.290059  0.014316  1
  Mo  Mo23  1  0.750000  0.209941  0.514316  1
  P  P24  1  0.250000  0.423595  0.113239  1
  P  P25  1  0.250000  0.076405  0.613239  1
  P  P26  1  0.750000  0.578636  0.886522  1
  P  P27  1  0.750000  0.921364  0.386522  1
  P  P28  1  0.250000  0.268898  0.865997  1
  P  P29  1  0.250000  0.231102  0.365997  1
  P  P30  1  0.750000  0.729171  0.136324  1
  P  P31  1  0.750000  0.770829  0.636324  1
  P  P32  1  0.250000  0.597980  0.382620  1
  P  P33  1  0.250000  0.902020  0.882620  1
  P  P34  1  0.750000  0.408494  0.615897  1
  P  P35  1  0.750000  0.091506  0.115897  1
