# generated using pymatgen
data_Zr6SiSnSb
_symmetry_space_group_name_H-M   'P 1'
_cell_length_a   7.64629300
_cell_length_b   7.64629140
_cell_length_c   3.91378500
_cell_angle_alpha   90.00000000
_cell_angle_beta   90.00000000
_cell_angle_gamma   119.99999395
_symmetry_Int_Tables_number   1
_chemical_formula_structural   Zr6SiSnSb
_chemical_formula_sum   'Zr6 Si1 Sn1 Sb1'
_cell_volume   198.16611870
_cell_formula_units_Z   1
loop_
 _symmetry_equiv_pos_site_id
 _symmetry_equiv_pos_as_xyz
  1  'x, y, z'
loop_
 _atom_site_type_symbol
 _atom_site_label
 _atom_site_symmetry_multiplicity
 _atom_site_fract_x
 _atom_site_fract_y
 _atom_site_fract_z
 _atom_site_occupancy
  Zr  Zr0  1  0.241632  0.998100  0.500000  1
  Zr  Zr1  1  0.001900  0.243533  0.500000  1
  Zr  Zr2  1  0.756467  0.758368  0.500000  1
  Zr  Zr3  1  0.608091  0.001639  0.000000  1
  Zr  Zr4  1  0.998361  0.606451  0.000000  1
  Zr  Zr5  1  0.393549  0.391909  0.000000  1
  Si  Si6  1  0.000000  0.000000  0.000000  1
  Sn  Sn7  1  0.333333  0.666667  0.500000  1
  Sb  Sb8  1  0.666667  0.333333  0.500000  1
