# generated using pymatgen
data_TbYMnIr3
_symmetry_space_group_name_H-M   'P 1'
_cell_length_a   5.19959099
_cell_length_b   5.19959098
_cell_length_c   5.19959059
_cell_angle_alpha   63.73046674
_cell_angle_beta   63.73046557
_cell_angle_gamma   63.73047096
_symmetry_Int_Tables_number   1
_chemical_formula_structural   TbYMnIr3
_chemical_formula_sum   'Tb1 Y1 Mn1 Ir3'
_cell_volume   107.58612387
_cell_formula_units_Z   1
loop_
 _symmetry_equiv_pos_site_id
 _symmetry_equiv_pos_as_xyz
  1  'x, y, z'
loop_
 _atom_site_type_symbol
 _atom_site_label
 _atom_site_symmetry_multiplicity
 _atom_site_fract_x
 _atom_site_fract_y
 _atom_site_fract_z
 _atom_site_occupancy
  Tb  Tb0  1  0.251307  0.251307  0.251307  1
  Y  Y1  1  0.998746  0.998746  0.998746  1
  Mn  Mn2  1  0.625040  0.625040  0.625040  1
  Ir  Ir3  1  0.624955  0.624955  0.124997  1
  Ir  Ir4  1  0.624955  0.124997  0.624955  1
  Ir  Ir5  1  0.124997  0.624955  0.624955  1
