# generated using pymatgen
data_Er2GaB2Ru3Rh2
_symmetry_space_group_name_H-M   'P 1'
_cell_length_a   9.56041500
_cell_length_b   9.56041500
_cell_length_c   3.09498300
_cell_angle_alpha   90.00000000
_cell_angle_beta   90.00000000
_cell_angle_gamma   90.00000000
_symmetry_Int_Tables_number   1
_chemical_formula_structural   Er2GaB2Ru3Rh2
_chemical_formula_sum   'Er4 Ga2 B4 Ru6 Rh4'
_cell_volume   282.88619691
_cell_formula_units_Z   2
loop_
 _symmetry_equiv_pos_site_id
 _symmetry_equiv_pos_as_xyz
  1  'x, y, z'
loop_
 _atom_site_type_symbol
 _atom_site_label
 _atom_site_symmetry_multiplicity
 _atom_site_fract_x
 _atom_site_fract_y
 _atom_site_fract_z
 _atom_site_occupancy
  Er  Er0  1  0.826243  0.323549  0.000000  1
  Er  Er1  1  0.323549  0.173757  0.000000  1
  Er  Er2  1  0.676451  0.826243  0.000000  1
  Er  Er3  1  0.173757  0.676451  0.000000  1
  Ga  Ga4  1  0.000000  0.000000  0.000000  1
  Ga  Ga5  1  0.500000  0.500000  0.000000  1
  B  B6  1  0.626429  0.117142  0.000000  1
  B  B7  1  0.117142  0.373571  0.000000  1
  B  B8  1  0.882858  0.626429  0.000000  1
  B  B9  1  0.373571  0.882858  0.000000  1
  Ru  Ru10  1  0.069788  0.217540  0.500000  1
  Ru  Ru11  1  0.217540  0.930212  0.500000  1
  Ru  Ru12  1  0.782460  0.069788  0.500000  1
  Ru  Ru13  1  0.930212  0.782460  0.500000  1
  Ru  Ru14  1  0.500000  0.000000  0.500000  1
  Ru  Ru15  1  0.000000  0.500000  0.500000  1
  Rh  Rh16  1  0.430764  0.716511  0.500000  1
  Rh  Rh17  1  0.569236  0.283489  0.500000  1
  Rh  Rh18  1  0.716511  0.569236  0.500000  1
  Rh  Rh19  1  0.283489  0.430764  0.500000  1
