# generated using pymatgen
data_Sr8In15AgAu12
_symmetry_space_group_name_H-M   'P 1'
_cell_length_a   15.29800500
_cell_length_b   15.29038749
_cell_length_c   4.62448100
_cell_angle_alpha   90.00000000
_cell_angle_beta   90.00000000
_cell_angle_gamma   120.01648350
_symmetry_Int_Tables_number   1
_chemical_formula_structural   Sr8In15AgAu12
_chemical_formula_sum   'Sr8 In15 Ag1 Au12'
_cell_volume   936.64444458
_cell_formula_units_Z   1
loop_
 _symmetry_equiv_pos_site_id
 _symmetry_equiv_pos_as_xyz
  1  'x, y, z'
loop_
 _atom_site_type_symbol
 _atom_site_label
 _atom_site_symmetry_multiplicity
 _atom_site_fract_x
 _atom_site_fract_y
 _atom_site_fract_z
 _atom_site_occupancy
  Sr  Sr0  1  0.447573  0.000000  0.000000  1
  Sr  Sr1  1  0.000197  0.452405  0.000000  1
  Sr  Sr2  1  0.547793  0.547595  0.000000  1
  Sr  Sr3  1  0.332792  0.667358  0.000000  1
  Sr  Sr4  1  0.665435  0.332642  0.000000  1
  Sr  Sr5  1  0.821919  0.000000  0.500000  1
  Sr  Sr6  1  0.005697  0.824273  0.500000  1
  Sr  Sr7  1  0.181424  0.175727  0.500000  1
  In  In8  1  0.183753  0.380191  0.000000  1
  In  In9  1  0.620229  0.802936  0.000000  1
  In  In10  1  0.376661  0.176251  0.000000  1
  In  In11  1  0.200408  0.823749  0.000000  1
  In  In12  1  0.803563  0.619809  0.000000  1
  In  In13  1  0.817295  0.197064  0.000000  1
  In  In14  1  0.001108  0.280080  0.500000  1
  In  In15  1  0.721029  0.719920  0.500000  1
  In  In16  1  0.347724  0.471665  0.500000  1
  In  In17  1  0.526857  0.877913  0.500000  1
  In  In18  1  0.471169  0.349465  0.500000  1
  In  In19  1  0.121704  0.650535  0.500000  1
  In  In20  1  0.876060  0.528335  0.500000  1
  In  In21  1  0.648944  0.122087  0.500000  1
  In  In22  1  0.000559  0.000000  0.000000  1
  Ag  Ag23  1  0.281123  0.000000  0.500000  1
  Au  Au24  1  0.172174  0.492697  0.500000  1
  Au  Au25  1  0.507512  0.681535  0.500000  1
  Au  Au26  1  0.494554  0.176065  0.500000  1
  Au  Au27  1  0.318489  0.823935  0.500000  1
  Au  Au28  1  0.679477  0.507303  0.500000  1
  Au  Au29  1  0.825977  0.318465  0.500000  1
  Au  Au30  1  0.176362  0.000000  0.000000  1
  Au  Au31  1  0.999977  0.177881  0.000000  1
  Au  Au32  1  0.822096  0.822119  0.000000  1
  Au  Au33  1  0.657518  0.000000  0.000000  1
  Au  Au34  1  0.002357  0.659865  0.000000  1
  Au  Au35  1  0.342492  0.340135  0.000000  1
