# generated using pymatgen
data_Lu4Tc3OsRu4
_symmetry_space_group_name_H-M   'P 1'
_cell_length_a   5.21384404
_cell_length_b   5.26707316
_cell_length_c   8.95695800
_cell_angle_alpha   90.00000000
_cell_angle_beta   90.00000000
_cell_angle_gamma   120.33828718
_symmetry_Int_Tables_number   1
_chemical_formula_structural   Lu4Tc3OsRu4
_chemical_formula_sum   'Lu4 Tc3 Os1 Ru4'
_cell_volume   212.28925580
_cell_formula_units_Z   1
loop_
 _symmetry_equiv_pos_site_id
 _symmetry_equiv_pos_as_xyz
  1  'x, y, z'
loop_
 _atom_site_type_symbol
 _atom_site_label
 _atom_site_symmetry_multiplicity
 _atom_site_fract_x
 _atom_site_fract_y
 _atom_site_fract_z
 _atom_site_occupancy
  Lu  Lu0  1  0.337703  0.668852  0.433599  1
  Lu  Lu1  1  0.668108  0.334054  0.565284  1
  Lu  Lu2  1  0.668108  0.334054  0.934716  1
  Lu  Lu3  1  0.337703  0.668852  0.066401  1
  Tc  Tc4  1  0.165919  0.336750  0.750000  1
  Tc  Tc5  1  0.165919  0.829170  0.750000  1
  Tc  Tc6  1  0.332111  0.166054  0.250000  1
  Os  Os7  1  0.649610  0.824805  0.750000  1
  Ru  Ru8  1  0.818118  0.650895  0.250000  1
  Ru  Ru9  1  0.019292  0.009646  0.002290  1
  Ru  Ru10  1  0.818118  0.167222  0.250000  1
  Ru  Ru11  1  0.019292  0.009646  0.497710  1
