# generated using pymatgen
data_AcMnSb12Ru2Pt
_symmetry_space_group_name_H-M   'P 1'
_cell_length_a   8.15939142
_cell_length_b   8.15359824
_cell_length_c   8.13875685
_cell_angle_alpha   109.47389002
_cell_angle_beta   109.51191328
_cell_angle_gamma   109.51905594
_symmetry_Int_Tables_number   1
_chemical_formula_structural   AcMnSb12Ru2Pt
_chemical_formula_sum   'Ac1 Mn1 Sb12 Ru2 Pt1'
_cell_volume   416.34508174
_cell_formula_units_Z   1
loop_
 _symmetry_equiv_pos_site_id
 _symmetry_equiv_pos_as_xyz
  1  'x, y, z'
loop_
 _atom_site_type_symbol
 _atom_site_label
 _atom_site_symmetry_multiplicity
 _atom_site_fract_x
 _atom_site_fract_y
 _atom_site_fract_z
 _atom_site_occupancy
  Ac  Ac0  1  0.000000  0.000000  0.000000  1
  Mn  Mn1  1  0.000000  0.500000  0.000000  1
  Sb  Sb2  1  0.150308  0.809717  0.650747  1
  Sb  Sb3  1  0.849692  0.190283  0.349253  1
  Sb  Sb4  1  0.841763  0.501689  0.669243  1
  Sb  Sb5  1  0.158237  0.498311  0.330757  1
  Sb  Sb6  1  0.827622  0.658504  0.157248  1
  Sb  Sb7  1  0.172378  0.341496  0.842752  1
  Sb  Sb8  1  0.500237  0.650417  0.840719  1
  Sb  Sb9  1  0.499763  0.349583  0.159281  1
  Sb  Sb10  1  0.669773  0.168424  0.817628  1
  Sb  Sb11  1  0.330227  0.831576  0.182372  1
  Sb  Sb12  1  0.660205  0.841224  0.500012  1
  Sb  Sb13  1  0.339795  0.158776  0.499988  1
  Ru  Ru14  1  0.000000  0.000000  0.500000  1
  Ru  Ru15  1  0.500000  0.500000  0.500000  1
  Pt  Pt16  1  0.500000  0.000000  0.000000  1
