# generated using pymatgen
data_Dy13Tm3In4(IrRh)2
_symmetry_space_group_name_H-M   'P 1'
_cell_length_a   9.66529224
_cell_length_b   9.64939307
_cell_length_c   9.65767099
_cell_angle_alpha   59.92342429
_cell_angle_beta   59.97389342
_cell_angle_gamma   59.94547959
_symmetry_Int_Tables_number   1
_chemical_formula_structural   Dy13Tm3In4(IrRh)2
_chemical_formula_sum   'Dy13 Tm3 In4 Ir2 Rh2'
_cell_volume   636.14450777
_cell_formula_units_Z   1
loop_
 _symmetry_equiv_pos_site_id
 _symmetry_equiv_pos_as_xyz
  1  'x, y, z'
loop_
 _atom_site_type_symbol
 _atom_site_label
 _atom_site_symmetry_multiplicity
 _atom_site_fract_x
 _atom_site_fract_y
 _atom_site_fract_z
 _atom_site_occupancy
  Dy  Dy0  1  0.938166  0.939243  0.560719  1
  Dy  Dy1  1  0.150538  0.149897  0.549027  1
  Dy  Dy2  1  0.561872  0.939243  0.560719  1
  Dy  Dy3  1  0.150624  0.150141  0.150934  1
  Dy  Dy4  1  0.310338  0.311659  0.688487  1
  Dy  Dy5  1  0.939901  0.560522  0.559676  1
  Dy  Dy6  1  0.561218  0.560964  0.940268  1
  Dy  Dy7  1  0.562386  0.936835  0.938392  1
  Dy  Dy8  1  0.937549  0.560964  0.940268  1
  Dy  Dy9  1  0.150123  0.549656  0.150097  1
  Dy  Dy10  1  0.311100  0.689433  0.688368  1
  Dy  Dy11  1  0.689516  0.311659  0.688487  1
  Dy  Dy12  1  0.548301  0.150141  0.150934  1
  Tm  Tm13  1  0.688929  0.311592  0.310550  1
  Tm  Tm14  1  0.688995  0.688774  0.311257  1
  Tm  Tm15  1  0.310974  0.688774  0.311257  1
  In  In16  1  0.916898  0.917262  0.248940  1
  In  In17  1  0.249228  0.917020  0.917318  1
  In  In18  1  0.916841  0.248877  0.917440  1
  In  In19  1  0.916433  0.917020  0.917318  1
  Ir  Ir20  1  0.358809  0.358877  0.357784  1
  Ir  Ir21  1  0.924531  0.358877  0.357784  1
  Rh  Rh22  1  0.357946  0.358234  0.925874  1
  Rh  Rh23  1  0.358782  0.924335  0.358101  1
