# generated using pymatgen
data_Tb4PrHoTa2O14
_symmetry_space_group_name_H-M   'P 1'
_cell_length_a   6.52774737
_cell_length_b   6.53191472
_cell_length_c   7.56093745
_cell_angle_alpha   89.88000894
_cell_angle_beta   90.09130236
_cell_angle_gamma   108.79348060
_symmetry_Int_Tables_number   1
_chemical_formula_structural   Tb4PrHoTa2O14
_chemical_formula_sum   'Tb4 Pr1 Ho1 Ta2 O14'
_cell_volume   305.19980508
_cell_formula_units_Z   1
loop_
 _symmetry_equiv_pos_site_id
 _symmetry_equiv_pos_as_xyz
  1  'x, y, z'
loop_
 _atom_site_type_symbol
 _atom_site_label
 _atom_site_symmetry_multiplicity
 _atom_site_fract_x
 _atom_site_fract_y
 _atom_site_fract_z
 _atom_site_occupancy
  Tb  Tb0  1  0.462036  0.460990  0.000308  1
  Tb  Tb1  1  0.999174  0.535612  0.240820  1
  Tb  Tb2  1  0.998850  0.465566  0.745623  1
  Tb  Tb3  1  0.534596  0.999032  0.759023  1
  Pr  Pr4  1  0.514342  0.514611  0.499466  1
  Ho  Ho5  1  0.466512  0.998497  0.254075  1
  Ta  Ta6  1  0.001456  0.001611  0.499369  1
  Ta  Ta7  1  0.997293  0.997472  0.000372  1
  O  O8  1  0.934434  0.064640  0.749586  1
  O  O9  1  0.066517  0.934810  0.250351  1
  O  O10  1  0.359175  0.643499  0.240568  1
  O  O11  1  0.640308  0.358571  0.759449  1
  O  O12  1  0.366886  0.631926  0.759077  1
  O  O13  1  0.630247  0.363507  0.241643  1
  O  O14  1  0.326208  0.079759  0.976176  1
  O  O15  1  0.676972  0.927741  0.471144  1
  O  O16  1  0.313649  0.059822  0.538847  1
  O  O17  1  0.693964  0.953122  0.043714  1
  O  O18  1  0.061329  0.313715  0.460047  1
  O  O19  1  0.949872  0.693032  0.958800  1
  O  O20  1  0.924918  0.676595  0.526385  1
  O  O21  1  0.081262  0.325870  0.025157  1
