# generated using pymatgen
data_Y8Cd2SnPbAu8
_symmetry_space_group_name_H-M   'P 1'
_cell_length_a   8.06945700
_cell_length_b   8.06945700
_cell_length_c   7.38614100
_cell_angle_alpha   90.00000000
_cell_angle_beta   90.00000000
_cell_angle_gamma   90.00000000
_symmetry_Int_Tables_number   1
_chemical_formula_structural   Y8Cd2SnPbAu8
_chemical_formula_sum   'Y8 Cd2 Sn1 Pb1 Au8'
_cell_volume   480.95696390
_cell_formula_units_Z   1
loop_
 _symmetry_equiv_pos_site_id
 _symmetry_equiv_pos_as_xyz
  1  'x, y, z'
loop_
 _atom_site_type_symbol
 _atom_site_label
 _atom_site_symmetry_multiplicity
 _atom_site_fract_x
 _atom_site_fract_y
 _atom_site_fract_z
 _atom_site_occupancy
  Y  Y0  1  0.842165  0.166824  0.498922  1
  Y  Y1  1  0.157835  0.833176  0.498922  1
  Y  Y2  1  0.333176  0.342165  0.001078  1
  Y  Y3  1  0.666824  0.657835  0.001078  1
  Y  Y4  1  0.681978  0.674836  0.499140  1
  Y  Y5  1  0.318022  0.325164  0.499140  1
  Y  Y6  1  0.174836  0.818022  0.000860  1
  Y  Y7  1  0.825164  0.181978  0.000860  1
  Cd  Cd8  1  0.500000  0.000000  0.250000  1
  Cd  Cd9  1  0.000000  0.500000  0.750000  1
  Sn  Sn10  1  0.000000  0.500000  0.250000  1
  Pb  Pb11  1  0.500000  0.000000  0.750000  1
  Au  Au12  1  0.622079  0.365779  0.266330  1
  Au  Au13  1  0.377921  0.634221  0.266330  1
  Au  Au14  1  0.124186  0.131122  0.766142  1
  Au  Au15  1  0.875814  0.868878  0.766142  1
  Au  Au16  1  0.368878  0.624186  0.733858  1
  Au  Au17  1  0.631122  0.375814  0.733858  1
  Au  Au18  1  0.865779  0.877921  0.233670  1
  Au  Au19  1  0.134221  0.122079  0.233670  1
