# generated using pymatgen
data_Ho4Co15As12Ru5
_symmetry_space_group_name_H-M   'P 1'
_cell_length_a   3.82952100
_cell_length_b   10.79986930
_cell_length_c   12.29127905
_cell_angle_alpha   90.15540016
_cell_angle_beta   90.00000000
_cell_angle_gamma   90.00000000
_symmetry_Int_Tables_number   1
_chemical_formula_structural   Ho4Co15As12Ru5
_chemical_formula_sum   'Ho4 Co15 As12 Ru5'
_cell_volume   508.34485986
_cell_formula_units_Z   1
loop_
 _symmetry_equiv_pos_site_id
 _symmetry_equiv_pos_as_xyz
  1  'x, y, z'
loop_
 _atom_site_type_symbol
 _atom_site_label
 _atom_site_symmetry_multiplicity
 _atom_site_fract_x
 _atom_site_fract_y
 _atom_site_fract_z
 _atom_site_occupancy
  Ho  Ho0  1  0.250000  0.585096  0.704803  1
  Ho  Ho1  1  0.250000  0.916602  0.203123  1
  Ho  Ho2  1  0.750000  0.416271  0.293890  1
  Ho  Ho3  1  0.750000  0.083575  0.796849  1
  Co  Co4  1  0.250000  0.092721  0.987762  1
  Co  Co5  1  0.750000  0.596393  0.513550  1
  Co  Co6  1  0.750000  0.906928  0.012052  1
  Co  Co7  1  0.250000  0.216036  0.174539  1
  Co  Co8  1  0.250000  0.280284  0.679337  1
  Co  Co9  1  0.750000  0.784121  0.823955  1
  Co  Co10  1  0.750000  0.717734  0.322954  1
  Co  Co11  1  0.250000  0.886492  0.700505  1
  Co  Co12  1  0.250000  0.616144  0.197886  1
  Co  Co13  1  0.750000  0.113306  0.298990  1
  Co  Co14  1  0.750000  0.385958  0.801593  1
  Co  Co15  1  0.250000  0.466065  0.930861  1
  Co  Co16  1  0.250000  0.032912  0.431737  1
  Co  Co17  1  0.750000  0.534723  0.067924  1
  Co  Co18  1  0.750000  0.964793  0.569132  1
  As  As19  1  0.250000  0.417712  0.113418  1
  As  As20  1  0.250000  0.081511  0.614311  1
  As  As21  1  0.750000  0.583319  0.885977  1
  As  As22  1  0.750000  0.917602  0.385686  1
  As  As23  1  0.250000  0.267928  0.868623  1
  As  As24  1  0.250000  0.227322  0.363808  1
  As  As25  1  0.750000  0.732126  0.132315  1
  As  As26  1  0.750000  0.768651  0.633812  1
  As  As27  1  0.250000  0.599969  0.386353  1
  As  As28  1  0.250000  0.904603  0.889887  1
  As  As29  1  0.750000  0.403655  0.614718  1
  As  As30  1  0.750000  0.095192  0.109770  1
  Ru  Ru31  1  0.250000  0.711283  0.989903  1
  Ru  Ru32  1  0.250000  0.789472  0.491241  1
  Ru  Ru33  1  0.750000  0.288334  0.009475  1
  Ru  Ru34  1  0.750000  0.208168  0.511601  1
  Ru  Ru35  1  0.250000  0.407000  0.487656  1
