# generated using pymatgen
data_AcGd2(ZnNi2)2
_symmetry_space_group_name_H-M   'P 1'
_cell_length_a   5.53554790
_cell_length_b   5.53554904
_cell_length_c   8.35950400
_cell_angle_alpha   82.28426061
_cell_angle_beta   82.28425901
_cell_angle_gamma   45.66343790
_symmetry_Int_Tables_number   1
_chemical_formula_structural   AcGd2(ZnNi2)2
_chemical_formula_sum   'Ac1 Gd2 Zn2 Ni4'
_cell_volume   181.25929328
_cell_formula_units_Z   1
loop_
 _symmetry_equiv_pos_site_id
 _symmetry_equiv_pos_as_xyz
  1  'x, y, z'
loop_
 _atom_site_type_symbol
 _atom_site_label
 _atom_site_symmetry_multiplicity
 _atom_site_fract_x
 _atom_site_fract_y
 _atom_site_fract_z
 _atom_site_occupancy
  Ac  Ac0  1  0.000000  0.000000  0.000000  1
  Gd  Gd1  1  0.373868  0.373868  0.387185  1
  Gd  Gd2  1  0.626132  0.626132  0.612815  1
  Zn  Zn3  1  0.319584  0.319584  0.777057  1
  Zn  Zn4  1  0.680416  0.680416  0.222943  1
  Ni  Ni5  1  0.736603  0.736603  0.909613  1
  Ni  Ni6  1  0.086182  0.086182  0.370312  1
  Ni  Ni7  1  0.913818  0.913818  0.629688  1
  Ni  Ni8  1  0.263397  0.263397  0.090387  1
