# generated using pymatgen
data_LaNd(GaCu)2
_symmetry_space_group_name_H-M   'P 1'
_cell_length_a   7.49993400
_cell_length_b   4.57867700
_cell_length_c   7.30328300
_cell_angle_alpha   90.00000000
_cell_angle_beta   90.00000000
_cell_angle_gamma   90.00000000
_symmetry_Int_Tables_number   1
_chemical_formula_structural   LaNd(GaCu)2
_chemical_formula_sum   'La2 Nd2 Ga4 Cu4'
_cell_volume   250.79309723
_cell_formula_units_Z   2
loop_
 _symmetry_equiv_pos_site_id
 _symmetry_equiv_pos_as_xyz
  1  'x, y, z'
loop_
 _atom_site_type_symbol
 _atom_site_label
 _atom_site_symmetry_multiplicity
 _atom_site_fract_x
 _atom_site_fract_y
 _atom_site_fract_z
 _atom_site_occupancy
  La  La0  1  0.518278  0.750001  0.196536  1
  La  La1  1  0.018277  0.750001  0.303465  1
  Nd  Nd2  1  0.981071  0.250000  0.705663  1
  Nd  Nd3  1  0.481071  0.250000  0.794336  1
  Ga  Ga4  1  0.811556  0.250000  0.090209  1
  Ga  Ga5  1  0.311555  0.250000  0.409792  1
  Ga  Ga6  1  0.688341  0.750001  0.597319  1
  Ga  Ga7  1  0.188340  0.750001  0.902680  1
  Cu  Cu8  1  0.180398  0.250000  0.077073  1
  Cu  Cu9  1  0.680397  0.250000  0.422928  1
  Cu  Cu10  1  0.320357  0.750001  0.581565  1
  Cu  Cu11  1  0.820356  0.750001  0.918434  1
