# generated using pymatgen
data_Pr8Nd2Ir3Os
_symmetry_space_group_name_H-M   'P 1'
_cell_length_a   9.04713423
_cell_length_b   9.02705645
_cell_length_c   7.39562749
_cell_angle_alpha   83.69483392
_cell_angle_beta   83.68173255
_cell_angle_gamma   43.63358059
_symmetry_Int_Tables_number   1
_chemical_formula_structural   Pr8Nd2Ir3Os
_chemical_formula_sum   'Pr8 Nd2 Ir3 Os1'
_cell_volume   413.84933976
_cell_formula_units_Z   1
loop_
 _symmetry_equiv_pos_site_id
 _symmetry_equiv_pos_as_xyz
  1  'x, y, z'
loop_
 _atom_site_type_symbol
 _atom_site_label
 _atom_site_symmetry_multiplicity
 _atom_site_fract_x
 _atom_site_fract_y
 _atom_site_fract_z
 _atom_site_occupancy
  Pr  Pr0  1  0.019732  0.795471  0.917175  1
  Pr  Pr1  1  0.202236  0.979813  0.581503  1
  Pr  Pr2  1  0.981583  0.202580  0.081167  1
  Pr  Pr3  1  0.798835  0.016478  0.419870  1
  Pr  Pr4  1  0.350111  0.216685  0.815346  1
  Pr  Pr5  1  0.789720  0.647092  0.683387  1
  Pr  Pr6  1  0.647486  0.786927  0.184068  1
  Pr  Pr7  1  0.214000  0.353012  0.317037  1
  Nd  Nd8  1  0.565566  0.433758  0.749658  1
  Nd  Nd9  1  0.432265  0.566350  0.251772  1
  Ir  Ir10  1  0.401868  0.818955  0.927412  1
  Ir  Ir11  1  0.818702  0.402376  0.425565  1
  Ir  Ir12  1  0.597971  0.180800  0.073465  1
  Os  Os13  1  0.179925  0.599704  0.572576  1
