# generated using pymatgen
data_Li4Nd3Si3As
_symmetry_space_group_name_H-M   'P 1'
_cell_length_a   4.36177673
_cell_length_b   6.74683672
_cell_length_c   8.31261000
_cell_angle_alpha   113.94249232
_cell_angle_beta   105.21009145
_cell_angle_gamma   90.00001265
_symmetry_Int_Tables_number   1
_chemical_formula_structural   Li4Nd3Si3As
_chemical_formula_sum   'Li4 Nd3 Si3 As1'
_cell_volume   214.16619816
_cell_formula_units_Z   1
loop_
 _symmetry_equiv_pos_site_id
 _symmetry_equiv_pos_as_xyz
  1  'x, y, z'
loop_
 _atom_site_type_symbol
 _atom_site_label
 _atom_site_symmetry_multiplicity
 _atom_site_fract_x
 _atom_site_fract_y
 _atom_site_fract_z
 _atom_site_occupancy
  Li  Li0  1  0.670862  0.981025  0.341723  1
  Li  Li1  1  0.330037  0.018373  0.660075  1
  Li  Li2  1  0.330037  0.641702  0.660075  1
  Li  Li3  1  0.670862  0.360698  0.341723  1
  Nd  Nd4  1  0.997990  0.997990  0.995979  1
  Nd  Nd5  1  0.131177  0.631177  0.262355  1
  Nd  Nd6  1  0.870863  0.370863  0.741725  1
  Si  Si7  1  0.499848  0.678112  0.999697  1
  Si  Si8  1  0.499848  0.321587  0.999697  1
  Si  Si9  1  0.785930  0.785930  0.571859  1
  As  As10  1  0.212544  0.212544  0.425087  1
