# generated using pymatgen
data_SrLaB4(IrRh)2
_symmetry_space_group_name_H-M   'P 1'
_cell_length_a   7.12604973
_cell_length_b   6.15182714
_cell_length_c   5.63607445
_cell_angle_alpha   74.24410554
_cell_angle_beta   56.18629156
_cell_angle_gamma   49.56411565
_symmetry_Int_Tables_number   1
_chemical_formula_structural   SrLaB4(IrRh)2
_chemical_formula_sum   'Sr1 La1 B4 Ir2 Rh2'
_cell_volume   154.67829017
_cell_formula_units_Z   1
loop_
 _symmetry_equiv_pos_site_id
 _symmetry_equiv_pos_as_xyz
  1  'x, y, z'
loop_
 _atom_site_type_symbol
 _atom_site_label
 _atom_site_symmetry_multiplicity
 _atom_site_fract_x
 _atom_site_fract_y
 _atom_site_fract_z
 _atom_site_occupancy
  Sr  Sr0  1  0.751993  0.751993  0.748007  1
  La  La1  1  0.501516  0.501516  0.498484  1
  B  B2  1  0.821112  0.179686  0.831345  1
  B  B3  1  0.079431  0.421877  0.066967  1
  B  B4  1  0.179686  0.821112  0.167858  1
  B  B5  1  0.421877  0.079431  0.431725  1
  Ir  Ir6  1  0.130230  0.130230  0.869770  1
  Ir  Ir7  1  0.379171  0.379171  0.120829  1
  Rh  Rh8  1  0.118169  0.118169  0.381831  1
  Rh  Rh9  1  0.866818  0.866818  0.133182  1
