# generated using pymatgen
data_HgBi3IrRh3O14
_symmetry_space_group_name_H-M   'P 1'
_cell_length_a   7.42627405
_cell_length_b   7.25281633
_cell_length_c   7.41312240
_cell_angle_alpha   59.26547229
_cell_angle_beta   59.94129328
_cell_angle_gamma   59.20566059
_symmetry_Int_Tables_number   1
_chemical_formula_structural   HgBi3IrRh3O14
_chemical_formula_sum   'Hg1 Bi3 Ir1 Rh3 O14'
_cell_volume   278.90689736
_cell_formula_units_Z   1
loop_
 _symmetry_equiv_pos_site_id
 _symmetry_equiv_pos_as_xyz
  1  'x, y, z'
loop_
 _atom_site_type_symbol
 _atom_site_label
 _atom_site_symmetry_multiplicity
 _atom_site_fract_x
 _atom_site_fract_y
 _atom_site_fract_z
 _atom_site_occupancy
  Hg  Hg0  1  0.125000  0.625000  0.125000  1
  Bi  Bi1  1  0.125000  0.125000  0.125000  1
  Bi  Bi2  1  0.625000  0.125000  0.125000  1
  Bi  Bi3  1  0.125000  0.125000  0.625000  1
  Ir  Ir4  1  0.625000  0.625000  0.125000  1
  Rh  Rh5  1  0.625000  0.625000  0.625000  1
  Rh  Rh6  1  0.125000  0.625000  0.625000  1
  Rh  Rh7  1  0.625000  0.125000  0.625000  1
  O  O8  1  0.248268  0.257004  0.246462  1
  O  O9  1  0.303440  0.707720  0.296391  1
  O  O10  1  0.956545  0.960634  0.539409  1
  O  O11  1  0.543412  0.960634  0.539409  1
  O  O12  1  0.692449  0.707720  0.296391  1
  O  O13  1  0.954157  0.541530  0.550156  1
  O  O14  1  0.706588  0.289366  0.710591  1
  O  O15  1  0.293455  0.289366  0.710591  1
  O  O16  1  0.706529  0.293252  0.293689  1
  O  O17  1  0.295843  0.708470  0.699844  1
  O  O18  1  0.946560  0.542280  0.953609  1
  O  O19  1  0.557551  0.542280  0.953609  1
  O  O20  1  0.001732  0.992996  0.003538  1
  O  O21  1  0.543471  0.956748  0.956311  1
