# generated using pymatgen
data_SrY3Pt2(RhO7)2
_symmetry_space_group_name_H-M   'P 1'
_cell_length_a   7.30321413
_cell_length_b   7.32765813
_cell_length_c   7.30712138
_cell_angle_alpha   60.04708929
_cell_angle_beta   60.01769472
_cell_angle_gamma   60.11028353
_symmetry_Int_Tables_number   1
_chemical_formula_structural   SrY3Pt2(RhO7)2
_chemical_formula_sum   'Sr1 Y3 Pt2 Rh2 O14'
_cell_volume   276.87514919
_cell_formula_units_Z   1
loop_
 _symmetry_equiv_pos_site_id
 _symmetry_equiv_pos_as_xyz
  1  'x, y, z'
loop_
 _atom_site_type_symbol
 _atom_site_label
 _atom_site_symmetry_multiplicity
 _atom_site_fract_x
 _atom_site_fract_y
 _atom_site_fract_z
 _atom_site_occupancy
  Sr  Sr0  1  0.125000  0.625000  0.125000  1
  Y  Y1  1  0.125000  0.125000  0.625000  1
  Y  Y2  1  0.625000  0.125000  0.125000  1
  Y  Y3  1  0.125000  0.125000  0.125000  1
  Pt  Pt4  1  0.625000  0.625000  0.125000  1
  Pt  Pt5  1  0.625000  0.125000  0.625000  1
  Rh  Rh6  1  0.625000  0.625000  0.625000  1
  Rh  Rh7  1  0.125000  0.625000  0.625000  1
  O  O8  1  0.297423  0.715050  0.690105  1
  O  O9  1  0.537099  0.963630  0.962174  1
  O  O10  1  0.693603  0.720199  0.293560  1
  O  O11  1  0.290635  0.288454  0.710946  1
  O  O12  1  0.993308  0.021207  0.992176  1
  O  O13  1  0.292637  0.720199  0.293560  1
  O  O14  1  0.709964  0.288454  0.710946  1
  O  O15  1  0.957363  0.529801  0.956440  1
  O  O16  1  0.556397  0.529801  0.956440  1
  O  O17  1  0.959365  0.961546  0.539054  1
  O  O18  1  0.256692  0.228793  0.257824  1
  O  O19  1  0.540036  0.961546  0.539054  1
  O  O20  1  0.712901  0.286370  0.287826  1
  O  O21  1  0.952577  0.534950  0.559895  1
