# generated using pymatgen
data_Sc3Mn3Si2Ge
_symmetry_space_group_name_H-M   'P 1'
_cell_length_a   6.57514600
_cell_length_b   6.57514559
_cell_length_c   3.81060600
_cell_angle_alpha   90.00000000
_cell_angle_beta   90.00000000
_cell_angle_gamma   120.00000205
_symmetry_Int_Tables_number   1
_chemical_formula_structural   Sc3Mn3Si2Ge
_chemical_formula_sum   'Sc3 Mn3 Si2 Ge1'
_cell_volume   142.67091424
_cell_formula_units_Z   1
loop_
 _symmetry_equiv_pos_site_id
 _symmetry_equiv_pos_as_xyz
  1  'x, y, z'
loop_
 _atom_site_type_symbol
 _atom_site_label
 _atom_site_symmetry_multiplicity
 _atom_site_fract_x
 _atom_site_fract_y
 _atom_site_fract_z
 _atom_site_occupancy
  Sc  Sc0  1  0.413253  0.416007  0.500000  1
  Sc  Sc1  1  0.583993  0.997246  0.500000  1
  Sc  Sc2  1  0.002754  0.586747  0.500000  1
  Mn  Mn3  1  0.003321  0.229390  0.000000  1
  Mn  Mn4  1  0.226069  0.996679  0.000000  1
  Mn  Mn5  1  0.770610  0.773931  0.000000  1
  Si  Si6  1  0.000000  0.000000  0.500000  1
  Si  Si7  1  0.333333  0.666667  0.000000  1
  Ge  Ge8  1  0.666667  0.333333  0.000000  1
