# generated using pymatgen
data_SrGe3Pd5
_symmetry_space_group_name_H-M   'P 1'
_cell_length_a   4.14932800
_cell_length_b   7.49382500
_cell_length_c   20.55814900
_cell_angle_alpha   90.00000000
_cell_angle_beta   90.00000000
_cell_angle_gamma   90.00000000
_symmetry_Int_Tables_number   1
_chemical_formula_structural   SrGe3Pd5
_chemical_formula_sum   'Sr4 Ge12 Pd20'
_cell_volume   639.24203160
_cell_formula_units_Z   4
loop_
 _symmetry_equiv_pos_site_id
 _symmetry_equiv_pos_as_xyz
  1  'x, y, z'
loop_
 _atom_site_type_symbol
 _atom_site_label
 _atom_site_symmetry_multiplicity
 _atom_site_fract_x
 _atom_site_fract_y
 _atom_site_fract_z
 _atom_site_occupancy
  Sr  Sr0  1  0.750000  0.377805  0.356319  1
  Sr  Sr1  1  0.750000  0.122195  0.856319  1
  Sr  Sr2  1  0.250000  0.622195  0.643681  1
  Sr  Sr3  1  0.250000  0.877805  0.143681  1
  Ge  Ge4  1  0.250000  0.376276  0.237429  1
  Ge  Ge5  1  0.750000  0.153062  0.075332  1
  Ge  Ge6  1  0.750000  0.912616  0.584840  1
  Ge  Ge7  1  0.750000  0.876276  0.262571  1
  Ge  Ge8  1  0.750000  0.587384  0.084840  1
  Ge  Ge9  1  0.250000  0.846938  0.924668  1
  Ge  Ge10  1  0.250000  0.123724  0.737429  1
  Ge  Ge11  1  0.250000  0.412616  0.915160  1
  Ge  Ge12  1  0.250000  0.087384  0.415160  1
  Ge  Ge13  1  0.750000  0.346938  0.575332  1
  Ge  Ge14  1  0.750000  0.623724  0.762571  1
  Ge  Ge15  1  0.250000  0.653062  0.424668  1
  Pd  Pd16  1  0.750000  0.120359  0.486793  1
  Pd  Pd17  1  0.250000  0.819258  0.799820  1
  Pd  Pd18  1  0.250000  0.680742  0.299820  1
  Pd  Pd19  1  0.750000  0.642298  0.884356  1
  Pd  Pd20  1  0.250000  0.142298  0.615644  1
  Pd  Pd21  1  0.250000  0.128402  0.995259  1
  Pd  Pd22  1  0.750000  0.180742  0.200180  1
  Pd  Pd23  1  0.250000  0.357702  0.115644  1
  Pd  Pd24  1  0.750000  0.857702  0.384356  1
  Pd  Pd25  1  0.250000  0.430849  0.793977  1
  Pd  Pd26  1  0.250000  0.879641  0.513207  1
  Pd  Pd27  1  0.750000  0.628402  0.504741  1
  Pd  Pd28  1  0.750000  0.379641  0.986793  1
  Pd  Pd29  1  0.250000  0.371598  0.495259  1
  Pd  Pd30  1  0.250000  0.069151  0.293977  1
  Pd  Pd31  1  0.750000  0.569151  0.206023  1
  Pd  Pd32  1  0.750000  0.930849  0.706023  1
  Pd  Pd33  1  0.750000  0.319258  0.700180  1
  Pd  Pd34  1  0.750000  0.871598  0.004741  1
  Pd  Pd35  1  0.250000  0.620359  0.013207  1
