# generated using pymatgen
data_Y2LuB6Ir7Os
_symmetry_space_group_name_H-M   'P 1'
_cell_length_a   9.98491219
_cell_length_b   9.16513562
_cell_length_c   5.56909400
_cell_angle_alpha   81.37104256
_cell_angle_beta   65.16327030
_cell_angle_gamma   33.46569108
_symmetry_Int_Tables_number   1
_chemical_formula_structural   Y2LuB6Ir7Os
_chemical_formula_sum   'Y2 Lu1 B6 Ir7 Os1'
_cell_volume   233.70909074
_cell_formula_units_Z   1
loop_
 _symmetry_equiv_pos_site_id
 _symmetry_equiv_pos_as_xyz
  1  'x, y, z'
loop_
 _atom_site_type_symbol
 _atom_site_label
 _atom_site_symmetry_multiplicity
 _atom_site_fract_x
 _atom_site_fract_y
 _atom_site_fract_z
 _atom_site_occupancy
  Y  Y0  1  0.178539  0.178539  0.821461  1
  Y  Y1  1  0.821461  0.821461  0.178539  1
  Lu  Lu2  1  0.000000  0.000000  0.000000  1
  B  B3  1  0.821299  0.528940  0.482762  1
  B  B4  1  0.166999  0.482762  0.528940  1
  B  B5  1  0.482762  0.166999  0.821299  1
  B  B6  1  0.670464  0.329536  0.670464  1
  B  B7  1  0.528940  0.821299  0.166999  1
  B  B8  1  0.329536  0.670464  0.329536  1
  Ir  Ir9  1  0.414720  0.414720  0.585280  1
  Ir  Ir10  1  0.585233  0.585233  0.914767  1
  Ir  Ir11  1  0.085528  0.085528  0.414472  1
  Ir  Ir12  1  0.914767  0.914767  0.585233  1
  Ir  Ir13  1  0.585280  0.585280  0.414720  1
  Ir  Ir14  1  0.250000  0.250000  0.250000  1
  Ir  Ir15  1  0.414472  0.414472  0.085528  1
  Os  Os16  1  0.750000  0.750000  0.750000  1
