# generated using pymatgen
data_Y3Er9Fe2I17
_symmetry_space_group_name_H-M   'P 1'
_cell_length_a   9.66968836
_cell_length_b   11.62731502
_cell_length_c   11.63531802
_cell_angle_alpha   93.52820450
_cell_angle_beta   104.74651064
_cell_angle_gamma   113.95718150
_symmetry_Int_Tables_number   1
_chemical_formula_structural   Y3Er9Fe2I17
_chemical_formula_sum   'Y3 Er9 Fe2 I17'
_cell_volume   1135.80535023
_cell_formula_units_Z   1
loop_
 _symmetry_equiv_pos_site_id
 _symmetry_equiv_pos_as_xyz
  1  'x, y, z'
loop_
 _atom_site_type_symbol
 _atom_site_label
 _atom_site_symmetry_multiplicity
 _atom_site_fract_x
 _atom_site_fract_y
 _atom_site_fract_z
 _atom_site_occupancy
  Y  Y0  1  0.054938  0.505847  0.321106  1
  Y  Y1  1  0.991415  0.808270  0.589214  1
  Y  Y2  1  0.656276  0.240916  0.279670  1
  Er  Er3  1  0.008049  0.191130  0.411079  1
  Er  Er4  1  0.216950  0.672522  0.979291  1
  Er  Er5  1  0.252073  0.973980  0.887320  1
  Er  Er6  1  0.343771  0.757517  0.719788  1
  Er  Er7  1  0.951370  0.501258  0.682770  1
  Er  Er8  1  0.746692  0.023224  0.110988  1
  Er  Er9  1  0.135068  0.285611  0.153915  1
  Er  Er10  1  0.780494  0.327676  0.016744  1
  Er  Er11  1  0.859328  0.713674  0.846954  1
  Fe  Fe12  1  0.103738  0.737979  0.785930  1
  Fe  Fe13  1  0.895343  0.262009  0.214032  1
  I  I14  1  0.782052  0.527270  0.417404  1
  I  I15  1  0.645671  0.419406  0.763659  1
  I  I16  1  0.843735  0.896682  0.327252  1
  I  I17  1  0.326448  0.214404  0.367199  1
  I  I18  1  0.157190  0.105062  0.673178  1
  I  I19  1  0.585291  0.053241  0.842773  1
  I  I20  1  0.762408  0.190408  0.540422  1
  I  I21  1  0.554382  0.713303  0.955753  1
  I  I22  1  0.354940  0.578122  0.234571  1
  I  I23  1  0.217398  0.469906  0.583276  1
  I  I24  1  0.056018  0.367076  0.897731  1
  I  I25  1  0.446946  0.287289  0.043457  1
  I  I26  1  0.001612  0.001925  0.000879  1
  I  I27  1  0.244223  0.811468  0.460716  1
  I  I28  1  0.416056  0.946554  0.156834  1
  I  I29  1  0.668448  0.784723  0.633111  1
  I  I30  1  0.941677  0.631552  0.102985  1
