# generated using pymatgen
data_Tb3ErTa5TiSi8
_symmetry_space_group_name_H-M   'P 1'
_cell_length_a   7.06457712
_cell_length_b   7.05682800
_cell_length_c   13.00041200
_cell_angle_alpha   90.00000000
_cell_angle_beta   90.00000000
_cell_angle_gamma   90.01068148
_symmetry_Int_Tables_number   1
_chemical_formula_structural   Tb3ErTa5TiSi8
_chemical_formula_sum   'Tb6 Er2 Ta10 Ti2 Si16'
_cell_volume   648.11610139
_cell_formula_units_Z   2
loop_
 _symmetry_equiv_pos_site_id
 _symmetry_equiv_pos_as_xyz
  1  'x, y, z'
loop_
 _atom_site_type_symbol
 _atom_site_label
 _atom_site_symmetry_multiplicity
 _atom_site_fract_x
 _atom_site_fract_y
 _atom_site_fract_z
 _atom_site_occupancy
  Tb  Tb0  1  0.341401  0.002461  0.467756  1
  Tb  Tb1  1  0.498228  0.841539  0.717798  1
  Tb  Tb2  1  0.501772  0.158461  0.217798  1
  Tb  Tb3  1  0.841876  0.498019  0.282477  1
  Tb  Tb4  1  0.158124  0.501981  0.782477  1
  Tb  Tb5  1  0.658599  0.997540  0.967756  1
  Er  Er6  1  0.001749  0.340939  0.531954  1
  Er  Er7  1  0.998252  0.659061  0.031954  1
  Ta  Ta8  1  0.328891  0.329683  0.999595  1
  Ta  Ta9  1  0.172773  0.826360  0.249962  1
  Ta  Ta10  1  0.827227  0.173640  0.749962  1
  Ta  Ta11  1  0.671109  0.670317  0.499595  1
  Ta  Ta12  1  0.152439  0.008298  0.873961  1
  Ta  Ta13  1  0.492201  0.652606  0.124027  1
  Ta  Ta14  1  0.507799  0.347394  0.624027  1
  Ta  Ta15  1  0.652555  0.491798  0.876280  1
  Ta  Ta16  1  0.347445  0.508202  0.376280  1
  Ta  Ta17  1  0.847561  0.991702  0.373961  1
  Ti  Ti18  1  0.008602  0.153140  0.126260  1
  Ti  Ti19  1  0.991398  0.846860  0.626260  1
  Si  Si20  1  0.201203  0.132296  0.681556  1
  Si  Si21  1  0.365591  0.704739  0.932515  1
  Si  Si22  1  0.634409  0.295261  0.432515  1
  Si  Si23  1  0.705469  0.366510  0.068133  1
  Si  Si24  1  0.294531  0.633490  0.568133  1
  Si  Si25  1  0.798797  0.867704  0.181556  1
  Si  Si26  1  0.133082  0.203173  0.317742  1
  Si  Si27  1  0.866918  0.796827  0.817742  1
  Si  Si28  1  0.290396  0.954102  0.064097  1
  Si  Si29  1  0.546612  0.793104  0.313398  1
  Si  Si30  1  0.453388  0.206896  0.813398  1
  Si  Si31  1  0.795301  0.546572  0.685040  1
  Si  Si32  1  0.204699  0.453428  0.185040  1
  Si  Si33  1  0.709604  0.045898  0.564097  1
  Si  Si34  1  0.954268  0.294152  0.937448  1
  Si  Si35  1  0.045732  0.705848  0.437448  1
