# generated using pymatgen
data_Dy3ErCo14(P2Ru)6
_symmetry_space_group_name_H-M   'P 1'
_cell_length_a   3.72381600
_cell_length_b   10.44213308
_cell_length_c   11.85006409
_cell_angle_alpha   89.98551910
_cell_angle_beta   90.00000000
_cell_angle_gamma   90.00000000
_symmetry_Int_Tables_number   1
_chemical_formula_structural   Dy3ErCo14(P2Ru)6
_chemical_formula_sum   'Dy3 Er1 Co14 P12 Ru6'
_cell_volume   460.78477724
_cell_formula_units_Z   1
loop_
 _symmetry_equiv_pos_site_id
 _symmetry_equiv_pos_as_xyz
  1  'x, y, z'
loop_
 _atom_site_type_symbol
 _atom_site_label
 _atom_site_symmetry_multiplicity
 _atom_site_fract_x
 _atom_site_fract_y
 _atom_site_fract_z
 _atom_site_occupancy
  Dy  Dy0  1  0.250000  0.586775  0.705260  1
  Dy  Dy1  1  0.250000  0.913144  0.205284  1
  Dy  Dy2  1  0.750000  0.085081  0.792199  1
  Er  Er3  1  0.750000  0.414991  0.292194  1
  Co  Co4  1  0.750000  0.597699  0.512707  1
  Co  Co5  1  0.750000  0.902206  0.012757  1
  Co  Co6  1  0.250000  0.225407  0.179517  1
  Co  Co7  1  0.250000  0.275056  0.679340  1
  Co  Co8  1  0.750000  0.777163  0.822436  1
  Co  Co9  1  0.750000  0.722695  0.322418  1
  Co  Co10  1  0.250000  0.884312  0.700261  1
  Co  Co11  1  0.250000  0.615318  0.200460  1
  Co  Co12  1  0.750000  0.113737  0.298617  1
  Co  Co13  1  0.750000  0.386441  0.798668  1
  Co  Co14  1  0.250000  0.465092  0.931339  1
  Co  Co15  1  0.250000  0.035025  0.431193  1
  Co  Co16  1  0.750000  0.537361  0.068000  1
  Co  Co17  1  0.750000  0.962491  0.567687  1
  P  P18  1  0.250000  0.422428  0.112475  1
  P  P19  1  0.250000  0.077576  0.611909  1
  P  P20  1  0.750000  0.579172  0.887236  1
  P  P21  1  0.750000  0.920801  0.387141  1
  P  P22  1  0.250000  0.272933  0.866532  1
  P  P23  1  0.250000  0.227673  0.366300  1
  P  P24  1  0.750000  0.729448  0.132727  1
  P  P25  1  0.750000  0.770555  0.632738  1
  P  P26  1  0.250000  0.600104  0.386682  1
  P  P27  1  0.250000  0.899509  0.886945  1
  P  P28  1  0.750000  0.402492  0.612702  1
  P  P29  1  0.750000  0.097424  0.112699  1
  Ru  Ru30  1  0.250000  0.713798  0.989602  1
  Ru  Ru31  1  0.250000  0.786064  0.489528  1
  Ru  Ru32  1  0.750000  0.290190  0.013394  1
  Ru  Ru33  1  0.750000  0.209849  0.513356  1
  Ru  Ru34  1  0.250000  0.408927  0.488531  1
  Ru  Ru35  1  0.250000  0.091064  0.989163  1
