# generated using pymatgen
data_Yb2Y6AlPd24
_symmetry_space_group_name_H-M   'P 1'
_cell_length_a   8.35826261
_cell_length_b   8.35826244
_cell_length_c   8.35826378
_cell_angle_alpha   90.01231441
_cell_angle_beta   89.98768688
_cell_angle_gamma   89.98768465
_symmetry_Int_Tables_number   1
_chemical_formula_structural   Yb2Y6AlPd24
_chemical_formula_sum   'Yb2 Y6 Al1 Pd24'
_cell_volume   583.91288458
_cell_formula_units_Z   1
loop_
 _symmetry_equiv_pos_site_id
 _symmetry_equiv_pos_as_xyz
  1  'x, y, z'
loop_
 _atom_site_type_symbol
 _atom_site_label
 _atom_site_symmetry_multiplicity
 _atom_site_fract_x
 _atom_site_fract_y
 _atom_site_fract_z
 _atom_site_occupancy
  Yb  Yb0  1  0.250963  0.749037  0.749037  1
  Yb  Yb1  1  0.749037  0.250963  0.250963  1
  Y  Y2  1  0.251329  0.251201  0.251201  1
  Y  Y3  1  0.748671  0.748799  0.748799  1
  Y  Y4  1  0.748799  0.748671  0.251201  1
  Y  Y5  1  0.748799  0.251201  0.748671  1
  Y  Y6  1  0.251201  0.251329  0.748799  1
  Y  Y7  1  0.251201  0.748799  0.251329  1
  Al  Al8  1  0.000000  0.000000  0.000000  1
  Pd  Pd9  1  0.260200  0.500316  0.999518  1
  Pd  Pd10  1  0.739800  0.499684  0.000482  1
  Pd  Pd11  1  0.999518  0.260200  0.499684  1
  Pd  Pd12  1  0.500316  0.260200  0.000482  1
  Pd  Pd13  1  0.000482  0.739800  0.500316  1
  Pd  Pd14  1  0.499684  0.739800  0.999518  1
  Pd  Pd15  1  0.500316  0.000482  0.260200  1
  Pd  Pd16  1  0.260200  0.999518  0.500316  1
  Pd  Pd17  1  0.499684  0.999518  0.739800  1
  Pd  Pd18  1  0.739800  0.000482  0.499684  1
  Pd  Pd19  1  0.999518  0.499684  0.260200  1
  Pd  Pd20  1  0.000482  0.500316  0.739800  1
  Pd  Pd21  1  0.253404  0.500150  0.500150  1
  Pd  Pd22  1  0.746596  0.499850  0.499850  1
  Pd  Pd23  1  0.500150  0.253404  0.499850  1
  Pd  Pd24  1  0.499850  0.746596  0.500150  1
  Pd  Pd25  1  0.500150  0.499850  0.253404  1
  Pd  Pd26  1  0.499850  0.500150  0.746596  1
  Pd  Pd27  1  0.290018  0.999137  0.999137  1
  Pd  Pd28  1  0.709982  0.000863  0.000863  1
  Pd  Pd29  1  0.999137  0.290018  0.000863  1
  Pd  Pd30  1  0.000863  0.709982  0.999137  1
  Pd  Pd31  1  0.999137  0.000863  0.290018  1
  Pd  Pd32  1  0.000863  0.999137  0.709982  1
