# generated using pymatgen
data_Tb4Lu(InSb)2
_symmetry_space_group_name_H-M   'P 1'
_cell_length_a   8.81178942
_cell_length_b   8.81178772
_cell_length_c   8.10150900
_cell_angle_alpha   90.00000000
_cell_angle_beta   90.00000000
_cell_angle_gamma   125.23373294
_symmetry_Int_Tables_number   1
_chemical_formula_structural   Tb4Lu(InSb)2
_chemical_formula_sum   'Tb8 Lu2 In4 Sb4'
_cell_volume   513.82194130
_cell_formula_units_Z   2
loop_
 _symmetry_equiv_pos_site_id
 _symmetry_equiv_pos_as_xyz
  1  'x, y, z'
loop_
 _atom_site_type_symbol
 _atom_site_label
 _atom_site_symmetry_multiplicity
 _atom_site_fract_x
 _atom_site_fract_y
 _atom_site_fract_z
 _atom_site_occupancy
  Tb  Tb0  1  0.033433  0.308630  0.332409  1
  Tb  Tb1  1  0.966567  0.691370  0.667591  1
  Tb  Tb2  1  0.466567  0.191370  0.832409  1
  Tb  Tb3  1  0.808630  0.533433  0.167591  1
  Tb  Tb4  1  0.533433  0.808630  0.167591  1
  Tb  Tb5  1  0.191370  0.466567  0.832409  1
  Tb  Tb6  1  0.691370  0.966567  0.667591  1
  Tb  Tb7  1  0.308630  0.033433  0.332409  1
  Lu  Lu8  1  0.000000  0.000000  0.000000  1
  Lu  Lu9  1  0.500000  0.500000  0.500000  1
  In  In10  1  0.370801  0.370801  0.128651  1
  In  In11  1  0.629199  0.629199  0.871349  1
  In  In12  1  0.129199  0.129199  0.628651  1
  In  In13  1  0.870801  0.870801  0.371349  1
  Sb  Sb14  1  0.797351  0.202649  0.000000  1
  Sb  Sb15  1  0.202649  0.797351  0.000000  1
  Sb  Sb16  1  0.702649  0.297351  0.500000  1
  Sb  Sb17  1  0.297351  0.702649  0.500000  1
