# generated using pymatgen
data_Lu4Bi2Os
_symmetry_space_group_name_H-M   'P 1'
_cell_length_a   8.66768571
_cell_length_b   8.66550799
_cell_length_c   8.66768455
_cell_angle_alpha   96.60992321
_cell_angle_beta   96.65235102
_cell_angle_gamma   140.28822888
_symmetry_Int_Tables_number   1
_chemical_formula_structural   Lu4Bi2Os
_chemical_formula_sum   'Lu8 Bi4 Os2'
_cell_volume   391.18120656
_cell_formula_units_Z   2
loop_
 _symmetry_equiv_pos_site_id
 _symmetry_equiv_pos_as_xyz
  1  'x, y, z'
loop_
 _atom_site_type_symbol
 _atom_site_label
 _atom_site_symmetry_multiplicity
 _atom_site_fract_x
 _atom_site_fract_y
 _atom_site_fract_z
 _atom_site_occupancy
  Lu  Lu0  1  0.695148  0.579549  0.274764  1
  Lu  Lu1  1  0.304852  0.420451  0.725236  1
  Lu  Lu2  1  0.579745  0.304642  0.884434  1
  Lu  Lu3  1  0.079792  0.195358  0.275104  1
  Lu  Lu4  1  0.804786  0.079549  0.884400  1
  Lu  Lu5  1  0.420255  0.695358  0.115566  1
  Lu  Lu6  1  0.920208  0.804642  0.724896  1
  Lu  Lu7  1  0.195214  0.920451  0.115600  1
  Bi  Bi8  1  0.140627  0.640609  0.781180  1
  Bi  Bi9  1  0.359431  0.140609  0.499983  1
  Bi  Bi10  1  0.859373  0.359391  0.218820  1
  Bi  Bi11  1  0.640569  0.859391  0.500017  1
  Os  Os12  1  0.250076  0.250000  0.000076  1
  Os  Os13  1  0.749924  0.750000  0.999924  1
