# generated using pymatgen
data_Yb2Ta(AgO2)3
_symmetry_space_group_name_H-M   'P 1'
_cell_length_a   5.83663100
_cell_length_b   5.83663273
_cell_length_c   18.81163600
_cell_angle_alpha   90.00000000
_cell_angle_beta   90.00000000
_cell_angle_gamma   119.99998455
_symmetry_Int_Tables_number   1
_chemical_formula_structural   Yb2Ta(AgO2)3
_chemical_formula_sum   'Yb6 Ta3 Ag9 O18'
_cell_volume   554.98579749
_cell_formula_units_Z   3
loop_
 _symmetry_equiv_pos_site_id
 _symmetry_equiv_pos_as_xyz
  1  'x, y, z'
loop_
 _atom_site_type_symbol
 _atom_site_label
 _atom_site_symmetry_multiplicity
 _atom_site_fract_x
 _atom_site_fract_y
 _atom_site_fract_z
 _atom_site_occupancy
  Yb  Yb0  1  0.107470  0.892530  0.333333  1
  Yb  Yb1  1  0.107470  0.214940  0.666667  1
  Yb  Yb2  1  0.785060  0.892530  0.000000  1
  Yb  Yb3  1  0.774121  0.225879  0.333333  1
  Yb  Yb4  1  0.774121  0.548240  0.666667  1
  Yb  Yb5  1  0.451760  0.225879  0.000000  1
  Ta  Ta6  1  0.441049  0.558951  0.333333  1
  Ta  Ta7  1  0.441049  0.882099  0.666667  1
  Ta  Ta8  1  0.117901  0.558951  0.000000  1
  Ag  Ag9  1  0.441769  0.220884  0.500000  1
  Ag  Ag10  1  0.779116  0.220884  0.833333  1
  Ag  Ag11  1  0.779116  0.558231  0.166667  1
  Ag  Ag12  1  0.130642  0.565321  0.500000  1
  Ag  Ag13  1  0.434679  0.565321  0.833333  1
  Ag  Ag14  1  0.434679  0.869358  0.166667  1
  Ag  Ag15  1  0.750356  0.875177  0.500000  1
  Ag  Ag16  1  0.124823  0.875177  0.833333  1
  Ag  Ag17  1  0.124823  0.249644  0.166667  1
  O  O18  1  0.733623  0.558819  0.276831  1
  O  O19  1  0.441181  0.174804  0.610164  1
  O  O20  1  0.825196  0.266377  0.943498  1
  O  O21  1  0.733623  0.174804  0.723169  1
  O  O22  1  0.441181  0.266377  0.389836  1
  O  O23  1  0.825196  0.558819  0.056502  1
  O  O24  1  0.441271  0.853706  0.277428  1
  O  O25  1  0.146294  0.587565  0.610761  1
  O  O26  1  0.412435  0.558729  0.944095  1
  O  O27  1  0.441271  0.587565  0.722572  1
  O  O28  1  0.146294  0.558729  0.389239  1
  O  O29  1  0.412435  0.853706  0.055905  1
  O  O30  1  0.146874  0.264508  0.277383  1
  O  O31  1  0.735492  0.882366  0.610716  1
  O  O32  1  0.117634  0.853126  0.944049  1
  O  O33  1  0.146874  0.882366  0.722617  1
  O  O34  1  0.735492  0.853126  0.389284  1
  O  O35  1  0.117634  0.264508  0.055951  1
