# generated using pymatgen
data_HoNp(NiH4)2
_symmetry_space_group_name_H-M   'P 1'
_cell_length_a   3.62395435
_cell_length_b   4.75617200
_cell_length_c   6.03828482
_cell_angle_alpha   90.00000000
_cell_angle_beta   107.49357807
_cell_angle_gamma   90.00000000
_symmetry_Int_Tables_number   1
_chemical_formula_structural   HoNp(NiH4)2
_chemical_formula_sum   'Ho1 Np1 Ni2 H8'
_cell_volume   99.26330065
_cell_formula_units_Z   1
loop_
 _symmetry_equiv_pos_site_id
 _symmetry_equiv_pos_as_xyz
  1  'x, y, z'
loop_
 _atom_site_type_symbol
 _atom_site_label
 _atom_site_symmetry_multiplicity
 _atom_site_fract_x
 _atom_site_fract_y
 _atom_site_fract_z
 _atom_site_occupancy
  Ho  Ho0  1  0.136743  0.250000  0.773109  1
  Np  Np1  1  0.868637  0.750000  0.237421  1
  Ni  Ni2  1  0.405577  0.250000  0.311409  1
  Ni  Ni3  1  0.596186  0.750000  0.693091  1
  H  H4  1  0.304777  0.501695  0.110005  1
  H  H5  1  0.304777  0.998305  0.110005  1
  H  H6  1  0.915528  0.250000  0.331387  1
  H  H7  1  0.495922  0.986733  0.491686  1
  H  H8  1  0.495922  0.513267  0.491686  1
  H  H9  1  0.085195  0.750000  0.669797  1
  H  H10  1  0.695367  0.002932  0.890200  1
  H  H11  1  0.695367  0.497068  0.890200  1
