# generated using pymatgen
data_KY8Sc2(C2I9)2
_symmetry_space_group_name_H-M   'P 1'
_cell_length_a   11.52767955
_cell_length_b   11.42555165
_cell_length_c   11.50869851
_cell_angle_alpha   113.72091580
_cell_angle_beta   85.80800813
_cell_angle_gamma   120.48026536
_symmetry_Int_Tables_number   1
_chemical_formula_structural   KY8Sc2(C2I9)2
_chemical_formula_sum   'K1 Y8 Sc2 C4 I18'
_cell_volume   1179.37949775
_cell_formula_units_Z   1
loop_
 _symmetry_equiv_pos_site_id
 _symmetry_equiv_pos_as_xyz
  1  'x, y, z'
loop_
 _atom_site_type_symbol
 _atom_site_label
 _atom_site_symmetry_multiplicity
 _atom_site_fract_x
 _atom_site_fract_y
 _atom_site_fract_z
 _atom_site_occupancy
  K  K0  1  0.504123  0.993327  0.499624  1
  Y  Y1  1  0.091804  0.393160  0.291228  1
  Y  Y2  1  0.961326  0.034728  0.324129  1
  Y  Y3  1  0.906476  0.606369  0.704078  1
  Y  Y4  1  0.102880  0.942418  0.998510  1
  Y  Y5  1  0.037729  0.966978  0.677335  1
  Y  Y6  1  0.318007  0.276201  0.287321  1
  Y  Y7  1  0.719004  0.641613  0.982141  1
  Y  Y8  1  0.895793  0.055218  0.000287  1
  Sc  Sc9  1  0.697818  0.733036  0.727284  1
  Sc  Sc10  1  0.267742  0.343066  0.022987  1
  C  C11  1  0.150258  0.219309  0.120259  1
  C  C12  1  0.849862  0.779195  0.879686  1
  C  C13  1  0.926254  0.857102  0.804122  1
  C  C14  1  0.073574  0.142675  0.196055  1
  I  I15  1  0.458628  0.535055  0.827609  1
  I  I16  1  0.379865  0.039359  0.155484  1
  I  I17  1  0.780268  0.860828  0.508738  1
  I  I18  1  0.837166  0.310292  0.154170  1
  I  I19  1  0.537102  0.468723  0.161655  1
  I  I20  1  0.219591  0.143925  0.496640  1
  I  I21  1  0.316002  0.106217  0.833271  1
  I  I22  1  0.681844  0.901826  0.173762  1
  I  I23  1  0.968071  0.748934  0.166383  1
  I  I24  1  0.926408  0.297000  0.500493  1
  I  I25  1  0.041130  0.255832  0.841288  1
  I  I26  1  0.072763  0.706768  0.496996  1
  I  I27  1  0.266845  0.616413  0.175498  1
  I  I28  1  0.732419  0.367522  0.808368  1
  I  I29  1  0.646019  0.453997  0.508725  1
  I  I30  1  0.160017  0.688188  0.841852  1
  I  I31  1  0.625040  0.950154  0.838424  1
  I  I32  1  0.348172  0.564569  0.495597  1
