# generated using pymatgen
data_Y3Er9Tc4
_symmetry_space_group_name_H-M   'P 1'
_cell_length_a   6.22679040
_cell_length_b   7.44266390
_cell_length_c   9.08992100
_cell_angle_alpha   90.00000000
_cell_angle_beta   90.00000000
_cell_angle_gamma   89.82249732
_symmetry_Int_Tables_number   1
_chemical_formula_structural   Y3Er9Tc4
_chemical_formula_sum   'Y3 Er9 Tc4'
_cell_volume   421.26044247
_cell_formula_units_Z   1
loop_
 _symmetry_equiv_pos_site_id
 _symmetry_equiv_pos_as_xyz
  1  'x, y, z'
loop_
 _atom_site_type_symbol
 _atom_site_label
 _atom_site_symmetry_multiplicity
 _atom_site_fract_x
 _atom_site_fract_y
 _atom_site_fract_z
 _atom_site_occupancy
  Y  Y0  1  0.873558  0.959218  0.750000  1
  Y  Y1  1  0.374585  0.539648  0.250000  1
  Y  Y2  1  0.625281  0.461059  0.750000  1
  Er  Er3  1  0.660131  0.174054  0.062549  1
  Er  Er4  1  0.158615  0.324075  0.937934  1
  Er  Er5  1  0.841830  0.675421  0.436980  1
  Er  Er6  1  0.339968  0.826498  0.561902  1
  Er  Er7  1  0.339968  0.826498  0.938098  1
  Er  Er8  1  0.841830  0.675421  0.063020  1
  Er  Er9  1  0.158615  0.324075  0.562066  1
  Er  Er10  1  0.660131  0.174054  0.437451  1
  Er  Er11  1  0.127517  0.041149  0.250000  1
  Tc  Tc12  1  0.050729  0.613939  0.750000  1
  Tc  Tc13  1  0.544323  0.886282  0.250000  1
  Tc  Tc14  1  0.450881  0.114837  0.750000  1
  Tc  Tc15  1  0.952035  0.383773  0.250000  1
