# generated using pymatgen
data_Ce4Nd12Cd4Ir3Ru
_symmetry_space_group_name_H-M   'P 1'
_cell_length_a   9.91900025
_cell_length_b   9.91900014
_cell_length_c   9.91900104
_cell_angle_alpha   60.00884361
_cell_angle_beta   60.00884747
_cell_angle_gamma   60.00884229
_symmetry_Int_Tables_number   1
_chemical_formula_structural   Ce4Nd12Cd4Ir3Ru
_chemical_formula_sum   'Ce4 Nd12 Cd4 Ir3 Ru1'
_cell_volume   690.20135816
_cell_formula_units_Z   1
loop_
 _symmetry_equiv_pos_site_id
 _symmetry_equiv_pos_as_xyz
  1  'x, y, z'
loop_
 _atom_site_type_symbol
 _atom_site_label
 _atom_site_symmetry_multiplicity
 _atom_site_fract_x
 _atom_site_fract_y
 _atom_site_fract_z
 _atom_site_occupancy
  Ce  Ce0  1  0.343585  0.343585  0.965037  1
  Ce  Ce1  1  0.343585  0.965037  0.343585  1
  Ce  Ce2  1  0.965037  0.343585  0.343585  1
  Ce  Ce3  1  0.345992  0.345992  0.345992  1
  Nd  Nd4  1  0.559695  0.559695  0.941307  1
  Nd  Nd5  1  0.939522  0.559439  0.939522  1
  Nd  Nd6  1  0.559439  0.939522  0.939522  1
  Nd  Nd7  1  0.939522  0.939522  0.559439  1
  Nd  Nd8  1  0.559695  0.941307  0.559695  1
  Nd  Nd9  1  0.941307  0.559695  0.559695  1
  Nd  Nd10  1  0.190268  0.190268  0.811058  1
  Nd  Nd11  1  0.807719  0.191682  0.807719  1
  Nd  Nd12  1  0.191681  0.807720  0.807719  1
  Nd  Nd13  1  0.807719  0.807720  0.191682  1
  Nd  Nd14  1  0.190267  0.811058  0.190267  1
  Nd  Nd15  1  0.811058  0.190268  0.190268  1
  Cd  Cd16  1  0.579309  0.579309  0.260502  1
  Cd  Cd17  1  0.579309  0.260502  0.579309  1
  Cd  Cd18  1  0.260502  0.579309  0.579309  1
  Cd  Cd19  1  0.578994  0.578994  0.578994  1
  Ir  Ir20  1  0.145777  0.145777  0.566075  1
  Ir  Ir21  1  0.145777  0.566075  0.145777  1
  Ir  Ir22  1  0.566075  0.145777  0.145777  1
  Ru  Ru23  1  0.148165  0.148165  0.148165  1
