# generated using pymatgen
data_Al12CrReW
_symmetry_space_group_name_H-M   'P 1'
_cell_length_a   9.18541891
_cell_length_b   9.18383772
_cell_length_c   5.16960800
_cell_angle_alpha   87.16040678
_cell_angle_beta   87.08933449
_cell_angle_gamma   146.99845293
_symmetry_Int_Tables_number   1
_chemical_formula_structural   Al12CrReW
_chemical_formula_sum   'Al12 Cr1 Re1 W1'
_cell_volume   233.79076898
_cell_formula_units_Z   1
loop_
 _symmetry_equiv_pos_site_id
 _symmetry_equiv_pos_as_xyz
  1  'x, y, z'
loop_
 _atom_site_type_symbol
 _atom_site_label
 _atom_site_symmetry_multiplicity
 _atom_site_fract_x
 _atom_site_fract_y
 _atom_site_fract_z
 _atom_site_occupancy
  Al  Al0  1  0.863665  0.864189  0.501560  1
  Al  Al1  1  0.512510  0.513247  0.137626  1
  Al  Al2  1  0.259550  0.411186  0.689111  1
  Al  Al3  1  0.411223  0.260218  0.689376  1
  Al  Al4  1  0.064295  0.295524  0.212762  1
  Al  Al5  1  0.300538  0.068568  0.211199  1
  Al  Al6  1  0.939402  0.697755  0.812196  1
  Al  Al7  1  0.697578  0.940222  0.814827  1
  Al  Al8  1  0.077198  0.546365  0.587180  1
  Al  Al9  1  0.545879  0.075698  0.589090  1
  Al  Al10  1  0.227557  0.726207  0.071683  1
  Al  Al11  1  0.725764  0.225023  0.074320  1
  Cr  Cr12  1  0.017680  0.019294  0.987234  1
  Re  Re13  1  0.527844  0.801182  0.334675  1
  W  W14  1  0.806316  0.532316  0.333162  1
