# generated using pymatgen
data_KRb2ErSb2
_symmetry_space_group_name_H-M   'P 1'
_cell_length_a   10.19588479
_cell_length_b   10.19588391
_cell_length_c   10.19588371
_cell_angle_alpha   131.13807817
_cell_angle_beta   67.69230258
_cell_angle_gamma   136.19539264
_symmetry_Int_Tables_number   1
_chemical_formula_structural   KRb2ErSb2
_chemical_formula_sum   'K2 Rb4 Er2 Sb4'
_cell_volume   543.26040753
_cell_formula_units_Z   2
loop_
 _symmetry_equiv_pos_site_id
 _symmetry_equiv_pos_as_xyz
  1  'x, y, z'
loop_
 _atom_site_type_symbol
 _atom_site_label
 _atom_site_symmetry_multiplicity
 _atom_site_fract_x
 _atom_site_fract_y
 _atom_site_fract_z
 _atom_site_occupancy
  K  K0  1  0.750000  0.250000  0.500000  1
  K  K1  1  0.250000  0.750000  0.500000  1
  Rb  Rb2  1  0.317140  0.713762  0.030900  1
  Rb  Rb3  1  0.182860  0.213761  0.396622  1
  Rb  Rb4  1  0.817140  0.786239  0.603378  1
  Rb  Rb5  1  0.682860  0.286239  0.969100  1
  Er  Er6  1  0.250000  0.250000  0.000000  1
  Er  Er7  1  0.750000  0.750000  0.000000  1
  Sb  Sb8  1  0.902192  0.201371  0.103560  1
  Sb  Sb9  1  0.597810  0.701370  0.299179  1
  Sb  Sb10  1  0.402191  0.298630  0.700821  1
  Sb  Sb11  1  0.097809  0.798630  0.896440  1
