# generated using pymatgen
data_Er2Pa2Pd3PtPb2
_symmetry_space_group_name_H-M   'P 1'
_cell_length_a   7.90235347
_cell_length_b   7.89908244
_cell_length_c   3.63291100
_cell_angle_alpha   90.00000000
_cell_angle_beta   90.00000000
_cell_angle_gamma   89.87830468
_symmetry_Int_Tables_number   1
_chemical_formula_structural   Er2Pa2Pd3PtPb2
_chemical_formula_sum   'Er2 Pa2 Pd3 Pt1 Pb2'
_cell_volume   226.77066678
_cell_formula_units_Z   1
loop_
 _symmetry_equiv_pos_site_id
 _symmetry_equiv_pos_as_xyz
  1  'x, y, z'
loop_
 _atom_site_type_symbol
 _atom_site_label
 _atom_site_symmetry_multiplicity
 _atom_site_fract_x
 _atom_site_fract_y
 _atom_site_fract_z
 _atom_site_occupancy
  Er  Er0  1  0.828622  0.671649  0.500000  1
  Er  Er1  1  0.326880  0.830144  0.500000  1
  Pa  Pa2  1  0.666043  0.170405  0.500000  1
  Pa  Pa3  1  0.172100  0.327765  0.500000  1
  Pd  Pd4  1  0.127054  0.615040  0.000000  1
  Pd  Pd5  1  0.628242  0.882509  0.000000  1
  Pd  Pd6  1  0.872501  0.364023  0.000000  1
  Pt  Pt7  1  0.374519  0.135620  0.000000  1
  Pb  Pb8  1  0.000454  0.989419  0.000000  1
  Pb  Pb9  1  0.503589  0.513426  0.000000  1
