# generated using pymatgen
data_Ca3Yb7(Sb3H)2
_symmetry_space_group_name_H-M   'P 1'
_cell_length_a   9.01131500
_cell_length_b   9.01108933
_cell_length_c   6.80317300
_cell_angle_alpha   90.00000000
_cell_angle_beta   90.00000000
_cell_angle_gamma   120.00081741
_symmetry_Int_Tables_number   1
_chemical_formula_structural   Ca3Yb7(Sb3H)2
_chemical_formula_sum   'Ca3 Yb7 Sb6 H2'
_cell_volume   478.41417149
_cell_formula_units_Z   1
loop_
 _symmetry_equiv_pos_site_id
 _symmetry_equiv_pos_as_xyz
  1  'x, y, z'
loop_
 _atom_site_type_symbol
 _atom_site_label
 _atom_site_symmetry_multiplicity
 _atom_site_fract_x
 _atom_site_fract_y
 _atom_site_fract_z
 _atom_site_occupancy
  Ca  Ca0  1  0.756333  0.756255  0.250000  1
  Ca  Ca1  1  0.756340  0.000000  0.750000  1
  Ca  Ca2  1  0.000078  0.243745  0.250000  1
  Yb  Yb3  1  0.000101  0.756255  0.750000  1
  Yb  Yb4  1  0.243846  0.243745  0.750000  1
  Yb  Yb5  1  0.243855  0.000000  0.250000  1
  Yb  Yb6  1  0.333304  0.666668  0.500055  1
  Yb  Yb7  1  0.666636  0.333332  0.999945  1
  Yb  Yb8  1  0.666636  0.333332  0.500055  1
  Yb  Yb9  1  0.333304  0.666668  0.999945  1
  Sb  Sb10  1  0.391610  0.000000  0.750000  1
  Sb  Sb11  1  0.391600  0.391660  0.250000  1
  Sb  Sb12  1  0.999940  0.608340  0.250000  1
  Sb  Sb13  1  0.999937  0.392008  0.750000  1
  Sb  Sb14  1  0.607929  0.607992  0.750000  1
  Sb  Sb15  1  0.607935  0.000000  0.250000  1
  H  H16  1  0.000308  0.000000  0.500147  1
  H  H17  1  0.000308  0.000000  0.999853  1
