# generated using pymatgen
data_LaDy5(AuO7)2
_symmetry_space_group_name_H-M   'P 1'
_cell_length_a   6.53466054
_cell_length_b   6.53466035
_cell_length_c   7.51340495
_cell_angle_alpha   90.06718313
_cell_angle_beta   89.93281351
_cell_angle_gamma   108.66556710
_symmetry_Int_Tables_number   1
_chemical_formula_structural   LaDy5(AuO7)2
_chemical_formula_sum   'La1 Dy5 Au2 O14'
_cell_volume   303.96043121
_cell_formula_units_Z   1
loop_
 _symmetry_equiv_pos_site_id
 _symmetry_equiv_pos_as_xyz
  1  'x, y, z'
loop_
 _atom_site_type_symbol
 _atom_site_label
 _atom_site_symmetry_multiplicity
 _atom_site_fract_x
 _atom_site_fract_y
 _atom_site_fract_z
 _atom_site_occupancy
  La  La0  1  0.500000  0.500000  0.000000  1
  Dy  Dy1  1  0.001332  0.471144  0.746460  1
  Dy  Dy2  1  0.998668  0.528856  0.253540  1
  Dy  Dy3  1  0.471144  0.001332  0.253540  1
  Dy  Dy4  1  0.528856  0.998668  0.746460  1
  Dy  Dy5  1  0.500000  0.500000  0.500000  1
  Au  Au6  1  0.000000  0.000000  0.000000  1
  Au  Au7  1  0.000000  0.000000  0.500000  1
  O  O8  1  0.081199  0.328180  0.475421  1
  O  O9  1  0.921804  0.078196  0.749721  1
  O  O10  1  0.070948  0.327823  0.024092  1
  O  O11  1  0.918801  0.671820  0.524579  1
  O  O12  1  0.641179  0.358821  0.739524  1
  O  O13  1  0.671820  0.918801  0.475421  1
  O  O14  1  0.328180  0.081199  0.524579  1
  O  O15  1  0.327823  0.070948  0.975908  1
  O  O16  1  0.672177  0.929052  0.024092  1
  O  O17  1  0.929052  0.672177  0.975908  1
  O  O18  1  0.635697  0.364303  0.260489  1
  O  O19  1  0.358821  0.641179  0.260476  1
  O  O20  1  0.364303  0.635697  0.739511  1
  O  O21  1  0.078196  0.921804  0.250279  1
