# generated using pymatgen
data_Y10Tl5Hg3Pd4
_symmetry_space_group_name_H-M   'P 1'
_cell_length_a   3.63335600
_cell_length_b   8.10119888
_cell_length_c   18.36383700
_cell_angle_alpha   89.94389380
_cell_angle_beta   90.00000000
_cell_angle_gamma   90.00000000
_symmetry_Int_Tables_number   1
_chemical_formula_structural   Y10Tl5Hg3Pd4
_chemical_formula_sum   'Y10 Tl5 Hg3 Pd4'
_cell_volume   540.53082773
_cell_formula_units_Z   1
loop_
 _symmetry_equiv_pos_site_id
 _symmetry_equiv_pos_as_xyz
  1  'x, y, z'
loop_
 _atom_site_type_symbol
 _atom_site_label
 _atom_site_symmetry_multiplicity
 _atom_site_fract_x
 _atom_site_fract_y
 _atom_site_fract_z
 _atom_site_occupancy
  Y  Y0  1  0.000000  0.503706  0.497680  1
  Y  Y1  1  0.000000  0.000020  0.000295  1
  Y  Y2  1  0.000000  0.743969  0.284906  1
  Y  Y3  1  0.000000  0.256407  0.719067  1
  Y  Y4  1  0.000000  0.756311  0.784352  1
  Y  Y5  1  0.000000  0.243979  0.214683  1
  Y  Y6  1  0.000000  0.610212  0.083963  1
  Y  Y7  1  0.000000  0.391762  0.917425  1
  Y  Y8  1  0.000000  0.882133  0.583985  1
  Y  Y9  1  0.000000  0.109325  0.414890  1
  Tl  Tl10  1  0.500000  0.208608  0.566188  1
  Tl  Tl11  1  0.500000  0.580066  0.649108  1
  Tl  Tl12  1  0.500000  0.417269  0.350472  1
  Tl  Tl13  1  0.500000  0.918463  0.148591  1
  Tl  Tl14  1  0.500000  0.081782  0.852020  1
  Hg  Hg15  1  0.500000  0.710858  0.933759  1
  Hg  Hg16  1  0.500000  0.291155  0.065561  1
  Hg  Hg17  1  0.500000  0.791313  0.433422  1
  Pd  Pd18  1  0.500000  0.529297  0.197477  1
  Pd  Pd19  1  0.500000  0.472435  0.803322  1
  Pd  Pd20  1  0.500000  0.971643  0.696839  1
  Pd  Pd21  1  0.500000  0.029285  0.301996  1
