# generated using pymatgen
data_Ho5Co16Si6(MoP2)3
_symmetry_space_group_name_H-M   'P 1'
_cell_length_a   12.19386300
_cell_length_b   12.19386314
_cell_length_c   3.71945100
_cell_angle_alpha   90.00000000
_cell_angle_beta   90.00000000
_cell_angle_gamma   120.00000234
_symmetry_Int_Tables_number   1
_chemical_formula_structural   Ho5Co16Si6(MoP2)3
_chemical_formula_sum   'Ho5 Co16 Si6 Mo3 P6'
_cell_volume   478.95210994
_cell_formula_units_Z   1
loop_
 _symmetry_equiv_pos_site_id
 _symmetry_equiv_pos_as_xyz
  1  'x, y, z'
loop_
 _atom_site_type_symbol
 _atom_site_label
 _atom_site_symmetry_multiplicity
 _atom_site_fract_x
 _atom_site_fract_y
 _atom_site_fract_z
 _atom_site_occupancy
  Ho  Ho0  1  0.666667  0.333333  0.000000  1
  Ho  Ho1  1  0.333333  0.666667  0.000000  1
  Ho  Ho2  1  0.815453  0.815453  0.500000  1
  Ho  Ho3  1  0.184547  0.000000  0.500000  1
  Ho  Ho4  1  0.000000  0.184547  0.500000  1
  Co  Co5  1  0.878059  0.353720  0.500000  1
  Co  Co6  1  0.646280  0.524339  0.500000  1
  Co  Co7  1  0.475661  0.121941  0.500000  1
  Co  Co8  1  0.353720  0.878059  0.500000  1
  Co  Co9  1  0.524339  0.646280  0.500000  1
  Co  Co10  1  0.121941  0.475661  0.500000  1
  Co  Co11  1  0.806479  0.177801  0.000000  1
  Co  Co12  1  0.822199  0.628677  0.000000  1
  Co  Co13  1  0.371323  0.193521  0.000000  1
  Co  Co14  1  0.177801  0.806479  0.000000  1
  Co  Co15  1  0.628677  0.822199  0.000000  1
  Co  Co16  1  0.193521  0.371323  0.000000  1
  Co  Co17  1  0.276492  0.276492  0.500000  1
  Co  Co18  1  0.723508  0.000000  0.500000  1
  Co  Co19  1  0.000000  0.723508  0.500000  1
  Co  Co20  1  0.000000  0.000000  0.000000  1
  Si  Si21  1  0.686201  0.165409  0.500000  1
  Si  Si22  1  0.834591  0.520791  0.500000  1
  Si  Si23  1  0.479209  0.313799  0.500000  1
  Si  Si24  1  0.165409  0.686201  0.500000  1
  Si  Si25  1  0.520791  0.834591  0.500000  1
  Si  Si26  1  0.313799  0.479209  0.500000  1
  Mo  Mo27  1  0.442421  0.442421  0.000000  1
  Mo  Mo28  1  0.557579  0.000000  0.000000  1
  Mo  Mo29  1  0.000000  0.557579  0.000000  1
  P  P30  1  0.180569  0.180569  0.000000  1
  P  P31  1  0.819431  0.000000  0.000000  1
  P  P32  1  0.000000  0.819431  0.000000  1
  P  P33  1  0.638523  0.638523  0.000000  1
  P  P34  1  0.361477  0.000000  0.000000  1
  P  P35  1  0.000000  0.361477  0.000000  1
