# generated using pymatgen
data_Ac2TeO6
_symmetry_space_group_name_H-M   'P 1'
_cell_length_a   5.70173200
_cell_length_b   9.79288600
_cell_length_c   10.76540400
_cell_angle_alpha   90.00000000
_cell_angle_beta   90.00000000
_cell_angle_gamma   90.00000000
_symmetry_Int_Tables_number   1
_chemical_formula_structural   Ac2TeO6
_chemical_formula_sum   'Ac8 Te4 O24'
_cell_volume   601.10152748
_cell_formula_units_Z   4
loop_
 _symmetry_equiv_pos_site_id
 _symmetry_equiv_pos_as_xyz
  1  'x, y, z'
loop_
 _atom_site_type_symbol
 _atom_site_label
 _atom_site_symmetry_multiplicity
 _atom_site_fract_x
 _atom_site_fract_y
 _atom_site_fract_z
 _atom_site_occupancy
  Ac  Ac0  1  0.523774  0.104709  0.955297  1
  Ac  Ac1  1  0.023774  0.395291  0.044703  1
  Ac  Ac2  1  0.476226  0.604709  0.544703  1
  Ac  Ac3  1  0.976226  0.895291  0.455297  1
  Ac  Ac4  1  0.527131  0.217010  0.357288  1
  Ac  Ac5  1  0.027131  0.282990  0.642712  1
  Ac  Ac6  1  0.472869  0.717010  0.142712  1
  Ac  Ac7  1  0.972869  0.782990  0.857288  1
  Te  Te8  1  0.460518  0.996670  0.639607  1
  Te  Te9  1  0.960518  0.503330  0.360393  1
  Te  Te10  1  0.539482  0.496670  0.860393  1
  Te  Te11  1  0.039482  0.003330  0.139607  1
  O  O12  1  0.293915  0.134130  0.173940  1
  O  O13  1  0.793915  0.365870  0.826060  1
  O  O14  1  0.706085  0.634130  0.326060  1
  O  O15  1  0.206085  0.865870  0.673940  1
  O  O16  1  0.713901  0.110688  0.565626  1
  O  O17  1  0.213901  0.389312  0.434374  1
  O  O18  1  0.286099  0.610688  0.934374  1
  O  O19  1  0.786099  0.889312  0.065626  1
  O  O20  1  0.674613  0.631670  0.749503  1
  O  O21  1  0.174613  0.868330  0.250497  1
  O  O22  1  0.325387  0.131670  0.750497  1
  O  O23  1  0.825387  0.368330  0.249503  1
  O  O24  1  0.664845  0.946633  0.776735  1
  O  O25  1  0.164845  0.553367  0.223265  1
  O  O26  1  0.335155  0.446633  0.723265  1
  O  O27  1  0.835155  0.053367  0.276735  1
  O  O28  1  0.258322  0.084018  0.511158  1
  O  O29  1  0.758322  0.415982  0.488842  1
  O  O30  1  0.741678  0.584018  0.988842  1
  O  O31  1  0.241678  0.915982  0.011158  1
  O  O32  1  0.067406  0.644285  0.476680  1
  O  O33  1  0.567406  0.855715  0.523320  1
  O  O34  1  0.932594  0.144285  0.023320  1
  O  O35  1  0.432594  0.355715  0.976680  1
