# generated using pymatgen
data_LiEr8AlPd23
_symmetry_space_group_name_H-M   'P 1'
_cell_length_a   8.22768300
_cell_length_b   8.29823500
_cell_length_c   8.32604500
_cell_angle_alpha   90.00000000
_cell_angle_beta   90.00000000
_cell_angle_gamma   90.00000000
_symmetry_Int_Tables_number   1
_chemical_formula_structural   LiEr8AlPd23
_chemical_formula_sum   'Li1 Er8 Al1 Pd23'
_cell_volume   568.46277924
_cell_formula_units_Z   1
loop_
 _symmetry_equiv_pos_site_id
 _symmetry_equiv_pos_as_xyz
  1  'x, y, z'
loop_
 _atom_site_type_symbol
 _atom_site_label
 _atom_site_symmetry_multiplicity
 _atom_site_fract_x
 _atom_site_fract_y
 _atom_site_fract_z
 _atom_site_occupancy
  Li  Li0  1  0.268585  0.500000  0.000000  1
  Er  Er1  1  0.251960  0.246804  0.259104  1
  Er  Er2  1  0.747932  0.747161  0.749792  1
  Er  Er3  1  0.747932  0.747161  0.250208  1
  Er  Er4  1  0.747932  0.252839  0.749792  1
  Er  Er5  1  0.251960  0.246804  0.740896  1
  Er  Er6  1  0.251960  0.753196  0.259104  1
  Er  Er7  1  0.251960  0.753196  0.740896  1
  Er  Er8  1  0.747932  0.252839  0.250208  1
  Al  Al9  1  0.994455  0.000000  0.000000  1
  Pd  Pd10  1  0.743037  0.500000  0.000000  1
  Pd  Pd11  1  0.997814  0.258743  0.500000  1
  Pd  Pd12  1  0.492829  0.263766  0.000000  1
  Pd  Pd13  1  0.997814  0.741257  0.500000  1
  Pd  Pd14  1  0.492829  0.736234  0.000000  1
  Pd  Pd15  1  0.500083  0.000000  0.259551  1
  Pd  Pd16  1  0.258029  0.000000  0.500000  1
  Pd  Pd17  1  0.500083  0.000000  0.740449  1
  Pd  Pd18  1  0.740499  0.000000  0.500000  1
  Pd  Pd19  1  0.003056  0.500000  0.259882  1
  Pd  Pd20  1  0.003056  0.500000  0.740118  1
  Pd  Pd21  1  0.253136  0.500000  0.500000  1
  Pd  Pd22  1  0.746806  0.500000  0.500000  1
  Pd  Pd23  1  0.501676  0.253702  0.500000  1
  Pd  Pd24  1  0.501676  0.746298  0.500000  1
  Pd  Pd25  1  0.495921  0.500000  0.251641  1
  Pd  Pd26  1  0.495921  0.500000  0.748359  1
  Pd  Pd27  1  0.285417  0.000000  0.000000  1
  Pd  Pd28  1  0.705102  0.000000  0.000000  1
  Pd  Pd29  1  0.013250  0.292385  0.000000  1
  Pd  Pd30  1  0.013250  0.707615  0.000000  1
  Pd  Pd31  1  0.998054  0.000000  0.286856  1
  Pd  Pd32  1  0.998054  0.000000  0.713144  1
