# generated using pymatgen
data_LiHf6Al15Pd2Pt5
_symmetry_space_group_name_H-M   'P 1'
_cell_length_a   8.75873505
_cell_length_b   8.75873546
_cell_length_c   8.75666944
_cell_angle_alpha   59.92031784
_cell_angle_beta   59.92031384
_cell_angle_gamma   60.07197336
_symmetry_Int_Tables_number   1
_chemical_formula_structural   LiHf6Al15Pd2Pt5
_chemical_formula_sum   'Li1 Hf6 Al15 Pd2 Pt5'
_cell_volume   474.69835932
_cell_formula_units_Z   1
loop_
 _symmetry_equiv_pos_site_id
 _symmetry_equiv_pos_as_xyz
  1  'x, y, z'
loop_
 _atom_site_type_symbol
 _atom_site_label
 _atom_site_symmetry_multiplicity
 _atom_site_fract_x
 _atom_site_fract_y
 _atom_site_fract_z
 _atom_site_occupancy
  Li  Li0  1  0.880336  0.880336  0.358508  1
  Hf  Hf1  1  0.680717  0.680717  0.318946  1
  Hf  Hf2  1  0.320673  0.679697  0.318936  1
  Hf  Hf3  1  0.679697  0.320673  0.318936  1
  Hf  Hf4  1  0.318964  0.318964  0.681139  1
  Hf  Hf5  1  0.680042  0.319842  0.680955  1
  Hf  Hf6  1  0.319842  0.680042  0.680955  1
  Al  Al7  1  0.879736  0.360097  0.881067  1
  Al  Al8  1  0.360097  0.879736  0.881067  1
  Al  Al9  1  0.879428  0.879428  0.881391  1
  Al  Al10  1  0.120069  0.120069  0.639880  1
  Al  Al11  1  0.115129  0.642807  0.126382  1
  Al  Al12  1  0.642807  0.115129  0.126382  1
  Al  Al13  1  0.115605  0.115605  0.125704  1
  Al  Al14  1  0.663586  0.663586  0.009344  1
  Al  Al15  1  0.669692  0.003783  0.658353  1
  Al  Al16  1  0.003783  0.669692  0.658353  1
  Al  Al17  1  0.668762  0.668762  0.658245  1
  Al  Al18  1  0.335040  0.335040  0.994661  1
  Al  Al19  1  0.335710  0.992254  0.334268  1
  Al  Al20  1  0.992254  0.335710  0.334268  1
  Al  Al21  1  0.337159  0.337159  0.334012  1
  Pd  Pd22  1  0.002040  0.002040  0.994094  1
  Pd  Pd23  1  0.001932  0.001932  0.504923  1
  Pt  Pt24  1  0.491029  0.002038  0.505178  1
  Pt  Pt25  1  0.002038  0.491029  0.505178  1
  Pt  Pt26  1  0.501368  0.501368  0.996320  1
  Pt  Pt27  1  0.000858  0.501606  0.996274  1
  Pt  Pt28  1  0.501606  0.000858  0.996274  1
