# generated using pymatgen
data_Dy4Er4Sc12Si15As
_symmetry_space_group_name_H-M   'P 1'
_cell_length_a   7.11710235
_cell_length_b   7.34956432
_cell_length_c   13.93824698
_cell_angle_alpha   90.02419688
_cell_angle_beta   88.74627326
_cell_angle_gamma   90.11225647
_symmetry_Int_Tables_number   1
_chemical_formula_structural   Dy4Er4Sc12Si15As
_chemical_formula_sum   'Dy4 Er4 Sc12 Si15 As1'
_cell_volume   728.90028055
_cell_formula_units_Z   1
loop_
 _symmetry_equiv_pos_site_id
 _symmetry_equiv_pos_as_xyz
  1  'x, y, z'
loop_
 _atom_site_type_symbol
 _atom_site_label
 _atom_site_symmetry_multiplicity
 _atom_site_fract_x
 _atom_site_fract_y
 _atom_site_fract_z
 _atom_site_occupancy
  Dy  Dy0  1  0.511018  0.325137  0.096477  1
  Dy  Dy1  1  0.003409  0.177925  0.404282  1
  Dy  Dy2  1  0.503083  0.321380  0.402322  1
  Dy  Dy3  1  0.501419  0.677895  0.597898  1
  Er  Er4  1  0.011656  0.176439  0.097016  1
  Er  Er5  1  0.989217  0.824080  0.902677  1
  Er  Er6  1  0.489091  0.676057  0.902252  1
  Er  Er7  1  0.995040  0.821788  0.596096  1
  Sc  Sc8  1  0.166654  0.501250  0.750027  1
  Sc  Sc9  1  0.832787  0.498802  0.252735  1
  Sc  Sc10  1  0.333039  0.001389  0.251398  1
  Sc  Sc11  1  0.666908  0.998482  0.749015  1
  Sc  Sc12  1  0.342327  0.170318  0.626777  1
  Sc  Sc13  1  0.658400  0.828329  0.374111  1
  Sc  Sc14  1  0.156193  0.672253  0.377012  1
  Sc  Sc15  1  0.667406  0.823623  0.124703  1
  Sc  Sc16  1  0.841067  0.329099  0.623205  1
  Sc  Sc17  1  0.332057  0.175703  0.874111  1
  Sc  Sc18  1  0.834350  0.322370  0.874647  1
  Sc  Sc19  1  0.166298  0.677387  0.124704  1
  Si  Si20  1  0.038091  0.115378  0.749738  1
  Si  Si21  1  0.961043  0.884171  0.249139  1
  Si  Si22  1  0.457887  0.617609  0.248729  1
  Si  Si23  1  0.540826  0.383477  0.751176  1
  Si  Si24  1  0.289698  0.870001  0.750748  1
  Si  Si25  1  0.710779  0.127686  0.248568  1
  Si  Si26  1  0.208310  0.373633  0.249217  1
  Si  Si27  1  0.793327  0.628028  0.750938  1
  Si  Si28  1  0.811212  0.540989  0.457681  1
  Si  Si29  1  0.328152  0.961439  0.460852  1
  Si  Si30  1  0.843354  0.535291  0.039033  1
  Si  Si31  1  0.672139  0.037795  0.540559  1
  Si  Si32  1  0.158041  0.465551  0.960264  1
  Si  Si33  1  0.656973  0.033538  0.959278  1
  Si  Si34  1  0.342511  0.965333  0.039597  1
  As  As35  1  0.186233  0.460377  0.543020  1
