# generated using pymatgen
data_Y10Cd3Pt
_symmetry_space_group_name_H-M   'P 1'
_cell_length_a   9.75156500
_cell_length_b   9.75156387
_cell_length_c   9.78189100
_cell_angle_alpha   90.00000000
_cell_angle_beta   90.00000000
_cell_angle_gamma   120.00000044
_symmetry_Int_Tables_number   1
_chemical_formula_structural   Y10Cd3Pt
_chemical_formula_sum   'Y20 Cd6 Pt2'
_cell_volume   805.56768886
_cell_formula_units_Z   2
loop_
 _symmetry_equiv_pos_site_id
 _symmetry_equiv_pos_as_xyz
  1  'x, y, z'
loop_
 _atom_site_type_symbol
 _atom_site_label
 _atom_site_symmetry_multiplicity
 _atom_site_fract_x
 _atom_site_fract_y
 _atom_site_fract_z
 _atom_site_occupancy
  Y  Y0  1  0.207593  0.792407  0.940246  1
  Y  Y1  1  0.207593  0.415186  0.940246  1
  Y  Y2  1  0.584814  0.792407  0.940246  1
  Y  Y3  1  0.792407  0.207593  0.059754  1
  Y  Y4  1  0.792407  0.584814  0.059754  1
  Y  Y5  1  0.415186  0.207593  0.059754  1
  Y  Y6  1  0.792407  0.207593  0.440246  1
  Y  Y7  1  0.792407  0.584814  0.440246  1
  Y  Y8  1  0.415186  0.207593  0.440246  1
  Y  Y9  1  0.207593  0.792407  0.559754  1
  Y  Y10  1  0.207593  0.415186  0.559754  1
  Y  Y11  1  0.584814  0.792407  0.559754  1
  Y  Y12  1  0.542910  0.457090  0.750000  1
  Y  Y13  1  0.542910  0.085819  0.750000  1
  Y  Y14  1  0.914181  0.457090  0.750000  1
  Y  Y15  1  0.457090  0.542910  0.250000  1
  Y  Y16  1  0.457090  0.914181  0.250000  1
  Y  Y17  1  0.085819  0.542910  0.250000  1
  Y  Y18  1  0.000000  0.000000  0.000000  1
  Y  Y19  1  0.000000  0.000000  0.500000  1
  Cd  Cd20  1  0.884112  0.115888  0.750000  1
  Cd  Cd21  1  0.884112  0.768226  0.750000  1
  Cd  Cd22  1  0.231774  0.115888  0.750000  1
  Cd  Cd23  1  0.115888  0.884112  0.250000  1
  Cd  Cd24  1  0.115888  0.231774  0.250000  1
  Cd  Cd25  1  0.768226  0.884112  0.250000  1
  Pt  Pt26  1  0.333333  0.666667  0.750000  1
  Pt  Pt27  1  0.666667  0.333333  0.250000  1
