# generated using pymatgen
data_Li6Tl9Pd7
_symmetry_space_group_name_H-M   'P 1'
_cell_length_a   7.32017063
_cell_length_b   7.32017161
_cell_length_c   9.90342305
_cell_angle_alpha   62.42400755
_cell_angle_beta   62.42400734
_cell_angle_gamma   75.94988465
_symmetry_Int_Tables_number   1
_chemical_formula_structural   Li6Tl9Pd7
_chemical_formula_sum   'Li6 Tl9 Pd7'
_cell_volume   416.67711052
_cell_formula_units_Z   1
loop_
 _symmetry_equiv_pos_site_id
 _symmetry_equiv_pos_as_xyz
  1  'x, y, z'
loop_
 _atom_site_type_symbol
 _atom_site_label
 _atom_site_symmetry_multiplicity
 _atom_site_fract_x
 _atom_site_fract_y
 _atom_site_fract_z
 _atom_site_occupancy
  Li  Li0  1  0.542059  0.051005  0.155568  1
  Li  Li1  1  0.538420  0.538420  0.670764  1
  Li  Li2  1  0.051005  0.542059  0.155568  1
  Li  Li3  1  0.461580  0.461580  0.329236  1
  Li  Li4  1  0.948995  0.457941  0.844432  1
  Li  Li5  1  0.457941  0.948995  0.844432  1
  Tl  Tl6  1  0.236018  0.831887  0.197357  1
  Tl  Tl7  1  0.174419  0.174419  0.389136  1
  Tl  Tl8  1  0.280935  0.280935  0.671271  1
  Tl  Tl9  1  0.831887  0.236018  0.197357  1
  Tl  Tl10  1  0.719065  0.719065  0.328729  1
  Tl  Tl11  1  0.500000  0.500000  0.000000  1
  Tl  Tl12  1  0.763982  0.168113  0.802643  1
  Tl  Tl13  1  0.168113  0.763982  0.802643  1
  Tl  Tl14  1  0.825581  0.825581  0.610864  1
  Pd  Pd15  1  0.500000  0.000000  0.500000  1
  Pd  Pd16  1  0.269787  0.730213  0.500000  1
  Pd  Pd17  1  0.268613  0.268613  0.980531  1
  Pd  Pd18  1  0.731387  0.731387  0.019469  1
  Pd  Pd19  1  0.730213  0.269787  0.500000  1
  Pd  Pd20  1  0.000000  0.000000  0.000000  1
  Pd  Pd21  1  0.000000  0.500000  0.500000  1
