# generated using pymatgen
data_Y3Sc7(Co2Si5)4
_symmetry_space_group_name_H-M   'P 1'
_cell_length_a   12.12400396
_cell_length_b   12.12400382
_cell_length_c   3.97549000
_cell_angle_alpha   90.00000000
_cell_angle_beta   90.00000000
_cell_angle_gamma   90.02069907
_symmetry_Int_Tables_number   1
_chemical_formula_structural   Y3Sc7(Co2Si5)4
_chemical_formula_sum   'Y3 Sc7 Co8 Si20'
_cell_volume   584.36308235
_cell_formula_units_Z   1
loop_
 _symmetry_equiv_pos_site_id
 _symmetry_equiv_pos_as_xyz
  1  'x, y, z'
loop_
 _atom_site_type_symbol
 _atom_site_label
 _atom_site_symmetry_multiplicity
 _atom_site_fract_x
 _atom_site_fract_y
 _atom_site_fract_z
 _atom_site_occupancy
  Y  Y0  1  0.113524  0.613149  0.500000  1
  Y  Y1  1  0.886851  0.386476  0.500000  1
  Y  Y2  1  0.612412  0.887588  0.500000  1
  Sc  Sc3  1  0.387438  0.112562  0.500000  1
  Sc  Sc4  1  0.674257  0.175576  0.500000  1
  Sc  Sc5  1  0.324424  0.825743  0.500000  1
  Sc  Sc6  1  0.177142  0.322858  0.500000  1
  Sc  Sc7  1  0.824153  0.675847  0.500000  1
  Sc  Sc8  1  0.000906  0.000261  0.000000  1
  Sc  Sc9  1  0.499739  0.499094  0.000000  1
  Co  Co10  1  0.024509  0.242762  0.000000  1
  Co  Co11  1  0.976526  0.756851  0.000000  1
  Co  Co12  1  0.245224  0.977442  0.000000  1
  Co  Co13  1  0.522558  0.254776  0.000000  1
  Co  Co14  1  0.755321  0.023926  0.000000  1
  Co  Co15  1  0.476074  0.744679  0.000000  1
  Co  Co16  1  0.743149  0.523474  0.000000  1
  Co  Co17  1  0.257238  0.475491  0.000000  1
  Si  Si18  1  0.567196  0.070921  0.000000  1
  Si  Si19  1  0.429079  0.932804  0.000000  1
  Si  Si20  1  0.070595  0.429405  0.000000  1
  Si  Si21  1  0.930145  0.569855  0.000000  1
  Si  Si22  1  0.198096  0.156977  0.000000  1
  Si  Si23  1  0.804779  0.842872  0.000000  1
  Si  Si24  1  0.157996  0.805574  0.000000  1
  Si  Si25  1  0.694426  0.342004  0.000000  1
  Si  Si26  1  0.842441  0.194944  0.000000  1
  Si  Si27  1  0.305056  0.657559  0.000000  1
  Si  Si28  1  0.657128  0.695221  0.000000  1
  Si  Si29  1  0.343023  0.301904  0.000000  1
  Si  Si30  1  0.006628  0.161081  0.500000  1
  Si  Si31  1  0.993890  0.838699  0.500000  1
  Si  Si32  1  0.164303  0.997787  0.500000  1
  Si  Si33  1  0.502213  0.335697  0.500000  1
  Si  Si34  1  0.838412  0.007076  0.500000  1
  Si  Si35  1  0.492924  0.661588  0.500000  1
  Si  Si36  1  0.661301  0.506110  0.500000  1
  Si  Si37  1  0.338919  0.493372  0.500000  1
