# generated using pymatgen
data_ThCl30
_symmetry_space_group_name_H-M   'P 1'
_cell_length_a   13.67261699
_cell_length_b   13.67268139
_cell_length_c   16.21100874
_cell_angle_alpha   83.38251599
_cell_angle_beta   83.38499089
_cell_angle_gamma   124.68195961
_symmetry_Int_Tables_number   1
_chemical_formula_structural   ThCl30
_chemical_formula_sum   'Th1 Cl30'
_cell_volume   2414.07437619
_cell_formula_units_Z   1
loop_
 _symmetry_equiv_pos_site_id
 _symmetry_equiv_pos_as_xyz
  1  'x, y, z'
loop_
 _atom_site_type_symbol
 _atom_site_label
 _atom_site_symmetry_multiplicity
 _atom_site_fract_x
 _atom_site_fract_y
 _atom_site_fract_z
 _atom_site_occupancy
  Th  Th0  1  0.000000  0.000000  0.000000  1
  Cl  Cl1  1  0.935100  0.935100  0.177509  1
  Cl  Cl2  1  0.064900  0.064900  0.822491  1
  Cl  Cl3  1  0.066031  0.223012  0.005207  1
  Cl  Cl4  1  0.933969  0.776988  0.994793  1
  Cl  Cl5  1  0.223012  0.066031  0.005206  1
  Cl  Cl6  1  0.776988  0.933969  0.994794  1
  Cl  Cl7  1  0.200322  0.743857  0.063323  1
  Cl  Cl8  1  0.799678  0.256143  0.936677  1
  Cl  Cl9  1  0.702468  0.079629  0.255976  1
  Cl  Cl10  1  0.256143  0.799679  0.936676  1
  Cl  Cl11  1  0.297532  0.920371  0.744024  1
  Cl  Cl12  1  0.743857  0.200321  0.063324  1
  Cl  Cl13  1  0.984212  0.198217  0.774225  1
  Cl  Cl14  1  0.920371  0.297533  0.744024  1
  Cl  Cl15  1  0.015788  0.801783  0.225775  1
  Cl  Cl16  1  0.079629  0.702467  0.255976  1
  Cl  Cl17  1  0.801782  0.015789  0.225776  1
  Cl  Cl18  1  0.198218  0.984211  0.774224  1
  Cl  Cl19  1  0.465761  0.547869  0.261337  1
  Cl  Cl20  1  0.534239  0.452131  0.738663  1
  Cl  Cl21  1  0.507897  0.207975  0.451409  1
  Cl  Cl22  1  0.452131  0.534239  0.738663  1
  Cl  Cl23  1  0.492103  0.792025  0.548591  1
  Cl  Cl24  1  0.547869  0.465761  0.261337  1
  Cl  Cl25  1  0.239716  0.429620  0.545406  1
  Cl  Cl26  1  0.792026  0.492103  0.548592  1
  Cl  Cl27  1  0.760284  0.570380  0.454594  1
  Cl  Cl28  1  0.207974  0.507897  0.451408  1
  Cl  Cl29  1  0.570380  0.760285  0.454595  1
  Cl  Cl30  1  0.429620  0.239715  0.545405  1
