# generated using pymatgen
data_Li4Nd(ThGe2)2
_symmetry_space_group_name_H-M   'P 1'
_cell_length_a   4.43524911
_cell_length_b   6.92116398
_cell_length_c   8.36220235
_cell_angle_alpha   114.44603313
_cell_angle_beta   105.37861572
_cell_angle_gamma   89.99999872
_symmetry_Int_Tables_number   1
_chemical_formula_structural   Li4Nd(ThGe2)2
_chemical_formula_sum   'Li4 Nd1 Th2 Ge4'
_cell_volume   223.54762686
_cell_formula_units_Z   1
loop_
 _symmetry_equiv_pos_site_id
 _symmetry_equiv_pos_as_xyz
  1  'x, y, z'
loop_
 _atom_site_type_symbol
 _atom_site_label
 _atom_site_symmetry_multiplicity
 _atom_site_fract_x
 _atom_site_fract_y
 _atom_site_fract_z
 _atom_site_occupancy
  Li  Li0  1  0.671560  0.985490  0.343121  1
  Li  Li1  1  0.329456  0.019296  0.658912  1
  Li  Li2  1  0.329456  0.639616  0.658912  1
  Li  Li3  1  0.671560  0.357631  0.343121  1
  Nd  Nd4  1  0.870398  0.370398  0.740795  1
  Th  Th5  1  0.999894  0.999894  0.999788  1
  Th  Th6  1  0.128373  0.628373  0.256746  1
  Ge  Ge7  1  0.501519  0.691242  0.003038  1
  Ge  Ge8  1  0.501519  0.311796  0.003038  1
  Ge  Ge9  1  0.784441  0.784441  0.568882  1
  Ge  Ge10  1  0.211824  0.211824  0.423648  1
