# generated using pymatgen
data_Tm4TlPd
_symmetry_space_group_name_H-M   'P 1'
_cell_length_a   9.61631158
_cell_length_b   9.61631206
_cell_length_c   9.61631300
_cell_angle_alpha   60.00000021
_cell_angle_beta   59.99999856
_cell_angle_gamma   60.00000069
_symmetry_Int_Tables_number   1
_chemical_formula_structural   Tm4TlPd
_chemical_formula_sum   'Tm16 Tl4 Pd4'
_cell_volume   628.79729671
_cell_formula_units_Z   4
loop_
 _symmetry_equiv_pos_site_id
 _symmetry_equiv_pos_as_xyz
  1  'x, y, z'
loop_
 _atom_site_type_symbol
 _atom_site_label
 _atom_site_symmetry_multiplicity
 _atom_site_fract_x
 _atom_site_fract_y
 _atom_site_fract_z
 _atom_site_occupancy
  Tm  Tm0  1  0.352863  0.352863  0.352863  1
  Tm  Tm1  1  0.352863  0.352863  0.941412  1
  Tm  Tm2  1  0.352863  0.941412  0.352863  1
  Tm  Tm3  1  0.941412  0.352863  0.352863  1
  Tm  Tm4  1  0.811930  0.188070  0.188070  1
  Tm  Tm5  1  0.188070  0.811930  0.811930  1
  Tm  Tm6  1  0.188070  0.811930  0.188070  1
  Tm  Tm7  1  0.811930  0.188070  0.811930  1
  Tm  Tm8  1  0.188070  0.188070  0.811930  1
  Tm  Tm9  1  0.811930  0.811930  0.188070  1
  Tm  Tm10  1  0.937155  0.562845  0.562845  1
  Tm  Tm11  1  0.562845  0.937155  0.937155  1
  Tm  Tm12  1  0.562845  0.937155  0.562845  1
  Tm  Tm13  1  0.937155  0.562845  0.937155  1
  Tm  Tm14  1  0.562845  0.562845  0.937155  1
  Tm  Tm15  1  0.937155  0.937155  0.562845  1
  Tl  Tl16  1  0.586557  0.586557  0.586557  1
  Tl  Tl17  1  0.586557  0.586557  0.240328  1
  Tl  Tl18  1  0.586557  0.240328  0.586557  1
  Tl  Tl19  1  0.240328  0.586557  0.586557  1
  Pd  Pd20  1  0.144369  0.144369  0.144369  1
  Pd  Pd21  1  0.144369  0.144369  0.566892  1
  Pd  Pd22  1  0.144369  0.566892  0.144369  1
  Pd  Pd23  1  0.566892  0.144369  0.144369  1
