# generated using pymatgen
data_Ba20Tl3Si8Sn
_symmetry_space_group_name_H-M   'P 1'
_cell_length_a   8.60131900
_cell_length_b   8.60131900
_cell_length_c   17.53492200
_cell_angle_alpha   90.00000000
_cell_angle_beta   90.00000000
_cell_angle_gamma   90.00000000
_symmetry_Int_Tables_number   1
_chemical_formula_structural   Ba20Tl3Si8Sn
_chemical_formula_sum   'Ba20 Tl3 Si8 Sn1'
_cell_volume   1297.28067290
_cell_formula_units_Z   1
loop_
 _symmetry_equiv_pos_site_id
 _symmetry_equiv_pos_as_xyz
  1  'x, y, z'
loop_
 _atom_site_type_symbol
 _atom_site_label
 _atom_site_symmetry_multiplicity
 _atom_site_fract_x
 _atom_site_fract_y
 _atom_site_fract_z
 _atom_site_occupancy
  Ba  Ba0  1  0.312465  0.668418  0.112344  1
  Ba  Ba1  1  0.168418  0.187535  0.112344  1
  Ba  Ba2  1  0.500000  0.000000  0.734393  1
  Ba  Ba3  1  0.328212  0.687802  0.388830  1
  Ba  Ba4  1  0.669938  0.687109  0.887756  1
  Ba  Ba5  1  0.187802  0.171788  0.388830  1
  Ba  Ba6  1  0.671788  0.312198  0.388830  1
  Ba  Ba7  1  0.169562  0.810699  0.610996  1
  Ba  Ba8  1  0.330062  0.312891  0.887756  1
  Ba  Ba9  1  0.187109  0.830062  0.887756  1
  Ba  Ba10  1  0.500000  0.000000  0.233957  1
  Ba  Ba11  1  0.830438  0.189301  0.610996  1
  Ba  Ba12  1  0.310699  0.330438  0.610996  1
  Ba  Ba13  1  0.812198  0.828212  0.388830  1
  Ba  Ba14  1  0.812891  0.169938  0.887756  1
  Ba  Ba15  1  0.831582  0.812465  0.112344  1
  Ba  Ba16  1  0.000000  0.500000  0.266377  1
  Ba  Ba17  1  0.000000  0.500000  0.765524  1
  Ba  Ba18  1  0.687535  0.331582  0.112344  1
  Ba  Ba19  1  0.689301  0.669562  0.610996  1
  Tl  Tl20  1  0.000000  0.500000  0.989034  1
  Tl  Tl21  1  0.500000  0.000000  0.011414  1
  Tl  Tl22  1  0.500000  0.000000  0.511960  1
  Si  Si23  1  0.099425  0.100745  0.749467  1
  Si  Si24  1  0.399255  0.599425  0.749467  1
  Si  Si25  1  0.600276  0.599802  0.250531  1
  Si  Si26  1  0.099802  0.899724  0.250531  1
  Si  Si27  1  0.600745  0.400575  0.749467  1
  Si  Si28  1  0.900575  0.899255  0.749467  1
  Si  Si29  1  0.399724  0.400198  0.250531  1
  Si  Si30  1  0.900198  0.100276  0.250531  1
  Sn  Sn31  1  0.000000  0.500000  0.487647  1
