# generated using pymatgen
data_Y3Ho5Sc11Si16Hg
_symmetry_space_group_name_H-M   'P 1'
_cell_length_a   7.03965108
_cell_length_b   7.38771447
_cell_length_c   14.00301320
_cell_angle_alpha   90.01720925
_cell_angle_beta   90.00883325
_cell_angle_gamma   89.90275807
_symmetry_Int_Tables_number   1
_chemical_formula_structural   Y3Ho5Sc11Si16Hg
_chemical_formula_sum   'Y3 Ho5 Sc11 Si16 Hg1'
_cell_volume   728.25266775
_cell_formula_units_Z   1
loop_
 _symmetry_equiv_pos_site_id
 _symmetry_equiv_pos_as_xyz
  1  'x, y, z'
loop_
 _atom_site_type_symbol
 _atom_site_label
 _atom_site_symmetry_multiplicity
 _atom_site_fract_x
 _atom_site_fract_y
 _atom_site_fract_z
 _atom_site_occupancy
  Y  Y0  1  0.010138  0.174328  0.096642  1
  Y  Y1  1  0.990835  0.817485  0.901913  1
  Y  Y2  1  0.485181  0.673243  0.902163  1
  Ho  Ho3  1  0.990638  0.817292  0.598140  1
  Ho  Ho4  1  0.510926  0.323789  0.097045  1
  Ho  Ho5  1  0.010350  0.174596  0.403313  1
  Ho  Ho6  1  0.510966  0.323809  0.403127  1
  Ho  Ho7  1  0.484984  0.673682  0.597938  1
  Sc  Sc8  1  0.838118  0.497674  0.250104  1
  Sc  Sc9  1  0.339485  0.003379  0.250099  1
  Sc  Sc10  1  0.657835  0.997637  0.749811  1
  Sc  Sc11  1  0.325918  0.182727  0.625799  1
  Sc  Sc12  1  0.670863  0.823851  0.375100  1
  Sc  Sc13  1  0.169785  0.679945  0.373502  1
  Sc  Sc14  1  0.670870  0.823789  0.125078  1
  Sc  Sc15  1  0.837323  0.325231  0.625802  1
  Sc  Sc16  1  0.326055  0.182766  0.874057  1
  Sc  Sc17  1  0.837295  0.325275  0.874025  1
  Sc  Sc18  1  0.169820  0.679788  0.126660  1
  Si  Si19  1  0.027693  0.095310  0.749769  1
  Si  Si20  1  0.967875  0.887588  0.250175  1
  Si  Si21  1  0.467115  0.616647  0.250036  1
  Si  Si22  1  0.543869  0.379812  0.749839  1
  Si  Si23  1  0.291283  0.887535  0.749605  1
  Si  Si24  1  0.713064  0.128814  0.250188  1
  Si  Si25  1  0.213136  0.372873  0.250256  1
  Si  Si26  1  0.770068  0.631323  0.749552  1
  Si  Si27  1  0.162640  0.459428  0.528821  1
  Si  Si28  1  0.841783  0.536170  0.462081  1
  Si  Si29  1  0.343571  0.966229  0.462224  1
  Si  Si30  1  0.841693  0.536165  0.038043  1
  Si  Si31  1  0.657972  0.033223  0.540523  1
  Si  Si32  1  0.162359  0.459060  0.971268  1
  Si  Si33  1  0.657405  0.033932  0.959592  1
  Si  Si34  1  0.344189  0.966270  0.037880  1
  Hg  Hg35  1  0.156898  0.509337  0.749830  1
