# generated using pymatgen
data_Li4Sm4SnSb3
_symmetry_space_group_name_H-M   'P 1'
_cell_length_a   9.54568600
_cell_length_b   9.54568637
_cell_length_c   7.26973500
_cell_angle_alpha   90.00000000
_cell_angle_beta   90.00000000
_cell_angle_gamma   119.99999872
_symmetry_Int_Tables_number   1
_chemical_formula_structural   Li4Sm4SnSb3
_chemical_formula_sum   'Li8 Sm8 Sn2 Sb6'
_cell_volume   573.67182798
_cell_formula_units_Z   2
loop_
 _symmetry_equiv_pos_site_id
 _symmetry_equiv_pos_as_xyz
  1  'x, y, z'
loop_
 _atom_site_type_symbol
 _atom_site_label
 _atom_site_symmetry_multiplicity
 _atom_site_fract_x
 _atom_site_fract_y
 _atom_site_fract_z
 _atom_site_occupancy
  Li  Li0  1  0.832453  0.167547  0.720040  1
  Li  Li1  1  0.832453  0.664907  0.720040  1
  Li  Li2  1  0.335093  0.167547  0.720040  1
  Li  Li3  1  0.167547  0.832453  0.220040  1
  Li  Li4  1  0.167547  0.335093  0.220040  1
  Li  Li5  1  0.664907  0.832453  0.220040  1
  Li  Li6  1  0.666667  0.333333  0.317306  1
  Li  Li7  1  0.333333  0.666667  0.817306  1
  Sm  Sm8  1  0.490799  0.509201  0.507206  1
  Sm  Sm9  1  0.490799  0.981599  0.507206  1
  Sm  Sm10  1  0.018401  0.509201  0.507206  1
  Sm  Sm11  1  0.509201  0.490799  0.007206  1
  Sm  Sm12  1  0.509201  0.018401  0.007206  1
  Sm  Sm13  1  0.981599  0.490799  0.007206  1
  Sm  Sm14  1  0.000000  0.000000  0.497522  1
  Sm  Sm15  1  0.000000  0.000000  0.997522  1
  Sn  Sn16  1  0.666667  0.333333  0.742080  1
  Sn  Sn17  1  0.333333  0.666667  0.242080  1
  Sb  Sb18  1  0.833614  0.166386  0.263454  1
  Sb  Sb19  1  0.833614  0.667227  0.263454  1
  Sb  Sb20  1  0.332773  0.166386  0.263454  1
  Sb  Sb21  1  0.166386  0.833614  0.763454  1
  Sb  Sb22  1  0.166386  0.332773  0.763454  1
  Sb  Sb23  1  0.667227  0.833614  0.763454  1
