# generated using pymatgen
data_Ho3Ag(Ir2O7)2
_symmetry_space_group_name_H-M   'P 1'
_cell_length_a   7.31676990
_cell_length_b   7.16015318
_cell_length_c   7.31676800
_cell_angle_alpha   59.27374800
_cell_angle_beta   59.99999050
_cell_angle_gamma   59.27375395
_symmetry_Int_Tables_number   1
_chemical_formula_structural   Ho3Ag(Ir2O7)2
_chemical_formula_sum   'Ho3 Ag1 Ir4 O14'
_cell_volume   268.03428301
_cell_formula_units_Z   1
loop_
 _symmetry_equiv_pos_site_id
 _symmetry_equiv_pos_as_xyz
  1  'x, y, z'
loop_
 _atom_site_type_symbol
 _atom_site_label
 _atom_site_symmetry_multiplicity
 _atom_site_fract_x
 _atom_site_fract_y
 _atom_site_fract_z
 _atom_site_occupancy
  Ho  Ho0  1  0.625000  0.625000  0.125000  1
  Ho  Ho1  1  0.625000  0.625000  0.625000  1
  Ho  Ho2  1  0.125000  0.625000  0.625000  1
  Ag  Ag3  1  0.625000  0.125000  0.625000  1
  Ir  Ir4  1  0.125000  0.125000  0.125000  1
  Ir  Ir5  1  0.625000  0.125000  0.125000  1
  Ir  Ir6  1  0.125000  0.625000  0.125000  1
  Ir  Ir7  1  0.125000  0.125000  0.625000  1
  O  O8  1  0.037731  0.465082  0.459456  1
  O  O9  1  0.790544  0.784918  0.212269  1
  O  O10  1  0.798387  0.211079  0.192147  1
  O  O11  1  0.451613  0.038921  0.451613  1
  O  O12  1  0.752226  0.743323  0.752226  1
  O  O13  1  0.057853  0.038921  0.451613  1
  O  O14  1  0.037731  0.465082  0.037731  1
  O  O15  1  0.798387  0.211079  0.798387  1
  O  O16  1  0.212269  0.784918  0.212269  1
  O  O17  1  0.192147  0.211079  0.798387  1
  O  O18  1  0.497774  0.506677  0.497774  1
  O  O19  1  0.451613  0.038921  0.057853  1
  O  O20  1  0.459456  0.465082  0.037731  1
  O  O21  1  0.212269  0.784918  0.790544  1
