# generated using pymatgen
data_Ho8Er12GaBi11
_symmetry_space_group_name_H-M   'P 1'
_cell_length_a   8.18122431
_cell_length_b   9.44101900
_cell_length_c   11.97892814
_cell_angle_alpha   90.00000000
_cell_angle_beta   90.30100201
_cell_angle_gamma   90.00000000
_symmetry_Int_Tables_number   1
_chemical_formula_structural   Ho8Er12GaBi11
_chemical_formula_sum   'Ho8 Er12 Ga1 Bi11'
_cell_volume   925.22879152
_cell_formula_units_Z   1
loop_
 _symmetry_equiv_pos_site_id
 _symmetry_equiv_pos_as_xyz
  1  'x, y, z'
loop_
 _atom_site_type_symbol
 _atom_site_label
 _atom_site_symmetry_multiplicity
 _atom_site_fract_x
 _atom_site_fract_y
 _atom_site_fract_z
 _atom_site_occupancy
  Ho  Ho0  1  0.648990  0.250000  0.784339  1
  Ho  Ho1  1  0.148961  0.250000  0.716678  1
  Ho  Ho2  1  0.475464  0.250000  0.488645  1
  Ho  Ho3  1  0.979080  0.250000  0.010402  1
  Ho  Ho4  1  0.314124  0.250000  0.219388  1
  Ho  Ho5  1  0.811605  0.250000  0.281234  1
  Ho  Ho6  1  0.673189  0.750000  0.788870  1
  Ho  Ho7  1  0.191081  0.750000  0.722355  1
  Er  Er8  1  0.355337  0.750000  0.206103  1
  Er  Er9  1  0.852227  0.750000  0.284275  1
  Er  Er10  1  0.684254  0.571234  0.054955  1
  Er  Er11  1  0.193389  0.934805  0.439523  1
  Er  Er12  1  0.309450  0.049714  0.941182  1
  Er  Er13  1  0.806940  0.435565  0.559062  1
  Er  Er14  1  0.309450  0.450286  0.941182  1
  Er  Er15  1  0.806940  0.064435  0.559062  1
  Er  Er16  1  0.684254  0.928766  0.054955  1
  Er  Er17  1  0.193389  0.565195  0.439523  1
  Er  Er18  1  0.525531  0.750000  0.511507  1
  Er  Er19  1  0.035825  0.750000  0.989908  1
  Ga  Ga20  1  0.407731  0.750000  0.961039  1
  Bi  Bi21  1  0.907984  0.750000  0.544293  1
  Bi  Bi22  1  0.592986  0.250000  0.042385  1
  Bi  Bi23  1  0.093011  0.250000  0.457562  1
  Bi  Bi24  1  0.564884  0.994754  0.325446  1
  Bi  Bi25  1  0.063920  0.503793  0.175350  1
  Bi  Bi26  1  0.435484  0.496024  0.674794  1
  Bi  Bi27  1  0.935116  0.002223  0.825195  1
  Bi  Bi28  1  0.435484  0.003976  0.674794  1
  Bi  Bi29  1  0.935116  0.497777  0.825195  1
  Bi  Bi30  1  0.564884  0.505246  0.325446  1
  Bi  Bi31  1  0.063920  0.996207  0.175350  1
