# generated using pymatgen
data_Tb8Ti3Si16Mo7W2
_symmetry_space_group_name_H-M   'P 1'
_cell_length_a   6.92097457
_cell_length_b   6.92028536
_cell_length_c   12.84177836
_cell_angle_alpha   89.99501019
_cell_angle_beta   90.03465795
_cell_angle_gamma   89.86881023
_symmetry_Int_Tables_number   1
_chemical_formula_structural   Tb8Ti3Si16Mo7W2
_chemical_formula_sum   'Tb8 Ti3 Si16 Mo7 W2'
_cell_volume   615.05677565
_cell_formula_units_Z   1
loop_
 _symmetry_equiv_pos_site_id
 _symmetry_equiv_pos_as_xyz
  1  'x, y, z'
loop_
 _atom_site_type_symbol
 _atom_site_label
 _atom_site_symmetry_multiplicity
 _atom_site_fract_x
 _atom_site_fract_y
 _atom_site_fract_z
 _atom_site_occupancy
  Tb  Tb0  1  0.338742  0.001923  0.468399  1
  Tb  Tb1  1  0.496724  0.837891  0.719030  1
  Tb  Tb2  1  0.499393  0.162290  0.217358  1
  Tb  Tb3  1  0.837814  0.497097  0.280952  1
  Tb  Tb4  1  0.162355  0.499369  0.782595  1
  Tb  Tb5  1  0.660366  0.999359  0.968745  1
  Tb  Tb6  1  0.001891  0.338612  0.531522  1
  Tb  Tb7  1  0.999412  0.660396  0.031331  1
  Ti  Ti8  1  0.170490  0.831810  0.248515  1
  Ti  Ti9  1  0.831906  0.170091  0.751342  1
  Ti  Ti10  1  0.669093  0.668984  0.500140  1
  Si  Si11  1  0.200199  0.127508  0.683856  1
  Si  Si12  1  0.374893  0.697544  0.934490  1
  Si  Si13  1  0.627304  0.299277  0.434320  1
  Si  Si14  1  0.697514  0.374856  0.065533  1
  Si  Si15  1  0.298947  0.627357  0.565798  1
  Si  Si16  1  0.797408  0.873728  0.184865  1
  Si  Si17  1  0.127359  0.200262  0.315893  1
  Si  Si18  1  0.873798  0.797393  0.815157  1
  Si  Si19  1  0.288065  0.963878  0.062090  1
  Si  Si20  1  0.539669  0.790364  0.313759  1
  Si  Si21  1  0.459217  0.210488  0.814514  1
  Si  Si22  1  0.790339  0.539741  0.686264  1
  Si  Si23  1  0.210653  0.458985  0.185583  1
  Si  Si24  1  0.710191  0.040645  0.563767  1
  Si  Si25  1  0.963838  0.287982  0.937933  1
  Si  Si26  1  0.040660  0.710623  0.436199  1
  Mo  Mo27  1  0.158404  0.003495  0.873641  1
  Mo  Mo28  1  0.493607  0.665491  0.125260  1
  Mo  Mo29  1  0.506250  0.339515  0.624928  1
  Mo  Mo30  1  0.665500  0.493833  0.874634  1
  Mo  Mo31  1  0.339603  0.506456  0.375200  1
  Mo  Mo32  1  0.839846  0.993009  0.374568  1
  Mo  Mo33  1  0.003587  0.158242  0.126351  1
  W  W34  1  0.331912  0.331849  0.000062  1
  W  W35  1  0.993052  0.839659  0.625406  1
