# generated using pymatgen
data_SrLi4(ThGe2)2
_symmetry_space_group_name_H-M   'P 1'
_cell_length_a   4.47430838
_cell_length_b   6.92102381
_cell_length_c   8.50035250
_cell_angle_alpha   114.02292276
_cell_angle_beta   105.25905444
_cell_angle_gamma   89.99999801
_symmetry_Int_Tables_number   1
_chemical_formula_structural   SrLi4(ThGe2)2
_chemical_formula_sum   'Sr1 Li4 Th2 Ge4'
_cell_volume   230.23139567
_cell_formula_units_Z   1
loop_
 _symmetry_equiv_pos_site_id
 _symmetry_equiv_pos_as_xyz
  1  'x, y, z'
loop_
 _atom_site_type_symbol
 _atom_site_label
 _atom_site_symmetry_multiplicity
 _atom_site_fract_x
 _atom_site_fract_y
 _atom_site_fract_z
 _atom_site_occupancy
  Sr  Sr0  1  0.866707  0.366707  0.733413  1
  Li  Li1  1  0.671181  0.985321  0.342361  1
  Li  Li2  1  0.329833  0.020570  0.659668  1
  Li  Li3  1  0.329833  0.639098  0.659668  1
  Li  Li4  1  0.671181  0.357040  0.342361  1
  Th  Th5  1  0.000443  0.000443  0.000885  1
  Th  Th6  1  0.130784  0.630784  0.261568  1
  Ge  Ge7  1  0.506543  0.696429  0.013085  1
  Ge  Ge8  1  0.506543  0.316656  0.013085  1
  Ge  Ge9  1  0.782074  0.782074  0.564148  1
  Ge  Ge10  1  0.204878  0.204878  0.409758  1
