# generated using pymatgen
data_Yb2TmLuOs8
_symmetry_space_group_name_H-M   'P 1'
_cell_length_a   5.27832700
_cell_length_b   5.27832825
_cell_length_c   8.81553100
_cell_angle_alpha   90.00000000
_cell_angle_beta   90.00000000
_cell_angle_gamma   119.99998592
_symmetry_Int_Tables_number   1
_chemical_formula_structural   Yb2TmLuOs8
_chemical_formula_sum   'Yb2 Tm1 Lu1 Os8'
_cell_volume   212.70213868
_cell_formula_units_Z   1
loop_
 _symmetry_equiv_pos_site_id
 _symmetry_equiv_pos_as_xyz
  1  'x, y, z'
loop_
 _atom_site_type_symbol
 _atom_site_label
 _atom_site_symmetry_multiplicity
 _atom_site_fract_x
 _atom_site_fract_y
 _atom_site_fract_z
 _atom_site_occupancy
  Yb  Yb0  1  0.333333  0.666667  0.440154  1
  Yb  Yb1  1  0.666667  0.333333  0.559700  1
  Tm  Tm2  1  0.666667  0.333333  0.930158  1
  Lu  Lu3  1  0.333333  0.666667  0.070259  1
  Os  Os4  1  0.172462  0.344925  0.751839  1
  Os  Os5  1  0.172462  0.827538  0.751839  1
  Os  Os6  1  0.344806  0.172403  0.248018  1
  Os  Os7  1  0.827597  0.655194  0.248018  1
  Os  Os8  1  0.655075  0.827538  0.751839  1
  Os  Os9  1  0.000000  0.000000  0.000077  1
  Os  Os10  1  0.827597  0.172403  0.248018  1
  Os  Os11  1  0.000000  0.000000  0.500080  1
