# generated using pymatgen
data_TbDy19(Bi2Pt)4
_symmetry_space_group_name_H-M   'P 1'
_cell_length_a   8.08224604
_cell_length_b   9.05023100
_cell_length_c   12.43510907
_cell_angle_alpha   90.00000000
_cell_angle_beta   90.01198014
_cell_angle_gamma   90.00000000
_symmetry_Int_Tables_number   1
_chemical_formula_structural   TbDy19(Bi2Pt)4
_chemical_formula_sum   'Tb1 Dy19 Bi8 Pt4'
_cell_volume   909.58087666
_cell_formula_units_Z   1
loop_
 _symmetry_equiv_pos_site_id
 _symmetry_equiv_pos_as_xyz
  1  'x, y, z'
loop_
 _atom_site_type_symbol
 _atom_site_label
 _atom_site_symmetry_multiplicity
 _atom_site_fract_x
 _atom_site_fract_y
 _atom_site_fract_z
 _atom_site_occupancy
  Tb  Tb0  1  0.838558  0.750000  0.790231  1
  Dy  Dy1  1  0.161402  0.250000  0.209563  1
  Dy  Dy2  1  0.338596  0.250000  0.709556  1
  Dy  Dy3  1  0.661387  0.750000  0.290434  1
  Dy  Dy4  1  0.371171  0.750000  0.697334  1
  Dy  Dy5  1  0.628741  0.250000  0.302656  1
  Dy  Dy6  1  0.871266  0.250000  0.802682  1
  Dy  Dy7  1  0.128716  0.750000  0.197297  1
  Dy  Dy8  1  0.949823  0.750000  0.499942  1
  Dy  Dy9  1  0.050231  0.250000  0.500001  1
  Dy  Dy10  1  0.449771  0.250000  0.000004  1
  Dy  Dy11  1  0.550083  0.750000  0.000059  1
  Dy  Dy12  1  0.679302  0.045857  0.566779  1
  Dy  Dy13  1  0.320674  0.954192  0.433198  1
  Dy  Dy14  1  0.179419  0.954243  0.933251  1
  Dy  Dy15  1  0.320674  0.545808  0.433198  1
  Dy  Dy16  1  0.820638  0.045842  0.066806  1
  Dy  Dy17  1  0.679302  0.454143  0.566779  1
  Dy  Dy18  1  0.820638  0.454158  0.066806  1
  Dy  Dy19  1  0.179419  0.545757  0.933251  1
  Bi  Bi20  1  0.568706  0.491081  0.827340  1
  Bi  Bi21  1  0.431157  0.508789  0.172692  1
  Bi  Bi22  1  0.069007  0.508640  0.672614  1
  Bi  Bi23  1  0.431157  0.991211  0.172692  1
  Bi  Bi24  1  0.931142  0.491197  0.327298  1
  Bi  Bi25  1  0.568706  0.008919  0.827340  1
  Bi  Bi26  1  0.931142  0.008803  0.327298  1
  Bi  Bi27  1  0.069007  0.991360  0.672614  1
  Pt  Pt28  1  0.574814  0.750000  0.511482  1
  Pt  Pt29  1  0.425218  0.250000  0.488515  1
  Pt  Pt30  1  0.074823  0.250000  0.988523  1
  Pt  Pt31  1  0.925310  0.750000  0.011763  1
