# generated using pymatgen
data_K4FeCuSe4
_symmetry_space_group_name_H-M   'P 1'
_cell_length_a   8.16215963
_cell_length_b   8.16215937
_cell_length_c   8.16216115
_cell_angle_alpha   134.77565603
_cell_angle_beta   128.70602420
_cell_angle_gamma   70.75201760
_symmetry_Int_Tables_number   1
_chemical_formula_structural   K4FeCuSe4
_chemical_formula_sum   'K4 Fe1 Cu1 Se4'
_cell_volume   295.14089984
_cell_formula_units_Z   1
loop_
 _symmetry_equiv_pos_site_id
 _symmetry_equiv_pos_as_xyz
  1  'x, y, z'
loop_
 _atom_site_type_symbol
 _atom_site_label
 _atom_site_symmetry_multiplicity
 _atom_site_fract_x
 _atom_site_fract_y
 _atom_site_fract_z
 _atom_site_occupancy
  K  K0  1  0.472836  0.148916  0.333663  1
  K  K1  1  0.527164  0.860827  0.676080  1
  K  K2  1  0.184747  0.351084  0.823920  1
  K  K3  1  0.815253  0.639173  0.166337  1
  Fe  Fe4  1  0.000000  0.750000  0.750000  1
  Cu  Cu5  1  0.000000  0.250000  0.250000  1
  Se  Se6  1  0.086083  0.888489  0.181006  1
  Se  Se7  1  0.913917  0.094923  0.802406  1
  Se  Se8  1  0.292516  0.611511  0.697594  1
  Se  Se9  1  0.707484  0.405077  0.318994  1
