# generated using pymatgen
data_Tm12Tc3Rh
_symmetry_space_group_name_H-M   'P 1'
_cell_length_a   7.31172475
_cell_length_b   9.01777800
_cell_length_c   6.19383561
_cell_angle_alpha   90.00000000
_cell_angle_beta   90.05122763
_cell_angle_gamma   90.00000000
_symmetry_Int_Tables_number   1
_chemical_formula_structural   Tm12Tc3Rh
_chemical_formula_sum   'Tm12 Tc3 Rh1'
_cell_volume   408.39354975
_cell_formula_units_Z   1
loop_
 _symmetry_equiv_pos_site_id
 _symmetry_equiv_pos_as_xyz
  1  'x, y, z'
loop_
 _atom_site_type_symbol
 _atom_site_label
 _atom_site_symmetry_multiplicity
 _atom_site_fract_x
 _atom_site_fract_y
 _atom_site_fract_z
 _atom_site_occupancy
  Tm  Tm0  1  0.460014  0.250000  0.126343  1
  Tm  Tm1  1  0.177308  0.564669  0.167258  1
  Tm  Tm2  1  0.177308  0.935331  0.167258  1
  Tm  Tm3  1  0.676020  0.562366  0.337352  1
  Tm  Tm4  1  0.676020  0.937634  0.337352  1
  Tm  Tm5  1  0.958390  0.250000  0.370401  1
  Tm  Tm6  1  0.039558  0.750000  0.624816  1
  Tm  Tm7  1  0.325810  0.060329  0.662160  1
  Tm  Tm8  1  0.325810  0.439671  0.662160  1
  Tm  Tm9  1  0.821180  0.060629  0.837428  1
  Tm  Tm10  1  0.821180  0.439371  0.837428  1
  Tm  Tm11  1  0.538092  0.750000  0.876588  1
  Tc  Tc12  1  0.886446  0.750000  0.038062  1
  Tc  Tc13  1  0.384204  0.750000  0.459772  1
  Tc  Tc14  1  0.616440  0.250000  0.539775  1
  Rh  Rh15  1  0.116221  0.250000  0.955858  1
