# generated using pymatgen
data_Y16Ho4Si15Hg
_symmetry_space_group_name_H-M   'P 1'
_cell_length_a   7.45929095
_cell_length_b   7.71940044
_cell_length_c   14.69172679
_cell_angle_alpha   89.95509627
_cell_angle_beta   89.22365310
_cell_angle_gamma   90.10988744
_symmetry_Int_Tables_number   1
_chemical_formula_structural   Y16Ho4Si15Hg
_chemical_formula_sum   'Y16 Ho4 Si15 Hg1'
_cell_volume   845.88855950
_cell_formula_units_Z   1
loop_
 _symmetry_equiv_pos_site_id
 _symmetry_equiv_pos_as_xyz
  1  'x, y, z'
loop_
 _atom_site_type_symbol
 _atom_site_label
 _atom_site_symmetry_multiplicity
 _atom_site_fract_x
 _atom_site_fract_y
 _atom_site_fract_z
 _atom_site_occupancy
  Y  Y0  1  0.650314  0.990909  0.250442  1
  Y  Y1  1  0.152440  0.510377  0.248813  1
  Y  Y2  1  0.848012  0.490294  0.747677  1
  Y  Y3  1  0.347232  0.010978  0.749261  1
  Y  Y4  1  0.977989  0.823901  0.101971  1
  Y  Y5  1  0.472147  0.683950  0.401249  1
  Y  Y6  1  0.516974  0.312521  0.899077  1
  Y  Y7  1  0.029411  0.181903  0.597876  1
  Y  Y8  1  0.026679  0.175668  0.899925  1
  Y  Y9  1  0.529062  0.316158  0.598111  1
  Y  Y10  1  0.476436  0.682469  0.101186  1
  Y  Y11  1  0.970561  0.816805  0.400527  1
  Y  Y12  1  0.671875  0.830471  0.873765  1
  Y  Y13  1  0.182435  0.679575  0.621137  1
  Y  Y14  1  0.823114  0.320050  0.126646  1
  Y  Y15  1  0.318499  0.178184  0.378110  1
  Ho  Ho16  1  0.324233  0.177044  0.124441  1
  Ho  Ho17  1  0.819561  0.321024  0.377562  1
  Ho  Ho18  1  0.181084  0.675411  0.876944  1
  Ho  Ho19  1  0.682402  0.822517  0.621594  1
  Si  Si20  1  0.768520  0.628660  0.252437  1
  Si  Si21  1  0.268483  0.873016  0.251809  1
  Si  Si22  1  0.733287  0.126927  0.747568  1
  Si  Si23  1  0.229693  0.372978  0.747574  1
  Si  Si24  1  0.024517  0.104596  0.252284  1
  Si  Si25  1  0.524633  0.394868  0.252564  1
  Si  Si26  1  0.475478  0.604755  0.747440  1
  Si  Si27  1  0.975578  0.891628  0.747641  1
  Si  Si28  1  0.356384  0.971728  0.540508  1
  Si  Si29  1  0.652051  0.030105  0.041245  1
  Si  Si30  1  0.145248  0.470576  0.459933  1
  Si  Si31  1  0.162471  0.468949  0.042114  1
  Si  Si32  1  0.646377  0.028811  0.459286  1
  Si  Si33  1  0.346955  0.967753  0.961821  1
  Si  Si34  1  0.854850  0.530062  0.538692  1
  Hg  Hg35  1  0.835015  0.534381  0.960770  1
