# generated using pymatgen
data_La16Cd4Ni3Os
_symmetry_space_group_name_H-M   'P 1'
_cell_length_a   10.12486339
_cell_length_b   10.01393215
_cell_length_c   10.01393200
_cell_angle_alpha   60.00000050
_cell_angle_beta   60.36177562
_cell_angle_gamma   60.36177417
_symmetry_Int_Tables_number   1
_chemical_formula_structural   La16Cd4Ni3Os
_chemical_formula_sum   'La16 Cd4 Ni3 Os1'
_cell_volume   721.83304600
_cell_formula_units_Z   1
loop_
 _symmetry_equiv_pos_site_id
 _symmetry_equiv_pos_as_xyz
  1  'x, y, z'
loop_
 _atom_site_type_symbol
 _atom_site_label
 _atom_site_symmetry_multiplicity
 _atom_site_fract_x
 _atom_site_fract_y
 _atom_site_fract_z
 _atom_site_occupancy
  La  La0  1  0.932681  0.946353  0.560483  1
  La  La1  1  0.560640  0.936832  0.565696  1
  La  La2  1  0.560640  0.936832  0.936832  1
  La  La3  1  0.689363  0.688414  0.311112  1
  La  La4  1  0.156984  0.152994  0.537028  1
  La  La5  1  0.305371  0.692532  0.692532  1
  La  La6  1  0.156984  0.152994  0.152994  1
  La  La7  1  0.543297  0.152234  0.152234  1
  La  La8  1  0.305371  0.692532  0.309565  1
  La  La9  1  0.305371  0.309565  0.692532  1
  La  La10  1  0.689363  0.311112  0.688414  1
  La  La11  1  0.932681  0.560483  0.560483  1
  La  La12  1  0.560640  0.565696  0.936832  1
  La  La13  1  0.156984  0.537028  0.152994  1
  La  La14  1  0.689363  0.311112  0.311112  1
  La  La15  1  0.932681  0.560483  0.946353  1
  Cd  Cd16  1  0.236079  0.921307  0.921307  1
  Cd  Cd17  1  0.921290  0.920872  0.920872  1
  Cd  Cd18  1  0.921290  0.920872  0.236965  1
  Cd  Cd19  1  0.921290  0.236965  0.920872  1
  Ni  Ni20  1  0.365075  0.356418  0.922087  1
  Ni  Ni21  1  0.365075  0.922087  0.356418  1
  Ni  Ni22  1  0.365075  0.356418  0.356418  1
  Os  Os23  1  0.926402  0.357866  0.357866  1
