# generated using pymatgen
data_Nb6Al3Ga(NiC)2
_symmetry_space_group_name_H-M   'P 1'
_cell_length_a   8.26634914
_cell_length_b   8.26644430
_cell_length_c   8.27625100
_cell_angle_alpha   59.96103395
_cell_angle_beta   59.96044597
_cell_angle_gamma   59.95008206
_symmetry_Int_Tables_number   1
_chemical_formula_structural   Nb6Al3Ga(NiC)2
_chemical_formula_sum   'Nb12 Al6 Ga2 Ni4 C4'
_cell_volume   399.51147568
_cell_formula_units_Z   2
loop_
 _symmetry_equiv_pos_site_id
 _symmetry_equiv_pos_as_xyz
  1  'x, y, z'
loop_
 _atom_site_type_symbol
 _atom_site_label
 _atom_site_symmetry_multiplicity
 _atom_site_fract_x
 _atom_site_fract_y
 _atom_site_fract_z
 _atom_site_occupancy
  Nb  Nb0  1  0.813247  0.813251  0.186753  1
  Nb  Nb1  1  0.186583  0.186575  0.813421  1
  Nb  Nb2  1  0.813533  0.186273  0.812908  1
  Nb  Nb3  1  0.186268  0.813541  0.187280  1
  Nb  Nb4  1  0.186270  0.813541  0.812912  1
  Nb  Nb5  1  0.813538  0.186267  0.187284  1
  Nb  Nb6  1  0.436696  0.436692  0.063305  1
  Nb  Nb7  1  0.062580  0.062589  0.437416  1
  Nb  Nb8  1  0.436774  0.063440  0.437377  1
  Nb  Nb9  1  0.063443  0.436767  0.062417  1
  Nb  Nb10  1  0.063442  0.436768  0.437372  1
  Nb  Nb11  1  0.436771  0.063444  0.062412  1
  Al  Al12  1  0.747668  0.417558  0.417383  1
  Al  Al13  1  0.417554  0.747681  0.417380  1
  Al  Al14  1  0.417664  0.417665  0.747208  1
  Al  Al15  1  0.417665  0.417664  0.417458  1
  Al  Al16  1  0.502609  0.832522  0.832437  1
  Al  Al17  1  0.832525  0.502596  0.832442  1
  Ga  Ga18  1  0.833095  0.833093  0.499889  1
  Ga  Ga19  1  0.833097  0.833096  0.833925  1
  Ni  Ni20  1  0.127332  0.623278  0.624694  1
  Ni  Ni21  1  0.623282  0.127326  0.624693  1
  Ni  Ni22  1  0.624278  0.624281  0.125607  1
  Ni  Ni23  1  0.624276  0.624277  0.625837  1
  C  C24  1  0.625027  0.124663  0.125155  1
  C  C25  1  0.124663  0.625027  0.125155  1
  C  C26  1  0.125060  0.125061  0.624301  1
  C  C27  1  0.125061  0.125061  0.125578  1
