# generated using pymatgen
data_KBe2Cl5
_symmetry_space_group_name_H-M   'P 1'
_cell_length_a   10.46302659
_cell_length_b   10.46302620
_cell_length_c   10.46302700
_cell_angle_alpha   60.00000063
_cell_angle_beta   60.00000187
_cell_angle_gamma   59.99999818
_symmetry_Int_Tables_number   1
_chemical_formula_structural   KBe2Cl5
_chemical_formula_sum   'K4 Be8 Cl20'
_cell_volume   809.94772942
_cell_formula_units_Z   4
loop_
 _symmetry_equiv_pos_site_id
 _symmetry_equiv_pos_as_xyz
  1  'x, y, z'
loop_
 _atom_site_type_symbol
 _atom_site_label
 _atom_site_symmetry_multiplicity
 _atom_site_fract_x
 _atom_site_fract_y
 _atom_site_fract_z
 _atom_site_occupancy
  K  K0  1  0.125000  0.625000  0.625000  1
  K  K1  1  0.625000  0.125000  0.625000  1
  K  K2  1  0.625000  0.625000  0.125000  1
  K  K3  1  0.625000  0.625000  0.625000  1
  Be  Be4  1  0.008448  0.330517  0.330517  1
  Be  Be5  1  0.330517  0.008448  0.330517  1
  Be  Be6  1  0.330517  0.330517  0.008448  1
  Be  Be7  1  0.330517  0.330517  0.330517  1
  Be  Be8  1  0.241552  0.919483  0.919483  1
  Be  Be9  1  0.919483  0.241552  0.919483  1
  Be  Be10  1  0.919483  0.919483  0.241552  1
  Be  Be11  1  0.919483  0.919483  0.919483  1
  Cl  Cl12  1  0.089692  0.089692  0.410308  1
  Cl  Cl13  1  0.410308  0.410308  0.089692  1
  Cl  Cl14  1  0.089692  0.410308  0.089692  1
  Cl  Cl15  1  0.410308  0.089692  0.410308  1
  Cl  Cl16  1  0.410308  0.089692  0.089692  1
  Cl  Cl17  1  0.089692  0.410308  0.410308  1
  Cl  Cl18  1  0.160308  0.160308  0.839692  1
  Cl  Cl19  1  0.839692  0.839692  0.160308  1
  Cl  Cl20  1  0.160308  0.839692  0.160308  1
  Cl  Cl21  1  0.839692  0.160308  0.839692  1
  Cl  Cl22  1  0.839692  0.160308  0.160308  1
  Cl  Cl23  1  0.160308  0.839692  0.839692  1
  Cl  Cl24  1  0.776644  0.407785  0.407785  1
  Cl  Cl25  1  0.407785  0.776644  0.407785  1
  Cl  Cl26  1  0.407785  0.407785  0.776644  1
  Cl  Cl27  1  0.407785  0.407785  0.407785  1
  Cl  Cl28  1  0.473356  0.842215  0.842215  1
  Cl  Cl29  1  0.842215  0.473356  0.842215  1
  Cl  Cl30  1  0.842215  0.842215  0.473356  1
  Cl  Cl31  1  0.842215  0.842215  0.842215  1
