# generated using pymatgen
data_La3SmErP12Ru16Rh3
_symmetry_space_group_name_H-M   'P 1'
_cell_length_a   12.64150700
_cell_length_b   12.64150707
_cell_length_c   4.02804700
_cell_angle_alpha   90.00000000
_cell_angle_beta   90.00000000
_cell_angle_gamma   120.00000243
_symmetry_Int_Tables_number   1
_chemical_formula_structural   La3SmErP12Ru16Rh3
_chemical_formula_sum   'La3 Sm1 Er1 P12 Ru16 Rh3'
_cell_volume   557.47173407
_cell_formula_units_Z   1
loop_
 _symmetry_equiv_pos_site_id
 _symmetry_equiv_pos_as_xyz
  1  'x, y, z'
loop_
 _atom_site_type_symbol
 _atom_site_label
 _atom_site_symmetry_multiplicity
 _atom_site_fract_x
 _atom_site_fract_y
 _atom_site_fract_z
 _atom_site_occupancy
  La  La0  1  0.182575  0.183669  0.500000  1
  La  La1  1  0.816331  0.998908  0.500000  1
  La  La2  1  0.001092  0.817425  0.500000  1
  Sm  Sm3  1  0.333333  0.666667  0.000000  1
  Er  Er4  1  0.666667  0.333333  0.000000  1
  P  P5  1  0.810100  0.808103  0.000000  1
  P  P6  1  0.191897  0.001998  0.000000  1
  P  P7  1  0.998002  0.189900  0.000000  1
  P  P8  1  0.175796  0.477864  0.500000  1
  P  P9  1  0.522136  0.697932  0.500000  1
  P  P10  1  0.302068  0.824204  0.500000  1
  P  P11  1  0.699790  0.518964  0.500000  1
  P  P12  1  0.819174  0.300210  0.500000  1
  P  P13  1  0.481036  0.180826  0.500000  1
  P  P14  1  0.372761  0.374037  0.000000  1
  P  P15  1  0.625963  0.998724  0.000000  1
  P  P16  1  0.001276  0.627239  0.000000  1
  Ru  Ru17  1  0.710622  0.708377  0.500000  1
  Ru  Ru18  1  0.291623  0.002245  0.500000  1
  Ru  Ru19  1  0.997755  0.289378  0.500000  1
  Ru  Ru20  1  0.184701  0.380515  0.000000  1
  Ru  Ru21  1  0.619485  0.804184  0.000000  1
  Ru  Ru22  1  0.195816  0.815299  0.000000  1
  Ru  Ru23  1  0.804703  0.616252  0.000000  1
  Ru  Ru24  1  0.811549  0.195297  0.000000  1
  Ru  Ru25  1  0.383748  0.188451  0.000000  1
  Ru  Ru26  1  0.368735  0.492763  0.500000  1
  Ru  Ru27  1  0.507237  0.875972  0.500000  1
  Ru  Ru28  1  0.124028  0.631265  0.500000  1
  Ru  Ru29  1  0.875069  0.503623  0.500000  1
  Ru  Ru30  1  0.628553  0.124931  0.500000  1
  Ru  Ru31  1  0.496377  0.371447  0.500000  1
  Ru  Ru32  1  0.000000  0.000000  0.000000  1
  Rh  Rh33  1  0.552759  0.553388  0.000000  1
  Rh  Rh34  1  0.446612  0.999371  0.000000  1
  Rh  Rh35  1  0.000629  0.447241  0.000000  1
