# generated using pymatgen
data_LiHo16In(Co2Hg)2
_symmetry_space_group_name_H-M   'P 1'
_cell_length_a   9.44691982
_cell_length_b   9.42251736
_cell_length_c   9.42230300
_cell_angle_alpha   60.00074904
_cell_angle_beta   60.08615841
_cell_angle_gamma   60.11714631
_symmetry_Int_Tables_number   1
_chemical_formula_structural   LiHo16In(Co2Hg)2
_chemical_formula_sum   'Li1 Ho16 In1 Co4 Hg2'
_cell_volume   593.97370949
_cell_formula_units_Z   1
loop_
 _symmetry_equiv_pos_site_id
 _symmetry_equiv_pos_as_xyz
  1  'x, y, z'
loop_
 _atom_site_type_symbol
 _atom_site_label
 _atom_site_symmetry_multiplicity
 _atom_site_fract_x
 _atom_site_fract_y
 _atom_site_fract_z
 _atom_site_occupancy
  Li  Li0  1  0.543270  0.822301  0.817215  1
  Ho  Ho1  1  0.187979  0.187580  0.812221  1
  Ho  Ho2  1  0.600054  0.596014  0.207093  1
  Ho  Ho3  1  0.434634  0.063621  0.437647  1
  Ho  Ho4  1  0.437572  0.436496  0.062965  1
  Ho  Ho5  1  0.812009  0.183823  0.814633  1
  Ho  Ho6  1  0.188507  0.810011  0.189305  1
  Ho  Ho7  1  0.434634  0.063621  0.064096  1
  Ho  Ho8  1  0.188507  0.810011  0.812178  1
  Ho  Ho9  1  0.058753  0.439840  0.060370  1
  Ho  Ho10  1  0.811550  0.813020  0.187715  1
  Ho  Ho11  1  0.196088  0.601500  0.601206  1
  Ho  Ho12  1  0.058753  0.439840  0.441038  1
  Ho  Ho13  1  0.059232  0.061019  0.439875  1
  Ho  Ho14  1  0.812009  0.183823  0.189535  1
  Ho  Ho15  1  0.600706  0.206378  0.596458  1
  Ho  Ho16  1  0.600054  0.596014  0.596837  1
  In  In17  1  0.827867  0.506847  0.832642  1
  Co  Co18  1  0.388985  0.823105  0.393955  1
  Co  Co19  1  0.388317  0.394189  0.393626  1
  Co  Co20  1  0.824784  0.392558  0.391329  1
  Co  Co21  1  0.388317  0.394189  0.823869  1
  Hg  Hg22  1  0.828709  0.837098  0.837235  1
  Hg  Hg23  1  0.828709  0.837098  0.496960  1
