# generated using pymatgen
data_Tb3Er13(In3Ru)2
_symmetry_space_group_name_H-M   'P 1'
_cell_length_a   10.33995500
_cell_length_b   10.33995364
_cell_length_c   7.04695500
_cell_angle_alpha   90.00000000
_cell_angle_beta   90.00000000
_cell_angle_gamma   119.99999475
_symmetry_Int_Tables_number   1
_chemical_formula_structural   Tb3Er13(In3Ru)2
_chemical_formula_sum   'Tb3 Er13 In6 Ru2'
_cell_volume   652.48328882
_cell_formula_units_Z   1
loop_
 _symmetry_equiv_pos_site_id
 _symmetry_equiv_pos_as_xyz
  1  'x, y, z'
loop_
 _atom_site_type_symbol
 _atom_site_label
 _atom_site_symmetry_multiplicity
 _atom_site_fract_x
 _atom_site_fract_y
 _atom_site_fract_z
 _atom_site_occupancy
  Tb  Tb0  1  0.532821  0.065642  0.793834  1
  Tb  Tb1  1  0.934358  0.467179  0.793834  1
  Tb  Tb2  1  0.532821  0.467179  0.793834  1
  Er  Er3  1  0.465921  0.931842  0.294593  1
  Er  Er4  1  0.068158  0.534079  0.294593  1
  Er  Er5  1  0.465921  0.534079  0.294593  1
  Er  Er6  1  0.823012  0.646026  0.496387  1
  Er  Er7  1  0.353974  0.176988  0.496387  1
  Er  Er8  1  0.823012  0.176988  0.496387  1
  Er  Er9  1  0.177172  0.354343  0.998965  1
  Er  Er10  1  0.645657  0.822828  0.998965  1
  Er  Er11  1  0.177172  0.822828  0.998965  1
  Er  Er12  1  0.666667  0.333333  0.174659  1
  Er  Er13  1  0.333333  0.666667  0.673924  1
  Er  Er14  1  0.000000  0.000000  0.778729  1
  Er  Er15  1  0.000000  0.000000  0.279141  1
  In  In16  1  0.837530  0.675061  0.040772  1
  In  In17  1  0.324939  0.162470  0.040772  1
  In  In18  1  0.837530  0.162470  0.040772  1
  In  In19  1  0.163030  0.326058  0.540200  1
  In  In20  1  0.673942  0.836970  0.540200  1
  In  In21  1  0.163030  0.836970  0.540200  1
  Ru  Ru22  1  0.666667  0.333333  0.566659  1
  Ru  Ru23  1  0.333333  0.666667  0.068541  1
