# generated using pymatgen
data_Tb9Ho(RhPb2)4
_symmetry_space_group_name_H-M   'P 1'
_cell_length_a   3.64870900
_cell_length_b   8.04352498
_cell_length_c   18.33449600
_cell_angle_alpha   90.06378130
_cell_angle_beta   90.00000000
_cell_angle_gamma   90.00000000
_symmetry_Int_Tables_number   1
_chemical_formula_structural   Tb9Ho(RhPb2)4
_chemical_formula_sum   'Tb9 Ho1 Rh4 Pb8'
_cell_volume   538.08929243
_cell_formula_units_Z   1
loop_
 _symmetry_equiv_pos_site_id
 _symmetry_equiv_pos_as_xyz
  1  'x, y, z'
loop_
 _atom_site_type_symbol
 _atom_site_label
 _atom_site_symmetry_multiplicity
 _atom_site_fract_x
 _atom_site_fract_y
 _atom_site_fract_z
 _atom_site_occupancy
  Tb  Tb0  1  0.000000  0.118153  0.412187  1
  Tb  Tb1  1  0.000000  0.881028  0.587194  1
  Tb  Tb2  1  0.000000  0.381358  0.912684  1
  Tb  Tb3  1  0.000000  0.618936  0.087712  1
  Tb  Tb4  1  0.000000  0.244147  0.218686  1
  Tb  Tb5  1  0.000000  0.756212  0.781366  1
  Tb  Tb6  1  0.000000  0.256280  0.718498  1
  Tb  Tb7  1  0.000000  0.000398  0.000230  1
  Tb  Tb8  1  0.000000  0.499898  0.499957  1
  Ho  Ho9  1  0.000000  0.743922  0.281180  1
  Rh  Rh10  1  0.500000  0.024667  0.305918  1
  Rh  Rh11  1  0.500000  0.972403  0.693753  1
  Rh  Rh12  1  0.500000  0.472669  0.806055  1
  Rh  Rh13  1  0.500000  0.529597  0.194869  1
  Pb  Pb14  1  0.500000  0.420487  0.348391  1
  Pb  Pb15  1  0.500000  0.580532  0.651555  1
  Pb  Pb16  1  0.500000  0.080416  0.848319  1
  Pb  Pb17  1  0.500000  0.919325  0.151963  1
  Pb  Pb18  1  0.500000  0.296074  0.065218  1
  Pb  Pb19  1  0.500000  0.704510  0.935109  1
  Pb  Pb20  1  0.500000  0.203963  0.564738  1
  Pb  Pb21  1  0.500000  0.795022  0.434418  1
