# generated using pymatgen
data_MgCd(FeBr4)4
_symmetry_space_group_name_H-M   'P 1'
_cell_length_a   10.61346472
_cell_length_b   10.61346388
_cell_length_c   12.73136091
_cell_angle_alpha   55.69318124
_cell_angle_beta   55.69318426
_cell_angle_gamma   49.19671783
_symmetry_Int_Tables_number   1
_chemical_formula_structural   MgCd(FeBr4)4
_chemical_formula_sum   'Mg1 Cd1 Fe4 Br16'
_cell_volume   851.84909406
_cell_formula_units_Z   1
loop_
 _symmetry_equiv_pos_site_id
 _symmetry_equiv_pos_as_xyz
  1  'x, y, z'
loop_
 _atom_site_type_symbol
 _atom_site_label
 _atom_site_symmetry_multiplicity
 _atom_site_fract_x
 _atom_site_fract_y
 _atom_site_fract_z
 _atom_site_occupancy
  Mg  Mg0  1  0.005320  0.994680  0.250000  1
  Cd  Cd1  1  0.997646  0.002354  0.750000  1
  Fe  Fe2  1  0.155875  0.678327  0.528381  1
  Fe  Fe3  1  0.321673  0.844125  0.971619  1
  Fe  Fe4  1  0.844313  0.321681  0.468995  1
  Fe  Fe5  1  0.678319  0.155687  0.031005  1
  Br  Br6  1  0.304356  0.387633  0.548797  1
  Br  Br7  1  0.612367  0.695644  0.951203  1
  Br  Br8  1  0.695821  0.611897  0.450316  1
  Br  Br9  1  0.388103  0.304179  0.049684  1
  Br  Br10  1  0.873066  0.830781  0.508394  1
  Br  Br11  1  0.169219  0.126934  0.991606  1
  Br  Br12  1  0.129876  0.176884  0.480909  1
  Br  Br13  1  0.823116  0.870124  0.019091  1
  Br  Br14  1  0.144979  0.683851  0.718592  1
  Br  Br15  1  0.316149  0.855021  0.781408  1
  Br  Br16  1  0.860234  0.304604  0.281626  1
  Br  Br17  1  0.695396  0.139766  0.218374  1
  Br  Br18  1  0.286457  0.839935  0.322488  1
  Br  Br19  1  0.160065  0.713543  0.177512  1
  Br  Br20  1  0.704633  0.166983  0.673195  1
  Br  Br21  1  0.833017  0.295367  0.826805  1
