# generated using pymatgen
data_La3DyTl5
_symmetry_space_group_name_H-M   'P 1'
_cell_length_a   8.82705588
_cell_length_b   8.82705560
_cell_length_c   8.82705556
_cell_angle_alpha   66.15993443
_cell_angle_beta   66.15993895
_cell_angle_gamma   66.15991912
_symmetry_Int_Tables_number   1
_chemical_formula_structural   La3DyTl5
_chemical_formula_sum   'La6 Dy2 Tl10'
_cell_volume   551.06476948
_cell_formula_units_Z   2
loop_
 _symmetry_equiv_pos_site_id
 _symmetry_equiv_pos_as_xyz
  1  'x, y, z'
loop_
 _atom_site_type_symbol
 _atom_site_label
 _atom_site_symmetry_multiplicity
 _atom_site_fract_x
 _atom_site_fract_y
 _atom_site_fract_z
 _atom_site_occupancy
  La  La0  1  0.891527  0.181370  0.627982  1
  La  La1  1  0.627982  0.891527  0.181370  1
  La  La2  1  0.181370  0.627982  0.891527  1
  La  La3  1  0.108473  0.818630  0.372018  1
  La  La4  1  0.372018  0.108473  0.818630  1
  La  La5  1  0.818630  0.372018  0.108473  1
  Dy  Dy6  1  0.656254  0.656254  0.656254  1
  Dy  Dy7  1  0.343746  0.343746  0.343746  1
  Tl  Tl8  1  0.000000  0.000000  0.000000  1
  Tl  Tl9  1  0.500000  0.500000  0.500000  1
  Tl  Tl10  1  0.808840  0.808840  0.808840  1
  Tl  Tl11  1  0.191160  0.191160  0.191160  1
  Tl  Tl12  1  0.947826  0.561801  0.306947  1
  Tl  Tl13  1  0.306947  0.947826  0.561801  1
  Tl  Tl14  1  0.561801  0.306947  0.947826  1
  Tl  Tl15  1  0.052174  0.438199  0.693053  1
  Tl  Tl16  1  0.693053  0.052174  0.438199  1
  Tl  Tl17  1  0.438199  0.693053  0.052174  1
