# generated using pymatgen
data_Y4Al4RuPt2Rh
_symmetry_space_group_name_H-M   'P 1'
_cell_length_a   4.33199100
_cell_length_b   6.89334841
_cell_length_c   7.88981994
_cell_angle_alpha   90.11424510
_cell_angle_beta   90.00000000
_cell_angle_gamma   90.00000000
_symmetry_Int_Tables_number   1
_chemical_formula_structural   Y4Al4RuPt2Rh
_chemical_formula_sum   'Y4 Al4 Ru1 Pt2 Rh1'
_cell_volume   235.60472929
_cell_formula_units_Z   1
loop_
 _symmetry_equiv_pos_site_id
 _symmetry_equiv_pos_as_xyz
  1  'x, y, z'
loop_
 _atom_site_type_symbol
 _atom_site_label
 _atom_site_symmetry_multiplicity
 _atom_site_fract_x
 _atom_site_fract_y
 _atom_site_fract_z
 _atom_site_occupancy
  Y  Y0  1  0.250000  0.031037  0.678162  1
  Y  Y1  1  0.250000  0.530736  0.820831  1
  Y  Y2  1  0.750000  0.976712  0.316482  1
  Y  Y3  1  0.750000  0.471886  0.186417  1
  Al  Al4  1  0.250000  0.141064  0.063974  1
  Al  Al5  1  0.250000  0.641529  0.435835  1
  Al  Al6  1  0.750000  0.856572  0.936984  1
  Al  Al7  1  0.750000  0.354855  0.562150  1
  Ru  Ru8  1  0.250000  0.268324  0.383666  1
  Pt  Pt9  1  0.750000  0.728401  0.618349  1
  Pt  Pt10  1  0.750000  0.228249  0.882700  1
  Rh  Rh11  1  0.250000  0.770637  0.114451  1
