# generated using pymatgen
data_Tb3Nd7YIn9Pd4
_symmetry_space_group_name_H-M   'P 1'
_cell_length_a   13.43572897
_cell_length_b   13.43925439
_cell_length_c   3.73159500
_cell_angle_alpha   90.00000000
_cell_angle_beta   90.00000000
_cell_angle_gamma   111.15276576
_symmetry_Int_Tables_number   1
_chemical_formula_structural   Tb3Nd7YIn9Pd4
_chemical_formula_sum   'Tb3 Nd7 Y1 In9 Pd4'
_cell_volume   628.40030025
_cell_formula_units_Z   1
loop_
 _symmetry_equiv_pos_site_id
 _symmetry_equiv_pos_as_xyz
  1  'x, y, z'
loop_
 _atom_site_type_symbol
 _atom_site_label
 _atom_site_symmetry_multiplicity
 _atom_site_fract_x
 _atom_site_fract_y
 _atom_site_fract_z
 _atom_site_occupancy
  Tb  Tb0  1  0.626455  0.373440  0.000000  1
  Tb  Tb1  1  0.312824  0.312886  0.000000  1
  Tb  Tb2  1  0.687115  0.687144  0.000000  1
  Nd  Nd3  1  0.416865  0.069272  0.000000  1
  Nd  Nd4  1  0.583194  0.930578  0.000000  1
  Nd  Nd5  1  0.069443  0.416834  0.000000  1
  Nd  Nd6  1  0.930788  0.583245  0.000000  1
  Nd  Nd7  1  0.159000  0.841148  0.000000  1
  Nd  Nd8  1  0.840898  0.158942  0.000000  1
  Nd  Nd9  1  0.000135  0.000029  0.000000  1
  Y  Y10  1  0.373390  0.626659  0.000000  1
  In  In11  1  0.367432  0.835342  0.500000  1
  In  In12  1  0.632570  0.164453  0.500000  1
  In  In13  1  0.835249  0.367269  0.500000  1
  In  In14  1  0.164681  0.632698  0.500000  1
  In  In15  1  0.220491  0.080491  0.500000  1
  In  In16  1  0.779516  0.919418  0.500000  1
  In  In17  1  0.080510  0.220425  0.500000  1
  In  In18  1  0.919386  0.779665  0.500000  1
  In  In19  1  0.499729  0.500120  0.500000  1
  Pd  Pd20  1  0.451259  0.253235  0.500000  1
  Pd  Pd21  1  0.549070  0.746982  0.500000  1
  Pd  Pd22  1  0.253138  0.450962  0.500000  1
  Pd  Pd23  1  0.746862  0.548763  0.500000  1
