# generated using pymatgen
data_Nb20Al2Ir3Os5
_symmetry_space_group_name_H-M   'P 1'
_cell_length_a   9.93805131
_cell_length_b   9.92672733
_cell_length_c   5.17365300
_cell_angle_alpha   90.00000000
_cell_angle_beta   90.00000000
_cell_angle_gamma   90.13915556
_symmetry_Int_Tables_number   1
_chemical_formula_structural   Nb20Al2Ir3Os5
_chemical_formula_sum   'Nb20 Al2 Ir3 Os5'
_cell_volume   510.39139505
_cell_formula_units_Z   1
loop_
 _symmetry_equiv_pos_site_id
 _symmetry_equiv_pos_as_xyz
  1  'x, y, z'
loop_
 _atom_site_type_symbol
 _atom_site_label
 _atom_site_symmetry_multiplicity
 _atom_site_fract_x
 _atom_site_fract_y
 _atom_site_fract_z
 _atom_site_occupancy
  Nb  Nb0  1  0.396328  0.395481  0.000000  1
  Nb  Nb1  1  0.894968  0.103633  0.500000  1
  Nb  Nb2  1  0.105163  0.895904  0.500000  1
  Nb  Nb3  1  0.604055  0.605403  0.000000  1
  Nb  Nb4  1  0.127137  0.464923  0.000000  1
  Nb  Nb5  1  0.964932  0.372427  0.500000  1
  Nb  Nb6  1  0.034410  0.627809  0.500000  1
  Nb  Nb7  1  0.872091  0.534344  0.000000  1
  Nb  Nb8  1  0.371898  0.965598  0.500000  1
  Nb  Nb9  1  0.627142  0.033665  0.500000  1
  Nb  Nb10  1  0.466611  0.127671  0.000000  1
  Nb  Nb11  1  0.535558  0.874431  0.000000  1
  Nb  Nb12  1  0.181363  0.184475  0.251995  1
  Nb  Nb13  1  0.684224  0.317951  0.751573  1
  Nb  Nb14  1  0.315786  0.681162  0.752044  1
  Nb  Nb15  1  0.818449  0.816840  0.251084  1
  Nb  Nb16  1  0.315786  0.681162  0.247956  1
  Nb  Nb17  1  0.684224  0.317951  0.248427  1
  Nb  Nb18  1  0.181363  0.184475  0.748005  1
  Nb  Nb19  1  0.818449  0.816840  0.748916  1
  Al  Al20  1  0.001054  0.998980  0.000000  1
  Al  Al21  1  0.499920  0.499845  0.500000  1
  Ir  Ir22  1  0.257251  0.937860  0.000000  1
  Ir  Ir23  1  0.437038  0.243136  0.500000  1
  Ir  Ir24  1  0.561729  0.756571  0.500000  1
  Os  Os25  1  0.743702  0.063141  0.000000  1
  Os  Os26  1  0.243526  0.436742  0.500000  1
  Os  Os27  1  0.756139  0.563604  0.500000  1
  Os  Os28  1  0.936265  0.254964  0.000000  1
  Os  Os29  1  0.063437  0.743011  0.000000  1
