# generated using pymatgen
data_DyCu4AgO8
_symmetry_space_group_name_H-M   'P 1'
_cell_length_a   6.23544918
_cell_length_b   6.23544942
_cell_length_c   6.23544921
_cell_angle_alpha   124.84129420
_cell_angle_beta   124.84130117
_cell_angle_gamma   81.80106349
_symmetry_Int_Tables_number   1
_chemical_formula_structural   DyCu4AgO8
_chemical_formula_sum   'Dy1 Cu4 Ag1 O8'
_cell_volume   157.11421946
_cell_formula_units_Z   1
loop_
 _symmetry_equiv_pos_site_id
 _symmetry_equiv_pos_as_xyz
  1  'x, y, z'
loop_
 _atom_site_type_symbol
 _atom_site_label
 _atom_site_symmetry_multiplicity
 _atom_site_fract_x
 _atom_site_fract_y
 _atom_site_fract_z
 _atom_site_occupancy
  Dy  Dy0  1  0.750000  0.250000  0.500000  1
  Cu  Cu1  1  0.873723  0.615387  0.239955  1
  Cu  Cu2  1  0.375432  0.633768  0.760045  1
  Cu  Cu3  1  0.366232  0.126277  0.741663  1
  Cu  Cu4  1  0.384613  0.624568  0.258337  1
  Ag  Ag5  1  0.000000  0.000000  0.000000  1
  O  O6  1  0.425684  0.836215  0.154269  1
  O  O7  1  0.681947  0.271416  0.845731  1
  O  O8  1  0.351602  0.423709  0.377216  1
  O  O9  1  0.046493  0.974387  0.622784  1
  O  O10  1  0.025613  0.648398  0.072107  1
  O  O11  1  0.576291  0.953507  0.927893  1
  O  O12  1  0.163785  0.318053  0.589469  1
  O  O13  1  0.728584  0.574316  0.410531  1
