# generated using pymatgen
data_Dy5Sc3(Si3Rh4)4
_symmetry_space_group_name_H-M   'P 1'
_cell_length_a   13.02196900
_cell_length_b   13.02196928
_cell_length_c   4.01542400
_cell_angle_alpha   90.00000000
_cell_angle_beta   90.00000000
_cell_angle_gamma   120.00000182
_symmetry_Int_Tables_number   1
_chemical_formula_structural   Dy5Sc3(Si3Rh4)4
_chemical_formula_sum   'Dy5 Sc3 Si12 Rh16'
_cell_volume   589.67858747
_cell_formula_units_Z   1
loop_
 _symmetry_equiv_pos_site_id
 _symmetry_equiv_pos_as_xyz
  1  'x, y, z'
loop_
 _atom_site_type_symbol
 _atom_site_label
 _atom_site_symmetry_multiplicity
 _atom_site_fract_x
 _atom_site_fract_y
 _atom_site_fract_z
 _atom_site_occupancy
  Dy  Dy0  1  0.333333  0.666667  0.500000  1
  Dy  Dy1  1  0.666667  0.333333  0.500000  1
  Dy  Dy2  1  0.000000  0.814124  0.000000  1
  Dy  Dy3  1  0.185876  0.185876  0.000000  1
  Dy  Dy4  1  0.814124  0.000000  0.000000  1
  Sc  Sc5  1  0.000000  0.436853  0.500000  1
  Sc  Sc6  1  0.563147  0.563147  0.500000  1
  Sc  Sc7  1  0.436853  0.000000  0.500000  1
  Si  Si8  1  0.000000  0.639297  0.500000  1
  Si  Si9  1  0.360703  0.360703  0.500000  1
  Si  Si10  1  0.639297  0.000000  0.500000  1
  Si  Si11  1  0.519327  0.696378  0.000000  1
  Si  Si12  1  0.303622  0.822949  0.000000  1
  Si  Si13  1  0.177051  0.480673  0.000000  1
  Si  Si14  1  0.480673  0.177051  0.000000  1
  Si  Si15  1  0.696378  0.519327  0.000000  1
  Si  Si16  1  0.822949  0.303622  0.000000  1
  Si  Si17  1  0.000000  0.183117  0.500000  1
  Si  Si18  1  0.816883  0.816883  0.500000  1
  Si  Si19  1  0.183117  0.000000  0.500000  1
  Rh  Rh20  1  0.510962  0.875897  0.000000  1
  Rh  Rh21  1  0.124103  0.635066  0.000000  1
  Rh  Rh22  1  0.364934  0.489038  0.000000  1
  Rh  Rh23  1  0.489038  0.364934  0.000000  1
  Rh  Rh24  1  0.875897  0.510962  0.000000  1
  Rh  Rh25  1  0.635066  0.124103  0.000000  1
  Rh  Rh26  1  0.000000  0.278865  0.000000  1
  Rh  Rh27  1  0.721135  0.721135  0.000000  1
  Rh  Rh28  1  0.278865  0.000000  0.000000  1
  Rh  Rh29  1  0.625744  0.806483  0.500000  1
  Rh  Rh30  1  0.193517  0.819261  0.500000  1
  Rh  Rh31  1  0.180739  0.374256  0.500000  1
  Rh  Rh32  1  0.374256  0.180739  0.500000  1
  Rh  Rh33  1  0.806483  0.625744  0.500000  1
  Rh  Rh34  1  0.819261  0.193517  0.500000  1
  Rh  Rh35  1  0.000000  0.000000  0.500000  1
