# generated using pymatgen
data_Hf10Sn6Ge
_symmetry_space_group_name_H-M   'P 1'
_cell_length_a   5.83793601
_cell_length_b   8.53481281
_cell_length_c   8.53485001
_cell_angle_alpha   119.99986843
_cell_angle_beta   90.00031978
_cell_angle_gamma   89.99944162
_symmetry_Int_Tables_number   1
_chemical_formula_structural   Hf10Sn6Ge
_chemical_formula_sum   'Hf10 Sn6 Ge1'
_cell_volume   368.28194729
_cell_formula_units_Z   1
loop_
 _symmetry_equiv_pos_site_id
 _symmetry_equiv_pos_as_xyz
  1  'x, y, z'
loop_
 _atom_site_type_symbol
 _atom_site_label
 _atom_site_symmetry_multiplicity
 _atom_site_fract_x
 _atom_site_fract_y
 _atom_site_fract_z
 _atom_site_occupancy
  Hf  Hf0  1  0.499999  0.333332  0.666665  1
  Hf  Hf1  1  0.499999  0.666669  0.333335  1
  Hf  Hf2  1  0.000000  0.666659  0.333320  1
  Hf  Hf3  1  0.999999  0.333340  0.666680  1
  Hf  Hf4  1  0.761426  0.257013  0.000000  1
  Hf  Hf5  1  0.761407  0.742987  0.742981  1
  Hf  Hf6  1  0.761405  0.000005  0.257019  1
  Hf  Hf7  1  0.238571  0.742985  0.000000  1
  Hf  Hf8  1  0.238592  0.257013  0.257018  1
  Hf  Hf9  1  0.238594  0.999996  0.742983  1
  Sn  Sn10  1  0.746331  0.608799  0.999999  1
  Sn  Sn11  1  0.746347  0.391209  0.391208  1
  Sn  Sn12  1  0.746348  0.000000  0.608791  1
  Sn  Sn13  1  0.253674  0.391200  0.000001  1
  Sn  Sn14  1  0.253654  0.608792  0.608792  1
  Sn  Sn15  1  0.253653  0.000000  0.391209  1
  Ge  Ge16  1  0.499999  0.000000  0.000000  1
