# generated using pymatgen
data_Tb3Er3TcIr
_symmetry_space_group_name_H-M   'P 1'
_cell_length_a   6.34124774
_cell_length_b   7.32744900
_cell_length_c   9.15013521
_cell_angle_alpha   90.00000000
_cell_angle_beta   90.36815753
_cell_angle_gamma   90.00000000
_symmetry_Int_Tables_number   1
_chemical_formula_structural   Tb3Er3TcIr
_chemical_formula_sum   'Tb6 Er6 Tc2 Ir2'
_cell_volume   425.15380544
_cell_formula_units_Z   2
loop_
 _symmetry_equiv_pos_site_id
 _symmetry_equiv_pos_as_xyz
  1  'x, y, z'
loop_
 _atom_site_type_symbol
 _atom_site_label
 _atom_site_symmetry_multiplicity
 _atom_site_fract_x
 _atom_site_fract_y
 _atom_site_fract_z
 _atom_site_occupancy
  Tb  Tb0  1  0.328853  0.676893  0.065582  1
  Tb  Tb1  1  0.171147  0.176893  0.434418  1
  Tb  Tb2  1  0.873120  0.538279  0.250174  1
  Tb  Tb3  1  0.626880  0.038279  0.249826  1
  Tb  Tb4  1  0.132549  0.460025  0.750121  1
  Tb  Tb5  1  0.367451  0.960025  0.749879  1
  Er  Er6  1  0.668485  0.323948  0.561782  1
  Er  Er7  1  0.831515  0.823948  0.938218  1
  Er  Er8  1  0.668105  0.323764  0.937923  1
  Er  Er9  1  0.831895  0.823764  0.562077  1
  Er  Er10  1  0.330515  0.676237  0.435046  1
  Er  Er11  1  0.169485  0.176237  0.064954  1
  Tc  Tc12  1  0.035741  0.886443  0.250183  1
  Tc  Tc13  1  0.464259  0.386443  0.249817  1
  Ir  Ir14  1  0.952958  0.114409  0.751721  1
  Ir  Ir15  1  0.547042  0.614409  0.748279  1
