# generated using pymatgen
data_Tb5Y3Sc12(SiGe)8
_symmetry_space_group_name_H-M   'P 1'
_cell_length_a   7.17724414
_cell_length_b   7.43612603
_cell_length_c   14.10205333
_cell_angle_alpha   89.99051600
_cell_angle_beta   89.97728422
_cell_angle_gamma   90.00125383
_symmetry_Int_Tables_number   1
_chemical_formula_structural   Tb5Y3Sc12(SiGe)8
_chemical_formula_sum   'Tb5 Y3 Sc12 Si8 Ge8'
_cell_volume   752.63909472
_cell_formula_units_Z   1
loop_
 _symmetry_equiv_pos_site_id
 _symmetry_equiv_pos_as_xyz
  1  'x, y, z'
loop_
 _atom_site_type_symbol
 _atom_site_label
 _atom_site_symmetry_multiplicity
 _atom_site_fract_x
 _atom_site_fract_y
 _atom_site_fract_z
 _atom_site_occupancy
  Tb  Tb0  1  0.991520  0.823583  0.598957  1
  Tb  Tb1  1  0.508466  0.323588  0.098945  1
  Tb  Tb2  1  0.008466  0.176407  0.401084  1
  Tb  Tb3  1  0.508432  0.323616  0.400994  1
  Tb  Tb4  1  0.491559  0.676402  0.598956  1
  Y  Y5  1  0.008278  0.176418  0.098966  1
  Y  Y6  1  0.991744  0.823482  0.900975  1
  Y  Y7  1  0.491675  0.676443  0.901002  1
  Sc  Sc8  1  0.163575  0.500941  0.750025  1
  Sc  Sc9  1  0.836383  0.499105  0.250027  1
  Sc  Sc10  1  0.336364  0.000970  0.250023  1
  Sc  Sc11  1  0.663565  0.999094  0.749995  1
  Sc  Sc12  1  0.334588  0.173122  0.626630  1
  Sc  Sc13  1  0.665420  0.826911  0.373417  1
  Sc  Sc14  1  0.165378  0.672978  0.373416  1
  Sc  Sc15  1  0.665470  0.826888  0.126590  1
  Sc  Sc16  1  0.834614  0.326992  0.626621  1
  Sc  Sc17  1  0.334555  0.173075  0.873443  1
  Sc  Sc18  1  0.834705  0.326976  0.873380  1
  Sc  Sc19  1  0.165378  0.673079  0.126587  1
  Si  Si20  1  0.035777  0.118609  0.750010  1
  Si  Si21  1  0.964176  0.881400  0.249961  1
  Si  Si22  1  0.464237  0.618624  0.249960  1
  Si  Si23  1  0.535794  0.381425  0.750015  1
  Si  Si24  1  0.288709  0.873132  0.750089  1
  Si  Si25  1  0.711323  0.126782  0.249938  1
  Si  Si26  1  0.211165  0.373252  0.249983  1
  Si  Si27  1  0.788755  0.626786  0.750070  1
  Ge  Ge28  1  0.168732  0.460989  0.540899  1
  Ge  Ge29  1  0.831224  0.538992  0.459113  1
  Ge  Ge30  1  0.331316  0.960985  0.459131  1
  Ge  Ge31  1  0.831257  0.539020  0.040896  1
  Ge  Ge32  1  0.668699  0.039013  0.540870  1
  Ge  Ge33  1  0.168697  0.460980  0.959063  1
  Ge  Ge34  1  0.668875  0.039024  0.959097  1
  Ge  Ge35  1  0.331132  0.960918  0.040874  1
