# generated using pymatgen
data_Tb8Ho12Si15As
_symmetry_space_group_name_H-M   'P 1'
_cell_length_a   7.65968654
_cell_length_b   7.70041071
_cell_length_c   14.07923473
_cell_angle_alpha   89.23771751
_cell_angle_beta   89.82404664
_cell_angle_gamma   89.98259957
_symmetry_Int_Tables_number   1
_chemical_formula_structural   Tb8Ho12Si15As
_chemical_formula_sum   'Tb8 Ho12 Si15 As1'
_cell_volume   830.35429401
_cell_formula_units_Z   1
loop_
 _symmetry_equiv_pos_site_id
 _symmetry_equiv_pos_as_xyz
  1  'x, y, z'
loop_
 _atom_site_type_symbol
 _atom_site_label
 _atom_site_symmetry_multiplicity
 _atom_site_fract_x
 _atom_site_fract_y
 _atom_site_fract_z
 _atom_site_occupancy
  Tb  Tb0  1  0.995258  0.355088  0.209560  1
  Tb  Tb1  1  0.004615  0.647208  0.710418  1
  Tb  Tb2  1  0.141692  0.504757  0.463283  1
  Tb  Tb3  1  0.505864  0.848939  0.037646  1
  Tb  Tb4  1  0.855064  0.501986  0.959363  1
  Tb  Tb5  1  0.498444  0.146610  0.540804  1
  Tb  Tb6  1  0.355194  0.997082  0.790464  1
  Tb  Tb7  1  0.643531  0.000915  0.289266  1
  Ho  Ho8  1  0.177972  0.176858  0.999741  1
  Ho  Ho9  1  0.822593  0.824651  0.500712  1
  Ho  Ho10  1  0.321518  0.680385  0.249780  1
  Ho  Ho11  1  0.679443  0.321389  0.750070  1
  Ho  Ho12  1  0.146971  0.010041  0.371589  1
  Ho  Ho13  1  0.855898  0.993095  0.876195  1
  Ho  Ho14  1  0.493161  0.645361  0.627326  1
  Ho  Ho15  1  0.356348  0.506238  0.873586  1
  Ho  Ho16  1  0.499503  0.348619  0.129356  1
  Ho  Ho17  1  0.648606  0.500033  0.376400  1
  Ho  Ho18  1  0.006033  0.145116  0.622843  1
  Ho  Ho19  1  0.991654  0.851080  0.121386  1
  Si  Si20  1  0.649257  0.706301  0.815779  1
  Si  Si21  1  0.205810  0.854896  0.564742  1
  Si  Si22  1  0.147807  0.792676  0.931357  1
  Si  Si23  1  0.792607  0.148051  0.066569  1
  Si  Si24  1  0.850974  0.204812  0.431222  1
  Si  Si25  1  0.293249  0.351953  0.684114  1
  Si  Si26  1  0.702760  0.642429  0.183547  1
  Si  Si27  1  0.296527  0.035086  0.178170  1
  Si  Si28  1  0.704519  0.945282  0.688881  1
  Si  Si29  1  0.445240  0.800589  0.438772  1
  Si  Si30  1  0.203374  0.549903  0.062079  1
  Si  Si31  1  0.557869  0.205132  0.939355  1
  Si  Si32  1  0.795031  0.447336  0.563370  1
  Si  Si33  1  0.057129  0.295725  0.810890  1
  Si  Si34  1  0.946232  0.704935  0.311944  1
  As  As35  1  0.352252  0.309447  0.329415  1
