# generated using pymatgen
data_Rb3Na2VAs3
_symmetry_space_group_name_H-M   'P 1'
_cell_length_a   10.72975239
_cell_length_b   10.72975147
_cell_length_c   15.80452000
_cell_angle_alpha   90.00000000
_cell_angle_beta   90.00000000
_cell_angle_gamma   142.53726718
_symmetry_Int_Tables_number   1
_chemical_formula_structural   Rb3Na2VAs3
_chemical_formula_sum   'Rb12 Na8 V4 As12'
_cell_volume   1106.72422744
_cell_formula_units_Z   4
loop_
 _symmetry_equiv_pos_site_id
 _symmetry_equiv_pos_as_xyz
  1  'x, y, z'
loop_
 _atom_site_type_symbol
 _atom_site_label
 _atom_site_symmetry_multiplicity
 _atom_site_fract_x
 _atom_site_fract_y
 _atom_site_fract_z
 _atom_site_occupancy
  Rb  Rb0  1  0.939702  0.606470  0.826949  1
  Rb  Rb1  1  0.560298  0.893530  0.326949  1
  Rb  Rb2  1  0.393530  0.060298  0.173051  1
  Rb  Rb3  1  0.060298  0.393530  0.173051  1
  Rb  Rb4  1  0.893530  0.560298  0.326949  1
  Rb  Rb5  1  0.439702  0.106470  0.673051  1
  Rb  Rb6  1  0.606470  0.939702  0.826949  1
  Rb  Rb7  1  0.273886  0.273886  0.315071  1
  Rb  Rb8  1  0.773886  0.773886  0.184929  1
  Rb  Rb9  1  0.226114  0.226114  0.815071  1
  Rb  Rb10  1  0.726114  0.726114  0.684929  1
  Rb  Rb11  1  0.106470  0.439702  0.673051  1
  Na  Na12  1  0.920692  0.079308  0.000000  1
  Na  Na13  1  0.579308  0.420692  0.500000  1
  Na  Na14  1  0.079308  0.920692  0.000000  1
  Na  Na15  1  0.420692  0.579308  0.500000  1
  Na  Na16  1  0.755128  0.244872  0.000000  1
  Na  Na17  1  0.744872  0.255128  0.500000  1
  Na  Na18  1  0.244872  0.755128  0.000000  1
  Na  Na19  1  0.255128  0.744872  0.500000  1
  V  V20  1  0.581055  0.418945  0.000000  1
  V  V21  1  0.918945  0.081055  0.500000  1
  V  V22  1  0.418945  0.581055  0.000000  1
  V  V23  1  0.081055  0.918945  0.500000  1
  As  As24  1  0.852860  0.550440  0.092275  1
  As  As25  1  0.449560  0.147140  0.907725  1
  As  As26  1  0.647140  0.949560  0.592275  1
  As  As27  1  0.949560  0.647140  0.592275  1
  As  As28  1  0.147140  0.449560  0.907725  1
  As  As29  1  0.550440  0.852860  0.092275  1
  As  As30  1  0.352860  0.050440  0.407725  1
  As  As31  1  0.188936  0.188936  0.583787  1
  As  As32  1  0.688936  0.688936  0.916213  1
  As  As33  1  0.311064  0.311064  0.083787  1
  As  As34  1  0.050440  0.352860  0.407725  1
  As  As35  1  0.811064  0.811064  0.416213  1
