# generated using pymatgen
data_Hf4ZnSnH2
_symmetry_space_group_name_H-M   'P 1'
_cell_length_a   5.56157342
_cell_length_b   5.56157513
_cell_length_c   5.56157165
_cell_angle_alpha   104.53004304
_cell_angle_beta   104.53024471
_cell_angle_gamma   119.88238774
_symmetry_Int_Tables_number   1
_chemical_formula_structural   Hf4ZnSnH2
_chemical_formula_sum   'Hf4 Zn1 Sn1 H2'
_cell_volume   129.09521466
_cell_formula_units_Z   1
loop_
 _symmetry_equiv_pos_site_id
 _symmetry_equiv_pos_as_xyz
  1  'x, y, z'
loop_
 _atom_site_type_symbol
 _atom_site_label
 _atom_site_symmetry_multiplicity
 _atom_site_fract_x
 _atom_site_fract_y
 _atom_site_fract_z
 _atom_site_occupancy
  Hf  Hf0  1  0.157697  0.657696  0.815392  1
  Hf  Hf1  1  0.842304  0.342305  0.184609  1
  Hf  Hf2  1  0.342304  0.157695  0.499999  1
  Hf  Hf3  1  0.657696  0.842304  0.500001  1
  Zn  Zn4  1  0.250000  0.250000  0.000000  1
  Sn  Sn5  1  0.750000  0.750000  0.000000  1
  H  H6  1  0.750000  0.250000  0.500000  1
  H  H7  1  0.250000  0.750000  0.500000  1
