# generated using pymatgen
data_Cs12TbScSe8
_symmetry_space_group_name_H-M   'P 1'
_cell_length_a   11.61668500
_cell_length_b   11.61668534
_cell_length_c   8.79068200
_cell_angle_alpha   90.00000000
_cell_angle_beta   90.00000000
_cell_angle_gamma   119.99999618
_symmetry_Int_Tables_number   1
_chemical_formula_structural   Cs12TbScSe8
_chemical_formula_sum   'Cs12 Tb1 Sc1 Se8'
_cell_volume   1027.34818323
_cell_formula_units_Z   1
loop_
 _symmetry_equiv_pos_site_id
 _symmetry_equiv_pos_as_xyz
  1  'x, y, z'
loop_
 _atom_site_type_symbol
 _atom_site_label
 _atom_site_symmetry_multiplicity
 _atom_site_fract_x
 _atom_site_fract_y
 _atom_site_fract_z
 _atom_site_occupancy
  Cs  Cs0  1  0.134360  0.865640  0.547405  1
  Cs  Cs1  1  0.270553  0.135276  0.044487  1
  Cs  Cs2  1  0.864724  0.729447  0.044487  1
  Cs  Cs3  1  0.134360  0.268719  0.547405  1
  Cs  Cs4  1  0.731281  0.865640  0.547405  1
  Cs  Cs5  1  0.864724  0.135276  0.044487  1
  Cs  Cs6  1  0.533666  0.466334  0.360601  1
  Cs  Cs7  1  0.060532  0.530266  0.858698  1
  Cs  Cs8  1  0.469734  0.939468  0.858698  1
  Cs  Cs9  1  0.533666  0.067332  0.360601  1
  Cs  Cs10  1  0.932668  0.466334  0.360601  1
  Cs  Cs11  1  0.469734  0.530266  0.858698  1
  Tb  Tb12  1  0.333333  0.666667  0.257971  1
  Sc  Sc13  1  0.666667  0.333333  0.758363  1
  Se  Se14  1  0.333333  0.666667  0.570671  1
  Se  Se15  1  0.666667  0.333333  0.056016  1
  Se  Se16  1  0.204264  0.795736  0.155308  1
  Se  Se17  1  0.421792  0.210896  0.658962  1
  Se  Se18  1  0.789104  0.578208  0.658962  1
  Se  Se19  1  0.204264  0.408529  0.155308  1
  Se  Se20  1  0.591471  0.795736  0.155308  1
  Se  Se21  1  0.789104  0.210896  0.658962  1
