# generated using pymatgen
data_Pr2Nd3P12Pd2Ru17
_symmetry_space_group_name_H-M   'P 1'
_cell_length_a   12.76325200
_cell_length_b   12.66104052
_cell_length_c   4.02413000
_cell_angle_alpha   90.00000000
_cell_angle_beta   90.00000000
_cell_angle_gamma   120.26741632
_symmetry_Int_Tables_number   1
_chemical_formula_structural   Pr2Nd3P12Pd2Ru17
_chemical_formula_sum   'Pr2 Nd3 P12 Pd2 Ru17'
_cell_volume   561.63838317
_cell_formula_units_Z   1
loop_
 _symmetry_equiv_pos_site_id
 _symmetry_equiv_pos_as_xyz
  1  'x, y, z'
loop_
 _atom_site_type_symbol
 _atom_site_label
 _atom_site_symmetry_multiplicity
 _atom_site_fract_x
 _atom_site_fract_y
 _atom_site_fract_z
 _atom_site_occupancy
  Pr  Pr0  1  0.001138  0.182797  0.500000  1
  Pr  Pr1  1  0.818341  0.817203  0.500000  1
  Nd  Nd2  1  0.184129  0.000000  0.500000  1
  Nd  Nd3  1  0.664057  0.328257  0.000000  1
  Nd  Nd4  1  0.335800  0.671743  0.000000  1
  P  P5  1  0.999033  0.809489  0.000000  1
  P  P6  1  0.189544  0.190511  0.000000  1
  P  P7  1  0.814440  0.000000  0.000000  1
  P  P8  1  0.693752  0.169534  0.500000  1
  P  P9  1  0.818756  0.519215  0.500000  1
  P  P10  1  0.475457  0.298130  0.500000  1
  P  P11  1  0.177328  0.701870  0.500000  1
  P  P12  1  0.524218  0.830466  0.500000  1
  P  P13  1  0.299541  0.480785  0.500000  1
  P  P14  1  0.000088  0.368720  0.000000  1
  P  P15  1  0.631367  0.631280  0.000000  1
  P  P16  1  0.376326  0.000000  0.000000  1
  Pd  Pd17  1  0.999242  0.552634  0.000000  1
  Pd  Pd18  1  0.446607  0.447366  0.000000  1
  Ru  Ru19  1  0.555561  0.000000  0.000000  1
  Ru  Ru20  1  0.998155  0.709677  0.500000  1
  Ru  Ru21  1  0.288477  0.290323  0.500000  1
  Ru  Ru22  1  0.715997  0.000000  0.500000  1
  Ru  Ru23  1  0.806669  0.184713  0.000000  1
  Ru  Ru24  1  0.812879  0.617256  0.000000  1
  Ru  Ru25  1  0.377480  0.192959  0.000000  1
  Ru  Ru26  1  0.184521  0.807041  0.000000  1
  Ru  Ru27  1  0.621956  0.815287  0.000000  1
  Ru  Ru28  1  0.195622  0.382744  0.000000  1
  Ru  Ru29  1  0.873305  0.366214  0.500000  1
  Ru  Ru30  1  0.629132  0.507844  0.500000  1
  Ru  Ru31  1  0.491193  0.122757  0.500000  1
  Ru  Ru32  1  0.368436  0.877243  0.500000  1
  Ru  Ru33  1  0.507091  0.633786  0.500000  1
  Ru  Ru34  1  0.121289  0.492156  0.500000  1
  Ru  Ru35  1  0.003076  0.000000  0.000000  1
