# generated using pymatgen
data_Y3HoTi4(SiO9)2
_symmetry_space_group_name_H-M   'P 1'
_cell_length_a   11.25158900
_cell_length_b   4.90991481
_cell_length_c   12.40510120
_cell_angle_alpha   84.30381090
_cell_angle_beta   90.00000000
_cell_angle_gamma   90.00000000
_symmetry_Int_Tables_number   1
_chemical_formula_structural   Y3HoTi4(SiO9)2
_chemical_formula_sum   'Y6 Ho2 Ti8 Si4 O36'
_cell_volume   681.92772102
_cell_formula_units_Z   2
loop_
 _symmetry_equiv_pos_site_id
 _symmetry_equiv_pos_as_xyz
  1  'x, y, z'
loop_
 _atom_site_type_symbol
 _atom_site_label
 _atom_site_symmetry_multiplicity
 _atom_site_fract_x
 _atom_site_fract_y
 _atom_site_fract_z
 _atom_site_occupancy
  Y  Y0  1  0.358998  0.696718  0.931009  1
  Y  Y1  1  0.858998  0.303282  0.068991  1
  Y  Y2  1  0.637701  0.736151  0.421692  1
  Y  Y3  1  0.137701  0.263849  0.578308  1
  Y  Y4  1  0.362258  0.763867  0.577944  1
  Y  Y5  1  0.862258  0.236133  0.422056  1
  Ho  Ho6  1  0.640903  0.804815  0.069007  1
  Ho  Ho7  1  0.140903  0.195185  0.930993  1
  Ti  Ti8  1  0.836933  0.949495  0.850105  1
  Ti  Ti9  1  0.336933  0.050505  0.149895  1
  Ti  Ti10  1  0.163199  0.550496  0.149666  1
  Ti  Ti11  1  0.663199  0.449504  0.850334  1
  Ti  Ti12  1  0.836005  0.583988  0.639527  1
  Ti  Ti13  1  0.336005  0.416012  0.360473  1
  Ti  Ti14  1  0.163914  0.916111  0.360512  1
  Ti  Ti15  1  0.663914  0.083889  0.639488  1
  Si  Si16  1  0.594465  0.321264  0.247090  1
  Si  Si17  1  0.094465  0.678736  0.752910  1
  Si  Si18  1  0.405337  0.178873  0.752593  1
  Si  Si19  1  0.905337  0.821127  0.247407  1
  O  O20  1  0.840182  0.754577  0.134267  1
  O  O21  1  0.340182  0.245423  0.865733  1
  O  O22  1  0.158750  0.748248  0.865959  1
  O  O23  1  0.658750  0.251752  0.134041  1
  O  O24  1  0.788344  0.916237  0.553264  1
  O  O25  1  0.288344  0.083763  0.446736  1
  O  O26  1  0.211601  0.583741  0.446724  1
  O  O27  1  0.711601  0.416259  0.553276  1
  O  O28  1  0.949216  0.078866  0.933239  1
  O  O29  1  0.449216  0.921134  0.066761  1
  O  O30  1  0.052268  0.420043  0.065536  1
  O  O31  1  0.552268  0.579957  0.934464  1
  O  O32  1  0.599245  0.656620  0.245336  1
  O  O33  1  0.099245  0.343380  0.754664  1
  O  O34  1  0.401230  0.843675  0.753586  1
  O  O35  1  0.901230  0.156325  0.246414  1
  O  O36  1  0.949911  0.770494  0.745957  1
  O  O37  1  0.449911  0.229506  0.254043  1
  O  O38  1  0.049841  0.728978  0.253788  1
  O  O39  1  0.549841  0.271022  0.746212  1
  O  O40  1  0.788603  0.617695  0.935295  1
  O  O41  1  0.288603  0.382305  0.064705  1
  O  O42  1  0.211236  0.883403  0.064353  1
  O  O43  1  0.711236  0.116597  0.935647  1
  O  O44  1  0.952091  0.446079  0.562631  1
  O  O45  1  0.452091  0.553921  0.437369  1
  O  O46  1  0.047986  0.053808  0.437565  1
  O  O47  1  0.547986  0.946192  0.562435  1
  O  O48  1  0.836095  0.686142  0.356439  1
  O  O49  1  0.336095  0.313858  0.643561  1
  O  O50  1  0.163750  0.813216  0.643730  1
  O  O51  1  0.663750  0.186784  0.356270  1
  O  O52  1  0.707663  0.767456  0.744579  1
  O  O53  1  0.207663  0.232544  0.255421  1
  O  O54  1  0.292273  0.732494  0.255285  1
  O  O55  1  0.792273  0.267506  0.744715  1
