# generated using pymatgen
data_Ti8Al15Os4Pt2Rh
_symmetry_space_group_name_H-M   'P 1'
_cell_length_a   8.67806146
_cell_length_b   8.67171196
_cell_length_c   8.68164723
_cell_angle_alpha   120.02227547
_cell_angle_beta   119.66920637
_cell_angle_gamma   90.06911973
_symmetry_Int_Tables_number   1
_chemical_formula_structural   Ti8Al15Os4Pt2Rh
_chemical_formula_sum   'Ti8 Al15 Os4 Pt2 Rh1'
_cell_volume   463.83700024
_cell_formula_units_Z   1
loop_
 _symmetry_equiv_pos_site_id
 _symmetry_equiv_pos_as_xyz
  1  'x, y, z'
loop_
 _atom_site_type_symbol
 _atom_site_label
 _atom_site_symmetry_multiplicity
 _atom_site_fract_x
 _atom_site_fract_y
 _atom_site_fract_z
 _atom_site_occupancy
  Ti  Ti0  1  0.781353  0.286454  0.071080  1
  Ti  Ti1  1  0.223099  0.295577  0.507283  1
  Ti  Ti2  1  0.214617  0.713485  0.508882  1
  Ti  Ti3  1  0.224638  0.719888  0.928950  1
  Ti  Ti4  1  0.789449  0.718091  0.496426  1
  Ti  Ti5  1  0.775327  0.275536  0.488403  1
  Ti  Ti6  1  0.376575  0.122787  0.745277  1
  Ti  Ti7  1  0.387230  0.634757  0.261356  1
  Al  Al8  1  0.996516  0.496492  0.500240  1
  Al  Al9  1  0.153164  0.347175  0.194095  1
  Al  Al10  1  0.155558  0.965918  0.810276  1
  Al  Al11  1  0.150367  0.346012  0.803057  1
  Al  Al12  1  0.536824  0.346037  0.192873  1
  Al  Al13  1  0.845064  0.648209  0.798668  1
  Al  Al14  1  0.847452  0.039096  0.195376  1
  Al  Al15  1  0.842458  0.654599  0.188221  1
  Al  Al16  1  0.472790  0.657715  0.815603  1
  Al  Al17  1  0.381700  0.122697  0.259732  1
  Al  Al18  1  0.860060  0.119648  0.736609  1
  Al  Al19  1  0.620480  0.874856  0.253731  1
  Al  Al20  1  0.618511  0.364554  0.742643  1
  Al  Al21  1  0.615518  0.875524  0.739630  1
  Al  Al22  1  0.138407  0.880768  0.263978  1
  Os  Os23  1  0.999727  0.998481  0.501110  1
  Os  Os24  1  0.499461  0.001115  0.000396  1
  Os  Os25  1  0.497241  0.496895  0.998666  1
  Os  Os26  1  0.497246  0.498807  0.497950  1
  Pt  Pt27  1  0.000877  0.500593  0.001148  1
  Pt  Pt28  1  0.998251  0.998459  0.998258  1
  Rh  Rh29  1  0.500036  0.999769  0.500083  1
