# generated using pymatgen
data_Hf5ZrGa6(PdPt)3
_symmetry_space_group_name_H-M   'P 1'
_cell_length_a   7.20369143
_cell_length_b   7.18750865
_cell_length_c   7.04827001
_cell_angle_alpha   90.00538647
_cell_angle_beta   89.99585626
_cell_angle_gamma   120.23930827
_symmetry_Int_Tables_number   1
_chemical_formula_structural   Hf5ZrGa6(PdPt)3
_chemical_formula_sum   'Hf5 Zr1 Ga6 Pd3 Pt3'
_cell_volume   315.27847080
_cell_formula_units_Z   1
loop_
 _symmetry_equiv_pos_site_id
 _symmetry_equiv_pos_as_xyz
  1  'x, y, z'
loop_
 _atom_site_type_symbol
 _atom_site_label
 _atom_site_symmetry_multiplicity
 _atom_site_fract_x
 _atom_site_fract_y
 _atom_site_fract_z
 _atom_site_occupancy
  Hf  Hf0  1  0.027678  0.414538  0.749809  1
  Hf  Hf1  1  0.414622  0.025770  0.250814  1
  Hf  Hf2  1  0.974935  0.389651  0.250981  1
  Hf  Hf3  1  0.387055  0.970524  0.749400  1
  Hf  Hf4  1  0.583700  0.610947  0.749868  1
  Zr  Zr5  1  0.612127  0.586422  0.250244  1
  Ga  Ga6  1  0.268330  0.267412  0.501958  1
  Ga  Ga7  1  0.734135  0.000398  0.500486  1
  Ga  Ga8  1  0.997828  0.732644  0.500890  1
  Ga  Ga9  1  0.735773  0.003898  0.001145  1
  Ga  Ga10  1  0.269024  0.265419  0.999954  1
  Ga  Ga11  1  0.995654  0.731740  0.000692  1
  Pd  Pd12  1  0.000272  0.999768  0.749879  1
  Pd  Pd13  1  0.003706  0.003145  0.252099  1
  Pd  Pd14  1  0.666403  0.331531  0.957926  1
  Pt  Pt15  1  0.330991  0.667500  0.464944  1
  Pt  Pt16  1  0.330984  0.667386  0.034072  1
  Pt  Pt17  1  0.666781  0.331310  0.534837  1
