# generated using pymatgen
data_Ti7NbAl14SiRh7
_symmetry_space_group_name_H-M   'P 1'
_cell_length_a   8.63561600
_cell_length_b   8.63802620
_cell_length_c   8.62920782
_cell_angle_alpha   120.00502956
_cell_angle_beta   119.89738055
_cell_angle_gamma   90.11416712
_symmetry_Int_Tables_number   1
_chemical_formula_structural   Ti7NbAl14SiRh7
_chemical_formula_sum   'Ti7 Nb1 Al14 Si1 Rh7'
_cell_volume   455.37633188
_cell_formula_units_Z   1
loop_
 _symmetry_equiv_pos_site_id
 _symmetry_equiv_pos_as_xyz
  1  'x, y, z'
loop_
 _atom_site_type_symbol
 _atom_site_label
 _atom_site_symmetry_multiplicity
 _atom_site_fract_x
 _atom_site_fract_y
 _atom_site_fract_z
 _atom_site_occupancy
  Ti  Ti0  1  0.209531  0.294690  0.497589  1
  Ti  Ti1  1  0.202963  0.703187  0.498774  1
  Ti  Ti2  1  0.210916  0.713036  0.916951  1
  Ti  Ti3  1  0.796614  0.709169  0.498692  1
  Ti  Ti4  1  0.789716  0.288882  0.497781  1
  Ti  Ti5  1  0.380779  0.123902  0.744705  1
  Ti  Ti6  1  0.379431  0.636852  0.256598  1
  Nb  Nb7  1  0.798850  0.298985  0.092112  1
  Al  Al8  1  0.158145  0.339964  0.181618  1
  Al  Al9  1  0.157193  0.973430  0.815618  1
  Al  Al10  1  0.152766  0.343020  0.809156  1
  Al  Al11  1  0.528428  0.341507  0.187247  1
  Al  Al12  1  0.841973  0.656050  0.813461  1
  Al  Al13  1  0.840867  0.024336  0.182941  1
  Al  Al14  1  0.838717  0.659280  0.179072  1
  Al  Al15  1  0.475754  0.657935  0.817840  1
  Al  Al16  1  0.380016  0.120390  0.260287  1
  Al  Al17  1  0.861122  0.120339  0.741403  1
  Al  Al18  1  0.620931  0.879342  0.259066  1
  Al  Al19  1  0.620083  0.362136  0.741056  1
  Al  Al20  1  0.620949  0.878904  0.742155  1
  Al  Al21  1  0.137425  0.879371  0.258631  1
  Si  Si22  1  0.002592  0.501377  0.508889  1
  Rh  Rh23  1  0.000752  0.999469  0.500654  1
  Rh  Rh24  1  0.497128  0.998460  0.998418  1
  Rh  Rh25  1  0.496166  0.498505  0.999899  1
  Rh  Rh26  1  0.497864  0.499510  0.497865  1
  Rh  Rh27  1  0.001737  0.500297  0.000534  1
  Rh  Rh28  1  0.001020  0.998731  0.999460  1
  Rh  Rh29  1  0.499570  0.998943  0.501530  1
