# generated using pymatgen
data_LuHf(Si7Ir3)2
_symmetry_space_group_name_H-M   'P 1'
_cell_length_a   7.99319227
_cell_length_b   7.99319219
_cell_length_c   7.99319349
_cell_angle_alpha   56.66056228
_cell_angle_beta   56.66055725
_cell_angle_gamma   56.66055609
_symmetry_Int_Tables_number   1
_chemical_formula_structural   LuHf(Si7Ir3)2
_chemical_formula_sum   'Lu1 Hf1 Si14 Ir6'
_cell_volume   333.26339429
_cell_formula_units_Z   1
loop_
 _symmetry_equiv_pos_site_id
 _symmetry_equiv_pos_as_xyz
  1  'x, y, z'
loop_
 _atom_site_type_symbol
 _atom_site_label
 _atom_site_symmetry_multiplicity
 _atom_site_fract_x
 _atom_site_fract_y
 _atom_site_fract_z
 _atom_site_occupancy
  Lu  Lu0  1  0.500000  0.500000  0.500000  1
  Hf  Hf1  1  0.000000  0.000000  0.000000  1
  Si  Si2  1  0.749693  0.749693  0.749693  1
  Si  Si3  1  0.250307  0.250307  0.250307  1
  Si  Si4  1  0.851681  0.063021  0.674318  1
  Si  Si5  1  0.674318  0.851681  0.063021  1
  Si  Si6  1  0.063021  0.674318  0.851681  1
  Si  Si7  1  0.649659  0.829142  0.433174  1
  Si  Si8  1  0.433174  0.649659  0.829142  1
  Si  Si9  1  0.829142  0.433174  0.649659  1
  Si  Si10  1  0.170858  0.566826  0.350341  1
  Si  Si11  1  0.566826  0.350341  0.170858  1
  Si  Si12  1  0.350341  0.170858  0.566826  1
  Si  Si13  1  0.936979  0.325682  0.148319  1
  Si  Si14  1  0.325682  0.148319  0.936979  1
  Si  Si15  1  0.148319  0.936979  0.325682  1
  Ir  Ir16  1  0.071539  0.426742  0.751502  1
  Ir  Ir17  1  0.248498  0.928461  0.573258  1
  Ir  Ir18  1  0.573258  0.248498  0.928461  1
  Ir  Ir19  1  0.928461  0.573258  0.248498  1
  Ir  Ir20  1  0.426742  0.751502  0.071539  1
  Ir  Ir21  1  0.751502  0.071539  0.426742  1
