# generated using pymatgen
data_DyLuAl3Pt4
_symmetry_space_group_name_H-M   'P 1'
_cell_length_a   8.10872873
_cell_length_b   8.10872914
_cell_length_c   7.60706495
_cell_angle_alpha   90.07704827
_cell_angle_beta   89.92295322
_cell_angle_gamma   139.95910222
_symmetry_Int_Tables_number   1
_chemical_formula_structural   DyLuAl3Pt4
_chemical_formula_sum   'Dy2 Lu2 Al6 Pt8'
_cell_volume   321.77990385
_cell_formula_units_Z   2
loop_
 _symmetry_equiv_pos_site_id
 _symmetry_equiv_pos_as_xyz
  1  'x, y, z'
loop_
 _atom_site_type_symbol
 _atom_site_label
 _atom_site_symmetry_multiplicity
 _atom_site_fract_x
 _atom_site_fract_y
 _atom_site_fract_z
 _atom_site_occupancy
  Dy  Dy0  1  0.893503  0.106497  0.408063  1
  Dy  Dy1  1  0.106497  0.893503  0.591937  1
  Lu  Lu2  1  0.605995  0.394005  0.908397  1
  Lu  Lu3  1  0.394005  0.605995  0.091603  1
  Al  Al4  1  0.500000  0.500000  0.500000  1
  Al  Al5  1  0.000000  0.000000  0.000000  1
  Al  Al6  1  0.522613  0.977179  0.750823  1
  Al  Al7  1  0.977179  0.522613  0.249177  1
  Al  Al8  1  0.477387  0.022821  0.249177  1
  Al  Al9  1  0.022821  0.477387  0.750823  1
  Pt  Pt10  1  0.690121  0.807954  0.752223  1
  Pt  Pt11  1  0.807954  0.690121  0.247777  1
  Pt  Pt12  1  0.309879  0.192046  0.247777  1
  Pt  Pt13  1  0.192046  0.309879  0.752223  1
  Pt  Pt14  1  0.683799  0.316201  0.529099  1
  Pt  Pt15  1  0.316201  0.683799  0.470901  1
  Pt  Pt16  1  0.816758  0.183242  0.028455  1
  Pt  Pt17  1  0.183242  0.816758  0.971545  1
