# generated using pymatgen
data_Dy8Cd2SnPbAu8
_symmetry_space_group_name_H-M   'P 1'
_cell_length_a   8.05598200
_cell_length_b   8.05598200
_cell_length_c   7.34314700
_cell_angle_alpha   90.00000000
_cell_angle_beta   90.00000000
_cell_angle_gamma   90.00000000
_symmetry_Int_Tables_number   1
_chemical_formula_structural   Dy8Cd2SnPbAu8
_chemical_formula_sum   'Dy8 Cd2 Sn1 Pb1 Au8'
_cell_volume   476.56176619
_cell_formula_units_Z   1
loop_
 _symmetry_equiv_pos_site_id
 _symmetry_equiv_pos_as_xyz
  1  'x, y, z'
loop_
 _atom_site_type_symbol
 _atom_site_label
 _atom_site_symmetry_multiplicity
 _atom_site_fract_x
 _atom_site_fract_y
 _atom_site_fract_z
 _atom_site_occupancy
  Dy  Dy0  1  0.842519  0.160644  0.498940  1
  Dy  Dy1  1  0.157481  0.839356  0.498940  1
  Dy  Dy2  1  0.339356  0.342519  0.001060  1
  Dy  Dy3  1  0.660644  0.657481  0.001060  1
  Dy  Dy4  1  0.683115  0.680114  0.498884  1
  Dy  Dy5  1  0.316885  0.319886  0.498884  1
  Dy  Dy6  1  0.180114  0.816885  0.001116  1
  Dy  Dy7  1  0.819886  0.183115  0.001116  1
  Cd  Cd8  1  0.500000  0.000000  0.250000  1
  Cd  Cd9  1  0.000000  0.500000  0.750000  1
  Sn  Sn10  1  0.000000  0.500000  0.250000  1
  Pb  Pb11  1  0.500000  0.000000  0.750000  1
  Au  Au12  1  0.624153  0.368025  0.272695  1
  Au  Au13  1  0.375847  0.631975  0.272695  1
  Au  Au14  1  0.122116  0.132830  0.772626  1
  Au  Au15  1  0.877884  0.867170  0.772626  1
  Au  Au16  1  0.367170  0.622116  0.727374  1
  Au  Au17  1  0.632830  0.377884  0.727374  1
  Au  Au18  1  0.868025  0.875847  0.227305  1
  Au  Au19  1  0.131975  0.124153  0.227305  1
