# generated using pymatgen
data_LaYb7SbPd24
_symmetry_space_group_name_H-M   'P 1'
_cell_length_a   8.39247464
_cell_length_b   8.39247464
_cell_length_c   8.39247464
_cell_angle_alpha   90.06429269
_cell_angle_beta   90.06429269
_cell_angle_gamma   90.06429269
_symmetry_Int_Tables_number   1
_chemical_formula_structural   LaYb7SbPd24
_chemical_formula_sum   'La1 Yb7 Sb1 Pd24'
_cell_volume   591.11134189
_cell_formula_units_Z   1
loop_
 _symmetry_equiv_pos_site_id
 _symmetry_equiv_pos_as_xyz
  1  'x, y, z'
loop_
 _atom_site_type_symbol
 _atom_site_label
 _atom_site_symmetry_multiplicity
 _atom_site_fract_x
 _atom_site_fract_y
 _atom_site_fract_z
 _atom_site_occupancy
  La  La0  1  0.254222  0.254222  0.254222  1
  Yb  Yb1  1  0.747495  0.747495  0.252671  1
  Yb  Yb2  1  0.747495  0.252671  0.747495  1
  Yb  Yb3  1  0.252671  0.747495  0.747495  1
  Yb  Yb4  1  0.747109  0.747109  0.747109  1
  Yb  Yb5  1  0.747293  0.252687  0.252687  1
  Yb  Yb6  1  0.252687  0.252687  0.747293  1
  Yb  Yb7  1  0.252687  0.747293  0.252687  1
  Sb  Sb8  1  0.999359  0.999359  0.999359  1
  Pd  Pd9  1  0.996788  0.996788  0.312366  1
  Pd  Pd10  1  0.732834  0.999979  0.500678  1
  Pd  Pd11  1  0.732834  0.500678  0.999979  1
  Pd  Pd12  1  0.500678  0.999979  0.732834  1
  Pd  Pd13  1  0.999979  0.732834  0.500678  1
  Pd  Pd14  1  0.502129  0.996734  0.266896  1
  Pd  Pd15  1  0.996734  0.266896  0.502129  1
  Pd  Pd16  1  0.500678  0.732834  0.999979  1
  Pd  Pd17  1  0.256022  0.502850  0.502850  1
  Pd  Pd18  1  0.500458  0.500458  0.744201  1
  Pd  Pd19  1  0.502850  0.502850  0.256022  1
  Pd  Pd20  1  0.502850  0.256022  0.502850  1
  Pd  Pd21  1  0.500458  0.744201  0.500458  1
  Pd  Pd22  1  0.744201  0.500458  0.500458  1
  Pd  Pd23  1  0.312366  0.996788  0.996788  1
  Pd  Pd24  1  0.999563  0.999563  0.688573  1
  Pd  Pd25  1  0.996734  0.502129  0.266896  1
  Pd  Pd26  1  0.996788  0.312366  0.996788  1
  Pd  Pd27  1  0.999563  0.688573  0.999563  1
  Pd  Pd28  1  0.688573  0.999563  0.999563  1
  Pd  Pd29  1  0.266896  0.502129  0.996734  1
  Pd  Pd30  1  0.266896  0.996734  0.502129  1
  Pd  Pd31  1  0.999979  0.500678  0.732834  1
  Pd  Pd32  1  0.502129  0.266896  0.996734  1
