# generated using pymatgen
data_Y20Ir7Ru4Rh
_symmetry_space_group_name_H-M   'P 1'
_cell_length_a   10.88095322
_cell_length_b   10.88095322
_cell_length_c   6.44296204
_cell_angle_alpha   90.00941267
_cell_angle_beta   90.00941267
_cell_angle_gamma   89.97893683
_symmetry_Int_Tables_number   1
_chemical_formula_structural   Y20Ir7Ru4Rh
_chemical_formula_sum   'Y20 Ir7 Ru4 Rh1'
_cell_volume   762.81534027
_cell_formula_units_Z   1
loop_
 _symmetry_equiv_pos_site_id
 _symmetry_equiv_pos_as_xyz
  1  'x, y, z'
loop_
 _atom_site_type_symbol
 _atom_site_label
 _atom_site_symmetry_multiplicity
 _atom_site_fract_x
 _atom_site_fract_y
 _atom_site_fract_z
 _atom_site_occupancy
  Y  Y0  1  0.293526  0.086611  0.378675  1
  Y  Y1  1  0.293569  0.913214  0.878258  1
  Y  Y2  1  0.705661  0.086350  0.877281  1
  Y  Y3  1  0.705838  0.911981  0.378816  1
  Y  Y4  1  0.586722  0.793546  0.878592  1
  Y  Y5  1  0.585627  0.206476  0.378711  1
  Y  Y6  1  0.413154  0.793599  0.378565  1
  Y  Y7  1  0.413149  0.206391  0.878286  1
  Y  Y8  1  0.206454  0.413278  0.621408  1
  Y  Y9  1  0.206401  0.586846  0.121435  1
  Y  Y10  1  0.793524  0.414373  0.121289  1
  Y  Y11  1  0.793609  0.586851  0.621714  1
  Y  Y12  1  0.913389  0.706474  0.121325  1
  Y  Y13  1  0.913650  0.294339  0.622719  1
  Y  Y14  1  0.086786  0.706431  0.621742  1
  Y  Y15  1  0.088019  0.294162  0.121184  1
  Y  Y16  1  0.000272  0.999757  0.500180  1
  Y  Y17  1  0.000243  0.999728  0.999820  1
  Y  Y18  1  0.500006  0.500029  0.999930  1
  Y  Y19  1  0.499971  0.499994  0.500070  1
  Ir  Ir20  1  0.847347  0.847803  0.749881  1
  Ir  Ir21  1  0.152197  0.152653  0.750119  1
  Ir  Ir22  1  0.152687  0.847313  0.250000  1
  Ir  Ir23  1  0.653060  0.346940  0.750000  1
  Ir  Ir24  1  0.652744  0.652688  0.250049  1
  Ir  Ir25  1  0.347312  0.347256  0.249951  1
  Ir  Ir26  1  0.347293  0.652707  0.750000  1
  Ru  Ru27  1  0.500460  0.000189  0.124089  1
  Ru  Ru28  1  0.500380  0.000203  0.623840  1
  Ru  Ru29  1  0.999797  0.499620  0.876160  1
  Ru  Ru30  1  0.999811  0.499540  0.375911  1
  Rh  Rh31  1  0.847342  0.152658  0.250000  1
