# generated using pymatgen
data_Nd4Ga10Pt5Au
_symmetry_space_group_name_H-M   'P 1'
_cell_length_a   8.66156777
_cell_length_b   8.66156812
_cell_length_c   8.66156600
_cell_angle_alpha   138.43257971
_cell_angle_beta   106.37106408
_cell_angle_gamma   88.27901194
_symmetry_Int_Tables_number   1
_chemical_formula_structural   Nd4Ga10Pt5Au
_chemical_formula_sum   'Nd4 Ga10 Pt5 Au1'
_cell_volume   396.62891358
_cell_formula_units_Z   1
loop_
 _symmetry_equiv_pos_site_id
 _symmetry_equiv_pos_as_xyz
  1  'x, y, z'
loop_
 _atom_site_type_symbol
 _atom_site_label
 _atom_site_symmetry_multiplicity
 _atom_site_fract_x
 _atom_site_fract_y
 _atom_site_fract_z
 _atom_site_occupancy
  Nd  Nd0  1  0.863364  0.631099  0.231453  1
  Nd  Nd1  1  0.136637  0.368084  0.767730  1
  Nd  Nd2  1  0.399647  0.131917  0.268554  1
  Nd  Nd3  1  0.600353  0.868902  0.732265  1
  Ga  Ga4  1  0.499995  0.750006  0.250001  1
  Ga  Ga5  1  0.500008  0.249993  0.750002  1
  Ga  Ga6  1  0.228638  0.978638  0.749999  1
  Ga  Ga7  1  0.771360  0.521361  0.750000  1
  Ga  Ga8  1  0.774591  0.024592  0.250000  1
  Ga  Ga9  1  0.225409  0.475409  0.250000  1
  Ga  Ga10  1  0.046119  0.898175  0.160501  1
  Ga  Ga11  1  0.953880  0.114381  0.852055  1
  Ga  Ga12  1  0.737672  0.385618  0.339498  1
  Ga  Ga13  1  0.262327  0.601825  0.647944  1
  Pt  Pt14  1  0.000001  0.250002  0.250003  1
  Pt  Pt15  1  0.251190  0.860763  0.387421  1
  Pt  Pt16  1  0.748811  0.136237  0.609576  1
  Pt  Pt17  1  0.473338  0.363761  0.112570  1
  Pt  Pt18  1  0.526661  0.639239  0.890430  1
  Au  Au19  1  0.999998  0.749998  0.749997  1
