# generated using pymatgen
data_DyY(Zr4Sn3)2
_symmetry_space_group_name_H-M   'P 1'
_cell_length_a   8.71469730
_cell_length_b   8.71469680
_cell_length_c   5.90063300
_cell_angle_alpha   90.00000000
_cell_angle_beta   90.00000000
_cell_angle_gamma   121.19846825
_symmetry_Int_Tables_number   1
_chemical_formula_structural   DyY(Zr4Sn3)2
_chemical_formula_sum   'Dy1 Y1 Zr8 Sn6'
_cell_volume   383.31986248
_cell_formula_units_Z   1
loop_
 _symmetry_equiv_pos_site_id
 _symmetry_equiv_pos_as_xyz
  1  'x, y, z'
loop_
 _atom_site_type_symbol
 _atom_site_label
 _atom_site_symmetry_multiplicity
 _atom_site_fract_x
 _atom_site_fract_y
 _atom_site_fract_z
 _atom_site_occupancy
  Dy  Dy0  1  0.770573  0.770573  0.250000  1
  Y  Y1  1  0.229576  0.229576  0.750000  1
  Zr  Zr2  1  0.000009  0.253438  0.250000  1
  Zr  Zr3  1  0.746197  0.999084  0.750000  1
  Zr  Zr4  1  0.334447  0.666072  0.499840  1
  Zr  Zr5  1  0.253438  0.000009  0.250000  1
  Zr  Zr6  1  0.666072  0.334447  0.499840  1
  Zr  Zr7  1  0.999084  0.746197  0.750000  1
  Zr  Zr8  1  0.334447  0.666072  0.000160  1
  Zr  Zr9  1  0.666072  0.334447  0.000160  1
  Sn  Sn10  1  0.609281  0.609281  0.750000  1
  Sn  Sn11  1  0.392735  0.996196  0.750000  1
  Sn  Sn12  1  0.607331  0.003426  0.250000  1
  Sn  Sn13  1  0.996196  0.392735  0.750000  1
  Sn  Sn14  1  0.391117  0.391117  0.250000  1
  Sn  Sn15  1  0.003426  0.607331  0.250000  1
