# generated using pymatgen
data_Y2Er4TcIr
_symmetry_space_group_name_H-M   'P 1'
_cell_length_a   6.31764800
_cell_length_b   7.32441600
_cell_length_c   9.08650000
_cell_angle_alpha   90.00000000
_cell_angle_beta   90.00000000
_cell_angle_gamma   90.00000000
_symmetry_Int_Tables_number   1
_chemical_formula_structural   Y2Er4TcIr
_chemical_formula_sum   'Y4 Er8 Tc2 Ir2'
_cell_volume   420.46036044
_cell_formula_units_Z   2
loop_
 _symmetry_equiv_pos_site_id
 _symmetry_equiv_pos_as_xyz
  1  'x, y, z'
loop_
 _atom_site_type_symbol
 _atom_site_label
 _atom_site_symmetry_multiplicity
 _atom_site_fract_x
 _atom_site_fract_y
 _atom_site_fract_z
 _atom_site_occupancy
  Y  Y0  1  0.874485  0.537935  0.250000  1
  Y  Y1  1  0.625515  0.037935  0.250000  1
  Y  Y2  1  0.132294  0.460530  0.750000  1
  Y  Y3  1  0.367706  0.960530  0.750000  1
  Er  Er4  1  0.329862  0.676211  0.065425  1
  Er  Er5  1  0.170138  0.176211  0.434575  1
  Er  Er6  1  0.668109  0.324041  0.561216  1
  Er  Er7  1  0.831891  0.824041  0.938784  1
  Er  Er8  1  0.668109  0.324041  0.938784  1
  Er  Er9  1  0.831891  0.824041  0.561216  1
  Er  Er10  1  0.329862  0.676211  0.434575  1
  Er  Er11  1  0.170138  0.176211  0.065425  1
  Tc  Tc12  1  0.038973  0.886773  0.250000  1
  Tc  Tc13  1  0.461027  0.386773  0.250000  1
  Ir  Ir14  1  0.953434  0.114256  0.750000  1
  Ir  Ir15  1  0.546566  0.614256  0.750000  1
