# generated using pymatgen
data_Y5ErAl21Si3Os8
_symmetry_space_group_name_H-M   'P 1'
_cell_length_a   8.72554601
_cell_length_b   8.72554616
_cell_length_c   9.65581901
_cell_angle_alpha   89.99621027
_cell_angle_beta   90.00379063
_cell_angle_gamma   120.00464417
_symmetry_Int_Tables_number   1
_chemical_formula_structural   Y5ErAl21Si3Os8
_chemical_formula_sum   'Y5 Er1 Al21 Si3 Os8'
_cell_volume   636.62641500
_cell_formula_units_Z   1
loop_
 _symmetry_equiv_pos_site_id
 _symmetry_equiv_pos_as_xyz
  1  'x, y, z'
loop_
 _atom_site_type_symbol
 _atom_site_label
 _atom_site_symmetry_multiplicity
 _atom_site_fract_x
 _atom_site_fract_y
 _atom_site_fract_z
 _atom_site_occupancy
  Y  Y0  1  0.194905  0.389782  0.247740  1
  Y  Y1  1  0.804511  0.608705  0.752570  1
  Y  Y2  1  0.610218  0.805095  0.247740  1
  Y  Y3  1  0.391295  0.195489  0.752570  1
  Y  Y4  1  0.194902  0.805098  0.247736  1
  Er  Er5  1  0.803725  0.196275  0.752653  1
  Al  Al6  1  0.333354  0.666646  0.476417  1
  Al  Al7  1  0.164062  0.328489  0.574528  1
  Al  Al8  1  0.834997  0.669986  0.423656  1
  Al  Al9  1  0.671511  0.835938  0.574528  1
  Al  Al10  1  0.834823  0.669645  0.076527  1
  Al  Al11  1  0.330014  0.165003  0.423656  1
  Al  Al12  1  0.165264  0.330921  0.922703  1
  Al  Al13  1  0.164327  0.835673  0.574394  1
  Al  Al14  1  0.330355  0.165177  0.076527  1
  Al  Al15  1  0.835004  0.164996  0.423893  1
  Al  Al16  1  0.669079  0.834736  0.922703  1
  Al  Al17  1  0.834829  0.165171  0.076246  1
  Al  Al18  1  0.165553  0.834447  0.922849  1
  Al  Al19  1  0.563601  0.127159  0.248866  1
  Al  Al20  1  0.437165  0.873821  0.748793  1
  Al  Al21  1  0.872841  0.436399  0.248866  1
  Al  Al22  1  0.126179  0.562835  0.748793  1
  Al  Al23  1  0.563605  0.436395  0.248858  1
  Al  Al24  1  0.436714  0.563286  0.748805  1
  Al  Al25  1  0.000000  0.000000  0.248848  1
  Al  Al26  1  0.999580  0.000420  0.749442  1
  Si  Si27  1  0.333354  0.666646  0.038902  1
  Si  Si28  1  0.666922  0.333078  0.962142  1
  Si  Si29  1  0.666872  0.333128  0.538909  1
  Os  Os30  1  0.500283  0.000085  0.998631  1
  Os  Os31  1  0.999915  0.499717  0.998631  1
  Os  Os32  1  0.504654  0.008796  0.501745  1
  Os  Os33  1  0.499981  0.500019  0.998914  1
  Os  Os34  1  0.991204  0.495346  0.501745  1
  Os  Os35  1  0.504357  0.495643  0.501432  1
  Os  Os36  1  0.000016  0.999984  0.998873  1
  Os  Os37  1  0.000028  0.999972  0.499171  1
