# generated using pymatgen
data_Sc5Fe18CoP12
_symmetry_space_group_name_H-M   'P 1'
_cell_length_a   11.76745700
_cell_length_b   11.76745701
_cell_length_c   3.63243000
_cell_angle_alpha   90.00000000
_cell_angle_beta   90.00000000
_cell_angle_gamma   119.99999716
_symmetry_Int_Tables_number   1
_chemical_formula_structural   Sc5Fe18CoP12
_chemical_formula_sum   'Sc5 Fe18 Co1 P12'
_cell_volume   435.60528311
_cell_formula_units_Z   1
loop_
 _symmetry_equiv_pos_site_id
 _symmetry_equiv_pos_as_xyz
  1  'x, y, z'
loop_
 _atom_site_type_symbol
 _atom_site_label
 _atom_site_symmetry_multiplicity
 _atom_site_fract_x
 _atom_site_fract_y
 _atom_site_fract_z
 _atom_site_occupancy
  Sc  Sc0  1  0.666667  0.333333  0.000000  1
  Sc  Sc1  1  0.333333  0.666667  0.000000  1
  Sc  Sc2  1  0.184060  0.184060  0.500000  1
  Sc  Sc3  1  0.815940  0.000000  0.500000  1
  Sc  Sc4  1  0.000000  0.815940  0.500000  1
  Fe  Fe5  1  0.818825  0.196948  0.000000  1
  Fe  Fe6  1  0.803052  0.621875  0.000000  1
  Fe  Fe7  1  0.378125  0.181175  0.000000  1
  Fe  Fe8  1  0.196948  0.818825  0.000000  1
  Fe  Fe9  1  0.621875  0.803052  0.000000  1
  Fe  Fe10  1  0.181175  0.378125  0.000000  1
  Fe  Fe11  1  0.556643  0.556643  0.000000  1
  Fe  Fe12  1  0.443357  0.000000  0.000000  1
  Fe  Fe13  1  0.000000  0.443357  0.000000  1
  Fe  Fe14  1  0.641203  0.123447  0.500000  1
  Fe  Fe15  1  0.876553  0.517756  0.500000  1
  Fe  Fe16  1  0.482244  0.358797  0.500000  1
  Fe  Fe17  1  0.123447  0.641203  0.500000  1
  Fe  Fe18  1  0.517756  0.876553  0.500000  1
  Fe  Fe19  1  0.358797  0.482244  0.500000  1
  Fe  Fe20  1  0.716864  0.716864  0.500000  1
  Fe  Fe21  1  0.283136  0.000000  0.500000  1
  Fe  Fe22  1  0.000000  0.283136  0.500000  1
  Co  Co23  1  0.000000  0.000000  0.000000  1
  P  P24  1  0.367372  0.367372  0.000000  1
  P  P25  1  0.632628  0.000000  0.000000  1
  P  P26  1  0.000000  0.632628  0.000000  1
  P  P27  1  0.832621  0.314057  0.500000  1
  P  P28  1  0.685943  0.518565  0.500000  1
  P  P29  1  0.481435  0.167379  0.500000  1
  P  P30  1  0.314057  0.832621  0.500000  1
  P  P31  1  0.518565  0.685943  0.500000  1
  P  P32  1  0.167379  0.481435  0.500000  1
  P  P33  1  0.818880  0.818880  0.000000  1
  P  P34  1  0.181120  0.000000  0.000000  1
  P  P35  1  0.000000  0.181120  0.000000  1
