# generated using pymatgen
data_Y8As(PdPt7)3
_symmetry_space_group_name_H-M   'P 1'
_cell_length_a   8.39810100
_cell_length_b   8.39552714
_cell_length_c   8.36265900
_cell_angle_alpha   90.00000000
_cell_angle_beta   90.00000000
_cell_angle_gamma   90.01057807
_symmetry_Int_Tables_number   1
_chemical_formula_structural   Y8As(PdPt7)3
_chemical_formula_sum   'Y8 As1 Pd3 Pt21'
_cell_volume   589.62168042
_cell_formula_units_Z   1
loop_
 _symmetry_equiv_pos_site_id
 _symmetry_equiv_pos_as_xyz
  1  'x, y, z'
loop_
 _atom_site_type_symbol
 _atom_site_label
 _atom_site_symmetry_multiplicity
 _atom_site_fract_x
 _atom_site_fract_y
 _atom_site_fract_z
 _atom_site_occupancy
  Y  Y0  1  0.253033  0.252999  0.747360  1
  Y  Y1  1  0.253834  0.745921  0.253364  1
  Y  Y2  1  0.745892  0.254246  0.253580  1
  Y  Y3  1  0.745257  0.744887  0.745725  1
  Y  Y4  1  0.745257  0.744887  0.254275  1
  Y  Y5  1  0.745892  0.254246  0.746420  1
  Y  Y6  1  0.253834  0.745921  0.746636  1
  Y  Y7  1  0.253033  0.252999  0.252640  1
  As  As8  1  0.007304  0.007061  0.000000  1
  Pd  Pd9  1  0.746280  0.499536  0.500000  1
  Pd  Pd10  1  0.998152  0.716183  0.000000  1
  Pd  Pd11  1  0.716844  0.998415  0.000000  1
  Pt  Pt12  1  0.499020  0.499331  0.747407  1
  Pt  Pt13  1  0.499127  0.253445  0.500000  1
  Pt  Pt14  1  0.253150  0.499358  0.500000  1
  Pt  Pt15  1  0.499020  0.499331  0.252593  1
  Pt  Pt16  1  0.499200  0.746217  0.500000  1
  Pt  Pt17  1  0.998035  0.998283  0.707488  1
  Pt  Pt18  1  0.997885  0.293727  0.000000  1
  Pt  Pt19  1  0.293695  0.998105  0.000000  1
  Pt  Pt20  1  0.998035  0.998283  0.292512  1
  Pt  Pt21  1  0.000345  0.500204  0.740757  1
  Pt  Pt22  1  0.500510  0.258695  0.000000  1
  Pt  Pt23  1  0.260737  0.999661  0.500000  1
  Pt  Pt24  1  0.999971  0.261231  0.500000  1
  Pt  Pt25  1  0.500439  0.999965  0.740878  1
  Pt  Pt26  1  0.258445  0.500334  0.000000  1
  Pt  Pt27  1  0.000345  0.500204  0.259243  1
  Pt  Pt28  1  0.500724  0.739282  0.000000  1
  Pt  Pt29  1  0.000010  0.736656  0.500000  1
  Pt  Pt30  1  0.500439  0.999965  0.259122  1
  Pt  Pt31  1  0.736933  0.999871  0.500000  1
  Pt  Pt32  1  0.739323  0.500550  0.000000  1
