# generated using pymatgen
data_CaYb12(CeSb4)3
_symmetry_space_group_name_H-M   'P 1'
_cell_length_a   9.48141526
_cell_length_b   9.48141446
_cell_length_c   9.48141535
_cell_angle_alpha   90.14002961
_cell_angle_beta   90.14002918
_cell_angle_gamma   89.85997142
_symmetry_Int_Tables_number   1
_chemical_formula_structural   CaYb12(CeSb4)3
_chemical_formula_sum   'Ca1 Yb12 Ce3 Sb12'
_cell_volume   852.34533094
_cell_formula_units_Z   1
loop_
 _symmetry_equiv_pos_site_id
 _symmetry_equiv_pos_as_xyz
  1  'x, y, z'
loop_
 _atom_site_type_symbol
 _atom_site_label
 _atom_site_symmetry_multiplicity
 _atom_site_fract_x
 _atom_site_fract_y
 _atom_site_fract_z
 _atom_site_occupancy
  Ca  Ca0  1  0.072276  0.572276  0.927724  1
  Yb  Yb1  1  0.825465  0.325465  0.174535  1
  Yb  Yb2  1  0.932281  0.926474  0.930753  1
  Yb  Yb3  1  0.827262  0.673446  0.325301  1
  Yb  Yb4  1  0.177174  0.821601  0.321767  1
  Yb  Yb5  1  0.173446  0.174699  0.172738  1
  Yb  Yb6  1  0.324219  0.824219  0.675781  1
  Yb  Yb7  1  0.069247  0.432281  0.573526  1
  Yb  Yb8  1  0.321601  0.178233  0.822826  1
  Yb  Yb9  1  0.674699  0.327262  0.826554  1
  Yb  Yb10  1  0.678233  0.677174  0.678399  1
  Yb  Yb11  1  0.569244  0.069244  0.430756  1
  Yb  Yb12  1  0.426474  0.569247  0.067719  1
  Ce  Ce13  1  0.928837  0.072888  0.573933  1
  Ce  Ce14  1  0.426067  0.428837  0.427112  1
  Ce  Ce15  1  0.572888  0.926067  0.071163  1
  Sb  Sb16  1  0.747803  0.370402  0.499365  1
  Sb  Sb17  1  0.870402  0.000635  0.252197  1
  Sb  Sb18  1  0.999189  0.754313  0.625903  1
  Sb  Sb19  1  0.248460  0.128337  0.499476  1
  Sb  Sb20  1  0.129557  0.498735  0.251468  1
  Sb  Sb21  1  0.998735  0.248532  0.870443  1
  Sb  Sb22  1  0.254313  0.874097  0.000811  1
  Sb  Sb23  1  0.374097  0.499189  0.745687  1
  Sb  Sb24  1  0.500635  0.247803  0.129598  1
  Sb  Sb25  1  0.748532  0.629557  0.001265  1
  Sb  Sb26  1  0.628337  0.000524  0.751540  1
  Sb  Sb27  1  0.500524  0.748460  0.371663  1
