# generated using pymatgen
data_Th4AgTe12
_symmetry_space_group_name_H-M   'P 1'
_cell_length_a   7.56257056
_cell_length_b   7.56257176
_cell_length_c   11.81546112
_cell_angle_alpha   72.08562860
_cell_angle_beta   72.08562884
_cell_angle_gamma   71.98976172
_symmetry_Int_Tables_number   1
_chemical_formula_structural   Th4AgTe12
_chemical_formula_sum   'Th4 Ag1 Te12'
_cell_volume   594.38878935
_cell_formula_units_Z   1
loop_
 _symmetry_equiv_pos_site_id
 _symmetry_equiv_pos_as_xyz
  1  'x, y, z'
loop_
 _atom_site_type_symbol
 _atom_site_label
 _atom_site_symmetry_multiplicity
 _atom_site_fract_x
 _atom_site_fract_y
 _atom_site_fract_z
 _atom_site_occupancy
  Th  Th0  1  0.808334  0.808334  0.840592  1
  Th  Th1  1  0.309853  0.309853  0.844553  1
  Th  Th2  1  0.689154  0.195975  0.157656  1
  Th  Th3  1  0.195975  0.689154  0.157656  1
  Ag  Ag4  1  0.815410  0.815410  0.536810  1
  Te  Te5  1  0.013164  0.013164  0.312604  1
  Te  Te6  1  0.502586  0.502586  0.323495  1
  Te  Te7  1  0.481262  0.995626  0.682166  1
  Te  Te8  1  0.995626  0.481262  0.682166  1
  Te  Te9  1  0.261532  0.261532  0.328117  1
  Te  Te10  1  0.759769  0.759769  0.320361  1
  Te  Te11  1  0.237574  0.737487  0.674276  1
  Te  Te12  1  0.737487  0.237574  0.674276  1
  Te  Te13  1  0.020328  0.020328  0.946558  1
  Te  Te14  1  0.521239  0.521239  0.944819  1
  Te  Te15  1  0.482258  0.979749  0.054146  1
  Te  Te16  1  0.979749  0.482258  0.054146  1
