# generated using pymatgen
data_Ho12Co6Pb
_symmetry_space_group_name_H-M   'P 1'
_cell_length_a   8.34373941
_cell_length_b   8.34119642
_cell_length_c   8.34119636
_cell_angle_alpha   109.43319621
_cell_angle_beta   109.48502494
_cell_angle_gamma   109.48308945
_symmetry_Int_Tables_number   1
_chemical_formula_structural   Ho12Co6Pb
_chemical_formula_sum   'Ho12 Co6 Pb1'
_cell_volume   446.95276824
_cell_formula_units_Z   1
loop_
 _symmetry_equiv_pos_site_id
 _symmetry_equiv_pos_as_xyz
  1  'x, y, z'
loop_
 _atom_site_type_symbol
 _atom_site_label
 _atom_site_symmetry_multiplicity
 _atom_site_fract_x
 _atom_site_fract_y
 _atom_site_fract_z
 _atom_site_occupancy
  Ho  Ho0  1  0.890236  0.194542  0.695693  1
  Ho  Ho1  1  0.805527  0.696005  0.501392  1
  Ho  Ho2  1  0.195047  0.303802  0.498739  1
  Ho  Ho3  1  0.195047  0.696307  0.891246  1
  Ho  Ho4  1  0.805527  0.304135  0.109522  1
  Ho  Ho5  1  0.695980  0.500833  0.804873  1
  Ho  Ho6  1  0.304113  0.499131  0.195148  1
  Ho  Ho7  1  0.695980  0.891108  0.195147  1
  Ho  Ho8  1  0.304113  0.108962  0.804981  1
  Ho  Ho9  1  0.500971  0.805045  0.695926  1
  Ho  Ho10  1  0.498895  0.194952  0.303941  1
  Ho  Ho11  1  0.108748  0.804772  0.303977  1
  Co  Co12  1  0.887362  0.387032  0.500330  1
  Co  Co13  1  0.114058  0.613635  0.500422  1
  Co  Co14  1  0.387293  0.500419  0.886875  1
  Co  Co15  1  0.613159  0.499752  0.113407  1
  Co  Co16  1  0.499005  0.886573  0.386151  1
  Co  Co17  1  0.499005  0.112854  0.612432  1
  Pb  Pb18  1  0.999936  0.000140  0.999795  1
