# generated using pymatgen
data_Sr2TbPaH12
_symmetry_space_group_name_H-M   'P 1'
_cell_length_a   6.84365900
_cell_length_b   7.02475200
_cell_length_c   6.84365900
_cell_angle_alpha   90.00000000
_cell_angle_beta   90.00000000
_cell_angle_gamma   90.00000000
_symmetry_Int_Tables_number   1
_chemical_formula_structural   Sr2TbPaH12
_chemical_formula_sum   'Sr4 Tb2 Pa2 H24'
_cell_volume   329.00895602
_cell_formula_units_Z   2
loop_
 _symmetry_equiv_pos_site_id
 _symmetry_equiv_pos_as_xyz
  1  'x, y, z'
loop_
 _atom_site_type_symbol
 _atom_site_label
 _atom_site_symmetry_multiplicity
 _atom_site_fract_x
 _atom_site_fract_y
 _atom_site_fract_z
 _atom_site_occupancy
  Sr  Sr0  1  0.250319  0.000000  0.500000  1
  Sr  Sr1  1  0.749681  0.000000  0.500000  1
  Sr  Sr2  1  0.000000  0.500000  0.249681  1
  Sr  Sr3  1  0.000000  0.500000  0.750319  1
  Tb  Tb4  1  0.500000  0.750000  0.000000  1
  Tb  Tb5  1  0.500000  0.250000  0.000000  1
  Pa  Pa6  1  0.000000  0.000000  0.000000  1
  Pa  Pa7  1  0.500000  0.500000  0.500000  1
  H  H8  1  0.000000  0.147269  0.277908  1
  H  H9  1  0.500000  0.228926  0.663371  1
  H  H10  1  0.500000  0.771074  0.336629  1
  H  H11  1  0.777908  0.647269  0.500000  1
  H  H12  1  0.222092  0.647269  0.500000  1
  H  H13  1  0.358684  0.500000  0.803089  1
  H  H14  1  0.641316  0.500000  0.803089  1
  H  H15  1  0.303089  0.000000  0.141316  1
  H  H16  1  0.163371  0.271074  0.000000  1
  H  H17  1  0.836629  0.728926  0.000000  1
  H  H18  1  0.303089  0.000000  0.858684  1
  H  H19  1  0.836629  0.271074  0.000000  1
  H  H20  1  0.696911  0.000000  0.141316  1
  H  H21  1  0.696911  0.000000  0.858684  1
  H  H22  1  0.163371  0.728926  0.000000  1
  H  H23  1  0.000000  0.852731  0.722092  1
  H  H24  1  0.000000  0.147269  0.722092  1
  H  H25  1  0.000000  0.852731  0.277908  1
  H  H26  1  0.641316  0.500000  0.196911  1
  H  H27  1  0.358684  0.500000  0.196911  1
  H  H28  1  0.777908  0.352731  0.500000  1
  H  H29  1  0.222092  0.352731  0.500000  1
  H  H30  1  0.500000  0.771074  0.663371  1
  H  H31  1  0.500000  0.228926  0.336629  1
