# generated using pymatgen
data_Np3Zn3Ge2Ir
_symmetry_space_group_name_H-M   'P 1'
_cell_length_a   6.89802900
_cell_length_b   6.89802845
_cell_length_c   4.21072500
_cell_angle_alpha   90.00000000
_cell_angle_beta   90.00000000
_cell_angle_gamma   119.99999786
_symmetry_Int_Tables_number   1
_chemical_formula_structural   Np3Zn3Ge2Ir
_chemical_formula_sum   'Np3 Zn3 Ge2 Ir1'
_cell_volume   173.51519665
_cell_formula_units_Z   1
loop_
 _symmetry_equiv_pos_site_id
 _symmetry_equiv_pos_as_xyz
  1  'x, y, z'
loop_
 _atom_site_type_symbol
 _atom_site_label
 _atom_site_symmetry_multiplicity
 _atom_site_fract_x
 _atom_site_fract_y
 _atom_site_fract_z
 _atom_site_occupancy
  Np  Np0  1  0.409903  0.000000  0.000000  1
  Np  Np1  1  0.000000  0.409903  0.000000  1
  Np  Np2  1  0.590097  0.590097  0.000000  1
  Zn  Zn3  1  0.765416  0.000000  0.499999  1
  Zn  Zn4  1  0.234583  0.234584  0.499999  1
  Zn  Zn5  1  0.000000  0.765417  0.499999  1
  Ge  Ge6  1  0.666666  0.333333  0.499999  1
  Ge  Ge7  1  0.333333  0.666666  0.499999  1
  Ir  Ir8  1  0.000000  0.000000  0.000000  1
