# generated using pymatgen
data_Tb8Ti11Si16Ru
_symmetry_space_group_name_H-M   'P 1'
_cell_length_a   7.04858905
_cell_length_b   7.04858905
_cell_length_c   12.92824694
_cell_angle_alpha   90.03090374
_cell_angle_beta   89.96909626
_cell_angle_gamma   89.88117902
_symmetry_Int_Tables_number   1
_chemical_formula_structural   Tb8Ti11Si16Ru
_chemical_formula_sum   'Tb8 Ti11 Si16 Ru1'
_cell_volume   642.30745053
_cell_formula_units_Z   1
loop_
 _symmetry_equiv_pos_site_id
 _symmetry_equiv_pos_as_xyz
  1  'x, y, z'
loop_
 _atom_site_type_symbol
 _atom_site_label
 _atom_site_symmetry_multiplicity
 _atom_site_fract_x
 _atom_site_fract_y
 _atom_site_fract_z
 _atom_site_occupancy
  Tb  Tb0  1  0.339846  0.004281  0.467486  1
  Tb  Tb1  1  0.496720  0.840578  0.718176  1
  Tb  Tb2  1  0.500041  0.160030  0.214901  1
  Tb  Tb3  1  0.840578  0.496720  0.281824  1
  Tb  Tb4  1  0.160030  0.500041  0.785099  1
  Tb  Tb5  1  0.658587  0.998574  0.968311  1
  Tb  Tb6  1  0.004281  0.339846  0.532514  1
  Tb  Tb7  1  0.998574  0.658587  0.031689  1
  Ti  Ti8  1  0.175293  0.827691  0.248666  1
  Ti  Ti9  1  0.827691  0.175293  0.751334  1
  Ti  Ti10  1  0.673792  0.673792  0.500000  1
  Ti  Ti11  1  0.151145  0.004432  0.876090  1
  Ti  Ti12  1  0.492360  0.656246  0.125695  1
  Ti  Ti13  1  0.507358  0.348161  0.628019  1
  Ti  Ti14  1  0.656246  0.492360  0.874305  1
  Ti  Ti15  1  0.348161  0.507358  0.371981  1
  Ti  Ti16  1  0.847722  0.993530  0.375391  1
  Ti  Ti17  1  0.004432  0.151145  0.123910  1
  Ti  Ti18  1  0.993530  0.847722  0.624609  1
  Si  Si19  1  0.202232  0.130501  0.685938  1
  Si  Si20  1  0.374214  0.699102  0.934837  1
  Si  Si21  1  0.630134  0.296580  0.434891  1
  Si  Si22  1  0.699102  0.374214  0.065163  1
  Si  Si23  1  0.296580  0.630134  0.565109  1
  Si  Si24  1  0.796897  0.870174  0.184506  1
  Si  Si25  1  0.130501  0.202232  0.314062  1
  Si  Si26  1  0.870174  0.796897  0.815494  1
  Si  Si27  1  0.286674  0.953055  0.064614  1
  Si  Si28  1  0.546533  0.791705  0.315639  1
  Si  Si29  1  0.449733  0.210172  0.818145  1
  Si  Si30  1  0.791705  0.546533  0.684361  1
  Si  Si31  1  0.210172  0.449733  0.181855  1
  Si  Si32  1  0.708992  0.047803  0.565754  1
  Si  Si33  1  0.953055  0.286674  0.935386  1
  Si  Si34  1  0.047803  0.708992  0.434246  1
  Ru  Ru35  1  0.329111  0.329111  0.000000  1
