# generated using pymatgen
data_Rb3Ti8O17
_symmetry_space_group_name_H-M   'P 1'
_cell_length_a   8.30285010
_cell_length_b   8.30285079
_cell_length_c   12.17395791
_cell_angle_alpha   84.30702295
_cell_angle_beta   84.30702197
_cell_angle_gamma   26.94668706
_symmetry_Int_Tables_number   1
_chemical_formula_structural   Rb3Ti8O17
_chemical_formula_sum   'Rb3 Ti8 O17'
_cell_volume   378.32732764
_cell_formula_units_Z   1
loop_
 _symmetry_equiv_pos_site_id
 _symmetry_equiv_pos_as_xyz
  1  'x, y, z'
loop_
 _atom_site_type_symbol
 _atom_site_label
 _atom_site_symmetry_multiplicity
 _atom_site_fract_x
 _atom_site_fract_y
 _atom_site_fract_z
 _atom_site_occupancy
  Rb  Rb0  1  0.557036  0.557036  0.169426  1
  Rb  Rb1  1  0.444032  0.444032  0.817256  1
  Rb  Rb2  1  0.509097  0.509097  0.461467  1
  Ti  Ti3  1  0.844393  0.844393  0.322976  1
  Ti  Ti4  1  0.155492  0.155492  0.675753  1
  Ti  Ti5  1  0.755098  0.755098  0.833174  1
  Ti  Ti6  1  0.244529  0.244529  0.167385  1
  Ti  Ti7  1  0.887672  0.887672  0.067551  1
  Ti  Ti8  1  0.111391  0.111391  0.930138  1
  Ti  Ti9  1  0.800740  0.800740  0.578459  1
  Ti  Ti10  1  0.201272  0.201272  0.423033  1
  O  O11  1  0.826156  0.826156  0.937129  1
  O  O12  1  0.174448  0.174448  0.063558  1
  O  O13  1  0.725290  0.725290  0.433102  1
  O  O14  1  0.274277  0.274277  0.568227  1
  O  O15  1  0.636233  0.636233  0.916139  1
  O  O16  1  0.364282  0.364282  0.086941  1
  O  O17  1  0.686087  0.686087  0.676735  1
  O  O18  1  0.314409  0.314409  0.324627  1
  O  O19  1  0.887389  0.887389  0.462458  1
  O  O20  1  0.112212  0.112212  0.538124  1
  O  O21  1  0.999852  0.999852  0.999791  1
  O  O22  1  0.845234  0.845234  0.708684  1
  O  O23  1  0.153802  0.153802  0.294150  1
  O  O24  1  0.772463  0.772463  0.182119  1
  O  O25  1  0.227916  0.227916  0.819053  1
  O  O26  1  0.933189  0.933189  0.225199  1
  O  O27  1  0.068912  0.068912  0.778369  1
