# generated using pymatgen
data_Dy7Pu(Si3Ir)4
_symmetry_space_group_name_H-M   'P 1'
_cell_length_a   8.17175700
_cell_length_b   8.17180392
_cell_length_c   7.97438800
_cell_angle_alpha   90.00000000
_cell_angle_beta   90.00000000
_cell_angle_gamma   119.99929595
_symmetry_Int_Tables_number   1
_chemical_formula_structural   Dy7Pu(Si3Ir)4
_chemical_formula_sum   'Dy7 Pu1 Si12 Ir4'
_cell_volume   461.17361990
_cell_formula_units_Z   1
loop_
 _symmetry_equiv_pos_site_id
 _symmetry_equiv_pos_as_xyz
  1  'x, y, z'
loop_
 _atom_site_type_symbol
 _atom_site_label
 _atom_site_symmetry_multiplicity
 _atom_site_fract_x
 _atom_site_fract_y
 _atom_site_fract_z
 _atom_site_occupancy
  Dy  Dy0  1  0.999999  0.000000  0.750001  1
  Dy  Dy1  1  0.508553  0.491446  0.250001  1
  Dy  Dy2  1  0.508555  0.017105  0.250001  1
  Dy  Dy3  1  0.982891  0.491443  0.250000  1
  Dy  Dy4  1  0.490807  0.509193  0.750000  1
  Dy  Dy5  1  0.490806  0.981624  0.750000  1
  Dy  Dy6  1  0.018374  0.509193  0.749998  1
  Pu  Pu7  1  0.000007  0.000012  0.250009  1
  Si  Si8  1  0.166359  0.833644  0.498869  1
  Si  Si9  1  0.166371  0.332748  0.498896  1
  Si  Si10  1  0.667260  0.833633  0.498889  1
  Si  Si11  1  0.833186  0.166811  0.499652  1
  Si  Si12  1  0.833174  0.666343  0.499677  1
  Si  Si13  1  0.333653  0.166819  0.499673  1
  Si  Si14  1  0.833185  0.166809  0.000349  1
  Si  Si15  1  0.833175  0.666343  0.000320  1
  Si  Si16  1  0.333650  0.166820  0.000327  1
  Si  Si17  1  0.166357  0.833645  0.001128  1
  Si  Si18  1  0.166372  0.332745  0.001105  1
  Si  Si19  1  0.667260  0.833634  0.001109  1
  Ir  Ir20  1  0.333335  0.666662  0.471781  1
  Ir  Ir21  1  0.666668  0.333333  0.532553  1
  Ir  Ir22  1  0.666668  0.333334  0.967444  1
  Ir  Ir23  1  0.333334  0.666662  0.028218  1
