# generated using pymatgen
data_Mn6TlO12
_symmetry_space_group_name_H-M   'P 1'
_cell_length_a   8.81593326
_cell_length_b   10.13259653
_cell_length_c   8.27281700
_cell_angle_alpha   67.14199845
_cell_angle_beta   57.79415261
_cell_angle_gamma   43.60172331
_symmetry_Int_Tables_number   1
_chemical_formula_structural   Mn6TlO12
_chemical_formula_sum   'Mn12 Tl2 O24'
_cell_volume   431.22441517
_cell_formula_units_Z   2
loop_
 _symmetry_equiv_pos_site_id
 _symmetry_equiv_pos_as_xyz
  1  'x, y, z'
loop_
 _atom_site_type_symbol
 _atom_site_label
 _atom_site_symmetry_multiplicity
 _atom_site_fract_x
 _atom_site_fract_y
 _atom_site_fract_z
 _atom_site_occupancy
  Mn  Mn0  1  0.007116  0.483908  0.182610  1
  Mn  Mn1  1  0.257966  0.183249  0.514798  1
  Mn  Mn2  1  0.337862  0.486943  0.183023  1
  Mn  Mn3  1  0.077594  0.817068  0.485422  1
  Mn  Mn4  1  0.589448  0.183591  0.517508  1
  Mn  Mn5  1  0.331928  0.514118  0.817024  1
  Mn  Mn6  1  0.671466  0.485848  0.183019  1
  Mn  Mn7  1  0.413655  0.816485  0.482548  1
  Mn  Mn8  1  0.925581  0.182924  0.514671  1
  Mn  Mn9  1  0.665615  0.513059  0.816889  1
  Mn  Mn10  1  0.745432  0.816708  0.485057  1
  Mn  Mn11  1  0.996199  0.516106  0.817421  1
  Tl  Tl12  1  0.207450  0.999617  0.999766  1
  Tl  Tl13  1  0.795886  0.000252  0.000550  1
  O  O14  1  0.012174  0.357135  0.048116  1
  O  O15  1  0.141782  0.046621  0.642876  1
  O  O16  1  0.067406  0.293853  0.378677  1
  O  O17  1  0.001990  0.625512  0.290102  1
  O  O18  1  0.347631  0.356404  0.049767  1
  O  O19  1  0.472270  0.047399  0.644151  1
  O  O20  1  0.400920  0.293935  0.377867  1
  O  O21  1  0.332714  0.377482  0.708708  1
  O  O22  1  0.334837  0.626127  0.290154  1
  O  O23  1  0.680164  0.355757  0.049191  1
  O  O24  1  0.268012  0.706983  0.622561  1
  O  O25  1  0.195117  0.952952  0.356351  1
  O  O26  1  0.807890  0.047086  0.643772  1
  O  O27  1  0.735129  0.293100  0.377584  1
  O  O28  1  0.323377  0.644265  0.950781  1
  O  O29  1  0.668578  0.373839  0.709886  1
  O  O30  1  0.670489  0.622615  0.291234  1
  O  O31  1  0.602520  0.706007  0.621974  1
  O  O32  1  0.530981  0.952625  0.355761  1
  O  O33  1  0.655706  0.643602  0.950289  1
  O  O34  1  0.001432  0.374524  0.709728  1
  O  O35  1  0.935850  0.706135  0.621296  1
  O  O36  1  0.861541  0.953352  0.357045  1
  O  O37  1  0.991292  0.642809  0.951820  1
