# generated using pymatgen
data_CeHfP7Ru12
_symmetry_space_group_name_H-M   'P 1'
_cell_length_a   9.42753600
_cell_length_b   9.42753528
_cell_length_c   3.91463800
_cell_angle_alpha   90.00000000
_cell_angle_beta   90.00000000
_cell_angle_gamma   119.99999455
_symmetry_Int_Tables_number   1
_chemical_formula_structural   CeHfP7Ru12
_chemical_formula_sum   'Ce1 Hf1 P7 Ru12'
_cell_volume   301.31352701
_cell_formula_units_Z   1
loop_
 _symmetry_equiv_pos_site_id
 _symmetry_equiv_pos_as_xyz
  1  'x, y, z'
loop_
 _atom_site_type_symbol
 _atom_site_label
 _atom_site_symmetry_multiplicity
 _atom_site_fract_x
 _atom_site_fract_y
 _atom_site_fract_z
 _atom_site_occupancy
  Ce  Ce0  1  0.333333  0.666667  0.000000  1
  Hf  Hf1  1  0.666667  0.333333  0.500000  1
  P  P2  1  0.602827  0.718031  0.500000  1
  P  P3  1  0.000000  0.000000  0.000000  1
  P  P4  1  0.281969  0.884798  0.500000  1
  P  P5  1  0.115202  0.397173  0.500000  1
  P  P6  1  0.885200  0.572674  0.000000  1
  P  P7  1  0.427326  0.312526  0.000000  1
  P  P8  1  0.687474  0.114800  0.000000  1
  Ru  Ru9  1  0.557327  0.952833  0.500000  1
  Ru  Ru10  1  0.395506  0.442673  0.500000  1
  Ru  Ru11  1  0.912234  0.121667  0.500000  1
  Ru  Ru12  1  0.209433  0.087766  0.500000  1
  Ru  Ru13  1  0.878333  0.790567  0.500000  1
  Ru  Ru14  1  0.726083  0.889695  0.000000  1
  Ru  Ru15  1  0.110305  0.836386  0.000000  1
  Ru  Ru16  1  0.163614  0.273917  0.000000  1
  Ru  Ru17  1  0.429560  0.075582  0.000000  1
  Ru  Ru18  1  0.924418  0.353979  0.000000  1
  Ru  Ru19  1  0.646021  0.570440  0.000000  1
  Ru  Ru20  1  0.047167  0.604494  0.500000  1
