# generated using pymatgen
data_TbEr7(Tm3Sn4)4
_symmetry_space_group_name_H-M   'P 1'
_cell_length_a   7.96257486
_cell_length_b   8.09253725
_cell_length_c   15.29628126
_cell_angle_alpha   90.00784949
_cell_angle_beta   89.95423239
_cell_angle_gamma   89.97258697
_symmetry_Int_Tables_number   1
_chemical_formula_structural   TbEr7(Tm3Sn4)4
_chemical_formula_sum   'Tb1 Er7 Tm12 Sn16'
_cell_volume   985.65267255
_cell_formula_units_Z   1
loop_
 _symmetry_equiv_pos_site_id
 _symmetry_equiv_pos_as_xyz
  1  'x, y, z'
loop_
 _atom_site_type_symbol
 _atom_site_label
 _atom_site_symmetry_multiplicity
 _atom_site_fract_x
 _atom_site_fract_y
 _atom_site_fract_z
 _atom_site_occupancy
  Tb  Tb0  1  0.020714  0.179383  0.903045  1
  Er  Er1  1  0.521013  0.320778  0.902837  1
  Er  Er2  1  0.021083  0.179388  0.597224  1
  Er  Er3  1  0.478993  0.679317  0.402902  1
  Er  Er4  1  0.979086  0.820595  0.097173  1
  Er  Er5  1  0.479056  0.679394  0.097132  1
  Er  Er6  1  0.978973  0.820697  0.402890  1
  Er  Er7  1  0.521033  0.320716  0.597067  1
  Tm  Tm8  1  0.367157  0.836662  0.877355  1
  Tm  Tm9  1  0.867131  0.663242  0.622556  1
  Tm  Tm10  1  0.632831  0.163189  0.377373  1
  Tm  Tm11  1  0.133022  0.336924  0.122764  1
  Tm  Tm12  1  0.633013  0.163158  0.122676  1
  Tm  Tm13  1  0.132858  0.336795  0.377359  1
  Tm  Tm14  1  0.367198  0.836745  0.622595  1
  Tm  Tm15  1  0.867105  0.663239  0.877361  1
  Tm  Tm16  1  0.198182  0.503661  0.749887  1
  Tm  Tm17  1  0.697883  0.996278  0.749857  1
  Tm  Tm18  1  0.801928  0.496465  0.250037  1
  Tm  Tm19  1  0.301954  0.003515  0.250000  1
  Sn  Sn20  1  0.294368  0.036703  0.041816  1
  Sn  Sn21  1  0.793704  0.462983  0.458499  1
  Sn  Sn22  1  0.706315  0.963061  0.541502  1
  Sn  Sn23  1  0.206657  0.537578  0.958629  1
  Sn  Sn24  1  0.705389  0.962268  0.958683  1
  Sn  Sn25  1  0.206261  0.537001  0.541488  1
  Sn  Sn26  1  0.293743  0.037018  0.458504  1
  Sn  Sn27  1  0.793657  0.463063  0.041504  1
  Sn  Sn28  1  0.564049  0.620144  0.749993  1
  Sn  Sn29  1  0.064051  0.879350  0.749953  1
  Sn  Sn30  1  0.436004  0.379889  0.249982  1
  Sn  Sn31  1  0.935953  0.120233  0.250040  1
  Sn  Sn32  1  0.330930  0.148507  0.749826  1
  Sn  Sn33  1  0.829861  0.352038  0.749489  1
  Sn  Sn34  1  0.669448  0.851457  0.249981  1
  Sn  Sn35  1  0.169397  0.648567  0.250023  1
