# generated using pymatgen
data_Y3Tm2Ru2C7
_symmetry_space_group_name_H-M   'P 1'
_cell_length_a   8.18868720
_cell_length_b   8.11930446
_cell_length_c   3.49847400
_cell_angle_alpha   90.00000000
_cell_angle_beta   90.00000000
_cell_angle_gamma   121.75378980
_symmetry_Int_Tables_number   1
_chemical_formula_structural   Y3Tm2Ru2C7
_chemical_formula_sum   'Y3 Tm2 Ru2 C7'
_cell_volume   197.78476442
_cell_formula_units_Z   1
loop_
 _symmetry_equiv_pos_site_id
 _symmetry_equiv_pos_as_xyz
  1  'x, y, z'
loop_
 _atom_site_type_symbol
 _atom_site_label
 _atom_site_symmetry_multiplicity
 _atom_site_fract_x
 _atom_site_fract_y
 _atom_site_fract_z
 _atom_site_occupancy
  Y  Y0  1  0.500000  0.500000  0.000000  1
  Y  Y1  1  0.076684  0.334643  0.500000  1
  Y  Y2  1  0.923316  0.665357  0.500000  1
  Tm  Tm3  1  0.656011  0.921806  0.500000  1
  Tm  Tm4  1  0.343989  0.078194  0.500000  1
  Ru  Ru5  1  0.714490  0.286981  0.000000  1
  Ru  Ru6  1  0.285510  0.713019  0.000000  1
  C  C7  1  0.630580  0.369489  0.500000  1
  C  C8  1  0.369420  0.630511  0.500000  1
  C  C9  1  0.000000  0.000000  0.000000  1
  C  C10  1  0.175091  0.166583  0.000000  1
  C  C11  1  0.824909  0.833417  0.000000  1
  C  C12  1  0.000000  0.500000  0.000000  1
  C  C13  1  0.500000  0.000000  0.000000  1
