# generated using pymatgen
data_Na5Ti(MoH9)3
_symmetry_space_group_name_H-M   'P 1'
_cell_length_a   8.78564700
_cell_length_b   8.43231564
_cell_length_c   4.92176800
_cell_angle_alpha   90.00000000
_cell_angle_beta   90.00000000
_cell_angle_gamma   118.67833453
_symmetry_Int_Tables_number   1
_chemical_formula_structural   Na5Ti(MoH9)3
_chemical_formula_sum   'Na5 Ti1 Mo3 H27'
_cell_volume   319.89214739
_cell_formula_units_Z   1
loop_
 _symmetry_equiv_pos_site_id
 _symmetry_equiv_pos_as_xyz
  1  'x, y, z'
loop_
 _atom_site_type_symbol
 _atom_site_label
 _atom_site_symmetry_multiplicity
 _atom_site_fract_x
 _atom_site_fract_y
 _atom_site_fract_z
 _atom_site_occupancy
  Na  Na0  1  0.726540  0.742308  0.500000  1
  Na  Na1  1  0.273460  0.015768  0.500000  1
  Na  Na2  1  0.000000  0.630428  0.000000  1
  Na  Na3  1  0.428509  0.389555  0.000000  1
  Na  Na4  1  0.571491  0.961045  0.000000  1
  Ti  Ti5  1  0.000000  0.269466  0.500000  1
  Mo  Mo6  1  0.700191  0.324554  0.500000  1
  Mo  Mo7  1  0.299809  0.624366  0.500000  1
  Mo  Mo8  1  0.000000  0.040911  0.000000  1
  H  H9  1  0.876203  0.352731  0.720023  1
  H  H10  1  0.692145  0.426550  0.794036  1
  H  H11  1  0.535795  0.176539  0.721569  1
  H  H12  1  0.123797  0.476528  0.279977  1
  H  H13  1  0.535795  0.176539  0.278431  1
  H  H14  1  0.876203  0.352731  0.279977  1
  H  H15  1  0.692145  0.426550  0.205964  1
  H  H16  1  0.307855  0.734406  0.794036  1
  H  H17  1  0.464205  0.640745  0.721569  1
  H  H18  1  0.198099  0.044679  0.000000  1
  H  H19  1  0.801901  0.846580  0.000000  1
  H  H20  1  0.000000  0.252346  0.000000  1
  H  H21  1  0.864153  0.043064  0.264896  1
  H  H22  1  0.135847  0.178911  0.735104  1
  H  H23  1  0.000000  0.882713  0.769042  1
  H  H24  1  0.000000  0.882713  0.230958  1
  H  H25  1  0.135847  0.178911  0.264896  1
  H  H26  1  0.864153  0.043064  0.735104  1
  H  H27  1  0.165111  0.720646  0.500000  1
  H  H28  1  0.465559  0.848619  0.500000  1
  H  H29  1  0.261876  0.393818  0.500000  1
  H  H30  1  0.534441  0.383060  0.500000  1
  H  H31  1  0.834889  0.555534  0.500000  1
  H  H32  1  0.738124  0.131943  0.500000  1
  H  H33  1  0.123797  0.476528  0.720023  1
  H  H34  1  0.307855  0.734406  0.205964  1
  H  H35  1  0.464205  0.640745  0.278431  1
