# generated using pymatgen
data_Y2HoHg5
_symmetry_space_group_name_H-M   'P 1'
_cell_length_a   6.38251279
_cell_length_b   6.38251192
_cell_length_c   10.17861500
_cell_angle_alpha   90.00000000
_cell_angle_beta   90.00000000
_cell_angle_gamma   105.14363198
_symmetry_Int_Tables_number   1
_chemical_formula_structural   Y2HoHg5
_chemical_formula_sum   'Y4 Ho2 Hg10'
_cell_volume   400.24195518
_cell_formula_units_Z   2
loop_
 _symmetry_equiv_pos_site_id
 _symmetry_equiv_pos_as_xyz
  1  'x, y, z'
loop_
 _atom_site_type_symbol
 _atom_site_label
 _atom_site_symmetry_multiplicity
 _atom_site_fract_x
 _atom_site_fract_y
 _atom_site_fract_z
 _atom_site_occupancy
  Y  Y0  1  0.213274  0.786726  0.500000  1
  Y  Y1  1  0.213274  0.786726  0.000000  1
  Y  Y2  1  0.786726  0.213274  0.500000  1
  Y  Y3  1  0.786726  0.213274  0.000000  1
  Ho  Ho4  1  0.572413  0.572413  0.250000  1
  Ho  Ho5  1  0.427587  0.427587  0.750000  1
  Hg  Hg6  1  0.973927  0.973927  0.250000  1
  Hg  Hg7  1  0.026073  0.026073  0.750000  1
  Hg  Hg8  1  0.294087  0.294087  0.029962  1
  Hg  Hg9  1  0.705913  0.705913  0.970038  1
  Hg  Hg10  1  0.294087  0.294087  0.470038  1
  Hg  Hg11  1  0.705913  0.705913  0.529962  1
  Hg  Hg12  1  0.480656  0.039033  0.250000  1
  Hg  Hg13  1  0.960967  0.519344  0.750000  1
  Hg  Hg14  1  0.519344  0.960967  0.750000  1
  Hg  Hg15  1  0.039033  0.480656  0.250000  1
