# generated using pymatgen
data_TbCe6TmPb10
_symmetry_space_group_name_H-M   'P 1'
_cell_length_a   9.59223700
_cell_length_b   9.59223768
_cell_length_c   6.60417100
_cell_angle_alpha   90.00000000
_cell_angle_beta   90.00000000
_cell_angle_gamma   119.99999419
_symmetry_Int_Tables_number   1
_chemical_formula_structural   TbCe6TmPb10
_chemical_formula_sum   'Tb1 Ce6 Tm1 Pb10'
_cell_volume   526.24598935
_cell_formula_units_Z   1
loop_
 _symmetry_equiv_pos_site_id
 _symmetry_equiv_pos_as_xyz
  1  'x, y, z'
loop_
 _atom_site_type_symbol
 _atom_site_label
 _atom_site_symmetry_multiplicity
 _atom_site_fract_x
 _atom_site_fract_y
 _atom_site_fract_z
 _atom_site_occupancy
  Tb  Tb0  1  0.000000  0.000000  0.000000  1
  Ce  Ce1  1  0.616803  0.000000  0.247410  1
  Ce  Ce2  1  0.383197  0.000000  0.752590  1
  Ce  Ce3  1  0.000000  0.616803  0.247410  1
  Ce  Ce4  1  0.000000  0.383197  0.752590  1
  Ce  Ce5  1  0.383197  0.383197  0.247410  1
  Ce  Ce6  1  0.616803  0.616803  0.752590  1
  Tm  Tm7  1  0.000000  0.000000  0.500000  1
  Pb  Pb8  1  0.280395  0.000000  0.257349  1
  Pb  Pb9  1  0.719605  0.000000  0.742651  1
  Pb  Pb10  1  0.000000  0.280395  0.257349  1
  Pb  Pb11  1  0.000000  0.719605  0.742651  1
  Pb  Pb12  1  0.719605  0.719605  0.257349  1
  Pb  Pb13  1  0.280395  0.280395  0.742651  1
  Pb  Pb14  1  0.333333  0.666667  0.000000  1
  Pb  Pb15  1  0.666667  0.333333  0.000000  1
  Pb  Pb16  1  0.666667  0.333333  0.500000  1
  Pb  Pb17  1  0.333333  0.666667  0.500000  1
