# generated using pymatgen
data_Tm2Nb2Si2Ge2Mo
_symmetry_space_group_name_H-M   'P 1'
_cell_length_a   7.02107500
_cell_length_b   6.90444578
_cell_length_c   7.06163362
_cell_angle_alpha   70.39061025
_cell_angle_beta   90.00000000
_cell_angle_gamma   90.00000000
_symmetry_Int_Tables_number   1
_chemical_formula_structural   Tm2Nb2Si2Ge2Mo
_chemical_formula_sum   'Tm4 Nb4 Si4 Ge4 Mo2'
_cell_volume   322.47025160
_cell_formula_units_Z   2
loop_
 _symmetry_equiv_pos_site_id
 _symmetry_equiv_pos_as_xyz
  1  'x, y, z'
loop_
 _atom_site_type_symbol
 _atom_site_label
 _atom_site_symmetry_multiplicity
 _atom_site_fract_x
 _atom_site_fract_y
 _atom_site_fract_z
 _atom_site_occupancy
  Tm  Tm0  1  0.327743  0.560286  0.807361  1
  Tm  Tm1  1  0.827743  0.939714  0.192639  1
  Tm  Tm2  1  0.672525  0.439013  0.192879  1
  Tm  Tm3  1  0.172525  0.060987  0.807121  1
  Nb  Nb4  1  0.500503  0.001479  0.498474  1
  Nb  Nb5  1  0.000503  0.498521  0.501526  1
  Nb  Nb6  1  0.827958  0.746978  0.740155  1
  Nb  Nb7  1  0.327958  0.753022  0.259845  1
  Si  Si8  1  0.127501  0.874711  0.504036  1
  Si  Si9  1  0.627501  0.625289  0.495964  1
  Si  Si10  1  0.872995  0.129418  0.496265  1
  Si  Si11  1  0.372995  0.370582  0.503735  1
  Ge  Ge12  1  0.537912  0.857938  0.915251  1
  Ge  Ge13  1  0.037912  0.642062  0.084749  1
  Ge  Ge14  1  0.460887  0.147198  0.081225  1
  Ge  Ge15  1  0.960887  0.352802  0.918775  1
  Mo  Mo16  1  0.171976  0.250237  0.263499  1
  Mo  Mo17  1  0.671976  0.249763  0.736501  1
