# generated using pymatgen
data_TiNb7Re8
_symmetry_space_group_name_H-M   'P 1'
_cell_length_a   6.40220600
_cell_length_b   6.40220600
_cell_length_c   6.40220600
_cell_angle_alpha   90.00000000
_cell_angle_beta   90.00000000
_cell_angle_gamma   90.00000000
_symmetry_Int_Tables_number   1
_chemical_formula_structural   TiNb7Re8
_chemical_formula_sum   'Ti1 Nb7 Re8'
_cell_volume   262.41516673
_cell_formula_units_Z   1
loop_
 _symmetry_equiv_pos_site_id
 _symmetry_equiv_pos_as_xyz
  1  'x, y, z'
loop_
 _atom_site_type_symbol
 _atom_site_label
 _atom_site_symmetry_multiplicity
 _atom_site_fract_x
 _atom_site_fract_y
 _atom_site_fract_z
 _atom_site_occupancy
  Ti  Ti0  1  0.000000  0.000000  0.000000  1
  Nb  Nb1  1  0.499999  0.000000  0.000000  1
  Nb  Nb2  1  0.000000  0.499999  0.000000  1
  Nb  Nb3  1  0.499999  0.499999  0.000000  1
  Nb  Nb4  1  0.000000  0.000000  0.499999  1
  Nb  Nb5  1  0.499999  0.000000  0.499999  1
  Nb  Nb6  1  0.000000  0.499999  0.499999  1
  Nb  Nb7  1  0.499999  0.499999  0.499999  1
  Re  Re8  1  0.249108  0.249108  0.249108  1
  Re  Re9  1  0.750892  0.249108  0.249108  1
  Re  Re10  1  0.249108  0.750892  0.249108  1
  Re  Re11  1  0.750892  0.750892  0.249108  1
  Re  Re12  1  0.249108  0.249108  0.750892  1
  Re  Re13  1  0.750892  0.249108  0.750892  1
  Re  Re14  1  0.249108  0.750892  0.750892  1
  Re  Re15  1  0.750892  0.750892  0.750892  1
