# generated using pymatgen
data_KTeIrO6
_symmetry_space_group_name_H-M   'P 1'
_cell_length_a   5.29393400
_cell_length_b   5.29393335
_cell_length_c   6.15631100
_cell_angle_alpha   90.00000000
_cell_angle_beta   90.00000000
_cell_angle_gamma   120.00001657
_symmetry_Int_Tables_number   1
_chemical_formula_structural   KTeIrO6
_chemical_formula_sum   'K1 Te1 Ir1 O6'
_cell_volume   149.41978323
_cell_formula_units_Z   1
loop_
 _symmetry_equiv_pos_site_id
 _symmetry_equiv_pos_as_xyz
  1  'x, y, z'
loop_
 _atom_site_type_symbol
 _atom_site_label
 _atom_site_symmetry_multiplicity
 _atom_site_fract_x
 _atom_site_fract_y
 _atom_site_fract_z
 _atom_site_occupancy
  K  K0  1  0.000000  0.000000  0.000000  1
  Te  Te1  1  0.666667  0.333333  0.500000  1
  Ir  Ir2  1  0.333333  0.666667  0.500000  1
  O  O3  1  0.381879  0.999404  0.679872  1
  O  O4  1  0.000596  0.382475  0.679872  1
  O  O5  1  0.617525  0.618121  0.679872  1
  O  O6  1  0.000596  0.618121  0.320128  1
  O  O7  1  0.617525  0.999404  0.320128  1
  O  O8  1  0.381879  0.382475  0.320128  1
