# generated using pymatgen
data_Pr2Ho3Pb4
_symmetry_space_group_name_H-M   'P 1'
_cell_length_a   8.26909500
_cell_length_b   8.40510400
_cell_length_c   15.81577800
_cell_angle_alpha   90.00000000
_cell_angle_beta   90.00000000
_cell_angle_gamma   90.00000000
_symmetry_Int_Tables_number   1
_chemical_formula_structural   Pr2Ho3Pb4
_chemical_formula_sum   'Pr8 Ho12 Pb16'
_cell_volume   1099.23774676
_cell_formula_units_Z   4
loop_
 _symmetry_equiv_pos_site_id
 _symmetry_equiv_pos_as_xyz
  1  'x, y, z'
loop_
 _atom_site_type_symbol
 _atom_site_label
 _atom_site_symmetry_multiplicity
 _atom_site_fract_x
 _atom_site_fract_y
 _atom_site_fract_z
 _atom_site_occupancy
  Pr  Pr0  1  0.476072  0.677589  0.597225  1
  Pr  Pr1  1  0.976072  0.822411  0.902775  1
  Pr  Pr2  1  0.523928  0.322411  0.097225  1
  Pr  Pr3  1  0.023928  0.177589  0.402775  1
  Pr  Pr4  1  0.523928  0.322411  0.402775  1
  Pr  Pr5  1  0.023928  0.177589  0.097225  1
  Pr  Pr6  1  0.476072  0.677589  0.902775  1
  Pr  Pr7  1  0.976072  0.822411  0.597225  1
  Ho  Ho8  1  0.632549  0.158055  0.622142  1
  Ho  Ho9  1  0.132549  0.341945  0.877858  1
  Ho  Ho10  1  0.367451  0.841945  0.122142  1
  Ho  Ho11  1  0.867451  0.658055  0.377858  1
  Ho  Ho12  1  0.367451  0.841945  0.377858  1
  Ho  Ho13  1  0.867451  0.658055  0.122142  1
  Ho  Ho14  1  0.632549  0.158055  0.877858  1
  Ho  Ho15  1  0.132549  0.341945  0.622142  1
  Ho  Ho16  1  0.798235  0.494823  0.750000  1
  Ho  Ho17  1  0.298235  0.005177  0.750000  1
  Ho  Ho18  1  0.201765  0.505177  0.250000  1
  Ho  Ho19  1  0.701765  0.994823  0.250000  1
  Pb  Pb20  1  0.706517  0.959330  0.456386  1
  Pb  Pb21  1  0.206517  0.540670  0.043614  1
  Pb  Pb22  1  0.293483  0.040670  0.956386  1
  Pb  Pb23  1  0.793483  0.459330  0.543614  1
  Pb  Pb24  1  0.293483  0.040670  0.543614  1
  Pb  Pb25  1  0.793483  0.459330  0.956386  1
  Pb  Pb26  1  0.706517  0.959330  0.043614  1
  Pb  Pb27  1  0.206517  0.540670  0.456386  1
  Pb  Pb28  1  0.435728  0.370680  0.750000  1
  Pb  Pb29  1  0.935728  0.129320  0.750000  1
  Pb  Pb30  1  0.564272  0.629320  0.250000  1
  Pb  Pb31  1  0.064272  0.870680  0.250000  1
  Pb  Pb32  1  0.662082  0.850785  0.750000  1
  Pb  Pb33  1  0.162082  0.649215  0.750000  1
  Pb  Pb34  1  0.337918  0.149215  0.250000  1
  Pb  Pb35  1  0.837918  0.350785  0.250000  1
