# generated using pymatgen
data_LiCe3Nd13Cd3Ir4
_symmetry_space_group_name_H-M   'P 1'
_cell_length_a   9.89632127
_cell_length_b   9.97058680
_cell_length_c   9.97058743
_cell_angle_alpha   60.06282879
_cell_angle_beta   59.83885425
_cell_angle_gamma   59.83886751
_symmetry_Int_Tables_number   1
_chemical_formula_structural   LiCe3Nd13Cd3Ir4
_chemical_formula_sum   'Li1 Ce3 Nd13 Cd3 Ir4'
_cell_volume   694.29326278
_cell_formula_units_Z   1
loop_
 _symmetry_equiv_pos_site_id
 _symmetry_equiv_pos_as_xyz
  1  'x, y, z'
loop_
 _atom_site_type_symbol
 _atom_site_label
 _atom_site_symmetry_multiplicity
 _atom_site_fract_x
 _atom_site_fract_y
 _atom_site_fract_z
 _atom_site_occupancy
  Li  Li0  1  0.569024  0.571658  0.571658  1
  Ce  Ce1  1  0.343875  0.346367  0.346367  1
  Ce  Ce2  1  0.343068  0.345531  0.966705  1
  Ce  Ce3  1  0.343068  0.966705  0.345531  1
  Nd  Nd4  1  0.953533  0.349110  0.349110  1
  Nd  Nd5  1  0.810577  0.190753  0.190753  1
  Nd  Nd6  1  0.187766  0.810744  0.810744  1
  Nd  Nd7  1  0.191644  0.809583  0.191589  1
  Nd  Nd8  1  0.811895  0.187692  0.810925  1
  Nd  Nd9  1  0.191644  0.191589  0.809583  1
  Nd  Nd10  1  0.811895  0.810925  0.187692  1
  Nd  Nd11  1  0.940928  0.561725  0.561725  1
  Nd  Nd12  1  0.558318  0.940292  0.940292  1
  Nd  Nd13  1  0.559523  0.940349  0.561157  1
  Nd  Nd14  1  0.940253  0.560528  0.937147  1
  Nd  Nd15  1  0.559523  0.561157  0.940349  1
  Nd  Nd16  1  0.940253  0.937147  0.560528  1
  Cd  Cd17  1  0.579117  0.581857  0.258997  1
  Cd  Cd18  1  0.579117  0.258997  0.581857  1
  Cd  Cd19  1  0.259091  0.580828  0.580828  1
  Ir  Ir20  1  0.153479  0.140737  0.140737  1
  Ir  Ir21  1  0.153398  0.141360  0.568216  1
  Ir  Ir22  1  0.153398  0.568216  0.141360  1
  Ir  Ir23  1  0.565614  0.146151  0.146151  1
