# generated using pymatgen
data_Ho2CrB8Ir
_symmetry_space_group_name_H-M   'P 1'
_cell_length_a   3.50587000
_cell_length_b   5.94165710
_cell_length_c   11.50593121
_cell_angle_alpha   89.49803951
_cell_angle_beta   90.00000000
_cell_angle_gamma   90.00000000
_symmetry_Int_Tables_number   1
_chemical_formula_structural   Ho2CrB8Ir
_chemical_formula_sum   'Ho4 Cr2 B16 Ir2'
_cell_volume   239.66714300
_cell_formula_units_Z   2
loop_
 _symmetry_equiv_pos_site_id
 _symmetry_equiv_pos_as_xyz
  1  'x, y, z'
loop_
 _atom_site_type_symbol
 _atom_site_label
 _atom_site_symmetry_multiplicity
 _atom_site_fract_x
 _atom_site_fract_y
 _atom_site_fract_z
 _atom_site_occupancy
  Ho  Ho0  1  0.000000  0.624995  0.353511  1
  Ho  Ho1  1  0.000000  0.375005  0.646489  1
  Ho  Ho2  1  0.000000  0.129457  0.153701  1
  Ho  Ho3  1  0.000000  0.870543  0.846299  1
  Cr  Cr4  1  0.000000  0.121189  0.419966  1
  Cr  Cr5  1  0.000000  0.878811  0.580034  1
  B  B6  1  0.500000  0.789016  0.189251  1
  B  B7  1  0.500000  0.210984  0.810749  1
  B  B8  1  0.500000  0.283117  0.317463  1
  B  B9  1  0.500000  0.716883  0.682537  1
  B  B10  1  0.500000  0.865220  0.030726  1
  B  B11  1  0.500000  0.134780  0.969274  1
  B  B12  1  0.500000  0.362532  0.467647  1
  B  B13  1  0.500000  0.637468  0.532353  1
  B  B14  1  0.500000  0.887497  0.454265  1
  B  B15  1  0.500000  0.112503  0.545735  1
  B  B16  1  0.500000  0.386291  0.047859  1
  B  B17  1  0.500000  0.613709  0.952141  1
  B  B18  1  0.500000  0.978352  0.310083  1
  B  B19  1  0.500000  0.021648  0.689917  1
  B  B20  1  0.500000  0.471394  0.194224  1
  B  B21  1  0.500000  0.528606  0.805776  1
  Ir  Ir22  1  0.000000  0.643876  0.095428  1
  Ir  Ir23  1  0.000000  0.356124  0.904572  1
