# generated using pymatgen
data_Y2Tm3Rh2
_symmetry_space_group_name_H-M   'P 1'
_cell_length_a   6.36347381
_cell_length_b   7.14582633
_cell_length_c   8.56655539
_cell_angle_alpha   97.09815349
_cell_angle_beta   111.80284560
_cell_angle_gamma   89.99999755
_symmetry_Int_Tables_number   1
_chemical_formula_structural   Y2Tm3Rh2
_chemical_formula_sum   'Y4 Tm6 Rh4'
_cell_volume   358.45844960
_cell_formula_units_Z   2
loop_
 _symmetry_equiv_pos_site_id
 _symmetry_equiv_pos_as_xyz
  1  'x, y, z'
loop_
 _atom_site_type_symbol
 _atom_site_label
 _atom_site_symmetry_multiplicity
 _atom_site_fract_x
 _atom_site_fract_y
 _atom_site_fract_z
 _atom_site_occupancy
  Y  Y0  1  0.788041  0.080298  0.808394  1
  Y  Y1  1  0.979647  0.419702  0.191606  1
  Y  Y2  1  0.211959  0.919702  0.191606  1
  Y  Y3  1  0.020353  0.580298  0.808394  1
  Tm  Tm4  1  0.205696  0.186510  0.563195  1
  Tm  Tm5  1  0.642501  0.313490  0.436805  1
  Tm  Tm6  1  0.794304  0.813490  0.436805  1
  Tm  Tm7  1  0.357499  0.686510  0.563195  1
  Tm  Tm8  1  0.422125  0.250000  0.000000  1
  Tm  Tm9  1  0.577875  0.750000  0.000000  1
  Rh  Rh10  1  0.588213  0.425754  0.776974  1
  Rh  Rh11  1  0.811238  0.074246  0.223026  1
  Rh  Rh12  1  0.411787  0.574246  0.223026  1
  Rh  Rh13  1  0.188762  0.925754  0.776974  1
