# generated using pymatgen
data_La5In2Ru2Rh
_symmetry_space_group_name_H-M   'P 1'
_cell_length_a   8.84680237
_cell_length_b   8.84680122
_cell_length_c   8.84680231
_cell_angle_alpha   109.42743913
_cell_angle_beta   109.60329226
_cell_angle_gamma   109.38302340
_symmetry_Int_Tables_number   1
_chemical_formula_structural   La5In2Ru2Rh
_chemical_formula_sum   'La10 In4 Ru4 Rh2'
_cell_volume   533.00978532
_cell_formula_units_Z   2
loop_
 _symmetry_equiv_pos_site_id
 _symmetry_equiv_pos_as_xyz
  1  'x, y, z'
loop_
 _atom_site_type_symbol
 _atom_site_label
 _atom_site_symmetry_multiplicity
 _atom_site_fract_x
 _atom_site_fract_y
 _atom_site_fract_z
 _atom_site_occupancy
  La  La0  1  0.250000  0.687588  0.437589  1
  La  La1  1  0.750000  0.812412  0.062412  1
  La  La2  1  0.437116  0.250000  0.687115  1
  La  La3  1  0.688688  0.438689  0.250000  1
  La  La4  1  0.062885  0.750000  0.812885  1
  La  La5  1  0.811312  0.061312  0.750000  1
  La  La6  1  0.201054  0.202999  0.206082  1
  La  La7  1  0.496918  0.994972  0.293918  1
  La  La8  1  0.298946  0.505029  0.001945  1
  La  La9  1  0.003083  0.297001  0.498056  1
  In  In10  1  0.501120  0.998340  0.911197  1
  In  In11  1  0.587143  0.589923  0.588803  1
  In  In12  1  0.912857  0.501661  0.002781  1
  In  In13  1  0.998881  0.910077  0.497220  1
  Ru  Ru14  1  0.884166  0.250001  0.134166  1
  Ru  Ru15  1  0.137911  0.887911  0.250001  1
  Ru  Ru16  1  0.615833  0.750000  0.365833  1
  Ru  Ru17  1  0.362088  0.612088  0.750000  1
  Rh  Rh18  1  0.250001  0.132734  0.882734  1
  Rh  Rh19  1  0.750000  0.367265  0.617265  1
