# generated using pymatgen
data_Y8Ti5Si16Mo7
_symmetry_space_group_name_H-M   'P 1'
_cell_length_a   6.94476018
_cell_length_b   6.93687128
_cell_length_c   12.84425006
_cell_angle_alpha   89.88227911
_cell_angle_beta   90.01810870
_cell_angle_gamma   90.03402154
_symmetry_Int_Tables_number   1
_chemical_formula_structural   Y8Ti5Si16Mo7
_chemical_formula_sum   'Y8 Ti5 Si16 Mo7'
_cell_volume   618.76911153
_cell_formula_units_Z   1
loop_
 _symmetry_equiv_pos_site_id
 _symmetry_equiv_pos_as_xyz
  1  'x, y, z'
loop_
 _atom_site_type_symbol
 _atom_site_label
 _atom_site_symmetry_multiplicity
 _atom_site_fract_x
 _atom_site_fract_y
 _atom_site_fract_z
 _atom_site_occupancy
  Y  Y0  1  0.340633  0.002669  0.467323  1
  Y  Y1  1  0.498234  0.840355  0.718834  1
  Y  Y2  1  0.501278  0.160326  0.218611  1
  Y  Y3  1  0.839459  0.497162  0.280846  1
  Y  Y4  1  0.160204  0.501464  0.782715  1
  Y  Y5  1  0.659677  0.998243  0.968404  1
  Y  Y6  1  0.002222  0.339523  0.531828  1
  Y  Y7  1  0.996907  0.661312  0.031044  1
  Ti  Ti8  1  0.330100  0.330638  0.999433  1
  Ti  Ti9  1  0.168863  0.829589  0.250018  1
  Ti  Ti10  1  0.828633  0.171399  0.750388  1
  Ti  Ti11  1  0.669515  0.667062  0.499238  1
  Ti  Ti12  1  0.993879  0.841033  0.625995  1
  Si  Si13  1  0.203105  0.128966  0.683878  1
  Si  Si14  1  0.371995  0.702006  0.934012  1
  Si  Si15  1  0.629889  0.298683  0.433953  1
  Si  Si16  1  0.699796  0.371265  0.066281  1
  Si  Si17  1  0.300208  0.628489  0.565458  1
  Si  Si18  1  0.798087  0.871768  0.183740  1
  Si  Si19  1  0.126764  0.201118  0.316357  1
  Si  Si20  1  0.872866  0.799397  0.816037  1
  Si  Si21  1  0.288727  0.959580  0.062662  1
  Si  Si22  1  0.540494  0.788299  0.312518  1
  Si  Si23  1  0.458796  0.211545  0.812571  1
  Si  Si24  1  0.789397  0.542206  0.687788  1
  Si  Si25  1  0.210749  0.458773  0.186912  1
  Si  Si26  1  0.711170  0.042155  0.563160  1
  Si  Si27  1  0.958693  0.289462  0.937555  1
  Si  Si28  1  0.043146  0.710535  0.437385  1
  Mo  Mo29  1  0.160273  0.009669  0.875240  1
  Mo  Mo30  1  0.491626  0.658686  0.124124  1
  Mo  Mo31  1  0.508164  0.340930  0.623443  1
  Mo  Mo32  1  0.657642  0.491273  0.877722  1
  Mo  Mo33  1  0.342210  0.504923  0.374783  1
  Mo  Mo34  1  0.839722  0.990348  0.373263  1
  Mo  Mo35  1  0.006879  0.159154  0.126482  1
