# generated using pymatgen
data_Tb4Lu(SiAs)2
_symmetry_space_group_name_H-M   'P 1'
_cell_length_a   8.22073598
_cell_length_b   8.22073641
_cell_length_c   7.63160400
_cell_angle_alpha   90.00000000
_cell_angle_beta   90.00000000
_cell_angle_gamma   125.13783116
_symmetry_Int_Tables_number   1
_chemical_formula_structural   Tb4Lu(SiAs)2
_chemical_formula_sum   'Tb8 Lu2 Si4 As4'
_cell_volume   421.76288466
_cell_formula_units_Z   2
loop_
 _symmetry_equiv_pos_site_id
 _symmetry_equiv_pos_as_xyz
  1  'x, y, z'
loop_
 _atom_site_type_symbol
 _atom_site_label
 _atom_site_symmetry_multiplicity
 _atom_site_fract_x
 _atom_site_fract_y
 _atom_site_fract_z
 _atom_site_occupancy
  Tb  Tb0  1  0.035762  0.307796  0.331663  1
  Tb  Tb1  1  0.964238  0.692204  0.668337  1
  Tb  Tb2  1  0.464238  0.192204  0.831663  1
  Tb  Tb3  1  0.807796  0.535762  0.168337  1
  Tb  Tb4  1  0.535762  0.807796  0.168337  1
  Tb  Tb5  1  0.192204  0.464238  0.831663  1
  Tb  Tb6  1  0.692204  0.964238  0.668337  1
  Tb  Tb7  1  0.307796  0.035762  0.331663  1
  Lu  Lu8  1  0.000000  0.000000  0.000000  1
  Lu  Lu9  1  0.500000  0.500000  0.500000  1
  Si  Si10  1  0.377510  0.377510  0.123036  1
  Si  Si11  1  0.622490  0.622490  0.876964  1
  Si  Si12  1  0.122490  0.122490  0.623036  1
  Si  Si13  1  0.877510  0.877510  0.376964  1
  As  As14  1  0.799985  0.200015  0.000000  1
  As  As15  1  0.200015  0.799985  0.000000  1
  As  As16  1  0.700015  0.299985  0.500000  1
  As  As17  1  0.299985  0.700015  0.500000  1
