# generated using pymatgen
data_Th2BRh6
_symmetry_space_group_name_H-M   'P 1'
_cell_length_a   5.94034726
_cell_length_b   5.94034771
_cell_length_c   5.94034700
_cell_angle_alpha   60.00000951
_cell_angle_beta   60.00000703
_cell_angle_gamma   60.00000395
_symmetry_Int_Tables_number   1
_chemical_formula_structural   Th2BRh6
_chemical_formula_sum   'Th2 B1 Rh6'
_cell_volume   148.22470141
_cell_formula_units_Z   1
loop_
 _symmetry_equiv_pos_site_id
 _symmetry_equiv_pos_as_xyz
  1  'x, y, z'
loop_
 _atom_site_type_symbol
 _atom_site_label
 _atom_site_symmetry_multiplicity
 _atom_site_fract_x
 _atom_site_fract_y
 _atom_site_fract_z
 _atom_site_occupancy
  Th  Th0  1  0.250000  0.250000  0.250000  1
  Th  Th1  1  0.750000  0.750000  0.750000  1
  B  B2  1  0.000000  0.000000  0.000000  1
  Rh  Rh3  1  0.745292  0.254709  0.254709  1
  Rh  Rh4  1  0.254709  0.745292  0.254709  1
  Rh  Rh5  1  0.745291  0.745291  0.254710  1
  Rh  Rh6  1  0.254710  0.745291  0.745291  1
  Rh  Rh7  1  0.254709  0.254709  0.745292  1
  Rh  Rh8  1  0.745291  0.254710  0.745291  1
