# generated using pymatgen
data_DyEr9(SnSb2)2
_symmetry_space_group_name_H-M   'P 1'
_cell_length_a   8.90330004
_cell_length_b   8.88380950
_cell_length_c   6.36138700
_cell_angle_alpha   90.00000000
_cell_angle_beta   90.00000000
_cell_angle_gamma   119.92556545
_symmetry_Int_Tables_number   1
_chemical_formula_structural   DyEr9(SnSb2)2
_chemical_formula_sum   'Dy1 Er9 Sn2 Sb4'
_cell_volume   436.07174733
_cell_formula_units_Z   1
loop_
 _symmetry_equiv_pos_site_id
 _symmetry_equiv_pos_as_xyz
  1  'x, y, z'
loop_
 _atom_site_type_symbol
 _atom_site_label
 _atom_site_symmetry_multiplicity
 _atom_site_fract_x
 _atom_site_fract_y
 _atom_site_fract_z
 _atom_site_occupancy
  Dy  Dy0  1  0.000894  0.243402  0.250000  1
  Er  Er1  1  0.001040  0.757979  0.750000  1
  Er  Er2  1  0.755764  0.756479  0.250000  1
  Er  Er3  1  0.755630  0.999051  0.750000  1
  Er  Er4  1  0.243914  0.242172  0.750000  1
  Er  Er5  1  0.243818  0.001525  0.250000  1
  Er  Er6  1  0.333755  0.666860  0.500000  1
  Er  Er7  1  0.665229  0.332603  0.999965  1
  Er  Er8  1  0.665229  0.332603  0.500035  1
  Er  Er9  1  0.333755  0.666860  0.000000  1
  Sn  Sn10  1  0.391207  0.998853  0.750000  1
  Sn  Sn11  1  0.392285  0.392684  0.250000  1
  Sb  Sb12  1  0.999386  0.609594  0.250000  1
  Sb  Sb13  1  0.999383  0.390198  0.750000  1
  Sb  Sb14  1  0.609758  0.609474  0.750000  1
  Sb  Sb15  1  0.608950  0.999666  0.250000  1
