# generated using pymatgen
data_Dy2Zr2In3Co2
_symmetry_space_group_name_H-M   'P 1'
_cell_length_a   3.49831800
_cell_length_b   7.27664506
_cell_length_c   7.97151720
_cell_angle_alpha   71.15884058
_cell_angle_beta   90.00000000
_cell_angle_gamma   90.00000000
_symmetry_Int_Tables_number   1
_chemical_formula_structural   Dy2Zr2In3Co2
_chemical_formula_sum   'Dy2 Zr2 In3 Co2'
_cell_volume   192.04996421
_cell_formula_units_Z   1
loop_
 _symmetry_equiv_pos_site_id
 _symmetry_equiv_pos_as_xyz
  1  'x, y, z'
loop_
 _atom_site_type_symbol
 _atom_site_label
 _atom_site_symmetry_multiplicity
 _atom_site_fract_x
 _atom_site_fract_y
 _atom_site_fract_z
 _atom_site_occupancy
  Dy  Dy0  1  0.500000  0.393810  0.317365  1
  Dy  Dy1  1  0.500000  0.606190  0.682635  1
  Zr  Zr2  1  0.500000  0.912406  0.220200  1
  Zr  Zr3  1  0.500000  0.087594  0.779800  1
  In  In4  1  0.000000  0.716969  0.005227  1
  In  In5  1  0.000000  0.283031  0.994773  1
  In  In6  1  0.000000  0.000000  0.500000  1
  Co  Co7  1  0.000000  0.665714  0.379586  1
  Co  Co8  1  0.000000  0.334286  0.620414  1
