# generated using pymatgen
data_Lu12Mn2CuSn2
_symmetry_space_group_name_H-M   'P 1'
_cell_length_a   8.21627000
_cell_length_b   8.21627122
_cell_length_c   8.21627000
_cell_angle_alpha   108.81714737
_cell_angle_beta   108.81715026
_cell_angle_gamma   110.78743282
_symmetry_Int_Tables_number   1
_chemical_formula_structural   Lu12Mn2CuSn2
_chemical_formula_sum   'Lu12 Mn2 Cu1 Sn2'
_cell_volume   426.80541933
_cell_formula_units_Z   1
loop_
 _symmetry_equiv_pos_site_id
 _symmetry_equiv_pos_as_xyz
  1  'x, y, z'
loop_
 _atom_site_type_symbol
 _atom_site_label
 _atom_site_symmetry_multiplicity
 _atom_site_fract_x
 _atom_site_fract_y
 _atom_site_fract_z
 _atom_site_occupancy
  Lu  Lu0  1  0.306911  0.306911  0.613823  1
  Lu  Lu1  1  0.693089  0.693089  0.386177  1
  Lu  Lu2  1  0.693089  0.306911  0.000000  1
  Lu  Lu3  1  0.306911  0.693089  0.000000  1
  Lu  Lu4  1  0.197797  0.436818  0.239021  1
  Lu  Lu5  1  0.802203  0.563182  0.760979  1
  Lu  Lu6  1  0.197797  0.958775  0.760979  1
  Lu  Lu7  1  0.958775  0.197797  0.760979  1
  Lu  Lu8  1  0.802203  0.041225  0.239021  1
  Lu  Lu9  1  0.041225  0.802203  0.239021  1
  Lu  Lu10  1  0.436818  0.197797  0.239021  1
  Lu  Lu11  1  0.563182  0.802203  0.760979  1
  Mn  Mn12  1  0.387571  0.387571  0.000000  1
  Mn  Mn13  1  0.612429  0.612429  0.000000  1
  Cu  Cu14  1  0.000000  0.000000  0.000000  1
  Sn  Sn15  1  0.000000  0.500000  0.500000  1
  Sn  Sn16  1  0.500000  0.000000  0.500000  1
