# generated using pymatgen
data_Y9HoBiPb7
_symmetry_space_group_name_H-M   'P 1'
_cell_length_a   8.27167000
_cell_length_b   15.63242999
_cell_length_c   8.32185800
_cell_angle_alpha   90.18074948
_cell_angle_beta   90.00000000
_cell_angle_gamma   90.00000000
_symmetry_Int_Tables_number   1
_chemical_formula_structural   Y9HoBiPb7
_chemical_formula_sum   'Y18 Ho2 Bi2 Pb14'
_cell_volume   1076.06333060
_cell_formula_units_Z   2
loop_
 _symmetry_equiv_pos_site_id
 _symmetry_equiv_pos_as_xyz
  1  'x, y, z'
loop_
 _atom_site_type_symbol
 _atom_site_label
 _atom_site_symmetry_multiplicity
 _atom_site_fract_x
 _atom_site_fract_y
 _atom_site_fract_z
 _atom_site_occupancy
  Y  Y0  1  0.620115  0.621658  0.160250  1
  Y  Y1  1  0.120115  0.878342  0.339750  1
  Y  Y2  1  0.378886  0.121744  0.844253  1
  Y  Y3  1  0.878886  0.378256  0.655747  1
  Y  Y4  1  0.375123  0.378557  0.841043  1
  Y  Y5  1  0.875123  0.121443  0.658957  1
  Y  Y6  1  0.622430  0.878674  0.158099  1
  Y  Y7  1  0.122430  0.621326  0.341901  1
  Y  Y8  1  0.455577  0.603480  0.668921  1
  Y  Y9  1  0.955577  0.896520  0.831079  1
  Y  Y10  1  0.545295  0.103216  0.324565  1
  Y  Y11  1  0.045295  0.396784  0.175435  1
  Y  Y12  1  0.539970  0.397952  0.330574  1
  Y  Y13  1  0.039970  0.102048  0.169426  1
  Y  Y14  1  0.463029  0.897270  0.676642  1
  Y  Y15  1  0.963029  0.602730  0.823358  1
  Y  Y16  1  0.790815  0.750428  0.498075  1
  Y  Y17  1  0.290815  0.749572  0.001925  1
  Ho  Ho18  1  0.209222  0.251636  0.501936  1
  Ho  Ho19  1  0.709222  0.248364  0.998064  1
  Bi  Bi20  1  0.723134  0.455348  0.971593  1
  Bi  Bi21  1  0.223134  0.044652  0.528407  1
  Pb  Pb22  1  0.278689  0.956773  0.030785  1
  Pb  Pb23  1  0.778689  0.543227  0.469215  1
  Pb  Pb24  1  0.278538  0.542998  0.031239  1
  Pb  Pb25  1  0.778538  0.957002  0.468761  1
  Pb  Pb26  1  0.719346  0.043173  0.968041  1
  Pb  Pb27  1  0.219346  0.456827  0.531959  1
  Pb  Pb28  1  0.427356  0.751543  0.372596  1
  Pb  Pb29  1  0.927356  0.748457  0.127404  1
  Pb  Pb30  1  0.571236  0.250008  0.627898  1
  Pb  Pb31  1  0.071236  0.249992  0.872102  1
  Pb  Pb32  1  0.648906  0.748469  0.847153  1
  Pb  Pb33  1  0.148906  0.751531  0.652847  1
  Pb  Pb34  1  0.352332  0.250339  0.154435  1
  Pb  Pb35  1  0.852332  0.249661  0.345565  1
