# generated using pymatgen
data_Pm2TaIr3
_symmetry_space_group_name_H-M   'P 1'
_cell_length_a   5.30145109
_cell_length_b   5.30145049
_cell_length_c   5.30144950
_cell_angle_alpha   65.64570316
_cell_angle_beta   65.64571183
_cell_angle_gamma   65.64569148
_symmetry_Int_Tables_number   1
_chemical_formula_structural   Pm2TaIr3
_chemical_formula_sum   'Pm2 Ta1 Ir3'
_cell_volume   118.27272448
_cell_formula_units_Z   1
loop_
 _symmetry_equiv_pos_site_id
 _symmetry_equiv_pos_as_xyz
  1  'x, y, z'
loop_
 _atom_site_type_symbol
 _atom_site_label
 _atom_site_symmetry_multiplicity
 _atom_site_fract_x
 _atom_site_fract_y
 _atom_site_fract_z
 _atom_site_occupancy
  Pm  Pm0  1  0.750019  0.750019  0.750019  1
  Pm  Pm1  1  0.499981  0.499981  0.499981  1
  Ta  Ta2  1  0.125000  0.125000  0.125000  1
  Ir  Ir3  1  0.625000  0.125000  0.125000  1
  Ir  Ir4  1  0.125000  0.625000  0.125000  1
  Ir  Ir5  1  0.125000  0.125000  0.625000  1
