# generated using pymatgen
data_LiEr3(B6Os)2
_symmetry_space_group_name_H-M   'P 1'
_cell_length_a   3.57447200
_cell_length_b   8.96647750
_cell_length_c   11.33988279
_cell_angle_alpha   90.12162166
_cell_angle_beta   90.00000000
_cell_angle_gamma   90.00000000
_symmetry_Int_Tables_number   1
_chemical_formula_structural   LiEr3(B6Os)2
_chemical_formula_sum   'Li2 Er6 B24 Os4'
_cell_volume   363.44721847
_cell_formula_units_Z   2
loop_
 _symmetry_equiv_pos_site_id
 _symmetry_equiv_pos_as_xyz
  1  'x, y, z'
loop_
 _atom_site_type_symbol
 _atom_site_label
 _atom_site_symmetry_multiplicity
 _atom_site_fract_x
 _atom_site_fract_y
 _atom_site_fract_z
 _atom_site_occupancy
  Li  Li0  1  0.000000  0.445115  0.124546  1
  Li  Li1  1  0.000000  0.554885  0.875453  1
  Er  Er2  1  0.000000  0.324359  0.411621  1
  Er  Er3  1  0.000000  0.675641  0.588379  1
  Er  Er4  1  0.000000  0.817768  0.084521  1
  Er  Er5  1  0.000000  0.182232  0.915479  1
  Er  Er6  1  0.000000  0.942791  0.369193  1
  Er  Er7  1  0.000000  0.057209  0.630808  1
  B  B8  1  0.500000  0.552236  0.431875  1
  B  B9  1  0.500000  0.447764  0.568125  1
  B  B10  1  0.500000  0.055841  0.065819  1
  B  B11  1  0.500000  0.944159  0.934181  1
  B  B12  1  0.500000  0.747515  0.417608  1
  B  B13  1  0.500000  0.252485  0.582392  1
  B  B14  1  0.500000  0.259672  0.080677  1
  B  B15  1  0.500000  0.740328  0.919323  1
  B  B16  1  0.500000  0.788263  0.262410  1
  B  B17  1  0.500000  0.211737  0.737590  1
  B  B18  1  0.500000  0.296453  0.233302  1
  B  B19  1  0.500000  0.703546  0.766698  1
  B  B20  1  0.500000  0.622566  0.179911  1
  B  B21  1  0.500000  0.377434  0.820089  1
  B  B22  1  0.500000  0.132908  0.313257  1
  B  B23  1  0.500000  0.867092  0.686743  1
  B  B24  1  0.500000  0.982548  0.210024  1
  B  B25  1  0.500000  0.017452  0.789976  1
  B  B26  1  0.500000  0.478434  0.284601  1
  B  B27  1  0.500000  0.521566  0.715399  1
  B  B28  1  0.500000  0.591514  0.025956  1
  B  B29  1  0.500000  0.408486  0.974044  1
  B  B30  1  0.500000  0.104205  0.471613  1
  B  B31  1  0.500000  0.895795  0.528387  1
  Os  Os32  1  0.000000  0.633979  0.315944  1
  Os  Os33  1  0.000000  0.366021  0.684056  1
  Os  Os34  1  0.000000  0.143507  0.176489  1
  Os  Os35  1  0.000000  0.856493  0.823511  1
