# generated using pymatgen
data_Ce3Nd(MgIr)4
_symmetry_space_group_name_H-M   'P 1'
_cell_length_a   4.10161900
_cell_length_b   7.14644204
_cell_length_c   8.75012405
_cell_angle_alpha   89.10874632
_cell_angle_beta   90.00000000
_cell_angle_gamma   90.00000000
_symmetry_Int_Tables_number   1
_chemical_formula_structural   Ce3Nd(MgIr)4
_chemical_formula_sum   'Ce3 Nd1 Mg4 Ir4'
_cell_volume   256.45245296
_cell_formula_units_Z   1
loop_
 _symmetry_equiv_pos_site_id
 _symmetry_equiv_pos_as_xyz
  1  'x, y, z'
loop_
 _atom_site_type_symbol
 _atom_site_label
 _atom_site_symmetry_multiplicity
 _atom_site_fract_x
 _atom_site_fract_y
 _atom_site_fract_z
 _atom_site_occupancy
  Ce  Ce0  1  0.750000  0.461955  0.821072  1
  Ce  Ce1  1  0.750000  0.966088  0.681170  1
  Ce  Ce2  1  0.250000  0.038519  0.314476  1
  Nd  Nd3  1  0.250000  0.539419  0.181013  1
  Mg  Mg4  1  0.250000  0.636617  0.556266  1
  Mg  Mg5  1  0.750000  0.367443  0.443033  1
  Mg  Mg6  1  0.750000  0.862688  0.054272  1
  Mg  Mg7  1  0.250000  0.130968  0.943863  1
  Ir  Ir8  1  0.250000  0.740821  0.859925  1
  Ir  Ir9  1  0.750000  0.240397  0.134508  1
  Ir  Ir10  1  0.750000  0.769391  0.373812  1
  Ir  Ir11  1  0.250000  0.245695  0.636593  1
