# generated using pymatgen
data_Cs4Fe4Cl10O
_symmetry_space_group_name_H-M   'P 1'
_cell_length_a   11.43451768
_cell_length_b   11.43451723
_cell_length_c   9.75043342
_cell_angle_alpha   80.49491354
_cell_angle_beta   80.49491673
_cell_angle_gamma   90.86097715
_symmetry_Int_Tables_number   1
_chemical_formula_structural   Cs4Fe4Cl10O
_chemical_formula_sum   'Cs8 Fe8 Cl20 O2'
_cell_volume   1238.91396550
_cell_formula_units_Z   2
loop_
 _symmetry_equiv_pos_site_id
 _symmetry_equiv_pos_as_xyz
  1  'x, y, z'
loop_
 _atom_site_type_symbol
 _atom_site_label
 _atom_site_symmetry_multiplicity
 _atom_site_fract_x
 _atom_site_fract_y
 _atom_site_fract_z
 _atom_site_occupancy
  Cs  Cs0  1  0.296352  0.445184  0.136855  1
  Cs  Cs1  1  0.713024  0.972493  0.873670  1
  Cs  Cs2  1  0.972493  0.713024  0.373670  1
  Cs  Cs3  1  0.554816  0.703648  0.363145  1
  Cs  Cs4  1  0.445184  0.296352  0.636855  1
  Cs  Cs5  1  0.027507  0.286976  0.626330  1
  Cs  Cs6  1  0.703648  0.554816  0.863145  1
  Cs  Cs7  1  0.286976  0.027507  0.126330  1
  Fe  Fe8  1  0.947801  0.235344  0.122777  1
  Fe  Fe9  1  0.052199  0.764656  0.877223  1
  Fe  Fe10  1  0.653216  0.229511  0.134395  1
  Fe  Fe11  1  0.770489  0.346784  0.365605  1
  Fe  Fe12  1  0.229511  0.653216  0.634395  1
  Fe  Fe13  1  0.346784  0.770489  0.865605  1
  Fe  Fe14  1  0.764656  0.052199  0.377223  1
  Fe  Fe15  1  0.235344  0.947801  0.622777  1
  Cl  Cl16  1  0.132258  0.264561  0.965857  1
  Cl  Cl17  1  0.971906  0.028094  0.250000  1
  Cl  Cl18  1  0.735439  0.867742  0.534143  1
  Cl  Cl19  1  0.393756  0.985708  0.769883  1
  Cl  Cl20  1  0.258344  0.505940  0.486168  1
  Cl  Cl21  1  0.014292  0.606244  0.730117  1
  Cl  Cl22  1  0.822326  0.272398  0.929353  1
  Cl  Cl23  1  0.409227  0.590773  0.750000  1
  Cl  Cl24  1  0.505940  0.258344  0.986168  1
  Cl  Cl25  1  0.028094  0.971906  0.750000  1
  Cl  Cl26  1  0.272398  0.822326  0.429353  1
  Cl  Cl27  1  0.985708  0.393756  0.269883  1
  Cl  Cl28  1  0.867742  0.735439  0.034143  1
  Cl  Cl29  1  0.741656  0.494060  0.513832  1
  Cl  Cl30  1  0.606244  0.014292  0.230117  1
  Cl  Cl31  1  0.727602  0.177674  0.570647  1
  Cl  Cl32  1  0.177674  0.727602  0.070647  1
  Cl  Cl33  1  0.590773  0.409227  0.250000  1
  Cl  Cl34  1  0.264561  0.132258  0.465857  1
  Cl  Cl35  1  0.494060  0.741656  0.013832  1
  O  O36  1  0.216047  0.783953  0.750000  1
  O  O37  1  0.783953  0.216047  0.250000  1
