# generated using pymatgen
data_Ac2AlN3
_symmetry_space_group_name_H-M   'P 1'
_cell_length_a   6.33874672
_cell_length_b   6.33874891
_cell_length_c   12.37707291
_cell_angle_alpha   88.92315068
_cell_angle_beta   88.92314106
_cell_angle_gamma   125.25629693
_symmetry_Int_Tables_number   1
_chemical_formula_structural   Ac2AlN3
_chemical_formula_sum   'Ac8 Al4 N12'
_cell_volume   405.75091083
_cell_formula_units_Z   4
loop_
 _symmetry_equiv_pos_site_id
 _symmetry_equiv_pos_as_xyz
  1  'x, y, z'
loop_
 _atom_site_type_symbol
 _atom_site_label
 _atom_site_symmetry_multiplicity
 _atom_site_fract_x
 _atom_site_fract_y
 _atom_site_fract_z
 _atom_site_occupancy
  Ac  Ac0  1  0.638748  0.847444  0.074250  1
  Ac  Ac1  1  0.460708  0.052951  0.349329  1
  Ac  Ac2  1  0.052951  0.460708  0.849329  1
  Ac  Ac3  1  0.539292  0.947049  0.650671  1
  Ac  Ac4  1  0.361252  0.152556  0.925750  1
  Ac  Ac5  1  0.847444  0.638748  0.574250  1
  Ac  Ac6  1  0.152556  0.361252  0.425750  1
  Ac  Ac7  1  0.947049  0.539292  0.150671  1
  Al  Al8  1  0.763300  0.762771  0.833590  1
  Al  Al9  1  0.237229  0.236700  0.666410  1
  Al  Al10  1  0.236700  0.237229  0.166410  1
  Al  Al11  1  0.762771  0.763300  0.333590  1
  N  N12  1  0.079985  0.920015  0.750000  1
  N  N13  1  0.920015  0.079985  0.250000  1
  N  N14  1  0.502608  0.497392  0.750000  1
  N  N15  1  0.497392  0.502608  0.250000  1
  N  N16  1  0.350405  0.015032  0.133096  1
  N  N17  1  0.984968  0.649595  0.366904  1
  N  N18  1  0.649595  0.984968  0.866904  1
  N  N19  1  0.015032  0.350405  0.633096  1
  N  N20  1  0.819229  0.625455  0.962668  1
  N  N21  1  0.625455  0.819229  0.462668  1
  N  N22  1  0.180771  0.374545  0.037332  1
  N  N23  1  0.374545  0.180771  0.537332  1
