# generated using pymatgen
data_Dy3BiIr2(RhO7)2
_symmetry_space_group_name_H-M   'P 1'
_cell_length_a   7.27981942
_cell_length_b   7.28583437
_cell_length_c   7.28583398
_cell_angle_alpha   59.84420798
_cell_angle_beta   59.75614407
_cell_angle_gamma   59.75614324
_symmetry_Int_Tables_number   1
_chemical_formula_structural   Dy3BiIr2(RhO7)2
_chemical_formula_sum   'Dy3 Bi1 Ir2 Rh2 O14'
_cell_volume   271.92140024
_cell_formula_units_Z   1
loop_
 _symmetry_equiv_pos_site_id
 _symmetry_equiv_pos_as_xyz
  1  'x, y, z'
loop_
 _atom_site_type_symbol
 _atom_site_label
 _atom_site_symmetry_multiplicity
 _atom_site_fract_x
 _atom_site_fract_y
 _atom_site_fract_z
 _atom_site_occupancy
  Dy  Dy0  1  0.125000  0.625000  0.125000  1
  Dy  Dy1  1  0.625000  0.125000  0.125000  1
  Dy  Dy2  1  0.125000  0.125000  0.625000  1
  Bi  Bi3  1  0.125000  0.125000  0.125000  1
  Ir  Ir4  1  0.625000  0.625000  0.625000  1
  Ir  Ir5  1  0.125000  0.625000  0.625000  1
  Rh  Rh6  1  0.625000  0.625000  0.125000  1
  Rh  Rh7  1  0.625000  0.125000  0.625000  1
  O  O8  1  0.251754  0.254116  0.254116  1
  O  O9  1  0.286843  0.704133  0.291420  1
  O  O10  1  0.963157  0.958580  0.545867  1
  O  O11  1  0.535940  0.959013  0.540785  1
  O  O12  1  0.714060  0.709215  0.290987  1
  O  O13  1  0.959138  0.540769  0.540769  1
  O  O14  1  0.714060  0.290987  0.709215  1
  O  O15  1  0.286843  0.291420  0.704133  1
  O  O16  1  0.707685  0.286811  0.286811  1
  O  O17  1  0.290862  0.709231  0.709231  1
  O  O18  1  0.963157  0.545867  0.958580  1
  O  O19  1  0.535940  0.540785  0.959013  1
  O  O20  1  0.998246  0.995884  0.995884  1
  O  O21  1  0.542315  0.963189  0.963189  1
