# generated using pymatgen
data_Rb3Dy(IO3)6
_symmetry_space_group_name_H-M   'P 1'
_cell_length_a   7.28389525
_cell_length_b   7.27938340
_cell_length_c   11.09031873
_cell_angle_alpha   87.67195478
_cell_angle_beta   107.58213943
_cell_angle_gamma   107.66787295
_symmetry_Int_Tables_number   1
_chemical_formula_structural   Rb3Dy(IO3)6
_chemical_formula_sum   'Rb3 Dy1 I6 O18'
_cell_volume   533.27847692
_cell_formula_units_Z   1
loop_
 _symmetry_equiv_pos_site_id
 _symmetry_equiv_pos_as_xyz
  1  'x, y, z'
loop_
 _atom_site_type_symbol
 _atom_site_label
 _atom_site_symmetry_multiplicity
 _atom_site_fract_x
 _atom_site_fract_y
 _atom_site_fract_z
 _atom_site_occupancy
  Rb  Rb0  1  0.000000  0.000000  0.000000  1
  Rb  Rb1  1  0.830843  0.027121  0.601305  1
  Rb  Rb2  1  0.169157  0.972879  0.398695  1
  Dy  Dy3  1  0.500000  0.500000  0.000000  1
  I  I4  1  0.030332  0.474002  0.191441  1
  I  I5  1  0.969668  0.525998  0.808559  1
  I  I6  1  0.559279  0.960273  0.192962  1
  I  I7  1  0.440721  0.039727  0.807038  1
  I  I8  1  0.415839  0.554869  0.635752  1
  I  I9  1  0.584161  0.445131  0.364248  1
  O  O10  1  0.838862  0.539641  0.055655  1
  O  O11  1  0.161138  0.460359  0.944345  1
  O  O12  1  0.956727  0.549643  0.319640  1
  O  O13  1  0.043273  0.450357  0.680360  1
  O  O14  1  0.921419  0.210615  0.183717  1
  O  O15  1  0.078581  0.789385  0.816283  1
  O  O16  1  0.572181  0.819044  0.060310  1
  O  O17  1  0.427819  0.180956  0.939690  1
  O  O18  1  0.294665  0.849428  0.187023  1
  O  O19  1  0.705335  0.150572  0.812977  1
  O  O20  1  0.691374  0.844530  0.325581  1
  O  O21  1  0.308626  0.155470  0.674419  1
  O  O22  1  0.520605  0.598508  0.810439  1
  O  O23  1  0.479395  0.401492  0.189561  1
  O  O24  1  0.661854  0.572145  0.613396  1
  O  O25  1  0.338146  0.427855  0.386604  1
  O  O26  1  0.408699  0.800089  0.601132  1
  O  O27  1  0.591301  0.199911  0.398868  1
