# generated using pymatgen
data_YFe2(NiP)3
_symmetry_space_group_name_H-M   'P 1'
_cell_length_a   3.71128300
_cell_length_b   10.30351300
_cell_length_c   11.88074400
_cell_angle_alpha   90.00000000
_cell_angle_beta   90.00000000
_cell_angle_gamma   90.00000000
_symmetry_Int_Tables_number   1
_chemical_formula_structural   YFe2(NiP)3
_chemical_formula_sum   'Y4 Fe8 Ni12 P12'
_cell_volume   454.31077133
_cell_formula_units_Z   4
loop_
 _symmetry_equiv_pos_site_id
 _symmetry_equiv_pos_as_xyz
  1  'x, y, z'
loop_
 _atom_site_type_symbol
 _atom_site_label
 _atom_site_symmetry_multiplicity
 _atom_site_fract_x
 _atom_site_fract_y
 _atom_site_fract_z
 _atom_site_occupancy
  Y  Y0  1  0.250000  0.576574  0.704811  1
  Y  Y1  1  0.250000  0.923426  0.204811  1
  Y  Y2  1  0.750000  0.423426  0.295189  1
  Y  Y3  1  0.750000  0.076574  0.795189  1
  Fe  Fe4  1  0.250000  0.871408  0.701328  1
  Fe  Fe5  1  0.250000  0.628592  0.201328  1
  Fe  Fe6  1  0.750000  0.128592  0.298672  1
  Fe  Fe7  1  0.750000  0.371408  0.798672  1
  Fe  Fe8  1  0.250000  0.461142  0.932368  1
  Fe  Fe9  1  0.250000  0.038858  0.432368  1
  Fe  Fe10  1  0.750000  0.538858  0.067632  1
  Fe  Fe11  1  0.750000  0.961142  0.567632  1
  Ni  Ni12  1  0.250000  0.711619  0.993665  1
  Ni  Ni13  1  0.250000  0.788381  0.493665  1
  Ni  Ni14  1  0.750000  0.288381  0.006335  1
  Ni  Ni15  1  0.750000  0.211619  0.506335  1
  Ni  Ni16  1  0.250000  0.408312  0.485145  1
  Ni  Ni17  1  0.250000  0.091688  0.985145  1
  Ni  Ni18  1  0.750000  0.591688  0.514855  1
  Ni  Ni19  1  0.750000  0.908312  0.014855  1
  Ni  Ni20  1  0.250000  0.227995  0.170325  1
  Ni  Ni21  1  0.250000  0.272005  0.670325  1
  Ni  Ni22  1  0.750000  0.772005  0.829675  1
  Ni  Ni23  1  0.750000  0.727995  0.329675  1
  P  P24  1  0.250000  0.434757  0.113330  1
  P  P25  1  0.250000  0.065243  0.613330  1
  P  P26  1  0.750000  0.565243  0.886670  1
  P  P27  1  0.750000  0.934757  0.386670  1
  P  P28  1  0.250000  0.269793  0.862718  1
  P  P29  1  0.250000  0.230207  0.362718  1
  P  P30  1  0.750000  0.730207  0.137282  1
  P  P31  1  0.750000  0.769793  0.637282  1
  P  P32  1  0.250000  0.607537  0.390163  1
  P  P33  1  0.250000  0.892463  0.890163  1
  P  P34  1  0.750000  0.392463  0.609837  1
  P  P35  1  0.750000  0.107537  0.109837  1
