# generated using pymatgen
data_DyU5FeNi5Sb8
_symmetry_space_group_name_H-M   'P 1'
_cell_length_a   8.12185941
_cell_length_b   8.12054549
_cell_length_c   8.12075092
_cell_angle_alpha   109.54571067
_cell_angle_beta   109.26463217
_cell_angle_gamma   109.57664890
_symmetry_Int_Tables_number   1
_chemical_formula_structural   DyU5FeNi5Sb8
_chemical_formula_sum   'Dy1 U5 Fe1 Ni5 Sb8'
_cell_volume   412.43442133
_cell_formula_units_Z   1
loop_
 _symmetry_equiv_pos_site_id
 _symmetry_equiv_pos_as_xyz
  1  'x, y, z'
loop_
 _atom_site_type_symbol
 _atom_site_label
 _atom_site_symmetry_multiplicity
 _atom_site_fract_x
 _atom_site_fract_y
 _atom_site_fract_z
 _atom_site_occupancy
  Dy  Dy0  1  0.874948  0.249994  0.125027  1
  U  U1  1  0.626345  0.750080  0.374665  1
  U  U2  1  0.249269  0.124600  0.868402  1
  U  U3  1  0.743303  0.374710  0.624291  1
  U  U4  1  0.131057  0.880640  0.256260  1
  U  U5  1  0.375716  0.619249  0.750318  1
  Fe  Fe6  1  0.375663  0.250201  0.625207  1
  Ni  Ni7  1  0.124858  0.749713  0.874691  1
  Ni  Ni8  1  0.258022  0.630207  0.377724  1
  Ni  Ni9  1  0.747498  0.869639  0.128684  1
  Ni  Ni10  1  0.622216  0.381304  0.252554  1
  Ni  Ni11  1  0.871525  0.119777  0.742150  1
  Sb  Sb12  1  0.666550  0.500706  0.000811  1
  Sb  Sb13  1  0.500017  0.998971  0.665495  1
  Sb  Sb14  1  0.000071  0.662201  0.498298  1
  Sb  Sb15  1  0.836031  0.837700  0.837846  1
  Sb  Sb16  1  0.501721  0.001941  0.164164  1
  Sb  Sb17  1  0.162423  0.498254  0.000226  1
  Sb  Sb18  1  0.998552  0.165069  0.499863  1
  Sb  Sb19  1  0.334216  0.335044  0.333324  1
