# generated using pymatgen
data_Sm8SiPd19Pt5
_symmetry_space_group_name_H-M   'P 1'
_cell_length_a   8.41819400
_cell_length_b   8.42024100
_cell_length_c   8.42890300
_cell_angle_alpha   90.00000000
_cell_angle_beta   90.00000000
_cell_angle_gamma   90.00000000
_symmetry_Int_Tables_number   1
_chemical_formula_structural   Sm8SiPd19Pt5
_chemical_formula_sum   'Sm8 Si1 Pd19 Pt5'
_cell_volume   597.46780480
_cell_formula_units_Z   1
loop_
 _symmetry_equiv_pos_site_id
 _symmetry_equiv_pos_as_xyz
  1  'x, y, z'
loop_
 _atom_site_type_symbol
 _atom_site_label
 _atom_site_symmetry_multiplicity
 _atom_site_fract_x
 _atom_site_fract_y
 _atom_site_fract_z
 _atom_site_occupancy
  Sm  Sm0  1  0.252728  0.253118  0.253354  1
  Sm  Sm1  1  0.746754  0.746350  0.746112  1
  Sm  Sm2  1  0.746754  0.746350  0.253888  1
  Sm  Sm3  1  0.747272  0.253118  0.746646  1
  Sm  Sm4  1  0.252728  0.253118  0.746646  1
  Sm  Sm5  1  0.253246  0.746350  0.253888  1
  Sm  Sm6  1  0.253246  0.746350  0.746112  1
  Sm  Sm7  1  0.747272  0.253118  0.253354  1
  Si  Si8  1  0.000000  0.003983  0.000000  1
  Pd  Pd9  1  0.257700  0.499889  0.000000  1
  Pd  Pd10  1  0.742300  0.499889  0.000000  1
  Pd  Pd11  1  0.000000  0.257611  0.500000  1
  Pd  Pd12  1  0.500000  0.256302  0.000000  1
  Pd  Pd13  1  0.000000  0.741478  0.500000  1
  Pd  Pd14  1  0.500000  0.742351  0.000000  1
  Pd  Pd15  1  0.500000  0.999892  0.257100  1
  Pd  Pd16  1  0.258027  0.999910  0.500000  1
  Pd  Pd17  1  0.500000  0.999892  0.742900  1
  Pd  Pd18  1  0.741973  0.999910  0.500000  1
  Pd  Pd19  1  0.000000  0.500010  0.257827  1
  Pd  Pd20  1  0.000000  0.500010  0.742173  1
  Pd  Pd21  1  0.500000  0.252744  0.500000  1
  Pd  Pd22  1  0.500000  0.747499  0.500000  1
  Pd  Pd23  1  0.500000  0.499901  0.252749  1
  Pd  Pd24  1  0.500000  0.499901  0.747251  1
  Pd  Pd25  1  0.000000  0.721390  0.000000  1
  Pd  Pd26  1  0.000000  0.999219  0.281915  1
  Pd  Pd27  1  0.000000  0.999219  0.718085  1
  Pt  Pt28  1  0.252190  0.499897  0.500000  1
  Pt  Pt29  1  0.747810  0.499897  0.500000  1
  Pt  Pt30  1  0.279806  0.998870  0.000000  1
  Pt  Pt31  1  0.720194  0.998870  0.000000  1
  Pt  Pt32  1  0.000000  0.283594  0.000000  1
