# generated using pymatgen
data_Er4Th(CoO6)2
_symmetry_space_group_name_H-M   'P 1'
_cell_length_a   6.76511606
_cell_length_b   6.76511685
_cell_length_c   7.13761422
_cell_angle_alpha   74.72730391
_cell_angle_beta   74.72730330
_cell_angle_gamma   50.41576909
_symmetry_Int_Tables_number   1
_chemical_formula_structural   Er4Th(CoO6)2
_chemical_formula_sum   'Er4 Th1 Co2 O12'
_cell_volume   240.85165210
_cell_formula_units_Z   1
loop_
 _symmetry_equiv_pos_site_id
 _symmetry_equiv_pos_as_xyz
  1  'x, y, z'
loop_
 _atom_site_type_symbol
 _atom_site_label
 _atom_site_symmetry_multiplicity
 _atom_site_fract_x
 _atom_site_fract_y
 _atom_site_fract_z
 _atom_site_occupancy
  Er  Er0  1  0.307961  0.307961  0.349376  1
  Er  Er1  1  0.692039  0.692039  0.650624  1
  Er  Er2  1  0.304131  0.304131  0.844364  1
  Er  Er3  1  0.695869  0.695869  0.155636  1
  Th  Th4  1  0.000000  0.000000  0.500000  1
  Co  Co5  1  0.752902  0.247098  0.000000  1
  Co  Co6  1  0.247098  0.752902  0.000000  1
  O  O7  1  0.901595  0.419530  0.920089  1
  O  O8  1  0.419530  0.901595  0.920089  1
  O  O9  1  0.098405  0.580470  0.079911  1
  O  O10  1  0.580470  0.098405  0.079911  1
  O  O11  1  0.096051  0.594140  0.576981  1
  O  O12  1  0.594140  0.096051  0.576981  1
  O  O13  1  0.903949  0.405860  0.423019  1
  O  O14  1  0.405860  0.903949  0.423019  1
  O  O15  1  0.000319  0.000319  0.826695  1
  O  O16  1  0.999681  0.999681  0.173305  1
  O  O17  1  0.499500  0.499500  0.820927  1
  O  O18  1  0.500500  0.500500  0.179073  1
