# generated using pymatgen
data_DyHo4Hf5(Si5Ir2)4
_symmetry_space_group_name_H-M   'P 1'
_cell_length_a   12.48673813
_cell_length_b   12.48686013
_cell_length_c   4.16422900
_cell_angle_alpha   90.00000000
_cell_angle_beta   90.00000000
_cell_angle_gamma   90.01677559
_symmetry_Int_Tables_number   1
_chemical_formula_structural   DyHo4Hf5(Si5Ir2)4
_chemical_formula_sum   'Dy1 Ho4 Hf5 Si20 Ir8'
_cell_volume   649.28719333
_cell_formula_units_Z   1
loop_
 _symmetry_equiv_pos_site_id
 _symmetry_equiv_pos_as_xyz
  1  'x, y, z'
loop_
 _atom_site_type_symbol
 _atom_site_label
 _atom_site_symmetry_multiplicity
 _atom_site_fract_x
 _atom_site_fract_y
 _atom_site_fract_z
 _atom_site_occupancy
  Dy  Dy0  1  0.884121  0.384706  0.500000  1
  Ho  Ho1  1  0.999984  0.999996  0.000000  1
  Ho  Ho2  1  0.115861  0.615322  0.500000  1
  Ho  Ho3  1  0.384682  0.115877  0.500000  1
  Ho  Ho4  1  0.615330  0.884119  0.500000  1
  Hf  Hf5  1  0.499990  0.499999  0.000000  1
  Hf  Hf6  1  0.673715  0.175212  0.500000  1
  Hf  Hf7  1  0.326261  0.824763  0.500000  1
  Hf  Hf8  1  0.175295  0.326251  0.500000  1
  Hf  Hf9  1  0.824752  0.673794  0.500000  1
  Si  Si10  1  0.565732  0.067824  0.000000  1
  Si  Si11  1  0.434269  0.932175  0.000000  1
  Si  Si12  1  0.067894  0.434269  0.000000  1
  Si  Si13  1  0.932177  0.565813  0.000000  1
  Si  Si14  1  0.665521  0.701593  0.000000  1
  Si  Si15  1  0.334470  0.298421  0.000000  1
  Si  Si16  1  0.163906  0.800495  0.000000  1
  Si  Si17  1  0.836089  0.199436  0.000000  1
  Si  Si18  1  0.298429  0.665517  0.000000  1
  Si  Si19  1  0.701502  0.334477  0.000000  1
  Si  Si20  1  0.199527  0.163903  0.000000  1
  Si  Si21  1  0.800490  0.836083  0.000000  1
  Si  Si22  1  0.650992  0.508027  0.500000  1
  Si  Si23  1  0.348979  0.491968  0.500000  1
  Si  Si24  1  0.156621  0.992724  0.500000  1
  Si  Si25  1  0.843389  0.007271  0.500000  1
  Si  Si26  1  0.491976  0.651023  0.500000  1
  Si  Si27  1  0.508020  0.348979  0.500000  1
  Si  Si28  1  0.007286  0.156572  0.500000  1
  Si  Si29  1  0.992716  0.843382  0.500000  1
  Ir  Ir30  1  0.741782  0.521899  0.000000  1
  Ir  Ir31  1  0.258069  0.478280  0.000000  1
  Ir  Ir32  1  0.246604  0.977853  0.000000  1
  Ir  Ir33  1  0.753396  0.022123  0.000000  1
  Ir  Ir34  1  0.478255  0.741983  0.000000  1
  Ir  Ir35  1  0.521721  0.258014  0.000000  1
  Ir  Ir36  1  0.022309  0.246403  0.000000  1
  Ir  Ir37  1  0.977889  0.753451  0.000000  1
