# generated using pymatgen
data_Tb4HoInSi2
_symmetry_space_group_name_H-M   'P 1'
_cell_length_a   7.56755200
_cell_length_b   7.56755200
_cell_length_c   14.03935500
_cell_angle_alpha   90.00000000
_cell_angle_beta   90.00000000
_cell_angle_gamma   90.00000000
_symmetry_Int_Tables_number   1
_chemical_formula_structural   Tb4HoInSi2
_chemical_formula_sum   'Tb16 Ho4 In4 Si8'
_cell_volume   804.00358179
_cell_formula_units_Z   4
loop_
 _symmetry_equiv_pos_site_id
 _symmetry_equiv_pos_as_xyz
  1  'x, y, z'
loop_
 _atom_site_type_symbol
 _atom_site_label
 _atom_site_symmetry_multiplicity
 _atom_site_fract_x
 _atom_site_fract_y
 _atom_site_fract_z
 _atom_site_occupancy
  Tb  Tb0  1  0.673000  0.666142  0.609835  1
  Tb  Tb1  1  0.673000  0.333858  0.109835  1
  Tb  Tb2  1  0.827000  0.833858  0.390165  1
  Tb  Tb3  1  0.173000  0.833858  0.890165  1
  Tb  Tb4  1  0.327000  0.333858  0.609835  1
  Tb  Tb5  1  0.327000  0.666142  0.109835  1
  Tb  Tb6  1  0.173000  0.166142  0.390165  1
  Tb  Tb7  1  0.827000  0.166142  0.890165  1
  Tb  Tb8  1  0.666142  0.327000  0.390165  1
  Tb  Tb9  1  0.333858  0.327000  0.890165  1
  Tb  Tb10  1  0.166142  0.827000  0.609835  1
  Tb  Tb11  1  0.833858  0.827000  0.109835  1
  Tb  Tb12  1  0.333858  0.673000  0.390165  1
  Tb  Tb13  1  0.666142  0.673000  0.890165  1
  Tb  Tb14  1  0.833858  0.173000  0.609835  1
  Tb  Tb15  1  0.166142  0.173000  0.109835  1
  Ho  Ho16  1  0.000000  0.500000  0.757266  1
  Ho  Ho17  1  0.000000  0.500000  0.257266  1
  Ho  Ho18  1  0.500000  0.000000  0.242734  1
  Ho  Ho19  1  0.500000  0.000000  0.742734  1
  In  In20  1  0.000000  0.500000  0.496790  1
  In  In21  1  0.000000  0.500000  0.996790  1
  In  In22  1  0.500000  0.000000  0.503210  1
  In  In23  1  0.500000  0.000000  0.003210  1
  Si  Si24  1  0.875498  0.875498  0.750000  1
  Si  Si25  1  0.875498  0.124502  0.250000  1
  Si  Si26  1  0.624502  0.624502  0.250000  1
  Si  Si27  1  0.375498  0.624502  0.750000  1
  Si  Si28  1  0.124502  0.124502  0.750000  1
  Si  Si29  1  0.124502  0.875498  0.250000  1
  Si  Si30  1  0.375498  0.375498  0.250000  1
  Si  Si31  1  0.624502  0.375498  0.750000  1
