# generated using pymatgen
data_CsTb2LuTe5
_symmetry_space_group_name_H-M   'P 1'
_cell_length_a   4.40670000
_cell_length_b   13.37652900
_cell_length_c   23.69292100
_cell_angle_alpha   90.00000000
_cell_angle_beta   90.00000000
_cell_angle_gamma   90.00000000
_symmetry_Int_Tables_number   1
_chemical_formula_structural   CsTb2LuTe5
_chemical_formula_sum   'Cs4 Tb8 Lu4 Te20'
_cell_volume   1396.61122195
_cell_formula_units_Z   4
loop_
 _symmetry_equiv_pos_site_id
 _symmetry_equiv_pos_as_xyz
  1  'x, y, z'
loop_
 _atom_site_type_symbol
 _atom_site_label
 _atom_site_symmetry_multiplicity
 _atom_site_fract_x
 _atom_site_fract_y
 _atom_site_fract_z
 _atom_site_occupancy
  Cs  Cs0  1  0.250000  0.354399  0.088662  1
  Cs  Cs1  1  0.750000  0.645601  0.911338  1
  Cs  Cs2  1  0.750000  0.854399  0.411338  1
  Cs  Cs3  1  0.250000  0.145601  0.588662  1
  Tb  Tb4  1  0.250000  0.454065  0.697326  1
  Tb  Tb5  1  0.750000  0.545935  0.302674  1
  Tb  Tb6  1  0.750000  0.954065  0.802674  1
  Tb  Tb7  1  0.250000  0.045935  0.197326  1
  Tb  Tb8  1  0.250000  0.796237  0.674383  1
  Tb  Tb9  1  0.750000  0.203763  0.325617  1
  Tb  Tb10  1  0.750000  0.296237  0.825617  1
  Tb  Tb11  1  0.250000  0.703763  0.174383  1
  Lu  Lu12  1  0.250000  0.392710  0.444326  1
  Lu  Lu13  1  0.750000  0.607290  0.555674  1
  Lu  Lu14  1  0.750000  0.892710  0.055674  1
  Lu  Lu15  1  0.250000  0.107290  0.944326  1
  Te  Te16  1  0.250000  0.447644  0.567495  1
  Te  Te17  1  0.750000  0.552356  0.432505  1
  Te  Te18  1  0.750000  0.947644  0.932505  1
  Te  Te19  1  0.250000  0.052356  0.067495  1
  Te  Te20  1  0.250000  0.763201  0.545606  1
  Te  Te21  1  0.750000  0.236799  0.454394  1
  Te  Te22  1  0.750000  0.263201  0.954394  1
  Te  Te23  1  0.250000  0.736799  0.045606  1
  Te  Te24  1  0.250000  0.798084  0.803943  1
  Te  Te25  1  0.750000  0.201916  0.196057  1
  Te  Te26  1  0.750000  0.298084  0.696057  1
  Te  Te27  1  0.250000  0.701916  0.303943  1
  Te  Te28  1  0.250000  0.453960  0.827305  1
  Te  Te29  1  0.750000  0.546040  0.172695  1
  Te  Te30  1  0.750000  0.953960  0.672695  1
  Te  Te31  1  0.250000  0.046040  0.327305  1
  Te  Te32  1  0.250000  0.375226  0.314761  1
  Te  Te33  1  0.750000  0.624774  0.685239  1
  Te  Te34  1  0.750000  0.875226  0.185239  1
  Te  Te35  1  0.250000  0.124774  0.814761  1
