# generated using pymatgen
data_Er4Cd2Cu3Pd
_symmetry_space_group_name_H-M   'P 1'
_cell_length_a   7.54304957
_cell_length_b   7.54304957
_cell_length_c   3.69254200
_cell_angle_alpha   90.00000000
_cell_angle_beta   90.00000000
_cell_angle_gamma   90.32622647
_symmetry_Int_Tables_number   1
_chemical_formula_structural   Er4Cd2Cu3Pd
_chemical_formula_sum   'Er4 Cd2 Cu3 Pd1'
_cell_volume   210.09336026
_cell_formula_units_Z   1
loop_
 _symmetry_equiv_pos_site_id
 _symmetry_equiv_pos_as_xyz
  1  'x, y, z'
loop_
 _atom_site_type_symbol
 _atom_site_label
 _atom_site_symmetry_multiplicity
 _atom_site_fract_x
 _atom_site_fract_y
 _atom_site_fract_z
 _atom_site_occupancy
  Er  Er0  1  0.670976  0.170976  0.500000  1
  Er  Er1  1  0.326213  0.826213  0.500000  1
  Er  Er2  1  0.175467  0.329147  0.500000  1
  Er  Er3  1  0.829147  0.675467  0.500000  1
  Cd  Cd4  1  0.997965  0.005553  0.000000  1
  Cd  Cd5  1  0.505553  0.497965  0.000000  1
  Cu  Cu6  1  0.873891  0.373891  0.000000  1
  Cu  Cu7  1  0.619106  0.879969  0.000000  1
  Cu  Cu8  1  0.379969  0.119106  0.000000  1
  Pd  Pd9  1  0.121712  0.621712  0.000000  1
