# generated using pymatgen
data_YbVFe(Ni10B3)2
_symmetry_space_group_name_H-M   'P 1'
_cell_length_a   7.44670327
_cell_length_b   7.44670281
_cell_length_c   7.44670300
_cell_angle_alpha   59.99999473
_cell_angle_beta   59.99999677
_cell_angle_gamma   59.99999580
_symmetry_Int_Tables_number   1
_chemical_formula_structural   YbVFe(Ni10B3)2
_chemical_formula_sum   'Yb1 V1 Fe1 Ni20 B6'
_cell_volume   291.99610925
_cell_formula_units_Z   1
loop_
 _symmetry_equiv_pos_site_id
 _symmetry_equiv_pos_as_xyz
  1  'x, y, z'
loop_
 _atom_site_type_symbol
 _atom_site_label
 _atom_site_symmetry_multiplicity
 _atom_site_fract_x
 _atom_site_fract_y
 _atom_site_fract_z
 _atom_site_occupancy
  Yb  Yb0  1  0.750000  0.750000  0.750000  1
  V  V1  1  0.250000  0.250000  0.250000  1
  Fe  Fe2  1  0.000000  0.000000  0.000000  1
  Ni  Ni3  1  0.610245  0.610245  0.169264  1
  Ni  Ni4  1  0.610245  0.169264  0.610245  1
  Ni  Ni5  1  0.169264  0.610245  0.610245  1
  Ni  Ni6  1  0.610245  0.610245  0.610245  1
  Ni  Ni7  1  0.378655  0.378655  0.864035  1
  Ni  Ni8  1  0.378655  0.864035  0.378655  1
  Ni  Ni9  1  0.864035  0.378655  0.378655  1
  Ni  Ni10  1  0.378655  0.378655  0.378655  1
  Ni  Ni11  1  0.002162  0.002162  0.337137  1
  Ni  Ni12  1  0.658540  0.002162  0.337137  1
  Ni  Ni13  1  0.002162  0.658540  0.337137  1
  Ni  Ni14  1  0.658540  0.337137  0.002162  1
  Ni  Ni15  1  0.002162  0.337137  0.002162  1
  Ni  Ni16  1  0.002162  0.337137  0.658540  1
  Ni  Ni17  1  0.337137  0.658540  0.002162  1
  Ni  Ni18  1  0.337137  0.002162  0.658540  1
  Ni  Ni19  1  0.337137  0.002162  0.002162  1
  Ni  Ni20  1  0.002162  0.002162  0.658540  1
  Ni  Ni21  1  0.002162  0.658540  0.002162  1
  Ni  Ni22  1  0.658540  0.002162  0.002162  1
  B  B23  1  0.730278  0.730278  0.269722  1
  B  B24  1  0.269722  0.730278  0.269722  1
  B  B25  1  0.730278  0.269722  0.269722  1
  B  B26  1  0.269722  0.269722  0.730278  1
  B  B27  1  0.730278  0.269722  0.730278  1
  B  B28  1  0.269722  0.730278  0.730278  1
