# generated using pymatgen
data_Lu4InCu
_symmetry_space_group_name_H-M   'P 1'
_cell_length_a   9.46803266
_cell_length_b   9.46803319
_cell_length_c   9.46803300
_cell_angle_alpha   60.00000414
_cell_angle_beta   60.00000231
_cell_angle_gamma   60.00000135
_symmetry_Int_Tables_number   1
_chemical_formula_structural   Lu4InCu
_chemical_formula_sum   'Lu16 In4 Cu4'
_cell_volume   600.15621748
_cell_formula_units_Z   4
loop_
 _symmetry_equiv_pos_site_id
 _symmetry_equiv_pos_as_xyz
  1  'x, y, z'
loop_
 _atom_site_type_symbol
 _atom_site_label
 _atom_site_symmetry_multiplicity
 _atom_site_fract_x
 _atom_site_fract_y
 _atom_site_fract_z
 _atom_site_occupancy
  Lu  Lu0  1  0.602180  0.602180  0.602180  1
  Lu  Lu1  1  0.602180  0.602180  0.193460  1
  Lu  Lu2  1  0.602180  0.193460  0.602180  1
  Lu  Lu3  1  0.193460  0.602180  0.602180  1
  Lu  Lu4  1  0.062720  0.437280  0.437280  1
  Lu  Lu5  1  0.437280  0.062720  0.062720  1
  Lu  Lu6  1  0.437280  0.062720  0.437280  1
  Lu  Lu7  1  0.062720  0.437280  0.062720  1
  Lu  Lu8  1  0.437280  0.437280  0.062720  1
  Lu  Lu9  1  0.062720  0.062720  0.437280  1
  Lu  Lu10  1  0.186501  0.813499  0.813499  1
  Lu  Lu11  1  0.813499  0.186501  0.186501  1
  Lu  Lu12  1  0.813499  0.186501  0.813499  1
  Lu  Lu13  1  0.186501  0.813499  0.186501  1
  Lu  Lu14  1  0.813499  0.813499  0.186501  1
  Lu  Lu15  1  0.186501  0.186501  0.813499  1
  In  In16  1  0.834274  0.834274  0.834274  1
  In  In17  1  0.834274  0.834274  0.497177  1
  In  In18  1  0.834274  0.497177  0.834274  1
  In  In19  1  0.497177  0.834274  0.834274  1
  Cu  Cu20  1  0.394530  0.394530  0.394530  1
  Cu  Cu21  1  0.394530  0.394530  0.816408  1
  Cu  Cu22  1  0.394530  0.816408  0.394530  1
  Cu  Cu23  1  0.816408  0.394530  0.394530  1
