# generated using pymatgen
data_Dy15Y(ErSn4)4
_symmetry_space_group_name_H-M   'P 1'
_cell_length_a   8.02975701
_cell_length_b   8.14995039
_cell_length_c   15.44434371
_cell_angle_alpha   90.00335502
_cell_angle_beta   89.86419160
_cell_angle_gamma   89.92257509
_symmetry_Int_Tables_number   1
_chemical_formula_structural   Dy15Y(ErSn4)4
_chemical_formula_sum   'Dy15 Y1 Er4 Sn16'
_cell_volume   1010.70685090
_cell_formula_units_Z   1
loop_
 _symmetry_equiv_pos_site_id
 _symmetry_equiv_pos_as_xyz
  1  'x, y, z'
loop_
 _atom_site_type_symbol
 _atom_site_label
 _atom_site_symmetry_multiplicity
 _atom_site_fract_x
 _atom_site_fract_y
 _atom_site_fract_z
 _atom_site_occupancy
  Dy  Dy0  1  0.368202  0.837551  0.877204  1
  Dy  Dy1  1  0.869073  0.662089  0.621999  1
  Dy  Dy2  1  0.630481  0.162260  0.377518  1
  Dy  Dy3  1  0.132034  0.337743  0.122595  1
  Dy  Dy4  1  0.631754  0.162674  0.122836  1
  Dy  Dy5  1  0.130681  0.337881  0.377721  1
  Dy  Dy6  1  0.369591  0.837649  0.622373  1
  Dy  Dy7  1  0.868497  0.662201  0.877526  1
  Dy  Dy8  1  0.521823  0.321788  0.903149  1
  Dy  Dy9  1  0.022275  0.178794  0.597143  1
  Dy  Dy10  1  0.477551  0.678606  0.402634  1
  Dy  Dy11  1  0.978858  0.821022  0.096782  1
  Dy  Dy12  1  0.478546  0.678556  0.096989  1
  Dy  Dy13  1  0.977857  0.821433  0.402869  1
  Dy  Dy14  1  0.522298  0.321498  0.596958  1
  Y  Y15  1  0.020664  0.178767  0.903589  1
  Er  Er16  1  0.200028  0.503739  0.749715  1
  Er  Er17  1  0.699968  0.996361  0.749807  1
  Er  Er18  1  0.799878  0.496284  0.250120  1
  Er  Er19  1  0.299993  0.003634  0.250276  1
  Sn  Sn20  1  0.293499  0.036688  0.042072  1
  Sn  Sn21  1  0.791567  0.462758  0.458097  1
  Sn  Sn22  1  0.708270  0.963256  0.541676  1
  Sn  Sn23  1  0.207559  0.537701  0.958421  1
  Sn  Sn24  1  0.705968  0.961736  0.958641  1
  Sn  Sn25  1  0.208475  0.537225  0.541592  1
  Sn  Sn26  1  0.291602  0.036964  0.458381  1
  Sn  Sn27  1  0.792882  0.462612  0.041869  1
  Sn  Sn28  1  0.566218  0.617741  0.749983  1
  Sn  Sn29  1  0.065910  0.881973  0.749677  1
  Sn  Sn30  1  0.433679  0.382867  0.250216  1
  Sn  Sn31  1  0.934133  0.117480  0.250010  1
  Sn  Sn32  1  0.333101  0.149657  0.750138  1
  Sn  Sn33  1  0.832082  0.350661  0.749820  1
  Sn  Sn34  1  0.667604  0.850518  0.249834  1
  Sn  Sn35  1  0.167397  0.649634  0.249771  1
