# generated using pymatgen
data_Eu4Zr4O15
_symmetry_space_group_name_H-M   'P 1'
_cell_length_a   7.53981200
_cell_length_b   7.53999451
_cell_length_c   7.54053100
_cell_angle_alpha   120.00114133
_cell_angle_beta   90.00004558
_cell_angle_gamma   119.99756971
_symmetry_Int_Tables_number   1
_chemical_formula_structural   Eu4Zr4O15
_chemical_formula_sum   'Eu4 Zr4 O15'
_cell_volume   303.12849748
_cell_formula_units_Z   1
loop_
 _symmetry_equiv_pos_site_id
 _symmetry_equiv_pos_as_xyz
  1  'x, y, z'
loop_
 _atom_site_type_symbol
 _atom_site_label
 _atom_site_symmetry_multiplicity
 _atom_site_fract_x
 _atom_site_fract_y
 _atom_site_fract_z
 _atom_site_occupancy
  Eu  Eu0  1  0.369902  0.246613  0.123312  1
  Eu  Eu1  1  0.876687  0.246600  0.123305  1
  Eu  Eu2  1  0.876688  0.753385  0.123311  1
  Eu  Eu3  1  0.876697  0.753409  0.630116  1
  Zr  Zr4  1  0.381566  0.763130  0.144692  1
  Zr  Zr5  1  0.381566  0.236873  0.618434  1
  Zr  Zr6  1  0.381571  0.763142  0.618428  1
  Zr  Zr7  1  0.855303  0.236868  0.618432  1
  O  O8  1  0.000030  0.999974  0.000029  1
  O  O9  1  0.749979  0.500021  0.249971  1
  O  O10  1  0.738076  0.999961  0.261921  1
  O  O11  1  0.261906  0.999989  0.261906  1
  O  O12  1  0.261959  0.523864  0.261924  1
  O  O13  1  0.499998  0.000023  0.499996  1
  O  O14  1  0.041305  0.082614  0.541301  1
  O  O15  1  0.041315  0.500001  0.541327  1
  O  O16  1  0.458688  0.499994  0.541305  1
  O  O17  1  0.261936  0.000007  0.738074  1
  O  O18  1  0.738081  0.476153  0.738085  1
  O  O19  1  0.738066  0.999983  0.738035  1
  O  O20  1  0.041303  0.500018  0.958699  1
  O  O21  1  0.458705  0.500003  0.958708  1
  O  O22  1  0.458684  0.917387  0.958700  1
