# generated using pymatgen
data_Hf8Be8SnHg3
_symmetry_space_group_name_H-M   'P 1'
_cell_length_a   6.36642200
_cell_length_b   6.36641800
_cell_length_c   7.89212100
_cell_angle_alpha   90.00000000
_cell_angle_beta   90.00000000
_cell_angle_gamma   90.00007200
_symmetry_Int_Tables_number   1
_chemical_formula_structural   Hf8Be8SnHg3
_chemical_formula_sum   'Hf8 Be8 Sn1 Hg3'
_cell_volume   319.87795243
_cell_formula_units_Z   1
loop_
 _symmetry_equiv_pos_site_id
 _symmetry_equiv_pos_as_xyz
  1  'x, y, z'
loop_
 _atom_site_type_symbol
 _atom_site_label
 _atom_site_symmetry_multiplicity
 _atom_site_fract_x
 _atom_site_fract_y
 _atom_site_fract_z
 _atom_site_occupancy
  Hf  Hf0  1  0.167718  0.832419  0.500351  1
  Hf  Hf1  1  0.332420  0.332282  0.999649  1
  Hf  Hf2  1  0.667387  0.667518  0.500296  1
  Hf  Hf3  1  0.832282  0.167581  0.500351  1
  Hf  Hf4  1  0.167518  0.832613  0.999703  1
  Hf  Hf5  1  0.332613  0.332482  0.500296  1
  Hf  Hf6  1  0.667580  0.667718  0.999649  1
  Hf  Hf7  1  0.832482  0.167387  0.999703  1
  Be  Be8  1  0.115305  0.124308  0.250294  1
  Be  Be9  1  0.878076  0.878378  0.749819  1
  Be  Be10  1  0.884695  0.875692  0.250294  1
  Be  Be11  1  0.121924  0.121622  0.749819  1
  Be  Be12  1  0.375691  0.615305  0.249704  1
  Be  Be13  1  0.621622  0.378076  0.750183  1
  Be  Be14  1  0.378378  0.621924  0.750183  1
  Be  Be15  1  0.624309  0.384695  0.249704  1
  Sn  Sn16  1  0.500000  0.000000  0.250000  1
  Hg  Hg17  1  0.500000  0.000000  0.750000  1
  Hg  Hg18  1  0.000000  0.500000  0.250000  1
  Hg  Hg19  1  0.000000  0.500000  0.750000  1
