# generated using pymatgen
data_Sc4Cu(AsRu)6
_symmetry_space_group_name_H-M   'P 1'
_cell_length_a   7.05769908
_cell_length_b   7.05786329
_cell_length_c   7.05769922
_cell_angle_alpha   109.38334307
_cell_angle_beta   109.64607269
_cell_angle_gamma   109.38333615
_symmetry_Int_Tables_number   1
_chemical_formula_structural   Sc4Cu(AsRu)6
_chemical_formula_sum   'Sc4 Cu1 As6 Ru6'
_cell_volume   270.63267310
_cell_formula_units_Z   1
loop_
 _symmetry_equiv_pos_site_id
 _symmetry_equiv_pos_as_xyz
  1  'x, y, z'
loop_
 _atom_site_type_symbol
 _atom_site_label
 _atom_site_symmetry_multiplicity
 _atom_site_fract_x
 _atom_site_fract_y
 _atom_site_fract_z
 _atom_site_occupancy
  Sc  Sc0  1  0.003607  0.007185  0.503606  1
  Sc  Sc1  1  0.496394  0.992815  0.996393  1
  Sc  Sc2  1  0.003583  0.500000  0.996417  1
  Sc  Sc3  1  0.496420  0.500000  0.503580  1
  Cu  Cu4  1  0.749994  0.500000  0.250006  1
  As  As5  1  0.314069  0.000040  0.314071  1
  As  As6  1  0.002473  0.311917  0.314371  1
  As  As7  1  0.002405  0.688083  0.690509  1
  As  As8  1  0.309491  0.311917  0.997595  1
  As  As9  1  0.685629  0.688083  0.997527  1
  As  As10  1  0.685929  0.999960  0.685931  1
  Ru  Ru11  1  0.502307  0.747994  0.250329  1
  Ru  Ru12  1  0.502319  0.252017  0.754301  1
  Ru  Ru13  1  0.749671  0.252006  0.497693  1
  Ru  Ru14  1  0.245699  0.747983  0.497681  1
  Ru  Ru15  1  0.250005  0.500000  0.749995  1
  Ru  Ru16  1  0.000003  0.000000  0.999997  1
