# generated using pymatgen
data_TbYbHo2(Ga3Ir)6
_symmetry_space_group_name_H-M   'P 1'
_cell_length_a   7.57328445
_cell_length_b   7.58218938
_cell_length_c   9.52474100
_cell_angle_alpha   90.00000000
_cell_angle_beta   90.00000000
_cell_angle_gamma   119.82345433
_symmetry_Int_Tables_number   1
_chemical_formula_structural   TbYbHo2(Ga3Ir)6
_chemical_formula_sum   'Tb1 Yb1 Ho2 Ga18 Ir6'
_cell_volume   474.49600877
_cell_formula_units_Z   1
loop_
 _symmetry_equiv_pos_site_id
 _symmetry_equiv_pos_as_xyz
  1  'x, y, z'
loop_
 _atom_site_type_symbol
 _atom_site_label
 _atom_site_symmetry_multiplicity
 _atom_site_fract_x
 _atom_site_fract_y
 _atom_site_fract_z
 _atom_site_occupancy
  Tb  Tb0  1  0.002276  0.332037  0.750000  1
  Yb  Yb1  1  0.996853  0.667838  0.250000  1
  Ho  Ho2  1  0.668014  0.997625  0.250000  1
  Ho  Ho3  1  0.331535  0.001895  0.750000  1
  Ga  Ga4  1  0.126138  0.126670  0.250000  1
  Ga  Ga5  1  0.873011  0.872655  0.750000  1
  Ga  Ga6  1  0.000022  0.335489  0.080405  1
  Ga  Ga7  1  0.000064  0.665682  0.920804  1
  Ga  Ga8  1  0.000064  0.665682  0.579196  1
  Ga  Ga9  1  0.333232  0.998711  0.420126  1
  Ga  Ga10  1  0.000022  0.335489  0.419595  1
  Ga  Ga11  1  0.665313  0.000426  0.580035  1
  Ga  Ga12  1  0.665313  0.000426  0.919965  1
  Ga  Ga13  1  0.333232  0.998711  0.079874  1
  Ga  Ga14  1  0.332734  0.332362  0.564539  1
  Ga  Ga15  1  0.668758  0.667466  0.436855  1
  Ga  Ga16  1  0.668758  0.667466  0.063145  1
  Ga  Ga17  1  0.332734  0.332362  0.935461  1
  Ga  Ga18  1  0.338268  0.546833  0.250000  1
  Ga  Ga19  1  0.661697  0.454041  0.750000  1
  Ga  Ga20  1  0.546372  0.337461  0.250000  1
  Ga  Ga21  1  0.453943  0.661823  0.750000  1
  Ir  Ir22  1  0.670692  0.328208  0.999938  1
  Ir  Ir23  1  0.329310  0.671438  0.999625  1
  Ir  Ir24  1  0.329310  0.671438  0.500375  1
  Ir  Ir25  1  0.670692  0.328208  0.500062  1
  Ir  Ir26  1  0.000820  0.000779  0.999404  1
  Ir  Ir27  1  0.000820  0.000779  0.500596  1
