# generated using pymatgen
data_Cd3Ir3PdPbO14
_symmetry_space_group_name_H-M   'P 1'
_cell_length_a   7.24682740
_cell_length_b   7.29191906
_cell_length_c   7.24682696
_cell_angle_alpha   60.18403463
_cell_angle_beta   60.23181114
_cell_angle_gamma   60.18403045
_symmetry_Int_Tables_number   1
_chemical_formula_structural   Cd3Ir3PdPbO14
_chemical_formula_sum   'Cd3 Ir3 Pd1 Pb1 O14'
_cell_volume   272.00971641
_cell_formula_units_Z   1
loop_
 _symmetry_equiv_pos_site_id
 _symmetry_equiv_pos_as_xyz
  1  'x, y, z'
loop_
 _atom_site_type_symbol
 _atom_site_label
 _atom_site_symmetry_multiplicity
 _atom_site_fract_x
 _atom_site_fract_y
 _atom_site_fract_z
 _atom_site_occupancy
  Cd  Cd0  1  0.625000  0.125000  0.125000  1
  Cd  Cd1  1  0.125000  0.125000  0.625000  1
  Cd  Cd2  1  0.125000  0.125000  0.125000  1
  Ir  Ir3  1  0.125000  0.625000  0.625000  1
  Ir  Ir4  1  0.625000  0.125000  0.625000  1
  Ir  Ir5  1  0.625000  0.625000  0.125000  1
  Pd  Pd6  1  0.625000  0.625000  0.625000  1
  Pb  Pb7  1  0.125000  0.625000  0.125000  1
  O  O8  1  0.710231  0.706409  0.287227  1
  O  O9  1  0.304154  0.307756  0.708723  1
  O  O10  1  0.707303  0.286026  0.707303  1
  O  O11  1  0.299421  0.692551  0.299421  1
  O  O12  1  0.287227  0.706409  0.710231  1
  O  O13  1  0.708723  0.307756  0.304154  1
  O  O14  1  0.539769  0.543591  0.962773  1
  O  O15  1  0.945846  0.942244  0.541277  1
  O  O16  1  0.542697  0.963974  0.542697  1
  O  O17  1  0.950579  0.557449  0.950579  1
  O  O18  1  0.962773  0.543591  0.539769  1
  O  O19  1  0.541277  0.942244  0.945846  1
  O  O20  1  0.250548  0.244843  0.250548  1
  O  O21  1  0.999452  0.005157  0.999452  1
