# generated using pymatgen
data_LiScGeB2Ir5
_symmetry_space_group_name_H-M   'P 1'
_cell_length_a   9.44523551
_cell_length_b   9.44523551
_cell_length_c   2.96351700
_cell_angle_alpha   90.00000000
_cell_angle_beta   90.00000000
_cell_angle_gamma   91.47599667
_symmetry_Int_Tables_number   1
_chemical_formula_structural   LiScGeB2Ir5
_chemical_formula_sum   'Li2 Sc2 Ge2 B4 Ir10'
_cell_volume   264.29496142
_cell_formula_units_Z   2
loop_
 _symmetry_equiv_pos_site_id
 _symmetry_equiv_pos_as_xyz
  1  'x, y, z'
loop_
 _atom_site_type_symbol
 _atom_site_label
 _atom_site_symmetry_multiplicity
 _atom_site_fract_x
 _atom_site_fract_y
 _atom_site_fract_z
 _atom_site_occupancy
  Li  Li0  1  0.673432  0.173432  0.000000  1
  Li  Li1  1  0.326568  0.826568  0.000000  1
  Sc  Sc2  1  0.177228  0.322772  0.000000  1
  Sc  Sc3  1  0.822772  0.677228  0.000000  1
  Ge  Ge4  1  0.000000  0.000000  0.000000  1
  Ge  Ge5  1  0.500000  0.500000  0.000000  1
  B  B6  1  0.130145  0.630145  0.000000  1
  B  B7  1  0.869855  0.369855  0.000000  1
  B  B8  1  0.619970  0.880030  0.000000  1
  B  B9  1  0.380030  0.119970  0.000000  1
  Ir  Ir10  1  0.214526  0.071756  0.500000  1
  Ir  Ir11  1  0.785474  0.928244  0.500000  1
  Ir  Ir12  1  0.069929  0.785725  0.500000  1
  Ir  Ir13  1  0.714275  0.430071  0.500000  1
  Ir  Ir14  1  0.930071  0.214275  0.500000  1
  Ir  Ir15  1  0.285725  0.569929  0.500000  1
  Ir  Ir16  1  0.571756  0.714526  0.500000  1
  Ir  Ir17  1  0.428244  0.285474  0.500000  1
  Ir  Ir18  1  0.500000  0.000000  0.500000  1
  Ir  Ir19  1  0.000000  0.500000  0.500000  1
