# generated using pymatgen
data_Ti7Nb3(SiSn2)2
_symmetry_space_group_name_H-M   'P 1'
_cell_length_a   7.91798491
_cell_length_b   7.91798478
_cell_length_c   7.92128181
_cell_angle_alpha   96.10770253
_cell_angle_beta   95.73727416
_cell_angle_gamma   142.51845526
_symmetry_Int_Tables_number   1
_chemical_formula_structural   Ti7Nb3(SiSn2)2
_chemical_formula_sum   'Ti7 Nb3 Si2 Sn4'
_cell_volume   286.18654328
_cell_formula_units_Z   1
loop_
 _symmetry_equiv_pos_site_id
 _symmetry_equiv_pos_as_xyz
  1  'x, y, z'
loop_
 _atom_site_type_symbol
 _atom_site_label
 _atom_site_symmetry_multiplicity
 _atom_site_fract_x
 _atom_site_fract_y
 _atom_site_fract_z
 _atom_site_occupancy
  Ti  Ti0  1  0.427039  0.291208  0.718246  1
  Ti  Ti1  1  0.205453  0.069375  0.274828  1
  Ti  Ti2  1  0.572023  0.710234  0.282257  1
  Ti  Ti3  1  0.250454  0.749091  0.500975  1
  Ti  Ti4  1  0.289963  0.572704  0.862667  1
  Ti  Ti5  1  0.708172  0.427020  0.135192  1
  Ti  Ti6  1  0.751884  0.250521  0.500975  1
  Nb  Nb7  1  0.929451  0.206247  0.135698  1
  Nb  Nb8  1  0.794663  0.928819  0.723482  1
  Nb  Nb9  1  0.070531  0.794673  0.865204  1
  Si  Si10  1  0.256376  0.256288  0.001764  1
  Si  Si11  1  0.745476  0.745388  0.001764  1
  Sn  Sn12  1  0.166901  0.334843  0.501744  1
  Sn  Sn13  1  0.663469  0.166700  0.830169  1
  Sn  Sn14  1  0.832380  0.661358  0.493738  1
  Sn  Sn15  1  0.335764  0.835530  0.171294  1
