# generated using pymatgen
data_Ho8Hf12Si15Ge
_symmetry_space_group_name_H-M   'P 1'
_cell_length_a   7.27157521
_cell_length_b   7.27822926
_cell_length_c   13.36363802
_cell_angle_alpha   89.92982750
_cell_angle_beta   89.99330433
_cell_angle_gamma   89.95307770
_symmetry_Int_Tables_number   1
_chemical_formula_structural   Ho8Hf12Si15Ge
_chemical_formula_sum   'Ho8 Hf12 Si15 Ge1'
_cell_volume   707.25896427
_cell_formula_units_Z   1
loop_
 _symmetry_equiv_pos_site_id
 _symmetry_equiv_pos_as_xyz
  1  'x, y, z'
loop_
 _atom_site_type_symbol
 _atom_site_label
 _atom_site_symmetry_multiplicity
 _atom_site_fract_x
 _atom_site_fract_y
 _atom_site_fract_z
 _atom_site_occupancy
  Ho  Ho0  1  0.994983  0.344541  0.214560  1
  Ho  Ho1  1  0.003942  0.655691  0.715311  1
  Ho  Ho2  1  0.154212  0.498138  0.466255  1
  Ho  Ho3  1  0.504388  0.843761  0.034349  1
  Ho  Ho4  1  0.844484  0.503921  0.964941  1
  Ho  Ho5  1  0.496805  0.154965  0.535851  1
  Ho  Ho6  1  0.344214  0.996162  0.784852  1
  Ho  Ho7  1  0.656660  0.002614  0.284524  1
  Hf  Hf8  1  0.174386  0.174690  0.999865  1
  Hf  Hf9  1  0.825612  0.825746  0.500215  1
  Hf  Hf10  1  0.325608  0.676992  0.249461  1
  Hf  Hf11  1  0.674581  0.325479  0.749979  1
  Hf  Hf12  1  0.147724  0.994670  0.374015  1
  Hf  Hf13  1  0.851236  0.003537  0.874356  1
  Hf  Hf14  1  0.503428  0.649054  0.624406  1
  Hf  Hf15  1  0.350996  0.496288  0.875636  1
  Hf  Hf16  1  0.496058  0.350830  0.123316  1
  Hf  Hf17  1  0.651523  0.505937  0.376478  1
  Hf  Hf18  1  0.996111  0.148966  0.625866  1
  Hf  Hf19  1  0.003005  0.850578  0.125271  1
  Si  Si20  1  0.638081  0.705230  0.817460  1
  Si  Si21  1  0.204902  0.862218  0.567547  1
  Si  Si22  1  0.138101  0.794999  0.932269  1
  Si  Si23  1  0.794906  0.138176  0.067277  1
  Si  Si24  1  0.861831  0.204647  0.432568  1
  Si  Si25  1  0.295090  0.361966  0.682537  1
  Si  Si26  1  0.704483  0.637669  0.182413  1
  Si  Si27  1  0.296128  0.045609  0.183525  1
  Si  Si28  1  0.703986  0.950985  0.685681  1
  Si  Si29  1  0.451240  0.796430  0.435466  1
  Si  Si30  1  0.203673  0.548470  0.064612  1
  Si  Si31  1  0.548640  0.203670  0.935161  1
  Si  Si32  1  0.795893  0.451276  0.564908  1
  Si  Si33  1  0.048715  0.296182  0.814474  1
  Si  Si34  1  0.951643  0.703395  0.314299  1
  Ge  Ge35  1  0.362732  0.296518  0.320296  1
