# generated using pymatgen
data_Dy7Y9(HgRh)4
_symmetry_space_group_name_H-M   'P 1'
_cell_length_a   9.61734040
_cell_length_b   9.62005063
_cell_length_c   9.62663361
_cell_angle_alpha   59.95873571
_cell_angle_beta   60.02185688
_cell_angle_gamma   60.05460082
_symmetry_Int_Tables_number   1
_chemical_formula_structural   Dy7Y9(HgRh)4
_chemical_formula_sum   'Dy7 Y9 Hg4 Rh4'
_cell_volume   629.95082618
_cell_formula_units_Z   1
loop_
 _symmetry_equiv_pos_site_id
 _symmetry_equiv_pos_as_xyz
  1  'x, y, z'
loop_
 _atom_site_type_symbol
 _atom_site_label
 _atom_site_symmetry_multiplicity
 _atom_site_fract_x
 _atom_site_fract_y
 _atom_site_fract_z
 _atom_site_occupancy
  Dy  Dy0  1  0.601211  0.600382  0.601257  1
  Dy  Dy1  1  0.602065  0.600831  0.196106  1
  Dy  Dy2  1  0.601257  0.197152  0.601211  1
  Dy  Dy3  1  0.196106  0.600999  0.602065  1
  Dy  Dy4  1  0.059818  0.440016  0.439045  1
  Dy  Dy5  1  0.439045  0.061121  0.059818  1
  Dy  Dy6  1  0.439449  0.060551  0.439449  1
  Y  Y7  1  0.060294  0.439706  0.060294  1
  Y  Y8  1  0.439098  0.440233  0.059695  1
  Y  Y9  1  0.059695  0.060973  0.439098  1
  Y  Y10  1  0.187795  0.813132  0.812519  1
  Y  Y11  1  0.812519  0.186554  0.187795  1
  Y  Y12  1  0.812657  0.187343  0.812657  1
  Y  Y13  1  0.187222  0.812778  0.187222  1
  Y  Y14  1  0.812239  0.812971  0.188033  1
  Y  Y15  1  0.188033  0.186757  0.812239  1
  Hg  Hg16  1  0.834892  0.834563  0.834714  1
  Hg  Hg17  1  0.835160  0.835079  0.494795  1
  Hg  Hg18  1  0.834714  0.495830  0.834892  1
  Hg  Hg19  1  0.494795  0.834965  0.835160  1
  Rh  Rh20  1  0.392491  0.391516  0.394822  1
  Rh  Rh21  1  0.394956  0.391545  0.819668  1
  Rh  Rh22  1  0.394822  0.821172  0.392491  1
  Rh  Rh23  1  0.819668  0.393832  0.394956  1
