# generated using pymatgen
data_Te8Pt5S2
_symmetry_space_group_name_H-M   'P 1'
_cell_length_a   17.12839489
_cell_length_b   17.12839452
_cell_length_c   7.06977462
_cell_angle_alpha   87.60048706
_cell_angle_beta   87.60048652
_cell_angle_gamma   13.25030165
_symmetry_Int_Tables_number   1
_chemical_formula_structural   Te8Pt5S2
_chemical_formula_sum   'Te8 Pt5 S2'
_cell_volume   474.98276500
_cell_formula_units_Z   1
loop_
 _symmetry_equiv_pos_site_id
 _symmetry_equiv_pos_as_xyz
  1  'x, y, z'
loop_
 _atom_site_type_symbol
 _atom_site_label
 _atom_site_symmetry_multiplicity
 _atom_site_fract_x
 _atom_site_fract_y
 _atom_site_fract_z
 _atom_site_occupancy
  Te  Te0  1  0.669962  0.669962  0.776867  1
  Te  Te1  1  0.275721  0.275721  0.773033  1
  Te  Te2  1  0.880961  0.880961  0.798036  1
  Te  Te3  1  0.536307  0.536307  0.221344  1
  Te  Te4  1  0.136515  0.136515  0.175690  1
  Te  Te5  1  0.736655  0.736655  0.163374  1
  Te  Te6  1  0.337427  0.337427  0.176437  1
  Te  Te7  1  0.936531  0.936531  0.221100  1
  Pt  Pt8  1  0.005606  0.005606  0.028894  1
  Pt  Pt9  1  0.601944  0.601944  0.998548  1
  Pt  Pt10  1  0.204470  0.204470  0.967891  1
  Pt  Pt11  1  0.807419  0.807419  0.973655  1
  Pt  Pt12  1  0.409508  0.409508  0.009429  1
  S  S13  1  0.069614  0.069614  0.850581  1
  S  S14  1  0.477082  0.477082  0.865119  1
