# generated using pymatgen
data_Pa2GeIr3
_symmetry_space_group_name_H-M   'P 1'
_cell_length_a   5.18644175
_cell_length_b   5.18644098
_cell_length_c   5.18644050
_cell_angle_alpha   64.47041214
_cell_angle_beta   64.47041876
_cell_angle_gamma   64.47041414
_symmetry_Int_Tables_number   1
_chemical_formula_structural   Pa2GeIr3
_chemical_formula_sum   'Pa2 Ge1 Ir3'
_cell_volume   108.32347646
_cell_formula_units_Z   1
loop_
 _symmetry_equiv_pos_site_id
 _symmetry_equiv_pos_as_xyz
  1  'x, y, z'
loop_
 _atom_site_type_symbol
 _atom_site_label
 _atom_site_symmetry_multiplicity
 _atom_site_fract_x
 _atom_site_fract_y
 _atom_site_fract_z
 _atom_site_occupancy
  Pa  Pa0  1  0.380339  0.380339  0.380339  1
  Pa  Pa1  1  0.619661  0.619661  0.619661  1
  Ge  Ge2  1  0.000000  0.000000  0.000000  1
  Ir  Ir3  1  0.500001  0.000000  0.000000  1
  Ir  Ir4  1  0.000000  0.500001  0.000000  1
  Ir  Ir5  1  0.000000  0.000000  0.500000  1
