# generated using pymatgen
data_Pr4AsCl6
_symmetry_space_group_name_H-M   'P 1'
_cell_length_a   4.16380300
_cell_length_b   13.30798300
_cell_length_c   14.16482400
_cell_angle_alpha   90.00000000
_cell_angle_beta   90.00000000
_cell_angle_gamma   90.00000000
_symmetry_Int_Tables_number   1
_chemical_formula_structural   Pr4AsCl6
_chemical_formula_sum   'Pr8 As2 Cl12'
_cell_volume   784.89867129
_cell_formula_units_Z   2
loop_
 _symmetry_equiv_pos_site_id
 _symmetry_equiv_pos_as_xyz
  1  'x, y, z'
loop_
 _atom_site_type_symbol
 _atom_site_label
 _atom_site_symmetry_multiplicity
 _atom_site_fract_x
 _atom_site_fract_y
 _atom_site_fract_z
 _atom_site_occupancy
  Pr  Pr0  1  0.500000  0.122531  0.335340  1
  Pr  Pr1  1  0.500000  0.877469  0.664660  1
  Pr  Pr2  1  0.500000  0.622531  0.164660  1
  Pr  Pr3  1  0.500000  0.377469  0.835340  1
  Pr  Pr4  1  0.000000  0.123395  0.581394  1
  Pr  Pr5  1  0.000000  0.876605  0.418606  1
  Pr  Pr6  1  0.000000  0.623395  0.918606  1
  Pr  Pr7  1  0.000000  0.376605  0.081394  1
  As  As8  1  0.500000  0.000000  0.500000  1
  As  As9  1  0.500000  0.500000  0.000000  1
  Cl  Cl10  1  0.500000  0.242498  0.163724  1
  Cl  Cl11  1  0.500000  0.757502  0.836276  1
  Cl  Cl12  1  0.500000  0.742498  0.336276  1
  Cl  Cl13  1  0.500000  0.257502  0.663724  1
  Cl  Cl14  1  0.000000  0.249192  0.409747  1
  Cl  Cl15  1  0.000000  0.750808  0.590253  1
  Cl  Cl16  1  0.000000  0.749192  0.090253  1
  Cl  Cl17  1  0.000000  0.250808  0.909747  1
  Cl  Cl18  1  0.000000  0.004430  0.248852  1
  Cl  Cl19  1  0.000000  0.995570  0.751148  1
  Cl  Cl20  1  0.000000  0.504430  0.251148  1
  Cl  Cl21  1  0.000000  0.495570  0.748852  1
