# generated using pymatgen
data_Zr10ZnSi(SnSb2)2
_symmetry_space_group_name_H-M   'P 1'
_cell_length_a   8.66774759
_cell_length_b   8.67433789
_cell_length_c   5.88391809
_cell_angle_alpha   89.97960129
_cell_angle_beta   90.01020873
_cell_angle_gamma   120.02515677
_symmetry_Int_Tables_number   1
_chemical_formula_structural   Zr10ZnSi(SnSb2)2
_chemical_formula_sum   'Zr10 Zn1 Si1 Sn2 Sb4'
_cell_volume   383.02724406
_cell_formula_units_Z   1
loop_
 _symmetry_equiv_pos_site_id
 _symmetry_equiv_pos_as_xyz
  1  'x, y, z'
loop_
 _atom_site_type_symbol
 _atom_site_label
 _atom_site_symmetry_multiplicity
 _atom_site_fract_x
 _atom_site_fract_y
 _atom_site_fract_z
 _atom_site_occupancy
  Zr  Zr0  1  0.263198  0.000699  0.256077  1
  Zr  Zr1  1  0.263198  0.262500  0.743923  1
  Zr  Zr2  1  0.000829  0.736466  0.744286  1
  Zr  Zr3  1  0.000829  0.264363  0.255714  1
  Zr  Zr4  1  0.736652  0.736164  0.255570  1
  Zr  Zr5  1  0.736652  0.000489  0.744430  1
  Zr  Zr6  1  0.331502  0.665752  0.000000  1
  Zr  Zr7  1  0.667204  0.333602  0.500000  1
  Zr  Zr8  1  0.667033  0.333516  0.000000  1
  Zr  Zr9  1  0.332054  0.666028  0.500000  1
  Zn  Zn10  1  0.998373  0.999187  0.000000  1
  Si  Si11  1  0.998586  0.999294  0.500000  1
  Sn  Sn12  1  0.611185  0.999453  0.247631  1
  Sn  Sn13  1  0.611185  0.611732  0.752369  1
  Sb  Sb14  1  0.999367  0.388969  0.752558  1
  Sb  Sb15  1  0.999367  0.610398  0.247442  1
  Sb  Sb16  1  0.391392  0.391509  0.247356  1
  Sb  Sb17  1  0.391392  0.999882  0.752644  1
