# generated using pymatgen
data_KRb3Fe4P4(O7F2)2
_symmetry_space_group_name_H-M   'P 1'
_cell_length_a   6.94419900
_cell_length_b   10.57902200
_cell_length_c   11.41415900
_cell_angle_alpha   90.00000000
_cell_angle_beta   90.00000000
_cell_angle_gamma   90.00000000
_symmetry_Int_Tables_number   1
_chemical_formula_structural   KRb3Fe4P4(O7F2)2
_chemical_formula_sum   'K2 Rb6 Fe8 P8 O28 F8'
_cell_volume   838.51646779
_cell_formula_units_Z   2
loop_
 _symmetry_equiv_pos_site_id
 _symmetry_equiv_pos_as_xyz
  1  'x, y, z'
loop_
 _atom_site_type_symbol
 _atom_site_label
 _atom_site_symmetry_multiplicity
 _atom_site_fract_x
 _atom_site_fract_y
 _atom_site_fract_z
 _atom_site_occupancy
  K  K0  1  0.998726  0.065688  0.326546  1
  K  K1  1  0.501274  0.565688  0.173454  1
  Rb  Rb2  1  0.498364  0.068692  0.829810  1
  Rb  Rb3  1  0.001636  0.568692  0.670190  1
  Rb  Rb4  1  0.998677  0.931185  0.669512  1
  Rb  Rb5  1  0.501323  0.431185  0.830488  1
  Rb  Rb6  1  0.502851  0.931569  0.170966  1
  Rb  Rb7  1  0.997149  0.431569  0.329034  1
  Fe  Fe8  1  0.000034  0.250146  0.836574  1
  Fe  Fe9  1  0.499966  0.750146  0.663426  1
  Fe  Fe10  1  0.001670  0.750031  0.163328  1
  Fe  Fe11  1  0.498330  0.250031  0.336672  1
  Fe  Fe12  1  0.999663  0.000438  0.001348  1
  Fe  Fe13  1  0.500337  0.500438  0.498652  1
  Fe  Fe14  1  0.499176  0.999968  0.498108  1
  Fe  Fe15  1  0.000824  0.499968  0.001892  1
  P  P16  1  0.217884  0.247218  0.578971  1
  P  P17  1  0.282116  0.747218  0.921029  1
  P  P18  1  0.717156  0.750867  0.922479  1
  P  P19  1  0.782844  0.250867  0.577521  1
  P  P20  1  0.781489  0.752576  0.418607  1
  P  P21  1  0.718511  0.252576  0.081393  1
  P  P22  1  0.281794  0.248406  0.080880  1
  P  P23  1  0.218206  0.748406  0.419120  1
  O  O24  1  0.000754  0.246228  0.520639  1
  O  O25  1  0.499246  0.746228  0.979361  1
  O  O26  1  0.999600  0.748160  0.474900  1
  O  O27  1  0.500400  0.248160  0.025100  1
  O  O28  1  0.174943  0.329164  0.989183  1
  O  O29  1  0.325057  0.829164  0.510817  1
  O  O30  1  0.672981  0.672597  0.510133  1
  O  O31  1  0.827019  0.172597  0.989867  1
  O  O32  1  0.826087  0.670114  0.013372  1
  O  O33  1  0.673913  0.170114  0.486628  1
  O  O34  1  0.325892  0.329046  0.488625  1
  O  O35  1  0.174108  0.829046  0.011375  1
  O  O36  1  0.282972  0.109224  0.582472  1
  O  O37  1  0.217028  0.609224  0.917528  1
  O  O38  1  0.778478  0.889893  0.921704  1
  O  O39  1  0.721522  0.389893  0.578296  1
  O  O40  1  0.722464  0.892079  0.416918  1
  O  O41  1  0.777536  0.392079  0.083082  1
  O  O42  1  0.217748  0.110131  0.083624  1
  O  O43  1  0.282252  0.610131  0.416376  1
  O  O44  1  0.202116  0.306852  0.700483  1
  O  O45  1  0.297884  0.806852  0.799517  1
  O  O46  1  0.704742  0.693178  0.800057  1
  O  O47  1  0.795258  0.193178  0.699943  1
  O  O48  1  0.791250  0.693456  0.296532  1
  O  O49  1  0.708750  0.193456  0.203468  1
  O  O50  1  0.295508  0.308875  0.201914  1
  O  O51  1  0.204492  0.808875  0.298086  1
  F  F52  1  0.109694  0.076059  0.846516  1
  F  F53  1  0.390306  0.576059  0.653484  1
  F  F54  1  0.610369  0.924017  0.653065  1
  F  F55  1  0.889631  0.424017  0.846935  1
  F  F56  1  0.894616  0.925814  0.158042  1
  F  F57  1  0.605384  0.425814  0.341958  1
  F  F58  1  0.376768  0.078331  0.346214  1
  F  F59  1  0.123232  0.578331  0.153786  1
