# generated using pymatgen
data_HfMg2Ta(NbN3)2
_symmetry_space_group_name_H-M   'P 1'
_cell_length_a   5.30112342
_cell_length_b   5.30112296
_cell_length_c   10.59257300
_cell_angle_alpha   90.00000000
_cell_angle_beta   90.00000000
_cell_angle_gamma   119.95464424
_symmetry_Int_Tables_number   1
_chemical_formula_structural   HfMg2Ta(NbN3)2
_chemical_formula_sum   'Hf2 Mg4 Ta2 Nb4 N12'
_cell_volume   257.90882150
_cell_formula_units_Z   2
loop_
 _symmetry_equiv_pos_site_id
 _symmetry_equiv_pos_as_xyz
  1  'x, y, z'
loop_
 _atom_site_type_symbol
 _atom_site_label
 _atom_site_symmetry_multiplicity
 _atom_site_fract_x
 _atom_site_fract_y
 _atom_site_fract_z
 _atom_site_occupancy
  Hf  Hf0  1  0.999006  0.000994  0.500000  1
  Hf  Hf1  1  0.999006  0.000994  0.000000  1
  Mg  Mg2  1  0.333819  0.666181  0.000000  1
  Mg  Mg3  1  0.333819  0.666181  0.500000  1
  Mg  Mg4  1  0.666634  0.333366  0.500000  1
  Mg  Mg5  1  0.666634  0.333366  0.000000  1
  Ta  Ta6  1  0.340278  0.999830  0.250000  1
  Ta  Ta7  1  0.000170  0.659722  0.750000  1
  Nb  Nb8  1  0.000407  0.340386  0.250000  1
  Nb  Nb9  1  0.659614  0.999593  0.750000  1
  Nb  Nb10  1  0.340147  0.339557  0.750000  1
  Nb  Nb11  1  0.660443  0.659853  0.250000  1
  N  N12  1  0.671750  0.667543  0.623710  1
  N  N13  1  0.671750  0.667543  0.876290  1
  N  N14  1  0.332457  0.328250  0.123710  1
  N  N15  1  0.332457  0.328250  0.376290  1
  N  N16  1  0.327629  0.995770  0.876099  1
  N  N17  1  0.327629  0.995770  0.623901  1
  N  N18  1  0.004230  0.672371  0.376099  1
  N  N19  1  0.004230  0.672371  0.123901  1
  N  N20  1  0.663952  0.000006  0.123377  1
  N  N21  1  0.663952  0.000006  0.376623  1
  N  N22  1  0.999994  0.336048  0.876623  1
  N  N23  1  0.999994  0.336048  0.623377  1
