# generated using pymatgen
data_Dy2Ho8AlSb5
_symmetry_space_group_name_H-M   'P 1'
_cell_length_a   8.88413600
_cell_length_b   8.87691442
_cell_length_c   6.35926700
_cell_angle_alpha   90.00000000
_cell_angle_beta   90.00000000
_cell_angle_gamma   120.02692224
_symmetry_Int_Tables_number   1
_chemical_formula_structural   Dy2Ho8AlSb5
_chemical_formula_sum   'Dy2 Ho8 Al1 Sb5'
_cell_volume   434.20721998
_cell_formula_units_Z   1
loop_
 _symmetry_equiv_pos_site_id
 _symmetry_equiv_pos_as_xyz
  1  'x, y, z'
loop_
 _atom_site_type_symbol
 _atom_site_label
 _atom_site_symmetry_multiplicity
 _atom_site_fract_x
 _atom_site_fract_y
 _atom_site_fract_z
 _atom_site_occupancy
  Dy  Dy0  1  0.755055  0.755894  0.250000  1
  Dy  Dy1  1  0.999161  0.244106  0.250000  1
  Ho  Ho2  1  0.334819  0.673520  0.998991  1
  Ho  Ho3  1  0.661300  0.326480  0.501009  1
  Ho  Ho4  1  0.661300  0.326480  0.998991  1
  Ho  Ho5  1  0.334819  0.673520  0.501009  1
  Ho  Ho6  1  0.752406  0.000000  0.750000  1
  Ho  Ho7  1  0.009488  0.763542  0.750000  1
  Ho  Ho8  1  0.245945  0.236458  0.750000  1
  Ho  Ho9  1  0.242087  0.000000  0.250000  1
  Al  Al10  1  0.396709  0.000000  0.750000  1
  Sb  Sb11  1  0.389413  0.392148  0.250000  1
  Sb  Sb12  1  0.997265  0.607852  0.250000  1
  Sb  Sb13  1  0.001885  0.390392  0.750000  1
  Sb  Sb14  1  0.611493  0.609608  0.750000  1
  Sb  Sb15  1  0.606855  0.000000  0.250000  1
