# generated using pymatgen
data_Ho20SnOs4Au7
_symmetry_space_group_name_H-M   'P 1'
_cell_length_a   7.56805538
_cell_length_b   9.09020889
_cell_length_c   11.83957000
_cell_angle_alpha   90.25984924
_cell_angle_beta   89.96538657
_cell_angle_gamma   89.89465697
_symmetry_Int_Tables_number   1
_chemical_formula_structural   Ho20SnOs4Au7
_chemical_formula_sum   'Ho20 Sn1 Os4 Au7'
_cell_volume   814.49573158
_cell_formula_units_Z   1
loop_
 _symmetry_equiv_pos_site_id
 _symmetry_equiv_pos_as_xyz
  1  'x, y, z'
loop_
 _atom_site_type_symbol
 _atom_site_label
 _atom_site_symmetry_multiplicity
 _atom_site_fract_x
 _atom_site_fract_y
 _atom_site_fract_z
 _atom_site_occupancy
  Ho  Ho0  1  0.836744  0.744981  0.780761  1
  Ho  Ho1  1  0.163040  0.248635  0.220099  1
  Ho  Ho2  1  0.339023  0.259023  0.721839  1
  Ho  Ho3  1  0.662828  0.750931  0.276597  1
  Ho  Ho4  1  0.370359  0.741606  0.693521  1
  Ho  Ho5  1  0.639335  0.249248  0.309210  1
  Ho  Ho6  1  0.855365  0.251520  0.810986  1
  Ho  Ho7  1  0.140518  0.748408  0.192063  1
  Ho  Ho8  1  0.955948  0.748758  0.493121  1
  Ho  Ho9  1  0.042352  0.255230  0.496959  1
  Ho  Ho10  1  0.454199  0.250910  0.003187  1
  Ho  Ho11  1  0.543669  0.747827  0.999017  1
  Ho  Ho12  1  0.668844  0.030199  0.583189  1
  Ho  Ho13  1  0.324145  0.969764  0.416352  1
  Ho  Ho14  1  0.177389  0.967264  0.926706  1
  Ho  Ho15  1  0.327467  0.532346  0.415655  1
  Ho  Ho16  1  0.819658  0.031361  0.081164  1
  Ho  Ho17  1  0.677415  0.468225  0.580062  1
  Ho  Ho18  1  0.822745  0.468067  0.084222  1
  Ho  Ho19  1  0.172286  0.530300  0.919246  1
  Sn  Sn20  1  0.075618  0.994690  0.666040  1
  Os  Os21  1  0.570487  0.750347  0.501913  1
  Os  Os22  1  0.428033  0.252244  0.495023  1
  Os  Os23  1  0.066727  0.250296  0.997095  1
  Os  Os24  1  0.927702  0.749108  0.007135  1
  Au  Au25  1  0.568254  0.492902  0.836169  1
  Au  Au26  1  0.433940  0.506738  0.164367  1
  Au  Au27  1  0.068051  0.509471  0.663106  1
  Au  Au28  1  0.432687  0.992458  0.162782  1
  Au  Au29  1  0.934694  0.492436  0.333633  1
  Au  Au30  1  0.566585  0.006335  0.836911  1
  Au  Au31  1  0.933894  0.008375  0.331865  1
