# generated using pymatgen
data_Ho3Er9Co4BiRh
_symmetry_space_group_name_H-M   'P 1'
_cell_length_a   8.25127134
_cell_length_b   8.25077038
_cell_length_c   8.24810274
_cell_angle_alpha   110.77092173
_cell_angle_beta   110.96589140
_cell_angle_gamma   106.72714640
_symmetry_Int_Tables_number   1
_chemical_formula_structural   Ho3Er9Co4BiRh
_chemical_formula_sum   'Ho3 Er9 Co4 Bi1 Rh1'
_cell_volume   431.43525901
_cell_formula_units_Z   1
loop_
 _symmetry_equiv_pos_site_id
 _symmetry_equiv_pos_as_xyz
  1  'x, y, z'
loop_
 _atom_site_type_symbol
 _atom_site_label
 _atom_site_symmetry_multiplicity
 _atom_site_fract_x
 _atom_site_fract_y
 _atom_site_fract_z
 _atom_site_occupancy
  Ho  Ho0  1  0.287895  0.184446  0.472350  1
  Ho  Ho1  1  0.712243  0.815835  0.528055  1
  Ho  Ho2  1  0.287836  0.815491  0.103319  1
  Er  Er3  1  0.712379  0.184065  0.896420  1
  Er  Er4  1  0.620585  0.311501  0.308837  1
  Er  Er5  1  0.379685  0.688776  0.691123  1
  Er  Er6  1  0.002260  0.311426  0.691069  1
  Er  Er7  1  0.997289  0.688180  0.308765  1
  Er  Er8  1  0.210450  0.408265  0.197327  1
  Er  Er9  1  0.789147  0.591346  0.802490  1
  Er  Er10  1  0.211136  0.013386  0.802494  1
  Er  Er11  1  0.789039  0.986837  0.197315  1
  Co  Co12  1  0.999760  0.376188  0.375921  1
  Co  Co13  1  0.000009  0.623737  0.623733  1
  Co  Co14  1  0.388840  0.888810  0.500546  1
  Co  Co15  1  0.611785  0.111692  0.500552  1
  Bi  Bi16  1  0.500010  0.500016  0.000000  1
  Rh  Rh17  1  0.999653  0.000004  0.999681  1
