# generated using pymatgen
data_Li3Sc(MnPt2)4
_symmetry_space_group_name_H-M   'P 1'
_cell_length_a   5.82607200
_cell_length_b   6.97335300
_cell_length_c   5.82160100
_cell_angle_alpha   90.00000000
_cell_angle_beta   89.99978356
_cell_angle_gamma   90.00000000
_symmetry_Int_Tables_number   1
_chemical_formula_structural   Li3Sc(MnPt2)4
_chemical_formula_sum   'Li3 Sc1 Mn4 Pt8'
_cell_volume   236.51567799
_cell_formula_units_Z   1
loop_
 _symmetry_equiv_pos_site_id
 _symmetry_equiv_pos_as_xyz
  1  'x, y, z'
loop_
 _atom_site_type_symbol
 _atom_site_label
 _atom_site_symmetry_multiplicity
 _atom_site_fract_x
 _atom_site_fract_y
 _atom_site_fract_z
 _atom_site_occupancy
  Li  Li0  1  0.250003  0.750001  0.999998  1
  Li  Li1  1  0.250000  0.750001  0.499992  1
  Li  Li2  1  0.750001  0.250000  0.500003  1
  Sc  Sc3  1  0.750000  0.250000  0.000003  1
  Mn  Mn4  1  0.250009  0.250000  0.000012  1
  Mn  Mn5  1  0.749989  0.750001  0.000000  1
  Mn  Mn6  1  0.750011  0.750001  0.499996  1
  Mn  Mn7  1  0.249976  0.250000  0.500006  1
  Pt  Pt8  1  0.003636  0.995557  0.252980  1
  Pt  Pt9  1  0.003636  0.504447  0.252980  1
  Pt  Pt10  1  0.496361  0.995553  0.252980  1
  Pt  Pt11  1  0.496361  0.504444  0.252980  1
  Pt  Pt12  1  0.496367  0.995554  0.747016  1
  Pt  Pt13  1  0.496367  0.504450  0.747016  1
  Pt  Pt14  1  0.003641  0.995549  0.747020  1
  Pt  Pt15  1  0.003641  0.504446  0.747020  1
