# generated using pymatgen
data_Ti8Al14AsPtRh6
_symmetry_space_group_name_H-M   'P 1'
_cell_length_a   8.65167142
_cell_length_b   8.63929430
_cell_length_c   8.65241745
_cell_angle_alpha   119.95824231
_cell_angle_beta   119.89394763
_cell_angle_gamma   90.07567273
_symmetry_Int_Tables_number   1
_chemical_formula_structural   Ti8Al14AsPtRh6
_chemical_formula_sum   'Ti8 Al14 As1 Pt1 Rh6'
_cell_volume   458.01829507
_cell_formula_units_Z   1
loop_
 _symmetry_equiv_pos_site_id
 _symmetry_equiv_pos_as_xyz
  1  'x, y, z'
loop_
 _atom_site_type_symbol
 _atom_site_label
 _atom_site_symmetry_multiplicity
 _atom_site_fract_x
 _atom_site_fract_y
 _atom_site_fract_z
 _atom_site_occupancy
  Ti  Ti0  1  0.796038  0.295690  0.086032  1
  Ti  Ti1  1  0.210488  0.295112  0.499029  1
  Ti  Ti2  1  0.205292  0.704990  0.500115  1
  Ti  Ti3  1  0.209180  0.710207  0.913298  1
  Ti  Ti4  1  0.795848  0.710446  0.501059  1
  Ti  Ti5  1  0.789386  0.290289  0.500066  1
  Ti  Ti6  1  0.384125  0.124640  0.746411  1
  Ti  Ti7  1  0.380626  0.637476  0.258295  1
  Al  Al8  1  0.160518  0.338513  0.178358  1
  Al  Al9  1  0.162445  0.982999  0.825644  1
  Al  Al10  1  0.158370  0.342758  0.820043  1
  Al  Al11  1  0.522520  0.339703  0.183286  1
  Al  Al12  1  0.838960  0.659298  0.819779  1
  Al  Al13  1  0.837756  0.019522  0.176547  1
  Al  Al14  1  0.836534  0.657329  0.174072  1
  Al  Al15  1  0.483194  0.660431  0.821935  1
  Al  Al16  1  0.380540  0.120520  0.261259  1
  Al  Al17  1  0.858600  0.121670  0.743471  1
  Al  Al18  1  0.616279  0.877553  0.255735  1
  Al  Al19  1  0.619619  0.360828  0.740033  1
  Al  Al20  1  0.619967  0.878426  0.740236  1
  Al  Al21  1  0.138805  0.877795  0.255596  1
  As  As22  1  0.997786  0.497436  0.499700  1
  Pt  Pt23  1  0.000697  0.999527  0.500316  1
  Rh  Rh24  1  0.499346  0.999551  0.999271  1
  Rh  Rh25  1  0.498636  0.498859  0.000330  1
  Rh  Rh26  1  0.498945  0.500084  0.499145  1
  Rh  Rh27  1  0.000922  0.500046  0.001028  1
  Rh  Rh28  1  0.000285  0.000231  0.999852  1
  Rh  Rh29  1  0.498290  0.998069  0.500057  1
