# generated using pymatgen
data_La2Cr3Re14C3
_symmetry_space_group_name_H-M   'P 1'
_cell_length_a   6.98708017
_cell_length_b   6.98708027
_cell_length_c   6.98708200
_cell_angle_alpha   82.85874983
_cell_angle_beta   82.85873320
_cell_angle_gamma   82.85874084
_symmetry_Int_Tables_number   1
_chemical_formula_structural   La2Cr3Re14C3
_chemical_formula_sum   'La2 Cr3 Re14 C3'
_cell_volume   333.77356772
_cell_formula_units_Z   1
loop_
 _symmetry_equiv_pos_site_id
 _symmetry_equiv_pos_as_xyz
  1  'x, y, z'
loop_
 _atom_site_type_symbol
 _atom_site_label
 _atom_site_symmetry_multiplicity
 _atom_site_fract_x
 _atom_site_fract_y
 _atom_site_fract_z
 _atom_site_occupancy
  La  La0  1  0.646255  0.646255  0.646255  1
  La  La1  1  0.353745  0.353745  0.353745  1
  Cr  Cr2  1  0.000000  0.000000  0.500000  1
  Cr  Cr3  1  0.500000  0.000000  0.000000  1
  Cr  Cr4  1  0.000000  0.500000  0.000000  1
  Re  Re5  1  0.721571  0.278429  0.000000  1
  Re  Re6  1  0.000000  0.721571  0.278429  1
  Re  Re7  1  0.278429  0.000000  0.721571  1
  Re  Re8  1  0.000000  0.278429  0.721571  1
  Re  Re9  1  0.721571  0.000000  0.278429  1
  Re  Re10  1  0.278429  0.721571  0.000000  1
  Re  Re11  1  0.342863  0.342863  0.868724  1
  Re  Re12  1  0.868724  0.342863  0.342863  1
  Re  Re13  1  0.342863  0.868724  0.342863  1
  Re  Re14  1  0.657137  0.657137  0.131276  1
  Re  Re15  1  0.131276  0.657137  0.657137  1
  Re  Re16  1  0.657137  0.131276  0.657137  1
  Re  Re17  1  0.901327  0.901327  0.901327  1
  Re  Re18  1  0.098673  0.098673  0.098673  1
  C  C19  1  0.500000  0.500000  0.000000  1
  C  C20  1  0.000000  0.500000  0.500000  1
  C  C21  1  0.500000  0.000000  0.500000  1
