# generated using pymatgen
data_LuHfZr2(Al3Ir)6
_symmetry_space_group_name_H-M   'P 1'
_cell_length_a   7.48687800
_cell_length_b   7.48144169
_cell_length_c   9.28845800
_cell_angle_alpha   90.00000000
_cell_angle_beta   90.00000000
_cell_angle_gamma   119.81972314
_symmetry_Int_Tables_number   1
_chemical_formula_structural   LuHfZr2(Al3Ir)6
_chemical_formula_sum   'Lu1 Hf1 Zr2 Al18 Ir6'
_cell_volume   451.38422456
_cell_formula_units_Z   1
loop_
 _symmetry_equiv_pos_site_id
 _symmetry_equiv_pos_as_xyz
  1  'x, y, z'
loop_
 _atom_site_type_symbol
 _atom_site_label
 _atom_site_symmetry_multiplicity
 _atom_site_fract_x
 _atom_site_fract_y
 _atom_site_fract_z
 _atom_site_occupancy
  Lu  Lu0  1  0.329336  0.005360  0.750000  1
  Hf  Hf1  1  0.671069  0.994574  0.250000  1
  Zr  Zr2  1  0.994764  0.671339  0.250000  1
  Zr  Zr3  1  0.005430  0.329636  0.750000  1
  Al  Al4  1  0.123228  0.124224  0.250000  1
  Al  Al5  1  0.873064  0.875652  0.750000  1
  Al  Al6  1  0.997837  0.334324  0.076812  1
  Al  Al7  1  0.000343  0.663581  0.924731  1
  Al  Al8  1  0.000343  0.663581  0.575269  1
  Al  Al9  1  0.334758  0.998521  0.420888  1
  Al  Al10  1  0.997837  0.334324  0.423188  1
  Al  Al11  1  0.667329  0.001884  0.575462  1
  Al  Al12  1  0.667329  0.001884  0.924538  1
  Al  Al13  1  0.334758  0.998521  0.079112  1
  Al  Al14  1  0.331505  0.333189  0.557721  1
  Al  Al15  1  0.668070  0.668068  0.440023  1
  Al  Al16  1  0.668070  0.668068  0.059977  1
  Al  Al17  1  0.331505  0.333189  0.942279  1
  Al  Al18  1  0.338364  0.551946  0.250000  1
  Al  Al19  1  0.665162  0.451608  0.750000  1
  Al  Al20  1  0.552799  0.339016  0.250000  1
  Al  Al21  1  0.447513  0.658042  0.750000  1
  Ir  Ir22  1  0.672131  0.326926  0.001005  1
  Ir  Ir23  1  0.328549  0.673906  0.001368  1
  Ir  Ir24  1  0.328549  0.673906  0.498632  1
  Ir  Ir25  1  0.672131  0.326926  0.498995  1
  Ir  Ir26  1  0.999115  0.998901  0.001218  1
  Ir  Ir27  1  0.999115  0.998901  0.498782  1
