# generated using pymatgen
data_Li2Tb3Gd5(SiB4)4
_symmetry_space_group_name_H-M   'P 1'
_cell_length_a   7.19213401
_cell_length_b   7.19352802
_cell_length_c   7.95098302
_cell_angle_alpha   90.00640150
_cell_angle_beta   90.00516104
_cell_angle_gamma   89.99588957
_symmetry_Int_Tables_number   1
_chemical_formula_structural   Li2Tb3Gd5(SiB4)4
_chemical_formula_sum   'Li2 Tb3 Gd5 Si4 B16'
_cell_volume   411.35855225
_cell_formula_units_Z   1
loop_
 _symmetry_equiv_pos_site_id
 _symmetry_equiv_pos_as_xyz
  1  'x, y, z'
loop_
 _atom_site_type_symbol
 _atom_site_label
 _atom_site_symmetry_multiplicity
 _atom_site_fract_x
 _atom_site_fract_y
 _atom_site_fract_z
 _atom_site_occupancy
  Li  Li0  1  0.000077  0.000103  0.500101  1
  Li  Li1  1  0.499935  0.499924  0.500102  1
  Tb  Tb2  1  0.683548  0.183504  0.764486  1
  Tb  Tb3  1  0.183549  0.316453  0.764344  1
  Tb  Tb4  1  0.183476  0.316560  0.235527  1
  Gd  Gd5  1  0.683581  0.183562  0.236285  1
  Gd  Gd6  1  0.316468  0.816464  0.763835  1
  Gd  Gd7  1  0.316399  0.816417  0.236135  1
  Gd  Gd8  1  0.816560  0.683469  0.236117  1
  Gd  Gd9  1  0.816458  0.683524  0.763766  1
  Si  Si10  1  0.114491  0.614068  0.500117  1
  Si  Si11  1  0.885775  0.385391  0.500123  1
  Si  Si12  1  0.385457  0.114641  0.500195  1
  Si  Si13  1  0.614287  0.885858  0.500207  1
  B  B14  1  0.173776  0.040234  0.999902  1
  B  B15  1  0.826240  0.960189  0.999894  1
  B  B16  1  0.960060  0.173940  0.999874  1
  B  B17  1  0.326108  0.539797  0.999912  1
  B  B18  1  0.039940  0.826372  0.999905  1
  B  B19  1  0.673673  0.459894  0.999878  1
  B  B20  1  0.539833  0.673637  0.999907  1
  B  B21  1  0.459817  0.326140  0.999870  1
  B  B22  1  0.089324  0.588950  0.000005  1
  B  B23  1  0.911023  0.410645  0.999995  1
  B  B24  1  0.410872  0.089266  0.999896  1
  B  B25  1  0.589180  0.910985  0.999888  1
  B  B26  1  0.000114  0.000054  0.158210  1
  B  B27  1  0.000025  0.000076  0.841654  1
  B  B28  1  0.499999  0.499914  0.841667  1
  B  B29  1  0.499954  0.499968  0.158200  1
