# generated using pymatgen
data_Ho8As(PdPt11)2
_symmetry_space_group_name_H-M   'P 1'
_cell_length_a   8.34908900
_cell_length_b   8.34908918
_cell_length_c   8.33936600
_cell_angle_alpha   90.00000000
_cell_angle_beta   90.00000000
_cell_angle_gamma   90.11622369
_symmetry_Int_Tables_number   1
_chemical_formula_structural   Ho8As(PdPt11)2
_chemical_formula_sum   'Ho8 As1 Pd2 Pt22'
_cell_volume   581.31339660
_cell_formula_units_Z   1
loop_
 _symmetry_equiv_pos_site_id
 _symmetry_equiv_pos_as_xyz
  1  'x, y, z'
loop_
 _atom_site_type_symbol
 _atom_site_label
 _atom_site_symmetry_multiplicity
 _atom_site_fract_x
 _atom_site_fract_y
 _atom_site_fract_z
 _atom_site_occupancy
  Ho  Ho0  1  0.253639  0.253639  0.746449  1
  Ho  Ho1  1  0.254630  0.745208  0.254401  1
  Ho  Ho2  1  0.745208  0.254630  0.254401  1
  Ho  Ho3  1  0.744823  0.744823  0.745047  1
  Ho  Ho4  1  0.744823  0.744823  0.254953  1
  Ho  Ho5  1  0.745208  0.254630  0.745599  1
  Ho  Ho6  1  0.254630  0.745208  0.745599  1
  Ho  Ho7  1  0.253639  0.253639  0.253551  1
  As  As8  1  0.006597  0.006597  0.000000  1
  Pd  Pd9  1  0.998914  0.716182  0.000000  1
  Pd  Pd10  1  0.716182  0.998914  0.000000  1
  Pt  Pt11  1  0.499386  0.499386  0.747614  1
  Pt  Pt12  1  0.499228  0.252467  0.500000  1
  Pt  Pt13  1  0.252467  0.499228  0.500000  1
  Pt  Pt14  1  0.499386  0.499386  0.252386  1
  Pt  Pt15  1  0.499489  0.747151  0.500000  1
  Pt  Pt16  1  0.747151  0.499489  0.500000  1
  Pt  Pt17  1  0.998222  0.998222  0.711924  1
  Pt  Pt18  1  0.997999  0.293106  0.000000  1
  Pt  Pt19  1  0.293106  0.997999  0.000000  1
  Pt  Pt20  1  0.998222  0.998222  0.288076  1
  Pt  Pt21  1  0.999906  0.500294  0.740661  1
  Pt  Pt22  1  0.500208  0.258422  0.000000  1
  Pt  Pt23  1  0.258448  0.999813  0.500000  1
  Pt  Pt24  1  0.999813  0.258448  0.500000  1
  Pt  Pt25  1  0.500294  0.999906  0.740661  1
  Pt  Pt26  1  0.258422  0.500208  0.000000  1
  Pt  Pt27  1  0.999906  0.500294  0.259339  1
  Pt  Pt28  1  0.500663  0.739699  0.000000  1
  Pt  Pt29  1  0.000086  0.739311  0.500000  1
  Pt  Pt30  1  0.500294  0.999906  0.259339  1
  Pt  Pt31  1  0.739311  0.000086  0.500000  1
  Pt  Pt32  1  0.739699  0.500663  0.000000  1
