# generated using pymatgen
data_Sr3Nd(NiO4)2
_symmetry_space_group_name_H-M   'P 1'
_cell_length_a   6.76150122
_cell_length_b   6.76149970
_cell_length_c   5.45804200
_cell_angle_alpha   90.00000000
_cell_angle_beta   90.00000000
_cell_angle_gamma   132.44701136
_symmetry_Int_Tables_number   1
_chemical_formula_structural   Sr3Nd(NiO4)2
_chemical_formula_sum   'Sr3 Nd1 Ni2 O8'
_cell_volume   184.12875703
_cell_formula_units_Z   1
loop_
 _symmetry_equiv_pos_site_id
 _symmetry_equiv_pos_as_xyz
  1  'x, y, z'
loop_
 _atom_site_type_symbol
 _atom_site_label
 _atom_site_symmetry_multiplicity
 _atom_site_fract_x
 _atom_site_fract_y
 _atom_site_fract_z
 _atom_site_occupancy
  Sr  Sr0  1  0.642430  0.357570  0.000000  1
  Sr  Sr1  1  0.360411  0.639589  0.000000  1
  Sr  Sr2  1  0.856852  0.143148  0.500000  1
  Nd  Nd3  1  0.135608  0.864392  0.500000  1
  Ni  Ni4  1  0.496652  0.503348  0.500000  1
  Ni  Ni5  1  0.999281  0.000719  0.000000  1
  O  O6  1  0.842139  0.157861  0.000000  1
  O  O7  1  0.329240  0.670760  0.500000  1
  O  O8  1  0.657797  0.342203  0.500000  1
  O  O9  1  0.160661  0.839339  0.000000  1
  O  O10  1  0.761967  0.752502  0.743642  1
  O  O11  1  0.247498  0.238033  0.256358  1
  O  O12  1  0.247498  0.238033  0.743642  1
  O  O13  1  0.761967  0.752502  0.256358  1
