# generated using pymatgen
data_Er3Lu(Si2Os)2
_symmetry_space_group_name_H-M   'P 1'
_cell_length_a   5.67484834
_cell_length_b   5.67484723
_cell_length_c   9.90751370
_cell_angle_alpha   116.40881890
_cell_angle_beta   116.40881296
_cell_angle_gamma   43.54056652
_symmetry_Int_Tables_number   1
_chemical_formula_structural   Er3Lu(Si2Os)2
_chemical_formula_sum   'Er3 Lu1 Si4 Os2'
_cell_volume   192.94371805
_cell_formula_units_Z   1
loop_
 _symmetry_equiv_pos_site_id
 _symmetry_equiv_pos_as_xyz
  1  'x, y, z'
loop_
 _atom_site_type_symbol
 _atom_site_label
 _atom_site_symmetry_multiplicity
 _atom_site_fract_x
 _atom_site_fract_y
 _atom_site_fract_z
 _atom_site_occupancy
  Er  Er0  1  0.814235  0.814235  0.388863  1
  Er  Er1  1  0.185401  0.185401  0.610643  1
  Er  Er2  1  0.992343  0.992343  0.821483  1
  Lu  Lu3  1  0.006841  0.006841  0.177811  1
  Si  Si4  1  0.641442  0.641442  0.060242  1
  Si  Si5  1  0.505147  0.505147  0.375454  1
  Si  Si6  1  0.495439  0.495439  0.623760  1
  Si  Si7  1  0.358602  0.358602  0.940349  1
  Os  Os8  1  0.269927  0.269927  0.128475  1
  Os  Os9  1  0.730622  0.730622  0.872919  1
