# generated using pymatgen
data_LiPr8Ho11Si16
_symmetry_space_group_name_H-M   'P 1'
_cell_length_a   7.48455200
_cell_length_b   7.80446000
_cell_length_c   14.81812400
_cell_angle_alpha   90.00000000
_cell_angle_beta   90.00000000
_cell_angle_gamma   89.99696441
_symmetry_Int_Tables_number   1
_chemical_formula_structural   LiPr8Ho11Si16
_chemical_formula_sum   'Li1 Pr8 Ho11 Si16'
_cell_volume   865.56939775
_cell_formula_units_Z   1
loop_
 _symmetry_equiv_pos_site_id
 _symmetry_equiv_pos_as_xyz
  1  'x, y, z'
loop_
 _atom_site_type_symbol
 _atom_site_label
 _atom_site_symmetry_multiplicity
 _atom_site_fract_x
 _atom_site_fract_y
 _atom_site_fract_z
 _atom_site_occupancy
  Li  Li0  1  0.648997  0.990422  0.250000  1
  Pr  Pr1  1  0.968229  0.822532  0.101851  1
  Pr  Pr2  1  0.477823  0.686960  0.397938  1
  Pr  Pr3  1  0.523262  0.321573  0.902425  1
  Pr  Pr4  1  0.023753  0.179249  0.597656  1
  Pr  Pr5  1  0.023753  0.179249  0.902344  1
  Pr  Pr6  1  0.523262  0.321573  0.597575  1
  Pr  Pr7  1  0.477823  0.686960  0.102062  1
  Pr  Pr8  1  0.968229  0.822532  0.398149  1
  Ho  Ho9  1  0.148377  0.508108  0.250000  1
  Ho  Ho10  1  0.850451  0.490390  0.750000  1
  Ho  Ho11  1  0.348479  0.010672  0.750000  1
  Ho  Ho12  1  0.681206  0.820227  0.876424  1
  Ho  Ho13  1  0.181130  0.677736  0.622554  1
  Ho  Ho14  1  0.816681  0.315456  0.124805  1
  Ho  Ho15  1  0.326702  0.174707  0.374858  1
  Ho  Ho16  1  0.326702  0.174707  0.125142  1
  Ho  Ho17  1  0.816681  0.315456  0.375195  1
  Ho  Ho18  1  0.181130  0.677736  0.877446  1
  Ho  Ho19  1  0.681206  0.820227  0.623576  1
  Si  Si20  1  0.770403  0.612141  0.250000  1
  Si  Si21  1  0.263453  0.879958  0.250000  1
  Si  Si22  1  0.729448  0.120486  0.750000  1
  Si  Si23  1  0.230415  0.379888  0.750000  1
  Si  Si24  1  0.028618  0.110325  0.250000  1
  Si  Si25  1  0.522244  0.398351  0.250000  1
  Si  Si26  1  0.476235  0.611774  0.750000  1
  Si  Si27  1  0.975637  0.885581  0.750000  1
  Si  Si28  1  0.856504  0.530805  0.962256  1
  Si  Si29  1  0.356619  0.968205  0.539637  1
  Si  Si30  1  0.646132  0.034230  0.035098  1
  Si  Si31  1  0.145581  0.469272  0.458552  1
  Si  Si32  1  0.145581  0.469272  0.041448  1
  Si  Si33  1  0.646132  0.034230  0.464902  1
  Si  Si34  1  0.356619  0.968205  0.960363  1
  Si  Si35  1  0.856504  0.530805  0.537744  1
