# generated using pymatgen
data_Na8Hf3ReBr24
_symmetry_space_group_name_H-M   'P 1'
_cell_length_a   7.17417700
_cell_length_b   7.17417715
_cell_length_c   26.66783500
_cell_angle_alpha   90.00000000
_cell_angle_beta   90.00000000
_cell_angle_gamma   119.99999468
_symmetry_Int_Tables_number   1
_chemical_formula_structural   Na8Hf3ReBr24
_chemical_formula_sum   'Na8 Hf3 Re1 Br24'
_cell_volume   1188.67354807
_cell_formula_units_Z   1
loop_
 _symmetry_equiv_pos_site_id
 _symmetry_equiv_pos_as_xyz
  1  'x, y, z'
loop_
 _atom_site_type_symbol
 _atom_site_label
 _atom_site_symmetry_multiplicity
 _atom_site_fract_x
 _atom_site_fract_y
 _atom_site_fract_z
 _atom_site_occupancy
  Na  Na0  1  0.000000  0.000000  0.250310  1
  Na  Na1  1  0.000000  0.000000  0.749690  1
  Na  Na2  1  0.333333  0.666667  0.000311  1
  Na  Na3  1  0.333333  0.666667  0.499614  1
  Na  Na4  1  0.333333  0.666667  0.250193  1
  Na  Na5  1  0.666667  0.333333  0.749807  1
  Na  Na6  1  0.666667  0.333333  0.999689  1
  Na  Na7  1  0.666667  0.333333  0.500386  1
  Hf  Hf8  1  0.000000  0.000000  0.500000  1
  Hf  Hf9  1  0.333333  0.666667  0.749729  1
  Hf  Hf10  1  0.666667  0.333333  0.250271  1
  Re  Re11  1  0.000000  0.000000  0.000000  1
  Br  Br12  1  0.369205  0.035324  0.308156  1
  Br  Br13  1  0.333512  0.964387  0.807646  1
  Br  Br14  1  0.999623  0.287525  0.055673  1
  Br  Br15  1  0.000627  0.297900  0.557934  1
  Br  Br16  1  0.964676  0.333881  0.308156  1
  Br  Br17  1  0.035613  0.369124  0.807646  1
  Br  Br18  1  0.369124  0.333512  0.192354  1
  Br  Br19  1  0.333881  0.369205  0.691844  1
  Br  Br20  1  0.297900  0.297273  0.442066  1
  Br  Br21  1  0.287525  0.287902  0.944327  1
  Br  Br22  1  0.702727  0.000627  0.442066  1
  Br  Br23  1  0.287902  0.000377  0.055673  1
  Br  Br24  1  0.297273  0.999373  0.557934  1
  Br  Br25  1  0.712475  0.712098  0.055673  1
  Br  Br26  1  0.702100  0.702727  0.557934  1
  Br  Br27  1  0.666119  0.630795  0.308156  1
  Br  Br28  1  0.630876  0.666488  0.807646  1
  Br  Br29  1  0.964387  0.630876  0.192354  1
  Br  Br30  1  0.035324  0.666119  0.691844  1
  Br  Br31  1  0.999373  0.702100  0.442066  1
  Br  Br32  1  0.000377  0.712475  0.944327  1
  Br  Br33  1  0.712098  0.999623  0.944327  1
  Br  Br34  1  0.666488  0.035613  0.192354  1
  Br  Br35  1  0.630795  0.964676  0.691844  1
