# generated using pymatgen
data_NdHg3IrRh3O14
_symmetry_space_group_name_H-M   'P 1'
_cell_length_a   7.27424082
_cell_length_b   7.37719671
_cell_length_c   7.27424200
_cell_angle_alpha   60.46059039
_cell_angle_beta   59.99999462
_cell_angle_gamma   60.46058699
_symmetry_Int_Tables_number   1
_chemical_formula_structural   NdHg3IrRh3O14
_chemical_formula_sum   'Nd1 Hg3 Ir1 Rh3 O14'
_cell_volume   277.93319076
_cell_formula_units_Z   1
loop_
 _symmetry_equiv_pos_site_id
 _symmetry_equiv_pos_as_xyz
  1  'x, y, z'
loop_
 _atom_site_type_symbol
 _atom_site_label
 _atom_site_symmetry_multiplicity
 _atom_site_fract_x
 _atom_site_fract_y
 _atom_site_fract_z
 _atom_site_occupancy
  Nd  Nd0  1  0.125000  0.625000  0.125000  1
  Hg  Hg1  1  0.625000  0.125000  0.125000  1
  Hg  Hg2  1  0.125000  0.125000  0.625000  1
  Hg  Hg3  1  0.125000  0.125000  0.125000  1
  Ir  Ir4  1  0.625000  0.125000  0.625000  1
  Rh  Rh5  1  0.125000  0.625000  0.625000  1
  Rh  Rh6  1  0.625000  0.625000  0.125000  1
  Rh  Rh7  1  0.625000  0.625000  0.625000  1
  O  O8  1  0.706053  0.701587  0.296180  1
  O  O9  1  0.308540  0.302418  0.694521  1
  O  O10  1  0.694521  0.302418  0.694521  1
  O  O11  1  0.296180  0.701587  0.296180  1
  O  O12  1  0.296180  0.701587  0.706053  1
  O  O13  1  0.694521  0.302418  0.308540  1
  O  O14  1  0.543947  0.548413  0.953820  1
  O  O15  1  0.941460  0.947582  0.555479  1
  O  O16  1  0.555479  0.947582  0.555479  1
  O  O17  1  0.953820  0.548413  0.953820  1
  O  O18  1  0.953820  0.548413  0.543947  1
  O  O19  1  0.555479  0.947582  0.941460  1
  O  O20  1  0.257338  0.227986  0.257338  1
  O  O21  1  0.992662  0.022014  0.992662  1
