# generated using pymatgen
data_Lu3Ga5Pd
_symmetry_space_group_name_H-M   'P 1'
_cell_length_a   6.83633100
_cell_length_b   6.83633098
_cell_length_c   4.25879300
_cell_angle_alpha   90.00000000
_cell_angle_beta   90.00000000
_cell_angle_gamma   120.00000495
_symmetry_Int_Tables_number   1
_chemical_formula_structural   Lu3Ga5Pd
_chemical_formula_sum   'Lu3 Ga5 Pd1'
_cell_volume   172.37064409
_cell_formula_units_Z   1
loop_
 _symmetry_equiv_pos_site_id
 _symmetry_equiv_pos_as_xyz
  1  'x, y, z'
loop_
 _atom_site_type_symbol
 _atom_site_label
 _atom_site_symmetry_multiplicity
 _atom_site_fract_x
 _atom_site_fract_y
 _atom_site_fract_z
 _atom_site_occupancy
  Lu  Lu0  1  0.583196  0.000000  0.500000  1
  Lu  Lu1  1  0.416804  0.416804  0.500000  1
  Lu  Lu2  1  0.000000  0.583196  0.500000  1
  Ga  Ga3  1  0.244103  0.000000  0.000000  1
  Ga  Ga4  1  0.000000  0.244103  0.000000  1
  Ga  Ga5  1  0.666667  0.333333  0.000000  1
  Ga  Ga6  1  0.333333  0.666667  0.000000  1
  Ga  Ga7  1  0.755897  0.755897  0.000000  1
  Pd  Pd8  1  0.000000  0.000000  0.500000  1
