# generated using pymatgen
data_Ho6Er7Th3(CdIr)4
_symmetry_space_group_name_H-M   'P 1'
_cell_length_a   9.66871971
_cell_length_b   9.66713569
_cell_length_c   9.66713600
_cell_angle_alpha   59.99999895
_cell_angle_beta   60.00541821
_cell_angle_gamma   60.00541811
_symmetry_Int_Tables_number   1
_chemical_formula_structural   Ho6Er7Th3(CdIr)4
_chemical_formula_sum   'Ho6 Er7 Th3 Cd4 Ir4'
_cell_volume   638.97692349
_cell_formula_units_Z   1
loop_
 _symmetry_equiv_pos_site_id
 _symmetry_equiv_pos_as_xyz
  1  'x, y, z'
loop_
 _atom_site_type_symbol
 _atom_site_label
 _atom_site_symmetry_multiplicity
 _atom_site_fract_x
 _atom_site_fract_y
 _atom_site_fract_z
 _atom_site_occupancy
  Ho  Ho0  1  0.186065  0.813631  0.813631  1
  Ho  Ho1  1  0.814784  0.185176  0.185176  1
  Ho  Ho2  1  0.814784  0.185176  0.814865  1
  Ho  Ho3  1  0.186065  0.813631  0.186674  1
  Ho  Ho4  1  0.814784  0.814865  0.185176  1
  Ho  Ho5  1  0.186065  0.186674  0.813631  1
  Er  Er6  1  0.198970  0.600344  0.600344  1
  Er  Er7  1  0.061979  0.439247  0.439247  1
  Er  Er8  1  0.437944  0.062262  0.062262  1
  Er  Er9  1  0.437944  0.062262  0.437532  1
  Er  Er10  1  0.061979  0.439247  0.059528  1
  Er  Er11  1  0.437944  0.437532  0.062262  1
  Er  Er12  1  0.061979  0.059528  0.439247  1
  Th  Th13  1  0.597890  0.600234  0.600234  1
  Th  Th14  1  0.597890  0.600234  0.201644  1
  Th  Th15  1  0.597890  0.201644  0.600234  1
  Cd  Cd16  1  0.834040  0.831328  0.831328  1
  Cd  Cd17  1  0.834040  0.831328  0.503302  1
  Cd  Cd18  1  0.834040  0.503302  0.831328  1
  Cd  Cd19  1  0.501523  0.832826  0.832826  1
  Ir  Ir20  1  0.392819  0.391778  0.391778  1
  Ir  Ir21  1  0.392819  0.391778  0.823626  1
  Ir  Ir22  1  0.392819  0.823626  0.391778  1
  Ir  Ir23  1  0.822949  0.392351  0.392351  1
