# generated using pymatgen
data_ScTa2B2IrRu4
_symmetry_space_group_name_H-M   'P 1'
_cell_length_a   9.49911914
_cell_length_b   9.49301334
_cell_length_c   3.05069700
_cell_angle_alpha   90.00000000
_cell_angle_beta   90.00000000
_cell_angle_gamma   90.41977638
_symmetry_Int_Tables_number   1
_chemical_formula_structural   ScTa2B2IrRu4
_chemical_formula_sum   'Sc2 Ta4 B4 Ir2 Ru8'
_cell_volume   275.09002623
_cell_formula_units_Z   2
loop_
 _symmetry_equiv_pos_site_id
 _symmetry_equiv_pos_as_xyz
  1  'x, y, z'
loop_
 _atom_site_type_symbol
 _atom_site_label
 _atom_site_symmetry_multiplicity
 _atom_site_fract_x
 _atom_site_fract_y
 _atom_site_fract_z
 _atom_site_occupancy
  Sc  Sc0  1  0.824908  0.678317  0.000000  1
  Sc  Sc1  1  0.178063  0.321321  0.000000  1
  Ta  Ta2  1  0.319561  0.826878  0.000000  1
  Ta  Ta3  1  0.676291  0.175937  0.000000  1
  Ta  Ta4  1  0.498803  0.494697  0.000000  1
  Ta  Ta5  1  0.999657  0.000736  0.000000  1
  B  B6  1  0.623817  0.883088  0.000000  1
  B  B7  1  0.375930  0.121099  0.000000  1
  B  B8  1  0.123531  0.623391  0.000000  1
  B  B9  1  0.877225  0.376781  0.000000  1
  Ir  Ir10  1  0.566465  0.719620  0.500000  1
  Ir  Ir11  1  0.001292  0.499712  0.500000  1
  Ru  Ru12  1  0.435419  0.277533  0.500000  1
  Ru  Ru13  1  0.074685  0.783115  0.500000  1
  Ru  Ru14  1  0.923764  0.217230  0.500000  1
  Ru  Ru15  1  0.284404  0.576809  0.500000  1
  Ru  Ru16  1  0.717515  0.426292  0.500000  1
  Ru  Ru17  1  0.219946  0.065146  0.500000  1
  Ru  Ru18  1  0.779552  0.933721  0.500000  1
  Ru  Ru19  1  0.499172  0.998577  0.500000  1
