# generated using pymatgen
data_Gd4ErNi2Ag
_symmetry_space_group_name_H-M   'P 1'
_cell_length_a   8.69230942
_cell_length_b   8.69230922
_cell_length_c   8.69230900
_cell_angle_alpha   127.53110853
_cell_angle_beta   127.53111583
_cell_angle_gamma   77.38584920
_symmetry_Int_Tables_number   1
_chemical_formula_structural   Gd4ErNi2Ag
_chemical_formula_sum   'Gd8 Er2 Ni4 Ag2'
_cell_volume   400.65994981
_cell_formula_units_Z   2
loop_
 _symmetry_equiv_pos_site_id
 _symmetry_equiv_pos_as_xyz
  1  'x, y, z'
loop_
 _atom_site_type_symbol
 _atom_site_label
 _atom_site_symmetry_multiplicity
 _atom_site_fract_x
 _atom_site_fract_y
 _atom_site_fract_z
 _atom_site_occupancy
  Gd  Gd0  1  0.704353  0.527937  0.500000  1
  Gd  Gd1  1  0.472063  0.972063  0.176416  1
  Gd  Gd2  1  0.795647  0.295647  0.823584  1
  Gd  Gd3  1  0.527937  0.027937  0.823584  1
  Gd  Gd4  1  0.027937  0.204353  0.500000  1
  Gd  Gd5  1  0.295647  0.472063  0.500000  1
  Gd  Gd6  1  0.204353  0.704353  0.176416  1
  Gd  Gd7  1  0.972063  0.795647  0.500000  1
  Er  Er8  1  0.000000  0.000000  0.000000  1
  Er  Er9  1  0.500000  0.500000  0.000000  1
  Ni  Ni10  1  0.133659  0.633659  0.767318  1
  Ni  Ni11  1  0.866341  0.366341  0.232682  1
  Ni  Ni12  1  0.633659  0.866341  0.500000  1
  Ni  Ni13  1  0.366341  0.133659  0.500000  1
  Ag  Ag14  1  0.250000  0.250000  0.000000  1
  Ag  Ag15  1  0.750000  0.750000  0.000000  1
