# generated using pymatgen
data_Lu8Re3B24Ru
_symmetry_space_group_name_H-M   'P 1'
_cell_length_a   3.61404600
_cell_length_b   9.05512892
_cell_length_c   11.41155695
_cell_angle_alpha   90.10671705
_cell_angle_beta   90.00000000
_cell_angle_gamma   90.00000000
_symmetry_Int_Tables_number   1
_chemical_formula_structural   Lu8Re3B24Ru
_chemical_formula_sum   'Lu8 Re3 B24 Ru1'
_cell_volume   373.44999914
_cell_formula_units_Z   1
loop_
 _symmetry_equiv_pos_site_id
 _symmetry_equiv_pos_as_xyz
  1  'x, y, z'
loop_
 _atom_site_type_symbol
 _atom_site_label
 _atom_site_symmetry_multiplicity
 _atom_site_fract_x
 _atom_site_fract_y
 _atom_site_fract_z
 _atom_site_occupancy
  Lu  Lu0  1  0.000000  0.321391  0.414015  1
  Lu  Lu1  1  0.000000  0.677744  0.587778  1
  Lu  Lu2  1  0.000000  0.824207  0.084327  1
  Lu  Lu3  1  0.000000  0.176985  0.913610  1
  Lu  Lu4  1  0.000000  0.942607  0.370285  1
  Lu  Lu5  1  0.000000  0.055779  0.628931  1
  Lu  Lu6  1  0.000000  0.443710  0.129822  1
  Lu  Lu7  1  0.000000  0.556331  0.871348  1
  Re  Re8  1  0.000000  0.361322  0.678201  1
  Re  Re9  1  0.000000  0.139154  0.179689  1
  Re  Re10  1  0.000000  0.860847  0.820860  1
  B  B11  1  0.500000  0.553991  0.433394  1
  B  B12  1  0.500000  0.447215  0.565831  1
  B  B13  1  0.500000  0.053112  0.066137  1
  B  B14  1  0.500000  0.947038  0.933716  1
  B  B15  1  0.500000  0.749915  0.419561  1
  B  B16  1  0.500000  0.249005  0.579983  1
  B  B17  1  0.500000  0.250872  0.080213  1
  B  B18  1  0.500000  0.749703  0.919946  1
  B  B19  1  0.500000  0.792378  0.264966  1
  B  B20  1  0.500000  0.206425  0.734801  1
  B  B21  1  0.500000  0.293618  0.235531  1
  B  B22  1  0.500000  0.706354  0.765280  1
  B  B23  1  0.500000  0.631520  0.184719  1
  B  B24  1  0.500000  0.369359  0.815187  1
  B  B25  1  0.500000  0.131089  0.316069  1
  B  B26  1  0.500000  0.868749  0.684444  1
  B  B27  1  0.500000  0.981192  0.212046  1
  B  B28  1  0.500000  0.018690  0.787672  1
  B  B29  1  0.500000  0.482710  0.288089  1
  B  B30  1  0.500000  0.519106  0.712073  1
  B  B31  1  0.500000  0.601154  0.028669  1
  B  B32  1  0.500000  0.399390  0.972355  1
  B  B33  1  0.500000  0.099723  0.471810  1
  B  B34  1  0.500000  0.898344  0.527804  1
  Ru  Ru35  1  0.000000  0.639274  0.320838  1
