# generated using pymatgen
data_HfMgB4Ru5
_symmetry_space_group_name_H-M   'P 1'
_cell_length_a   3.00244100
_cell_length_b   8.53035775
_cell_length_c   10.05278059
_cell_angle_alpha   91.62612597
_cell_angle_beta   90.00000000
_cell_angle_gamma   90.00000000
_symmetry_Int_Tables_number   1
_chemical_formula_structural   HfMgB4Ru5
_chemical_formula_sum   'Hf2 Mg2 B8 Ru10'
_cell_volume   257.36708051
_cell_formula_units_Z   2
loop_
 _symmetry_equiv_pos_site_id
 _symmetry_equiv_pos_as_xyz
  1  'x, y, z'
loop_
 _atom_site_type_symbol
 _atom_site_label
 _atom_site_symmetry_multiplicity
 _atom_site_fract_x
 _atom_site_fract_y
 _atom_site_fract_z
 _atom_site_occupancy
  Hf  Hf0  1  0.500000  0.658078  0.817354  1
  Hf  Hf1  1  0.500000  0.341922  0.182646  1
  Mg  Mg2  1  0.500000  0.153510  0.680103  1
  Mg  Mg3  1  0.500000  0.846490  0.319897  1
  B  B4  1  0.500000  0.857619  0.599564  1
  B  B5  1  0.500000  0.142381  0.400436  1
  B  B6  1  0.500000  0.349434  0.894325  1
  B  B7  1  0.500000  0.650566  0.105675  1
  B  B8  1  0.500000  0.965306  0.912578  1
  B  B9  1  0.500000  0.034694  0.087422  1
  B  B10  1  0.500000  0.463514  0.587602  1
  B  B11  1  0.500000  0.536486  0.412398  1
  Ru  Ru12  1  0.000000  0.401020  0.736015  1
  Ru  Ru13  1  0.000000  0.598980  0.263985  1
  Ru  Ru14  1  0.000000  0.905382  0.763202  1
  Ru  Ru15  1  0.000000  0.094618  0.236798  1
  Ru  Ru16  1  0.000000  0.000000  0.500000  1
  Ru  Ru17  1  0.000000  0.500000  0.000000  1
  Ru  Ru18  1  0.000000  0.658591  0.552149  1
  Ru  Ru19  1  0.000000  0.341409  0.447851  1
  Ru  Ru20  1  0.000000  0.165922  0.955545  1
  Ru  Ru21  1  0.000000  0.834078  0.044455  1
