# generated using pymatgen
data_Tb4Ho4Ti3Si16Mo9
_symmetry_space_group_name_H-M   'P 1'
_cell_length_a   6.91511803
_cell_length_b   6.91528763
_cell_length_c   12.80959872
_cell_angle_alpha   90.01581041
_cell_angle_beta   90.00308549
_cell_angle_gamma   89.83042378
_symmetry_Int_Tables_number   1
_chemical_formula_structural   Tb4Ho4Ti3Si16Mo9
_chemical_formula_sum   'Tb4 Ho4 Ti3 Si16 Mo9'
_cell_volume   612.55268997
_cell_formula_units_Z   1
loop_
 _symmetry_equiv_pos_site_id
 _symmetry_equiv_pos_as_xyz
  1  'x, y, z'
loop_
 _atom_site_type_symbol
 _atom_site_label
 _atom_site_symmetry_multiplicity
 _atom_site_fract_x
 _atom_site_fract_y
 _atom_site_fract_z
 _atom_site_occupancy
  Tb  Tb0  1  0.339741  0.002838  0.468462  1
  Tb  Tb1  1  0.495977  0.839345  0.719246  1
  Tb  Tb2  1  0.500577  0.161200  0.217220  1
  Tb  Tb3  1  0.839603  0.496037  0.280934  1
  Ho  Ho4  1  0.160647  0.499874  0.782725  1
  Ho  Ho5  1  0.658664  0.999387  0.968605  1
  Ho  Ho6  1  0.002233  0.340458  0.531726  1
  Ho  Ho7  1  0.999521  0.658670  0.031186  1
  Ti  Ti8  1  0.170802  0.830691  0.248359  1
  Ti  Ti9  1  0.830844  0.171035  0.751552  1
  Ti  Ti10  1  0.669532  0.669342  0.500103  1
  Si  Si11  1  0.199382  0.130441  0.684177  1
  Si  Si12  1  0.373015  0.696346  0.934618  1
  Si  Si13  1  0.629348  0.299968  0.434582  1
  Si  Si14  1  0.696964  0.373622  0.064845  1
  Si  Si15  1  0.299294  0.627815  0.565968  1
  Si  Si16  1  0.798143  0.871501  0.184066  1
  Si  Si17  1  0.128683  0.200119  0.315916  1
  Si  Si18  1  0.872005  0.797514  0.815938  1
  Si  Si19  1  0.286874  0.962261  0.061383  1
  Si  Si20  1  0.540579  0.789426  0.313447  1
  Si  Si21  1  0.457018  0.212605  0.815330  1
  Si  Si22  1  0.790817  0.540114  0.686446  1
  Si  Si23  1  0.212063  0.457662  0.184598  1
  Si  Si24  1  0.711925  0.042374  0.563677  1
  Si  Si25  1  0.962735  0.287396  0.938290  1
  Si  Si26  1  0.041826  0.710568  0.436550  1
  Mo  Mo27  1  0.330649  0.331153  0.999613  1
  Mo  Mo28  1  0.154993  0.002365  0.873437  1
  Mo  Mo29  1  0.495930  0.666105  0.124286  1
  Mo  Mo30  1  0.506139  0.341097  0.625016  1
  Mo  Mo31  1  0.666255  0.496120  0.875381  1
  Mo  Mo32  1  0.340338  0.505967  0.375544  1
  Mo  Mo33  1  0.841304  0.992791  0.374530  1
  Mo  Mo34  1  0.002481  0.155074  0.126315  1
  Mo  Mo35  1  0.993099  0.840721  0.625930  1
