# generated using pymatgen
data_Ho4ScIn2Bi
_symmetry_space_group_name_H-M   'P 1'
_cell_length_a   8.94300868
_cell_length_b   8.90238558
_cell_length_c   6.49690655
_cell_angle_alpha   89.91932425
_cell_angle_beta   90.04015644
_cell_angle_gamma   119.84985378
_symmetry_Int_Tables_number   1
_chemical_formula_structural   Ho4ScIn2Bi
_chemical_formula_sum   'Ho8 Sc2 In4 Bi2'
_cell_volume   448.62344254
_cell_formula_units_Z   2
loop_
 _symmetry_equiv_pos_site_id
 _symmetry_equiv_pos_as_xyz
  1  'x, y, z'
loop_
 _atom_site_type_symbol
 _atom_site_label
 _atom_site_symmetry_multiplicity
 _atom_site_fract_x
 _atom_site_fract_y
 _atom_site_fract_z
 _atom_site_occupancy
  Ho  Ho0  1  0.328793  0.667521  0.491772  1
  Ho  Ho1  1  0.671207  0.338727  0.491772  1
  Ho  Ho2  1  0.770065  0.761204  0.752664  1
  Ho  Ho3  1  0.229935  0.991141  0.752664  1
  Ho  Ho4  1  0.000000  0.238519  0.752773  1
  Ho  Ho5  1  0.235256  0.235553  0.248336  1
  Ho  Ho6  1  0.764744  0.000297  0.248336  1
  Ho  Ho7  1  0.000000  0.763136  0.246940  1
  Sc  Sc8  1  0.670778  0.337568  0.007091  1
  Sc  Sc9  1  0.329222  0.666790  0.007091  1
  In  In10  1  0.000000  0.594274  0.759202  1
  In  In11  1  0.599538  0.602925  0.241769  1
  In  In12  1  0.400462  0.003387  0.241769  1
  In  In13  1  0.000000  0.400612  0.239943  1
  Bi  Bi14  1  0.398327  0.398338  0.758939  1
  Bi  Bi15  1  0.601673  0.000010  0.758939  1
