# generated using pymatgen
data_TlIr3RhPb3O14
_symmetry_space_group_name_H-M   'P 1'
_cell_length_a   7.38422951
_cell_length_b   7.38422889
_cell_length_c   7.32585756
_cell_angle_alpha   59.73607392
_cell_angle_beta   59.73608819
_cell_angle_gamma   59.99999370
_symmetry_Int_Tables_number   1
_chemical_formula_structural   TlIr3RhPb3O14
_chemical_formula_sum   'Tl1 Ir3 Rh1 Pb3 O14'
_cell_volume   281.32592918
_cell_formula_units_Z   1
loop_
 _symmetry_equiv_pos_site_id
 _symmetry_equiv_pos_as_xyz
  1  'x, y, z'
loop_
 _atom_site_type_symbol
 _atom_site_label
 _atom_site_symmetry_multiplicity
 _atom_site_fract_x
 _atom_site_fract_y
 _atom_site_fract_z
 _atom_site_occupancy
  Tl  Tl0  1  0.125000  0.125000  0.625000  1
  Ir  Ir1  1  0.125000  0.625000  0.625000  1
  Ir  Ir2  1  0.625000  0.125000  0.625000  1
  Ir  Ir3  1  0.625000  0.625000  0.625000  1
  Rh  Rh4  1  0.625000  0.625000  0.125000  1
  Pb  Pb5  1  0.625000  0.125000  0.125000  1
  Pb  Pb6  1  0.125000  0.625000  0.125000  1
  Pb  Pb7  1  0.125000  0.125000  0.125000  1
  O  O8  1  0.705150  0.705150  0.297357  1
  O  O9  1  0.299329  0.299329  0.701881  1
  O  O10  1  0.699461  0.299329  0.701881  1
  O  O11  1  0.292343  0.705150  0.297357  1
  O  O12  1  0.299329  0.699461  0.701881  1
  O  O13  1  0.705150  0.292343  0.297357  1
  O  O14  1  0.544850  0.544850  0.952643  1
  O  O15  1  0.950671  0.950671  0.548119  1
  O  O16  1  0.550539  0.950671  0.548119  1
  O  O17  1  0.957657  0.544850  0.952643  1
  O  O18  1  0.950671  0.550539  0.548119  1
  O  O19  1  0.544850  0.957657  0.952643  1
  O  O20  1  0.244064  0.244064  0.267808  1
  O  O21  1  0.005936  0.005936  0.982192  1
