# generated using pymatgen
data_La2Pr10Tc2I17
_symmetry_space_group_name_H-M   'P 1'
_cell_length_a   10.21530297
_cell_length_b   12.15878924
_cell_length_c   12.23146742
_cell_angle_alpha   93.07148745
_cell_angle_beta   105.19936608
_cell_angle_gamma   114.58610138
_symmetry_Int_Tables_number   1
_chemical_formula_structural   La2Pr10Tc2I17
_chemical_formula_sum   'La2 Pr10 Tc2 I17'
_cell_volume   1310.05210336
_cell_formula_units_Z   1
loop_
 _symmetry_equiv_pos_site_id
 _symmetry_equiv_pos_as_xyz
  1  'x, y, z'
loop_
 _atom_site_type_symbol
 _atom_site_label
 _atom_site_symmetry_multiplicity
 _atom_site_fract_x
 _atom_site_fract_y
 _atom_site_fract_z
 _atom_site_occupancy
  La  La0  1  0.054401  0.504652  0.320024  1
  La  La1  1  0.995099  0.805768  0.593330  1
  Pr  Pr2  1  0.641827  0.238594  0.284739  1
  Pr  Pr3  1  0.014144  0.187894  0.422514  1
  Pr  Pr4  1  0.218997  0.672145  0.983111  1
  Pr  Pr5  1  0.264388  0.995997  0.895773  1
  Pr  Pr6  1  0.361912  0.759993  0.713468  1
  Pr  Pr7  1  0.936841  0.480703  0.675418  1
  Pr  Pr8  1  0.744361  0.019083  0.111647  1
  Pr  Pr9  1  0.156983  0.287434  0.150238  1
  Pr  Pr10  1  0.772986  0.330520  0.005589  1
  Pr  Pr11  1  0.840436  0.711589  0.850237  1
  Tc  Tc12  1  0.096803  0.742830  0.773743  1
  Tc  Tc13  1  0.901073  0.268629  0.216793  1
  I  I14  1  0.783340  0.524701  0.419752  1
  I  I15  1  0.639546  0.419181  0.756549  1
  I  I16  1  0.845377  0.896829  0.327327  1
  I  I17  1  0.325726  0.211964  0.369834  1
  I  I18  1  0.160416  0.106631  0.679418  1
  I  I19  1  0.587403  0.052915  0.845809  1
  I  I20  1  0.755141  0.180989  0.537436  1
  I  I21  1  0.544500  0.707810  0.952952  1
  I  I22  1  0.357424  0.579063  0.236506  1
  I  I23  1  0.214023  0.468816  0.584467  1
  I  I24  1  0.054911  0.369965  0.896643  1
  I  I25  1  0.453430  0.294332  0.047359  1
  I  I26  1  0.998545  0.000474  0.000397  1
  I  I27  1  0.247472  0.814993  0.464084  1
  I  I28  1  0.413122  0.946058  0.152880  1
  I  I29  1  0.673507  0.787082  0.632566  1
  I  I30  1  0.945866  0.632362  0.099400  1
