# generated using pymatgen
data_CsTiF5
_symmetry_space_group_name_H-M   'P 1'
_cell_length_a   5.79194900
_cell_length_b   8.23113100
_cell_length_c   11.15757600
_cell_angle_alpha   90.00000000
_cell_angle_beta   90.00000000
_cell_angle_gamma   90.00000000
_symmetry_Int_Tables_number   1
_chemical_formula_structural   CsTiF5
_chemical_formula_sum   'Cs4 Ti4 F20'
_cell_volume   531.92952468
_cell_formula_units_Z   4
loop_
 _symmetry_equiv_pos_site_id
 _symmetry_equiv_pos_as_xyz
  1  'x, y, z'
loop_
 _atom_site_type_symbol
 _atom_site_label
 _atom_site_symmetry_multiplicity
 _atom_site_fract_x
 _atom_site_fract_y
 _atom_site_fract_z
 _atom_site_occupancy
  Cs  Cs0  1  0.500000  0.889568  0.981395  1
  Cs  Cs1  1  0.500000  0.110432  0.481395  1
  Cs  Cs2  1  0.000000  0.370533  0.123644  1
  Cs  Cs3  1  0.000000  0.629467  0.623644  1
  Ti  Ti4  1  0.000000  0.880069  0.243501  1
  Ti  Ti5  1  0.500000  0.577479  0.338156  1
  Ti  Ti6  1  0.500000  0.422521  0.838156  1
  Ti  Ti7  1  0.000000  0.119931  0.743501  1
  F  F8  1  0.271539  0.540089  0.910618  1
  F  F9  1  0.748448  0.706071  0.248683  1
  F  F10  1  0.226968  0.034634  0.233328  1
  F  F11  1  0.748448  0.293929  0.748683  1
  F  F12  1  0.500000  0.256231  0.949138  1
  F  F13  1  0.773032  0.965366  0.733328  1
  F  F14  1  0.500000  0.552640  0.701704  1
  F  F15  1  0.226968  0.965366  0.733328  1
  F  F16  1  0.000000  0.835175  0.080246  1
  F  F17  1  0.773032  0.034634  0.233328  1
  F  F18  1  0.500000  0.447360  0.201704  1
  F  F19  1  0.728461  0.459911  0.410618  1
  F  F20  1  0.251552  0.706071  0.248683  1
  F  F21  1  0.000000  0.867261  0.408467  1
  F  F22  1  0.000000  0.164825  0.580246  1
  F  F23  1  0.251552  0.293929  0.748683  1
  F  F24  1  0.000000  0.132739  0.908467  1
  F  F25  1  0.271539  0.459911  0.410618  1
  F  F26  1  0.500000  0.743769  0.449138  1
  F  F27  1  0.728461  0.540089  0.910618  1
