# generated using pymatgen
data_TbNd3Al18(RePd2)2
_symmetry_space_group_name_H-M   'P 1'
_cell_length_a   7.65774737
_cell_length_b   7.66942682
_cell_length_c   9.63716500
_cell_angle_alpha   90.00000000
_cell_angle_beta   90.00000000
_cell_angle_gamma   118.62457385
_symmetry_Int_Tables_number   1
_chemical_formula_structural   TbNd3Al18(RePd2)2
_chemical_formula_sum   'Tb1 Nd3 Al18 Re2 Pd4'
_cell_volume   496.81846055
_cell_formula_units_Z   1
loop_
 _symmetry_equiv_pos_site_id
 _symmetry_equiv_pos_as_xyz
  1  'x, y, z'
loop_
 _atom_site_type_symbol
 _atom_site_label
 _atom_site_symmetry_multiplicity
 _atom_site_fract_x
 _atom_site_fract_y
 _atom_site_fract_z
 _atom_site_occupancy
  Tb  Tb0  1  0.318730  0.005799  0.750000  1
  Nd  Nd1  1  0.995124  0.678227  0.250000  1
  Nd  Nd2  1  0.006149  0.321373  0.750000  1
  Nd  Nd3  1  0.678132  0.994533  0.250000  1
  Al  Al4  1  0.134550  0.133795  0.250000  1
  Al  Al5  1  0.867344  0.866450  0.750000  1
  Al  Al6  1  0.004558  0.334117  0.074882  1
  Al  Al7  1  0.997707  0.667332  0.923497  1
  Al  Al8  1  0.997707  0.667332  0.576503  1
  Al  Al9  1  0.334133  0.003789  0.427301  1
  Al  Al10  1  0.004558  0.334117  0.425118  1
  Al  Al11  1  0.663812  0.995759  0.576555  1
  Al  Al12  1  0.663812  0.995759  0.923445  1
  Al  Al13  1  0.334133  0.003789  0.072699  1
  Al  Al14  1  0.331082  0.329504  0.547185  1
  Al  Al15  1  0.669698  0.669542  0.455608  1
  Al  Al16  1  0.669698  0.669542  0.044392  1
  Al  Al17  1  0.331082  0.329504  0.952815  1
  Al  Al18  1  0.344739  0.550233  0.250000  1
  Al  Al19  1  0.652829  0.447142  0.750000  1
  Al  Al20  1  0.550049  0.344102  0.250000  1
  Al  Al21  1  0.449332  0.657438  0.750000  1
  Re  Re22  1  0.000656  0.000403  0.999027  1
  Re  Re23  1  0.000656  0.000403  0.500973  1
  Pd  Pd24  1  0.671049  0.328585  0.999659  1
  Pd  Pd25  1  0.328817  0.671423  0.999608  1
  Pd  Pd26  1  0.328817  0.671423  0.500392  1
  Pd  Pd27  1  0.671049  0.328585  0.500341  1
