# generated using pymatgen
data_Tb8Ti3Si16(Mo2W)3
_symmetry_space_group_name_H-M   'P 1'
_cell_length_a   6.92701508
_cell_length_b   6.92868292
_cell_length_c   12.85964506
_cell_angle_alpha   89.94600298
_cell_angle_beta   90.01325352
_cell_angle_gamma   89.87284039
_symmetry_Int_Tables_number   1
_chemical_formula_structural   Tb8Ti3Si16(Mo2W)3
_chemical_formula_sum   'Tb8 Ti3 Si16 Mo6 W3'
_cell_volume   617.19802514
_cell_formula_units_Z   1
loop_
 _symmetry_equiv_pos_site_id
 _symmetry_equiv_pos_as_xyz
  1  'x, y, z'
loop_
 _atom_site_type_symbol
 _atom_site_label
 _atom_site_symmetry_multiplicity
 _atom_site_fract_x
 _atom_site_fract_y
 _atom_site_fract_z
 _atom_site_occupancy
  Tb  Tb0  1  0.338759  0.001846  0.468388  1
  Tb  Tb1  1  0.496591  0.837860  0.719056  1
  Tb  Tb2  1  0.499852  0.162284  0.217450  1
  Tb  Tb3  1  0.837803  0.497248  0.280963  1
  Tb  Tb4  1  0.162340  0.499079  0.782595  1
  Tb  Tb5  1  0.660423  0.999333  0.968782  1
  Tb  Tb6  1  0.001770  0.338662  0.531514  1
  Tb  Tb7  1  0.999394  0.660727  0.031376  1
  Ti  Ti8  1  0.170310  0.832476  0.248288  1
  Ti  Ti9  1  0.831871  0.170065  0.751269  1
  Ti  Ti10  1  0.668999  0.669022  0.500163  1
  Si  Si11  1  0.200301  0.127601  0.683885  1
  Si  Si12  1  0.374978  0.697009  0.934692  1
  Si  Si13  1  0.627149  0.299472  0.434416  1
  Si  Si14  1  0.697743  0.375079  0.065651  1
  Si  Si15  1  0.298932  0.627328  0.565754  1
  Si  Si16  1  0.797475  0.873523  0.184613  1
  Si  Si17  1  0.127204  0.200356  0.315724  1
  Si  Si18  1  0.873680  0.797087  0.815020  1
  Si  Si19  1  0.288731  0.963522  0.061885  1
  Si  Si20  1  0.539279  0.790364  0.313802  1
  Si  Si21  1  0.459118  0.210618  0.814594  1
  Si  Si22  1  0.790298  0.539640  0.686343  1
  Si  Si23  1  0.210897  0.459443  0.185803  1
  Si  Si24  1  0.710173  0.040616  0.563698  1
  Si  Si25  1  0.963781  0.287928  0.937748  1
  Si  Si26  1  0.040735  0.710713  0.436196  1
  Mo  Mo27  1  0.157947  0.002754  0.873426  1
  Mo  Mo28  1  0.493930  0.666021  0.125389  1
  Mo  Mo29  1  0.506353  0.339521  0.624995  1
  Mo  Mo30  1  0.665740  0.493651  0.874737  1
  Mo  Mo31  1  0.339566  0.506361  0.375115  1
  Mo  Mo32  1  0.839482  0.993026  0.374548  1
  W  W33  1  0.331224  0.331582  0.000522  1
  W  W34  1  0.004098  0.158434  0.126171  1
  W  W35  1  0.993075  0.839749  0.625428  1
