# generated using pymatgen
data_Zr6Ga2SiP
_symmetry_space_group_name_H-M   'P 1'
_cell_length_a   7.20850979
_cell_length_b   7.21919684
_cell_length_c   3.68416100
_cell_angle_alpha   90.00000000
_cell_angle_beta   90.00000000
_cell_angle_gamma   90.48201382
_symmetry_Int_Tables_number   1
_chemical_formula_structural   Zr6Ga2SiP
_chemical_formula_sum   'Zr6 Ga2 Si1 P1'
_cell_volume   191.71566880
_cell_formula_units_Z   1
loop_
 _symmetry_equiv_pos_site_id
 _symmetry_equiv_pos_as_xyz
  1  'x, y, z'
loop_
 _atom_site_type_symbol
 _atom_site_label
 _atom_site_symmetry_multiplicity
 _atom_site_fract_x
 _atom_site_fract_y
 _atom_site_fract_z
 _atom_site_occupancy
  Zr  Zr0  1  0.003096  0.005462  0.000000  1
  Zr  Zr1  1  0.500530  0.493899  0.000000  1
  Zr  Zr2  1  0.668441  0.179412  0.500000  1
  Zr  Zr3  1  0.175221  0.317589  0.500000  1
  Zr  Zr4  1  0.823230  0.665737  0.500000  1
  Zr  Zr5  1  0.324058  0.839189  0.500000  1
  Ga  Ga6  1  0.627912  0.873126  0.000000  1
  Ga  Ga7  1  0.125846  0.624455  0.000000  1
  Si  Si8  1  0.876736  0.375499  0.000000  1
  P  P9  1  0.374931  0.125632  0.000000  1
