# generated using pymatgen
data_Dy4B16Ir3Ru13
_symmetry_space_group_name_H-M   'P 1'
_cell_length_a   9.22729066
_cell_length_b   7.50228564
_cell_length_c   7.50742727
_cell_angle_alpha   90.01651089
_cell_angle_beta   114.02013445
_cell_angle_gamma   114.12117026
_symmetry_Int_Tables_number   1
_chemical_formula_structural   Dy4B16Ir3Ru13
_chemical_formula_sum   'Dy4 B16 Ir3 Ru13'
_cell_volume   424.50866680
_cell_formula_units_Z   1
loop_
 _symmetry_equiv_pos_site_id
 _symmetry_equiv_pos_as_xyz
  1  'x, y, z'
loop_
 _atom_site_type_symbol
 _atom_site_label
 _atom_site_symmetry_multiplicity
 _atom_site_fract_x
 _atom_site_fract_y
 _atom_site_fract_z
 _atom_site_occupancy
  Dy  Dy0  1  0.749778  0.875107  0.124215  1
  Dy  Dy1  1  0.251869  0.625834  0.375260  1
  Dy  Dy2  1  0.748645  0.374468  0.622713  1
  Dy  Dy3  1  0.248616  0.125990  0.872917  1
  B  B4  1  0.911473  0.284389  0.067151  1
  B  B5  1  0.414722  0.563038  0.125260  1
  B  B6  1  0.087114  0.215372  0.154007  1
  B  B7  1  0.586504  0.153172  0.210650  1
  B  B8  1  0.414928  0.066994  0.292121  1
  B  B9  1  0.912680  0.622788  0.354150  1
  B  B10  1  0.587001  0.650099  0.376940  1
  B  B11  1  0.086367  0.876989  0.441162  1
  B  B12  1  0.913159  0.124729  0.565104  1
  B  B13  1  0.414526  0.348485  0.623855  1
  B  B14  1  0.086035  0.374788  0.653138  1
  B  B15  1  0.588047  0.934622  0.710987  1
  B  B16  1  0.414578  0.846224  0.784943  1
  B  B17  1  0.912556  0.789760  0.845889  1
  B  B18  1  0.584054  0.432983  0.875223  1
  B  B19  1  0.085299  0.709383  0.930363  1
  Ir  Ir20  1  0.875749  0.552205  0.038507  1
  Ir  Ir21  1  0.376856  0.837309  0.050434  1
  Ir  Ir22  1  0.122477  0.948078  0.163419  1
  Ru  Ru23  1  0.626894  0.461479  0.176991  1
  Ru  Ru24  1  0.372836  0.333414  0.321245  1
  Ru  Ru25  1  0.873392  0.321897  0.334968  1
  Ru  Ru26  1  0.625816  0.960612  0.447148  1
  Ru  Ru27  1  0.127188  0.178615  0.461553  1
  Ru  Ru28  1  0.873420  0.822901  0.539188  1
  Ru  Ru29  1  0.371886  0.036890  0.550923  1
  Ru  Ru30  1  0.127882  0.677749  0.665626  1
  Ru  Ru31  1  0.625401  0.665767  0.676850  1
  Ru  Ru32  1  0.373312  0.538181  0.822631  1
  Ru  Ru33  1  0.873177  0.052982  0.833115  1
  Ru  Ru34  1  0.626797  0.167089  0.948197  1
  Ru  Ru35  1  0.128969  0.449620  0.963161  1
