# generated using pymatgen
data_Tb2Ho3Ga2Ru3
_symmetry_space_group_name_H-M   'P 1'
_cell_length_a   8.33344153
_cell_length_b   8.33344001
_cell_length_c   8.33344100
_cell_angle_alpha   109.48268964
_cell_angle_beta   109.48268595
_cell_angle_gamma   109.48269130
_symmetry_Int_Tables_number   1
_chemical_formula_structural   Tb2Ho3Ga2Ru3
_chemical_formula_sum   'Tb4 Ho6 Ga4 Ru6'
_cell_volume   445.31429854
_cell_formula_units_Z   2
loop_
 _symmetry_equiv_pos_site_id
 _symmetry_equiv_pos_as_xyz
  1  'x, y, z'
loop_
 _atom_site_type_symbol
 _atom_site_label
 _atom_site_symmetry_multiplicity
 _atom_site_fract_x
 _atom_site_fract_y
 _atom_site_fract_z
 _atom_site_occupancy
  Tb  Tb0  1  0.784891  0.784891  0.784891  1
  Tb  Tb1  1  0.317796  0.567839  0.749641  1
  Tb  Tb2  1  0.749641  0.317796  0.567839  1
  Tb  Tb3  1  0.567839  0.749641  0.317796  1
  Ho  Ho4  1  0.715431  0.499656  0.000552  1
  Ho  Ho5  1  0.000552  0.715431  0.499656  1
  Ho  Ho6  1  0.499656  0.000552  0.715431  1
  Ho  Ho7  1  0.250134  0.180686  0.930873  1
  Ho  Ho8  1  0.930873  0.250134  0.180686  1
  Ho  Ho9  1  0.180686  0.930873  0.250134  1
  Ga  Ga10  1  0.410061  0.410061  0.410061  1
  Ga  Ga11  1  0.088086  0.500396  0.000752  1
  Ga  Ga12  1  0.000752  0.088086  0.500396  1
  Ga  Ga13  1  0.500396  0.000752  0.088086  1
  Ru  Ru14  1  0.876310  0.126634  0.750991  1
  Ru  Ru15  1  0.750991  0.876310  0.126634  1
  Ru  Ru16  1  0.126634  0.750991  0.876310  1
  Ru  Ru17  1  0.249488  0.624848  0.374936  1
  Ru  Ru18  1  0.374936  0.249488  0.624848  1
  Ru  Ru19  1  0.624848  0.374936  0.249488  1
