# generated using pymatgen
data_HoThMn17
_symmetry_space_group_name_H-M   'P 1'
_cell_length_a   6.35073478
_cell_length_b   6.35073409
_cell_length_c   6.35073346
_cell_angle_alpha   86.19163973
_cell_angle_beta   86.19164095
_cell_angle_gamma   86.19162700
_symmetry_Int_Tables_number   1
_chemical_formula_structural   HoThMn17
_chemical_formula_sum   'Ho1 Th1 Mn17'
_cell_volume   254.51164253
_cell_formula_units_Z   1
loop_
 _symmetry_equiv_pos_site_id
 _symmetry_equiv_pos_as_xyz
  1  'x, y, z'
loop_
 _atom_site_type_symbol
 _atom_site_label
 _atom_site_symmetry_multiplicity
 _atom_site_fract_x
 _atom_site_fract_y
 _atom_site_fract_z
 _atom_site_occupancy
  Ho  Ho0  1  0.352404  0.352404  0.352404  1
  Th  Th1  1  0.645245  0.645245  0.645245  1
  Mn  Mn2  1  0.353696  0.353696  0.875281  1
  Mn  Mn3  1  0.875281  0.353696  0.353696  1
  Mn  Mn4  1  0.353696  0.875281  0.353696  1
  Mn  Mn5  1  0.644612  0.644612  0.124051  1
  Mn  Mn6  1  0.124051  0.644612  0.644612  1
  Mn  Mn7  1  0.644612  0.124051  0.644612  1
  Mn  Mn8  1  0.727096  0.272988  0.001179  1
  Mn  Mn9  1  0.001179  0.727096  0.272988  1
  Mn  Mn10  1  0.272988  0.001179  0.727096  1
  Mn  Mn11  1  0.001179  0.272988  0.727096  1
  Mn  Mn12  1  0.727096  0.001179  0.272988  1
  Mn  Mn13  1  0.272988  0.727096  0.001179  1
  Mn  Mn14  1  0.002577  0.002577  0.499294  1
  Mn  Mn15  1  0.499294  0.002577  0.002577  1
  Mn  Mn16  1  0.002577  0.499294  0.002577  1
  Mn  Mn17  1  0.901347  0.901347  0.901347  1
  Mn  Mn18  1  0.098083  0.098083  0.098083  1
