# generated using pymatgen
data_Zn24IrAu7
_symmetry_space_group_name_H-M   'P 1'
_cell_length_a   7.96401200
_cell_length_b   7.96401200
_cell_length_c   7.96401200
_cell_angle_alpha   90.00000000
_cell_angle_beta   90.00000000
_cell_angle_gamma   90.00000000
_symmetry_Int_Tables_number   1
_chemical_formula_structural   Zn24IrAu7
_chemical_formula_sum   'Zn24 Ir1 Au7'
_cell_volume   505.12134066
_cell_formula_units_Z   1
loop_
 _symmetry_equiv_pos_site_id
 _symmetry_equiv_pos_as_xyz
  1  'x, y, z'
loop_
 _atom_site_type_symbol
 _atom_site_label
 _atom_site_symmetry_multiplicity
 _atom_site_fract_x
 _atom_site_fract_y
 _atom_site_fract_z
 _atom_site_occupancy
  Zn  Zn0  1  0.500000  0.208129  0.337070  1
  Zn  Zn1  1  0.500000  0.791871  0.662930  1
  Zn  Zn2  1  0.208129  0.337070  0.500000  1
  Zn  Zn3  1  0.791871  0.337070  0.500000  1
  Zn  Zn4  1  0.337070  0.500000  0.208129  1
  Zn  Zn5  1  0.662930  0.500000  0.208129  1
  Zn  Zn6  1  0.000000  0.833994  0.302100  1
  Zn  Zn7  1  0.000000  0.166006  0.697900  1
  Zn  Zn8  1  0.000000  0.166006  0.302100  1
  Zn  Zn9  1  0.500000  0.208129  0.662930  1
  Zn  Zn10  1  0.500000  0.791871  0.337070  1
  Zn  Zn11  1  0.791871  0.662930  0.500000  1
  Zn  Zn12  1  0.208129  0.662930  0.500000  1
  Zn  Zn13  1  0.337070  0.500000  0.791871  1
  Zn  Zn14  1  0.662930  0.500000  0.791871  1
  Zn  Zn15  1  0.302100  0.000000  0.166006  1
  Zn  Zn16  1  0.166006  0.302100  0.000000  1
  Zn  Zn17  1  0.833994  0.697900  0.000000  1
  Zn  Zn18  1  0.302100  0.000000  0.833994  1
  Zn  Zn19  1  0.833994  0.302100  0.000000  1
  Zn  Zn20  1  0.697900  0.000000  0.166006  1
  Zn  Zn21  1  0.697900  0.000000  0.833994  1
  Zn  Zn22  1  0.166006  0.697900  0.000000  1
  Zn  Zn23  1  0.000000  0.833994  0.697900  1
  Ir  Ir24  1  0.500000  0.500000  0.500000  1
  Au  Au25  1  0.500000  0.247579  0.000000  1
  Au  Au26  1  0.500000  0.752421  0.000000  1
  Au  Au27  1  0.000000  0.500000  0.752421  1
  Au  Au28  1  0.000000  0.500000  0.247579  1
  Au  Au29  1  0.752421  0.000000  0.500000  1
  Au  Au30  1  0.247579  0.000000  0.500000  1
  Au  Au31  1  0.000000  0.000000  0.000000  1
