# generated using pymatgen
data_Nd3HoB4I5
_symmetry_space_group_name_H-M   'P 1'
_cell_length_a   9.82608567
_cell_length_b   9.82608507
_cell_length_c   9.95186854
_cell_angle_alpha   74.34109162
_cell_angle_beta   74.34109213
_cell_angle_gamma   25.39126061
_symmetry_Int_Tables_number   1
_chemical_formula_structural   Nd3HoB4I5
_chemical_formula_sum   'Nd3 Ho1 B4 I5'
_cell_volume   395.93581732
_cell_formula_units_Z   1
loop_
 _symmetry_equiv_pos_site_id
 _symmetry_equiv_pos_as_xyz
  1  'x, y, z'
loop_
 _atom_site_type_symbol
 _atom_site_label
 _atom_site_symmetry_multiplicity
 _atom_site_fract_x
 _atom_site_fract_y
 _atom_site_fract_z
 _atom_site_occupancy
  Nd  Nd0  1  0.494826  0.494826  0.252991  1
  Nd  Nd1  1  0.133260  0.133260  0.931361  1
  Nd  Nd2  1  0.867560  0.867560  0.062951  1
  Ho  Ho3  1  0.505854  0.505854  0.758387  1
  B  B4  1  0.315471  0.685360  0.999253  1
  B  B5  1  0.685360  0.315471  0.999253  1
  B  B6  1  0.999080  0.999080  0.095292  1
  B  B7  1  0.001805  0.001805  0.902155  1
  I  I8  1  0.673802  0.673802  0.676128  1
  I  I9  1  0.321658  0.321658  0.318875  1
  I  I10  1  0.334415  0.334415  0.837907  1
  I  I11  1  0.673376  0.673376  0.146607  1
  I  I12  1  0.007834  0.007834  0.509039  1
