# generated using pymatgen
data_Dy4Ho12CdHg3Rh4
_symmetry_space_group_name_H-M   'P 1'
_cell_length_a   9.57672877
_cell_length_b   9.57685335
_cell_length_c   9.58441200
_cell_angle_alpha   59.97388107
_cell_angle_beta   59.97345029
_cell_angle_gamma   59.94487435
_symmetry_Int_Tables_number   1
_chemical_formula_structural   Dy4Ho12CdHg3Rh4
_chemical_formula_sum   'Dy4 Ho12 Cd1 Hg3 Rh4'
_cell_volume   621.06406798
_cell_formula_units_Z   1
loop_
 _symmetry_equiv_pos_site_id
 _symmetry_equiv_pos_as_xyz
  1  'x, y, z'
loop_
 _atom_site_type_symbol
 _atom_site_label
 _atom_site_symmetry_multiplicity
 _atom_site_fract_x
 _atom_site_fract_y
 _atom_site_fract_z
 _atom_site_occupancy
  Dy  Dy0  1  0.936350  0.937054  0.563298  1
  Dy  Dy1  1  0.562819  0.564495  0.936343  1
  Dy  Dy2  1  0.689310  0.689644  0.310523  1
  Dy  Dy3  1  0.147679  0.555510  0.148405  1
  Ho  Ho4  1  0.689220  0.311801  0.688455  1
  Ho  Ho5  1  0.149444  0.148719  0.150284  1
  Ho  Ho6  1  0.552488  0.148123  0.149695  1
  Ho  Ho7  1  0.689220  0.311801  0.310523  1
  Ho  Ho8  1  0.149444  0.148719  0.551554  1
  Ho  Ho9  1  0.310831  0.689985  0.310278  1
  Ho  Ho10  1  0.310831  0.689985  0.688907  1
  Ho  Ho11  1  0.936797  0.563785  0.563018  1
  Ho  Ho12  1  0.936797  0.563785  0.936400  1
  Ho  Ho13  1  0.562535  0.937517  0.563545  1
  Ho  Ho14  1  0.562535  0.937517  0.936403  1
  Ho  Ho15  1  0.310857  0.311536  0.688803  1
  Cd  Cd16  1  0.919697  0.241528  0.919388  1
  Hg  Hg17  1  0.914600  0.916477  0.254172  1
  Hg  Hg18  1  0.254913  0.916496  0.914295  1
  Hg  Hg19  1  0.914600  0.916477  0.914751  1
  Rh  Rh20  1  0.357087  0.357046  0.927831  1
  Rh  Rh21  1  0.356555  0.928405  0.357519  1
  Rh  Rh22  1  0.928303  0.356551  0.357572  1
  Rh  Rh23  1  0.357087  0.357046  0.358035  1
