# generated using pymatgen
data_AlTl3F6
_symmetry_space_group_name_H-M   'P 1'
_cell_length_a   7.30992989
_cell_length_b   7.30992996
_cell_length_c   7.30993000
_cell_angle_alpha   48.03531130
_cell_angle_beta   48.03531080
_cell_angle_gamma   48.03531226
_symmetry_Int_Tables_number   1
_chemical_formula_structural   AlTl3F6
_chemical_formula_sum   'Al1 Tl3 F6'
_cell_volume   197.86025494
_cell_formula_units_Z   1
loop_
 _symmetry_equiv_pos_site_id
 _symmetry_equiv_pos_as_xyz
  1  'x, y, z'
loop_
 _atom_site_type_symbol
 _atom_site_label
 _atom_site_symmetry_multiplicity
 _atom_site_fract_x
 _atom_site_fract_y
 _atom_site_fract_z
 _atom_site_occupancy
  Al  Al0  1  0.000000  0.000000  0.000000  1
  Tl  Tl1  1  0.500000  0.500000  0.500000  1
  Tl  Tl2  1  0.278470  0.278470  0.278470  1
  Tl  Tl3  1  0.721530  0.721530  0.721530  1
  F  F4  1  0.758476  0.202001  0.202002  1
  F  F5  1  0.202001  0.758476  0.202002  1
  F  F6  1  0.797999  0.797999  0.241523  1
  F  F7  1  0.202001  0.202001  0.758477  1
  F  F8  1  0.241524  0.797999  0.797998  1
  F  F9  1  0.797999  0.241524  0.797998  1
