# generated using pymatgen
data_Pr2Ho2ScSi4
_symmetry_space_group_name_H-M   'P 1'
_cell_length_a   7.37955700
_cell_length_b   7.74770000
_cell_length_c   14.71806400
_cell_angle_alpha   90.00000000
_cell_angle_beta   90.00000000
_cell_angle_gamma   90.00000000
_symmetry_Int_Tables_number   1
_chemical_formula_structural   Pr2Ho2ScSi4
_chemical_formula_sum   'Pr8 Ho8 Sc4 Si16'
_cell_volume   841.49933026
_cell_formula_units_Z   4
loop_
 _symmetry_equiv_pos_site_id
 _symmetry_equiv_pos_as_xyz
  1  'x, y, z'
loop_
 _atom_site_type_symbol
 _atom_site_label
 _atom_site_symmetry_multiplicity
 _atom_site_fract_x
 _atom_site_fract_y
 _atom_site_fract_z
 _atom_site_occupancy
  Pr  Pr0  1  0.016472  0.178658  0.401010  1
  Pr  Pr1  1  0.516472  0.321342  0.401010  1
  Pr  Pr2  1  0.483528  0.678658  0.901010  1
  Pr  Pr3  1  0.483528  0.678658  0.598990  1
  Pr  Pr4  1  0.983528  0.821342  0.598990  1
  Pr  Pr5  1  0.983528  0.821342  0.901010  1
  Pr  Pr6  1  0.516472  0.321342  0.098990  1
  Pr  Pr7  1  0.016472  0.178658  0.098990  1
  Ho  Ho8  1  0.324890  0.177735  0.624680  1
  Ho  Ho9  1  0.675110  0.822265  0.375320  1
  Ho  Ho10  1  0.175110  0.677735  0.375320  1
  Ho  Ho11  1  0.824890  0.322265  0.875320  1
  Ho  Ho12  1  0.824890  0.322265  0.624680  1
  Ho  Ho13  1  0.324890  0.177735  0.875320  1
  Ho  Ho14  1  0.175110  0.677735  0.124680  1
  Ho  Ho15  1  0.675110  0.822265  0.124680  1
  Sc  Sc16  1  0.657780  0.991021  0.750000  1
  Sc  Sc17  1  0.842220  0.491021  0.250000  1
  Sc  Sc18  1  0.342220  0.008979  0.250000  1
  Sc  Sc19  1  0.157780  0.508979  0.750000  1
  Si  Si20  1  0.282371  0.875049  0.750000  1
  Si  Si21  1  0.473912  0.608807  0.250000  1
  Si  Si22  1  0.026088  0.108807  0.750000  1
  Si  Si23  1  0.526088  0.391193  0.750000  1
  Si  Si24  1  0.148785  0.467359  0.539212  1
  Si  Si25  1  0.973912  0.891193  0.250000  1
  Si  Si26  1  0.717629  0.124951  0.250000  1
  Si  Si27  1  0.851215  0.532641  0.039212  1
  Si  Si28  1  0.351215  0.967359  0.039212  1
  Si  Si29  1  0.148785  0.467359  0.960788  1
  Si  Si30  1  0.648785  0.032641  0.539212  1
  Si  Si31  1  0.351215  0.967359  0.460788  1
  Si  Si32  1  0.851215  0.532641  0.460788  1
  Si  Si33  1  0.782371  0.624951  0.750000  1
  Si  Si34  1  0.217629  0.375049  0.250000  1
  Si  Si35  1  0.648785  0.032641  0.960788  1
