# generated using pymatgen
data_V6Ga3CoN2
_symmetry_space_group_name_H-M   'P 1'
_cell_length_a   6.55868096
_cell_length_b   6.54408949
_cell_length_c   6.56143400
_cell_angle_alpha   90.00000000
_cell_angle_beta   90.00000000
_cell_angle_gamma   90.28124826
_symmetry_Int_Tables_number   1
_chemical_formula_structural   V6Ga3CoN2
_chemical_formula_sum   'V12 Ga6 Co2 N4'
_cell_volume   281.61725940
_cell_formula_units_Z   2
loop_
 _symmetry_equiv_pos_site_id
 _symmetry_equiv_pos_as_xyz
  1  'x, y, z'
loop_
 _atom_site_type_symbol
 _atom_site_label
 _atom_site_symmetry_multiplicity
 _atom_site_fract_x
 _atom_site_fract_y
 _atom_site_fract_z
 _atom_site_occupancy
  V  V0  1  0.794960  0.960452  0.373403  1
  V  V1  1  0.705040  0.039548  0.873403  1
  V  V2  1  0.210994  0.460300  0.126029  1
  V  V3  1  0.289006  0.539700  0.626029  1
  V  V4  1  0.963619  0.374545  0.789628  1
  V  V5  1  0.043924  0.877825  0.708961  1
  V  V6  1  0.456076  0.122175  0.208961  1
  V  V7  1  0.536381  0.625455  0.289628  1
  V  V8  1  0.373796  0.792969  0.962819  1
  V  V9  1  0.876948  0.710704  0.042959  1
  V  V10  1  0.126204  0.207031  0.462819  1
  V  V11  1  0.623052  0.289296  0.542959  1
  Ga  Ga12  1  0.821266  0.320820  0.178506  1
  Ga  Ga13  1  0.678734  0.679180  0.678506  1
  Ga  Ga14  1  0.557587  0.419523  0.926399  1
  Ga  Ga15  1  0.418545  0.934003  0.569313  1
  Ga  Ga16  1  0.942413  0.580477  0.426399  1
  Ga  Ga17  1  0.081455  0.065997  0.069313  1
  Co  Co18  1  0.181953  0.825828  0.318830  1
  Co  Co19  1  0.318047  0.174172  0.818830  1
  N  N20  1  0.875423  0.123184  0.625673  1
  N  N21  1  0.624577  0.876816  0.125673  1
  N  N22  1  0.126744  0.626273  0.877480  1
  N  N23  1  0.373256  0.373727  0.377480  1
