# generated using pymatgen
data_Ac4As3Cl
_symmetry_space_group_name_H-M   'P 1'
_cell_length_a   8.98931101
_cell_length_b   4.54555100
_cell_length_c   6.34756304
_cell_angle_alpha   90.00000000
_cell_angle_beta   90.00970495
_cell_angle_gamma   90.00000000
_symmetry_Int_Tables_number   1
_chemical_formula_structural   Ac4As3Cl
_chemical_formula_sum   'Ac4 As3 Cl1'
_cell_volume   259.37012895
_cell_formula_units_Z   1
loop_
 _symmetry_equiv_pos_site_id
 _symmetry_equiv_pos_as_xyz
  1  'x, y, z'
loop_
 _atom_site_type_symbol
 _atom_site_label
 _atom_site_symmetry_multiplicity
 _atom_site_fract_x
 _atom_site_fract_y
 _atom_site_fract_z
 _atom_site_occupancy
  Ac  Ac0  1  0.391542  0.249999  0.249926  1
  Ac  Ac1  1  0.858326  0.249999  0.250100  1
  Ac  Ac2  1  0.125025  0.750001  0.749886  1
  Ac  Ac3  1  0.625028  0.750001  0.750074  1
  As  As4  1  0.625016  0.750001  0.250100  1
  As  As5  1  0.368560  0.249999  0.749907  1
  As  As6  1  0.881531  0.249999  0.750154  1
  Cl  Cl7  1  0.124976  0.750001  0.249858  1
