# generated using pymatgen
data_CaNd3(Mo2O7)2
_symmetry_space_group_name_H-M   'P 1'
_cell_length_a   7.52395976
_cell_length_b   7.46784770
_cell_length_c   7.46784700
_cell_angle_alpha   59.99999867
_cell_angle_beta   60.24639502
_cell_angle_gamma   60.24639406
_symmetry_Int_Tables_number   1
_chemical_formula_structural   CaNd3(Mo2O7)2
_chemical_formula_sum   'Ca1 Nd3 Mo4 O14'
_cell_volume   297.80346591
_cell_formula_units_Z   1
loop_
 _symmetry_equiv_pos_site_id
 _symmetry_equiv_pos_as_xyz
  1  'x, y, z'
loop_
 _atom_site_type_symbol
 _atom_site_label
 _atom_site_symmetry_multiplicity
 _atom_site_fract_x
 _atom_site_fract_y
 _atom_site_fract_z
 _atom_site_occupancy
  Ca  Ca0  1  0.625000  0.125000  0.125000  1
  Nd  Nd1  1  0.125000  0.625000  0.125000  1
  Nd  Nd2  1  0.125000  0.125000  0.625000  1
  Nd  Nd3  1  0.125000  0.125000  0.125000  1
  Mo  Mo4  1  0.125000  0.625000  0.625000  1
  Mo  Mo5  1  0.625000  0.125000  0.625000  1
  Mo  Mo6  1  0.625000  0.625000  0.125000  1
  Mo  Mo7  1  0.625000  0.625000  0.625000  1
  O  O8  1  0.716270  0.693961  0.294884  1
  O  O9  1  0.288201  0.301695  0.705052  1
  O  O10  1  0.716270  0.294884  0.693961  1
  O  O11  1  0.288201  0.705052  0.301695  1
  O  O12  1  0.288201  0.705052  0.705052  1
  O  O13  1  0.716270  0.294884  0.294884  1
  O  O14  1  0.533730  0.556039  0.955116  1
  O  O15  1  0.961799  0.948305  0.544948  1
  O  O16  1  0.533730  0.955116  0.556039  1
  O  O17  1  0.961799  0.544948  0.948305  1
  O  O18  1  0.961799  0.544948  0.544948  1
  O  O19  1  0.533730  0.955116  0.955116  1
  O  O20  1  0.254886  0.248371  0.248371  1
  O  O21  1  0.995114  0.001629  0.001629  1
