# generated using pymatgen
data_Ba2DyCoO5
_symmetry_space_group_name_H-M   'P 1'
_cell_length_a   6.16971400
_cell_length_b   7.98411144
_cell_length_c   12.50577379
_cell_angle_alpha   91.42721293
_cell_angle_beta   90.00000000
_cell_angle_gamma   90.00000000
_symmetry_Int_Tables_number   1
_chemical_formula_structural   Ba2DyCoO5
_chemical_formula_sum   'Ba8 Dy4 Co4 O20'
_cell_volume   615.83935715
_cell_formula_units_Z   4
loop_
 _symmetry_equiv_pos_site_id
 _symmetry_equiv_pos_as_xyz
  1  'x, y, z'
loop_
 _atom_site_type_symbol
 _atom_site_label
 _atom_site_symmetry_multiplicity
 _atom_site_fract_x
 _atom_site_fract_y
 _atom_site_fract_z
 _atom_site_occupancy
  Ba  Ba0  1  0.759248  0.491543  0.360109  1
  Ba  Ba1  1  0.740752  0.991543  0.860109  1
  Ba  Ba2  1  0.240752  0.508457  0.639891  1
  Ba  Ba3  1  0.259248  0.008457  0.139891  1
  Ba  Ba4  1  0.753963  0.992298  0.383788  1
  Ba  Ba5  1  0.746037  0.492298  0.883788  1
  Ba  Ba6  1  0.246037  0.007702  0.616212  1
  Ba  Ba7  1  0.253963  0.507702  0.116212  1
  Dy  Dy8  1  0.748314  0.262987  0.628695  1
  Dy  Dy9  1  0.751686  0.762987  0.128695  1
  Dy  Dy10  1  0.251686  0.737013  0.371305  1
  Dy  Dy11  1  0.248314  0.237013  0.871305  1
  Co  Co12  1  0.740621  0.745307  0.592172  1
  Co  Co13  1  0.759379  0.245307  0.092172  1
  Co  Co14  1  0.259379  0.254693  0.407828  1
  Co  Co15  1  0.240621  0.754693  0.907828  1
  O  O16  1  0.757260  0.970063  0.633782  1
  O  O17  1  0.742740  0.470063  0.133782  1
  O  O18  1  0.242740  0.029937  0.366218  1
  O  O19  1  0.257260  0.529937  0.866218  1
  O  O20  1  0.735512  0.054328  0.170253  1
  O  O21  1  0.764488  0.554328  0.670253  1
  O  O22  1  0.264488  0.945672  0.829747  1
  O  O23  1  0.235512  0.445672  0.329747  1
  O  O24  1  0.543733  0.746640  0.272095  1
  O  O25  1  0.956267  0.246640  0.772095  1
  O  O26  1  0.456267  0.253360  0.727905  1
  O  O27  1  0.043733  0.753360  0.227905  1
  O  O28  1  0.533274  0.230078  0.986435  1
  O  O29  1  0.966726  0.730078  0.486435  1
  O  O30  1  0.466726  0.769922  0.013565  1
  O  O31  1  0.033274  0.269922  0.513565  1
  O  O32  1  0.032674  0.234102  0.020447  1
  O  O33  1  0.467326  0.734102  0.520447  1
  O  O34  1  0.967326  0.765898  0.979553  1
  O  O35  1  0.532674  0.265898  0.479553  1
