# generated using pymatgen
data_Zn2AsO4F
_symmetry_space_group_name_H-M   'P 1'
_cell_length_a   7.42702971
_cell_length_b   7.42702924
_cell_length_c   10.09108589
_cell_angle_alpha   66.43318118
_cell_angle_beta   66.43317992
_cell_angle_gamma   53.03406758
_symmetry_Int_Tables_number   1
_chemical_formula_structural   Zn2AsO4F
_chemical_formula_sum   'Zn8 As4 O16 F4'
_cell_volume   397.87894148
_cell_formula_units_Z   4
loop_
 _symmetry_equiv_pos_site_id
 _symmetry_equiv_pos_as_xyz
  1  'x, y, z'
loop_
 _atom_site_type_symbol
 _atom_site_label
 _atom_site_symmetry_multiplicity
 _atom_site_fract_x
 _atom_site_fract_y
 _atom_site_fract_z
 _atom_site_occupancy
  Zn  Zn0  1  0.200651  0.681915  0.019163  1
  Zn  Zn1  1  0.347926  0.770978  0.487754  1
  Zn  Zn2  1  0.770978  0.347926  0.987754  1
  Zn  Zn3  1  0.681915  0.200651  0.519163  1
  Zn  Zn4  1  0.956514  0.743596  0.366091  1
  Zn  Zn5  1  0.275756  0.056220  0.128261  1
  Zn  Zn6  1  0.056220  0.275756  0.628261  1
  Zn  Zn7  1  0.743596  0.956514  0.866091  1
  As  As8  1  0.424479  0.225922  0.306544  1
  As  As9  1  0.778031  0.568119  0.193506  1
  As  As10  1  0.568119  0.778031  0.693506  1
  As  As11  1  0.225922  0.424479  0.806544  1
  O  O12  1  0.466474  0.382317  0.131203  1
  O  O13  1  0.618893  0.518803  0.368496  1
  O  O14  1  0.518803  0.618893  0.868496  1
  O  O15  1  0.382317  0.466474  0.631203  1
  O  O16  1  0.355037  0.042053  0.303910  1
  O  O17  1  0.961271  0.627938  0.204556  1
  O  O18  1  0.627938  0.961271  0.704556  1
  O  O19  1  0.042053  0.355037  0.803910  1
  O  O20  1  0.212875  0.402667  0.428668  1
  O  O21  1  0.608619  0.781753  0.068846  1
  O  O22  1  0.781753  0.608619  0.568846  1
  O  O23  1  0.402667  0.212875  0.928668  1
  O  O24  1  0.669212  0.068998  0.375643  1
  O  O25  1  0.934781  0.321584  0.123781  1
  O  O26  1  0.321584  0.934781  0.623781  1
  O  O27  1  0.068998  0.669212  0.875643  1
  F  F28  1  0.160391  0.850275  0.162049  1
  F  F29  1  0.850275  0.160391  0.662049  1
  F  F30  1  0.040322  0.893826  0.455430  1
  F  F31  1  0.893826  0.040322  0.955430  1
