# generated using pymatgen
data_LaTh2(CuSi)4
_symmetry_space_group_name_H-M   'P 1'
_cell_length_a   4.16531585
_cell_length_b   4.13901635
_cell_length_c   12.36202589
_cell_angle_alpha   99.63716359
_cell_angle_beta   99.69899881
_cell_angle_gamma   90.00000664
_symmetry_Int_Tables_number   1
_chemical_formula_structural   LaTh2(CuSi)4
_chemical_formula_sum   'La1 Th2 Cu4 Si4'
_cell_volume   207.02689270
_cell_formula_units_Z   1
loop_
 _symmetry_equiv_pos_site_id
 _symmetry_equiv_pos_as_xyz
  1  'x, y, z'
loop_
 _atom_site_type_symbol
 _atom_site_label
 _atom_site_symmetry_multiplicity
 _atom_site_fract_x
 _atom_site_fract_y
 _atom_site_fract_z
 _atom_site_occupancy
  La  La0  1  0.850893  0.350893  0.701788  1
  Th  Th1  1  0.148411  0.648411  0.296821  1
  Th  Th2  1  0.001303  0.001303  0.002605  1
  Cu  Cu3  1  0.248509  0.248509  0.497018  1
  Cu  Cu4  1  0.749564  0.749564  0.499130  1
  Cu  Cu5  1  0.597131  0.097131  0.194263  1
  Cu  Cu6  1  0.403799  0.903799  0.807598  1
  Si  Si7  1  0.451430  0.451430  0.902860  1
  Si  Si8  1  0.550189  0.550189  0.100377  1
  Si  Si9  1  0.695473  0.195473  0.390945  1
  Si  Si10  1  0.303298  0.803298  0.606596  1
