# generated using pymatgen
data_Tm12Co2CuNi2Bi
_symmetry_space_group_name_H-M   'P 1'
_cell_length_a   8.22698196
_cell_length_b   8.22793563
_cell_length_c   8.22698346
_cell_angle_alpha   111.59597855
_cell_angle_beta   109.23307174
_cell_angle_gamma   107.60490188
_symmetry_Int_Tables_number   1
_chemical_formula_structural   Tm12Co2CuNi2Bi
_chemical_formula_sum   'Tm12 Co2 Cu1 Ni2 Bi1'
_cell_volume   428.19385138
_cell_formula_units_Z   1
loop_
 _symmetry_equiv_pos_site_id
 _symmetry_equiv_pos_as_xyz
  1  'x, y, z'
loop_
 _atom_site_type_symbol
 _atom_site_label
 _atom_site_symmetry_multiplicity
 _atom_site_fract_x
 _atom_site_fract_y
 _atom_site_fract_z
 _atom_site_occupancy
  Tm  Tm0  1  0.820123  0.713026  0.533170  1
  Tm  Tm1  1  0.179877  0.286974  0.466830  1
  Tm  Tm2  1  0.179855  0.713026  0.892903  1
  Tm  Tm3  1  0.820145  0.286974  0.107097  1
  Tm  Tm4  1  0.683410  0.373826  0.690416  1
  Tm  Tm5  1  0.316590  0.626174  0.309584  1
  Tm  Tm6  1  0.683419  0.993004  0.309585  1
  Tm  Tm7  1  0.316581  0.006996  0.690415  1
  Tm  Tm8  1  0.583453  0.782511  0.800962  1
  Tm  Tm9  1  0.416547  0.217489  0.199038  1
  Tm  Tm10  1  0.981549  0.782511  0.199058  1
  Tm  Tm11  1  0.018451  0.217489  0.800942  1
  Co  Co12  1  0.115275  0.615309  0.500033  1
  Co  Co13  1  0.884725  0.384691  0.499967  1
  Cu  Cu14  1  0.000000  0.000000  0.000000  1
  Ni  Ni15  1  0.637323  0.000000  0.637323  1
  Ni  Ni16  1  0.362677  0.000000  0.362677  1
  Bi  Bi17  1  0.500000  0.500000  0.000000  1
