# generated using pymatgen
data_PrHo4(In2Rh)2
_symmetry_space_group_name_H-M   'P 1'
_cell_length_a   3.65459300
_cell_length_b   8.03624000
_cell_length_c   18.42872000
_cell_angle_alpha   90.00000000
_cell_angle_beta   90.00000000
_cell_angle_gamma   90.00000000
_symmetry_Int_Tables_number   1
_chemical_formula_structural   PrHo4(In2Rh)2
_chemical_formula_sum   'Pr2 Ho8 In8 Rh4'
_cell_volume   541.23651372
_cell_formula_units_Z   2
loop_
 _symmetry_equiv_pos_site_id
 _symmetry_equiv_pos_as_xyz
  1  'x, y, z'
loop_
 _atom_site_type_symbol
 _atom_site_label
 _atom_site_symmetry_multiplicity
 _atom_site_fract_x
 _atom_site_fract_y
 _atom_site_fract_z
 _atom_site_occupancy
  Pr  Pr0  1  0.000000  0.000000  0.000000  1
  Pr  Pr1  1  0.000000  0.500000  0.500000  1
  Ho  Ho2  1  0.000000  0.117878  0.410553  1
  Ho  Ho3  1  0.000000  0.882122  0.589447  1
  Ho  Ho4  1  0.000000  0.382122  0.910553  1
  Ho  Ho5  1  0.000000  0.617878  0.089447  1
  Ho  Ho6  1  0.000000  0.244294  0.220478  1
  Ho  Ho7  1  0.000000  0.755706  0.779522  1
  Ho  Ho8  1  0.000000  0.255706  0.720478  1
  Ho  Ho9  1  0.000000  0.744294  0.279522  1
  In  In10  1  0.500000  0.424097  0.346866  1
  In  In11  1  0.500000  0.575903  0.653134  1
  In  In12  1  0.500000  0.075903  0.846866  1
  In  In13  1  0.500000  0.924097  0.153134  1
  In  In14  1  0.500000  0.299855  0.069343  1
  In  In15  1  0.500000  0.700145  0.930657  1
  In  In16  1  0.500000  0.200145  0.569343  1
  In  In17  1  0.500000  0.799855  0.430657  1
  Rh  Rh18  1  0.500000  0.023181  0.305005  1
  Rh  Rh19  1  0.500000  0.976819  0.694995  1
  Rh  Rh20  1  0.500000  0.476819  0.805005  1
  Rh  Rh21  1  0.500000  0.523181  0.194995  1
