# generated using pymatgen
data_Al5V12Ga2CoN4
_symmetry_space_group_name_H-M   'P 1'
_cell_length_a   6.59417642
_cell_length_b   6.60288605
_cell_length_c   6.60169965
_cell_angle_alpha   90.02316046
_cell_angle_beta   90.00805124
_cell_angle_gamma   90.08658487
_symmetry_Int_Tables_number   1
_chemical_formula_structural   Al5V12Ga2CoN4
_chemical_formula_sum   'Al5 V12 Ga2 Co1 N4'
_cell_volume   287.44157928
_cell_formula_units_Z   1
loop_
 _symmetry_equiv_pos_site_id
 _symmetry_equiv_pos_as_xyz
  1  'x, y, z'
loop_
 _atom_site_type_symbol
 _atom_site_label
 _atom_site_symmetry_multiplicity
 _atom_site_fract_x
 _atom_site_fract_y
 _atom_site_fract_z
 _atom_site_occupancy
  Al  Al0  1  0.319492  0.176736  0.820597  1
  Al  Al1  1  0.823513  0.319976  0.179621  1
  Al  Al2  1  0.679562  0.679701  0.676856  1
  Al  Al3  1  0.416841  0.924171  0.556943  1
  Al  Al4  1  0.943440  0.582735  0.423951  1
  V  V5  1  0.793163  0.957981  0.374552  1
  V  V6  1  0.708237  0.041359  0.875624  1
  V  V7  1  0.207213  0.462166  0.124953  1
  V  V8  1  0.292214  0.543306  0.626504  1
  V  V9  1  0.958542  0.379018  0.789146  1
  V  V10  1  0.041498  0.872082  0.707539  1
  V  V11  1  0.457584  0.125644  0.207607  1
  V  V12  1  0.538930  0.625869  0.293309  1
  V  V13  1  0.375122  0.793034  0.960979  1
  V  V14  1  0.873125  0.707173  0.044674  1
  V  V15  1  0.126692  0.207032  0.459902  1
  V  V16  1  0.623148  0.289016  0.539641  1
  Ga  Ga17  1  0.569386  0.430546  0.930820  1
  Ga  Ga18  1  0.074353  0.058284  0.081041  1
  Co  Co19  1  0.181642  0.818135  0.319865  1
  N  N20  1  0.876253  0.124189  0.625253  1
  N  N21  1  0.623802  0.876203  0.127470  1
  N  N22  1  0.124033  0.628643  0.877695  1
  N  N23  1  0.372214  0.377002  0.375459  1
