# generated using pymatgen
data_Zr2Fe3Ir
_symmetry_space_group_name_H-M   'P 1'
_cell_length_a   5.15297470
_cell_length_b   5.15297462
_cell_length_c   5.15297460
_cell_angle_alpha   57.77150360
_cell_angle_beta   57.77149937
_cell_angle_gamma   57.77149747
_symmetry_Int_Tables_number   1
_chemical_formula_structural   Zr2Fe3Ir
_chemical_formula_sum   'Zr2 Fe3 Ir1'
_cell_volume   91.79987786
_cell_formula_units_Z   1
loop_
 _symmetry_equiv_pos_site_id
 _symmetry_equiv_pos_as_xyz
  1  'x, y, z'
loop_
 _atom_site_type_symbol
 _atom_site_label
 _atom_site_symmetry_multiplicity
 _atom_site_fract_x
 _atom_site_fract_y
 _atom_site_fract_z
 _atom_site_occupancy
  Zr  Zr0  1  0.002297  0.002297  0.002297  1
  Zr  Zr1  1  0.247703  0.247703  0.247703  1
  Fe  Fe2  1  0.625000  0.625000  0.125000  1
  Fe  Fe3  1  0.625000  0.125000  0.625000  1
  Fe  Fe4  1  0.125000  0.625000  0.625000  1
  Ir  Ir5  1  0.625000  0.625000  0.625000  1
