# generated using pymatgen
data_Yb8Cu(Si4Pd)3
_symmetry_space_group_name_H-M   'P 1'
_cell_length_a   8.21049700
_cell_length_b   8.21049727
_cell_length_c   8.32554500
_cell_angle_alpha   90.00000000
_cell_angle_beta   90.00000000
_cell_angle_gamma   120.00000295
_symmetry_Int_Tables_number   1
_chemical_formula_structural   Yb8Cu(Si4Pd)3
_chemical_formula_sum   'Yb8 Cu1 Si12 Pd3'
_cell_volume   486.05140064
_cell_formula_units_Z   1
loop_
 _symmetry_equiv_pos_site_id
 _symmetry_equiv_pos_as_xyz
  1  'x, y, z'
loop_
 _atom_site_type_symbol
 _atom_site_label
 _atom_site_symmetry_multiplicity
 _atom_site_fract_x
 _atom_site_fract_y
 _atom_site_fract_z
 _atom_site_occupancy
  Yb  Yb0  1  0.498765  0.501235  0.747140  1
  Yb  Yb1  1  0.499802  0.500198  0.252941  1
  Yb  Yb2  1  0.002470  0.501235  0.747140  1
  Yb  Yb3  1  0.000394  0.500198  0.252941  1
  Yb  Yb4  1  0.498765  0.997530  0.747140  1
  Yb  Yb5  1  0.499802  0.999606  0.252941  1
  Yb  Yb6  1  0.000000  0.000000  0.750463  1
  Yb  Yb7  1  0.000000  0.000000  0.249565  1
  Cu  Cu8  1  0.666667  0.333333  0.997891  1
  Si  Si9  1  0.834239  0.165761  0.000043  1
  Si  Si10  1  0.165691  0.834309  0.999843  1
  Si  Si11  1  0.331522  0.165761  0.000043  1
  Si  Si12  1  0.164475  0.835525  0.500052  1
  Si  Si13  1  0.668619  0.834309  0.999843  1
  Si  Si14  1  0.835188  0.164812  0.500061  1
  Si  Si15  1  0.834239  0.668478  0.000043  1
  Si  Si16  1  0.671050  0.835525  0.500052  1
  Si  Si17  1  0.165691  0.331381  0.999843  1
  Si  Si18  1  0.329623  0.164812  0.500061  1
  Si  Si19  1  0.164475  0.328950  0.500052  1
  Si  Si20  1  0.835188  0.670377  0.500061  1
  Pd  Pd21  1  0.333333  0.666667  0.001736  1
  Pd  Pd22  1  0.333333  0.666667  0.498365  1
  Pd  Pd23  1  0.666667  0.333333  0.501742  1
