# generated using pymatgen
data_Dy16CdHg3(PtRh)2
_symmetry_space_group_name_H-M   'P 1'
_cell_length_a   9.62420122
_cell_length_b   9.61738869
_cell_length_c   9.62493600
_cell_angle_alpha   59.97403707
_cell_angle_beta   59.99747442
_cell_angle_gamma   60.03327111
_symmetry_Int_Tables_number   1
_chemical_formula_structural   Dy16CdHg3(PtRh)2
_chemical_formula_sum   'Dy16 Cd1 Hg3 Pt2 Rh2'
_cell_volume   629.97044790
_cell_formula_units_Z   1
loop_
 _symmetry_equiv_pos_site_id
 _symmetry_equiv_pos_as_xyz
  1  'x, y, z'
loop_
 _atom_site_type_symbol
 _atom_site_label
 _atom_site_symmetry_multiplicity
 _atom_site_fract_x
 _atom_site_fract_y
 _atom_site_fract_z
 _atom_site_occupancy
  Dy  Dy0  1  0.562527  0.564287  0.936593  1
  Dy  Dy1  1  0.142289  0.561522  0.148095  1
  Dy  Dy2  1  0.692932  0.311373  0.308845  1
  Dy  Dy3  1  0.935971  0.563854  0.563574  1
  Dy  Dy4  1  0.935971  0.563854  0.936600  1
  Dy  Dy5  1  0.689219  0.689092  0.310845  1
  Dy  Dy6  1  0.562514  0.936863  0.936762  1
  Dy  Dy7  1  0.147731  0.147163  0.152472  1
  Dy  Dy8  1  0.310279  0.693674  0.308501  1
  Dy  Dy9  1  0.559030  0.142564  0.149203  1
  Dy  Dy10  1  0.308847  0.309787  0.690683  1
  Dy  Dy11  1  0.310279  0.693674  0.687546  1
  Dy  Dy12  1  0.147731  0.147163  0.552634  1
  Dy  Dy13  1  0.692932  0.311373  0.686851  1
  Dy  Dy14  1  0.935444  0.936478  0.564039  1
  Dy  Dy15  1  0.562514  0.936863  0.563860  1
  Cd  Cd16  1  0.919517  0.242288  0.919098  1
  Hg  Hg17  1  0.913901  0.915941  0.913664  1
  Hg  Hg18  1  0.256943  0.915860  0.913598  1
  Hg  Hg19  1  0.913901  0.915941  0.256494  1
  Pt  Pt20  1  0.356650  0.357089  0.930882  1
  Pt  Pt21  1  0.356650  0.357089  0.355379  1
  Rh  Rh22  1  0.928952  0.357588  0.356730  1
  Rh  Rh23  1  0.357275  0.928622  0.357051  1
