# generated using pymatgen
data_Nd11In9(PdRh)2
_symmetry_space_group_name_H-M   'P 1'
_cell_length_a   13.46316808
_cell_length_b   13.51859617
_cell_length_c   3.81906300
_cell_angle_alpha   90.00000000
_cell_angle_beta   90.00000000
_cell_angle_gamma   111.38110871
_symmetry_Int_Tables_number   1
_chemical_formula_structural   Nd11In9(PdRh)2
_chemical_formula_sum   'Nd11 In9 Pd2 Rh2'
_cell_volume   647.24319387
_cell_formula_units_Z   1
loop_
 _symmetry_equiv_pos_site_id
 _symmetry_equiv_pos_as_xyz
  1  'x, y, z'
loop_
 _atom_site_type_symbol
 _atom_site_label
 _atom_site_symmetry_multiplicity
 _atom_site_fract_x
 _atom_site_fract_y
 _atom_site_fract_z
 _atom_site_occupancy
  Nd  Nd0  1  0.073462  0.418117  0.000000  1
  Nd  Nd1  1  0.926538  0.581883  0.000000  1
  Nd  Nd2  1  0.418685  0.076195  0.000000  1
  Nd  Nd3  1  0.581315  0.923805  0.000000  1
  Nd  Nd4  1  0.621415  0.368353  0.000000  1
  Nd  Nd5  1  0.378585  0.631647  0.000000  1
  Nd  Nd6  1  0.840372  0.159259  0.000000  1
  Nd  Nd7  1  0.159628  0.840741  0.000000  1
  Nd  Nd8  1  0.000000  0.000000  0.000000  1
  Nd  Nd9  1  0.313521  0.307004  0.000000  1
  Nd  Nd10  1  0.686479  0.692996  0.000000  1
  In  In11  1  0.837937  0.367268  0.500000  1
  In  In12  1  0.162063  0.632732  0.500000  1
  In  In13  1  0.365893  0.836091  0.500000  1
  In  In14  1  0.634107  0.163909  0.500000  1
  In  In15  1  0.077073  0.219035  0.500000  1
  In  In16  1  0.922927  0.780965  0.500000  1
  In  In17  1  0.220069  0.077997  0.500000  1
  In  In18  1  0.779931  0.922003  0.500000  1
  In  In19  1  0.500000  0.500000  0.500000  1
  Pd  Pd20  1  0.249260  0.450166  0.500000  1
  Pd  Pd21  1  0.750740  0.549834  0.500000  1
  Rh  Rh22  1  0.448603  0.242844  0.500000  1
  Rh  Rh23  1  0.551397  0.757156  0.500000  1
