# generated using pymatgen
data_Tb7YTaTi11Si16
_symmetry_space_group_name_H-M   'P 1'
_cell_length_a   7.06486627
_cell_length_b   7.06533753
_cell_length_c   12.99603931
_cell_angle_alpha   90.00916664
_cell_angle_beta   89.99182323
_cell_angle_gamma   90.01019422
_symmetry_Int_Tables_number   1
_chemical_formula_structural   Tb7YTaTi11Si16
_chemical_formula_sum   'Tb7 Y1 Ta1 Ti11 Si16'
_cell_volume   648.70591706
_cell_formula_units_Z   1
loop_
 _symmetry_equiv_pos_site_id
 _symmetry_equiv_pos_as_xyz
  1  'x, y, z'
loop_
 _atom_site_type_symbol
 _atom_site_label
 _atom_site_symmetry_multiplicity
 _atom_site_fract_x
 _atom_site_fract_y
 _atom_site_fract_z
 _atom_site_occupancy
  Tb  Tb0  1  0.497109  0.839553  0.716703  1
  Tb  Tb1  1  0.502532  0.159689  0.216470  1
  Tb  Tb2  1  0.839528  0.496988  0.283278  1
  Tb  Tb3  1  0.159717  0.502579  0.783556  1
  Tb  Tb4  1  0.659875  0.997627  0.966725  1
  Tb  Tb5  1  0.002773  0.339673  0.533283  1
  Tb  Tb6  1  0.997554  0.659797  0.033277  1
  Y  Y7  1  0.339832  0.002580  0.466732  1
  Ta  Ta8  1  0.326868  0.326858  0.000007  1
  Ti  Ti9  1  0.173362  0.826926  0.249986  1
  Ti  Ti10  1  0.826847  0.173380  0.749954  1
  Ti  Ti11  1  0.672768  0.672794  0.499993  1
  Ti  Ti12  1  0.154223  0.009427  0.876800  1
  Ti  Ti13  1  0.490865  0.652206  0.125672  1
  Ti  Ti14  1  0.508705  0.347746  0.626453  1
  Ti  Ti15  1  0.652135  0.490809  0.874366  1
  Ti  Ti16  1  0.347682  0.508751  0.373631  1
  Ti  Ti17  1  0.847173  0.991563  0.376462  1
  Ti  Ti18  1  0.009504  0.154250  0.123209  1
  Ti  Ti19  1  0.991456  0.847049  0.623537  1
  Si  Si20  1  0.202031  0.129430  0.684900  1
  Si  Si21  1  0.370654  0.701951  0.935040  1
  Si  Si22  1  0.629052  0.297857  0.435235  1
  Si  Si23  1  0.702074  0.370577  0.064915  1
  Si  Si24  1  0.298005  0.629299  0.564703  1
  Si  Si25  1  0.797744  0.870683  0.185135  1
  Si  Si26  1  0.129333  0.201849  0.315086  1
  Si  Si27  1  0.870528  0.797709  0.814872  1
  Si  Si28  1  0.290814  0.953480  0.064983  1
  Si  Si29  1  0.546703  0.791032  0.315032  1
  Si  Si30  1  0.453904  0.208487  0.814118  1
  Si  Si31  1  0.790965  0.546739  0.685034  1
  Si  Si32  1  0.208425  0.453712  0.185864  1
  Si  Si33  1  0.709259  0.046527  0.564716  1
  Si  Si34  1  0.953355  0.290853  0.935072  1
  Si  Si35  1  0.046647  0.709568  0.435201  1
