# generated using pymatgen
data_Pr16Sm4Si15Ir
_symmetry_space_group_name_H-M   'P 1'
_cell_length_a   7.90536101
_cell_length_b   7.89386573
_cell_length_c   15.23768400
_cell_angle_alpha   90.08519756
_cell_angle_beta   89.81545119
_cell_angle_gamma   90.19588406
_symmetry_Int_Tables_number   1
_chemical_formula_structural   Pr16Sm4Si15Ir
_chemical_formula_sum   'Pr16 Sm4 Si15 Ir1'
_cell_volume   950.87874851
_cell_formula_units_Z   1
loop_
 _symmetry_equiv_pos_site_id
 _symmetry_equiv_pos_as_xyz
  1  'x, y, z'
loop_
 _atom_site_type_symbol
 _atom_site_label
 _atom_site_symmetry_multiplicity
 _atom_site_fract_x
 _atom_site_fract_y
 _atom_site_fract_z
 _atom_site_occupancy
  Pr  Pr0  1  0.373660  0.010576  0.448631  1
  Pr  Pr1  1  0.489403  0.875333  0.698607  1
  Pr  Pr2  1  0.510473  0.123889  0.197320  1
  Pr  Pr3  1  0.875084  0.487769  0.300195  1
  Pr  Pr4  1  0.124673  0.507026  0.799426  1
  Pr  Pr5  1  0.626768  0.988336  0.948666  1
  Pr  Pr6  1  0.005152  0.375071  0.552719  1
  Pr  Pr7  1  0.988223  0.625541  0.051503  1
  Pr  Pr8  1  0.134558  0.986161  0.873426  1
  Pr  Pr9  1  0.517645  0.631015  0.125823  1
  Pr  Pr10  1  0.473094  0.361622  0.629339  1
  Pr  Pr11  1  0.627797  0.517050  0.873669  1
  Pr  Pr12  1  0.372796  0.482395  0.373230  1
  Pr  Pr13  1  0.873039  0.021194  0.377135  1
  Pr  Pr14  1  0.981862  0.126538  0.123722  1
  Pr  Pr15  1  0.026274  0.881335  0.624960  1
  Sm  Sm16  1  0.305782  0.307150  0.998605  1
  Sm  Sm17  1  0.189852  0.808721  0.249806  1
  Sm  Sm18  1  0.820119  0.188254  0.750113  1
  Sm  Sm19  1  0.691834  0.688138  0.500772  1
  Si  Si20  1  0.332009  0.692819  0.951567  1
  Si  Si21  1  0.664743  0.305321  0.453525  1
  Si  Si22  1  0.695438  0.334180  0.048647  1
  Si  Si23  1  0.306621  0.668997  0.547058  1
  Si  Si24  1  0.807314  0.831496  0.204063  1
  Si  Si25  1  0.168833  0.194963  0.296588  1
  Si  Si26  1  0.833383  0.804626  0.798092  1
  Si  Si27  1  0.288011  0.923321  0.059858  1
  Si  Si28  1  0.578580  0.786566  0.311333  1
  Si  Si29  1  0.429116  0.206898  0.813307  1
  Si  Si30  1  0.782242  0.581315  0.688999  1
  Si  Si31  1  0.212912  0.423205  0.188515  1
  Si  Si32  1  0.705697  0.073015  0.559914  1
  Si  Si33  1  0.920948  0.287609  0.940373  1
  Si  Si34  1  0.079032  0.715901  0.439988  1
  Ir  Ir35  1  0.187029  0.176661  0.700502  1
