# generated using pymatgen
data_Hf7Zr2ScSn6
_symmetry_space_group_name_H-M   'P 1'
_cell_length_a   8.47387188
_cell_length_b   8.49798802
_cell_length_c   5.76336100
_cell_angle_alpha   90.00000000
_cell_angle_beta   90.00000000
_cell_angle_gamma   120.12934571
_symmetry_Int_Tables_number   1
_chemical_formula_structural   Hf7Zr2ScSn6
_chemical_formula_sum   'Hf7 Zr2 Sc1 Sn6'
_cell_volume   358.95246380
_cell_formula_units_Z   1
loop_
 _symmetry_equiv_pos_site_id
 _symmetry_equiv_pos_as_xyz
  1  'x, y, z'
loop_
 _atom_site_type_symbol
 _atom_site_label
 _atom_site_symmetry_multiplicity
 _atom_site_fract_x
 _atom_site_fract_y
 _atom_site_fract_z
 _atom_site_occupancy
  Hf  Hf0  1  0.246049  0.001032  0.750000  1
  Hf  Hf1  1  0.001654  0.248218  0.750000  1
  Hf  Hf2  1  0.001402  0.755523  0.250000  1
  Hf  Hf3  1  0.665484  0.331069  0.000208  1
  Hf  Hf4  1  0.331529  0.665816  0.000233  1
  Hf  Hf5  1  0.331529  0.665816  0.499767  1
  Hf  Hf6  1  0.665484  0.331069  0.499792  1
  Zr  Zr7  1  0.241746  0.241607  0.250000  1
  Zr  Zr8  1  0.756443  0.000993  0.250000  1
  Sc  Sc9  1  0.758144  0.757853  0.750000  1
  Sn  Sn10  1  0.393932  0.393934  0.750000  1
  Sn  Sn11  1  0.607652  0.998242  0.750000  1
  Sn  Sn12  1  0.998026  0.607842  0.750000  1
  Sn  Sn13  1  0.608296  0.607753  0.250000  1
  Sn  Sn14  1  0.392831  0.999729  0.250000  1
  Sn  Sn15  1  0.999798  0.393505  0.250000  1
