# generated using pymatgen
data_Hf2Zn2PdPt
_symmetry_space_group_name_H-M   'P 1'
_cell_length_a   7.22855100
_cell_length_b   7.22854869
_cell_length_c   6.88684300
_cell_angle_alpha   90.00000000
_cell_angle_beta   90.00000000
_cell_angle_gamma   119.99999683
_symmetry_Int_Tables_number   1
_chemical_formula_structural   Hf2Zn2PdPt
_chemical_formula_sum   'Hf6 Zn6 Pd3 Pt3'
_cell_volume   311.63999471
_cell_formula_units_Z   3
loop_
 _symmetry_equiv_pos_site_id
 _symmetry_equiv_pos_as_xyz
  1  'x, y, z'
loop_
 _atom_site_type_symbol
 _atom_site_label
 _atom_site_symmetry_multiplicity
 _atom_site_fract_x
 _atom_site_fract_y
 _atom_site_fract_z
 _atom_site_occupancy
  Hf  Hf0  1  0.608783  0.589631  0.251269  1
  Hf  Hf1  1  0.022837  0.412317  0.748920  1
  Hf  Hf2  1  0.410369  0.019152  0.251269  1
  Hf  Hf3  1  0.980848  0.391217  0.251269  1
  Hf  Hf4  1  0.389480  0.977163  0.748920  1
  Hf  Hf5  1  0.587683  0.610520  0.748920  1
  Zn  Zn6  1  0.267475  0.267132  0.500516  1
  Zn  Zn7  1  0.732868  0.000343  0.500516  1
  Zn  Zn8  1  0.999657  0.732525  0.500516  1
  Zn  Zn9  1  0.731644  0.002520  0.000608  1
  Zn  Zn10  1  0.270875  0.268356  0.000608  1
  Zn  Zn11  1  0.997480  0.729125  0.000608  1
  Pd  Pd12  1  0.000000  0.000000  0.752322  1
  Pd  Pd13  1  0.000000  0.000000  0.248945  1
  Pd  Pd14  1  0.666667  0.333333  0.971996  1
  Pt  Pt15  1  0.333333  0.666667  0.475932  1
  Pt  Pt16  1  0.333333  0.666667  0.023666  1
  Pt  Pt17  1  0.666667  0.333333  0.523200  1
