# generated using pymatgen
data_Y8Zr12Si15Ir
_symmetry_space_group_name_H-M   'P 1'
_cell_length_a   7.18942812
_cell_length_b   7.33146108
_cell_length_c   13.96661175
_cell_angle_alpha   90.14087274
_cell_angle_beta   90.04640326
_cell_angle_gamma   90.07472084
_symmetry_Int_Tables_number   1
_chemical_formula_structural   Y8Zr12Si15Ir
_chemical_formula_sum   'Y8 Zr12 Si15 Ir1'
_cell_volume   736.16321780
_cell_formula_units_Z   1
loop_
 _symmetry_equiv_pos_site_id
 _symmetry_equiv_pos_as_xyz
  1  'x, y, z'
loop_
 _atom_site_type_symbol
 _atom_site_label
 _atom_site_symmetry_multiplicity
 _atom_site_fract_x
 _atom_site_fract_y
 _atom_site_fract_z
 _atom_site_occupancy
  Y  Y0  1  0.518783  0.678269  0.598363  1
  Y  Y1  1  0.019578  0.823688  0.903415  1
  Y  Y2  1  0.480336  0.324905  0.096874  1
  Y  Y3  1  0.979462  0.173541  0.402694  1
  Y  Y4  1  0.477553  0.325262  0.402409  1
  Y  Y5  1  0.980648  0.176676  0.097422  1
  Y  Y6  1  0.521227  0.676044  0.902533  1
  Y  Y7  1  0.019881  0.824570  0.599354  1
  Zr  Zr8  1  0.678143  0.167700  0.619716  1
  Zr  Zr9  1  0.177404  0.323124  0.875465  1
  Zr  Zr10  1  0.324954  0.822097  0.124027  1
  Zr  Zr11  1  0.826102  0.679626  0.378275  1
  Zr  Zr12  1  0.324775  0.823403  0.375873  1
  Zr  Zr13  1  0.823329  0.674227  0.124940  1
  Zr  Zr14  1  0.675307  0.176235  0.875398  1
  Zr  Zr15  1  0.176586  0.325190  0.624748  1
  Zr  Zr16  1  0.850852  0.498480  0.750219  1
  Zr  Zr17  1  0.350280  0.001902  0.750844  1
  Zr  Zr18  1  0.148086  0.502254  0.250923  1
  Zr  Zr19  1  0.652881  0.002685  0.254457  1
  Si  Si20  1  0.150361  0.530854  0.041656  1
  Si  Si21  1  0.347543  0.031212  0.958657  1
  Si  Si22  1  0.851611  0.469907  0.544289  1
  Si  Si23  1  0.343956  0.033594  0.543678  1
  Si  Si24  1  0.850667  0.467841  0.957765  1
  Si  Si25  1  0.651526  0.966871  0.041150  1
  Si  Si26  1  0.150463  0.533148  0.459854  1
  Si  Si27  1  0.475474  0.380341  0.749185  1
  Si  Si28  1  0.973613  0.118550  0.749919  1
  Si  Si29  1  0.526899  0.618309  0.248370  1
  Si  Si30  1  0.029088  0.880941  0.247175  1
  Si  Si31  1  0.725300  0.873019  0.751846  1
  Si  Si32  1  0.224270  0.625864  0.751302  1
  Si  Si33  1  0.274733  0.125904  0.246690  1
  Si  Si34  1  0.774851  0.376494  0.248504  1
  Ir  Ir35  1  0.643482  0.967273  0.452013  1
