# generated using pymatgen
data_Ta12Ga3Pt5N4
_symmetry_space_group_name_H-M   'P 1'
_cell_length_a   7.03833899
_cell_length_b   7.03834108
_cell_length_c   7.03834019
_cell_angle_alpha   90.12624345
_cell_angle_beta   89.87376643
_cell_angle_gamma   89.87376326
_symmetry_Int_Tables_number   1
_chemical_formula_structural   Ta12Ga3Pt5N4
_chemical_formula_sum   'Ta12 Ga3 Pt5 N4'
_cell_volume   348.66437571
_cell_formula_units_Z   1
loop_
 _symmetry_equiv_pos_site_id
 _symmetry_equiv_pos_as_xyz
  1  'x, y, z'
loop_
 _atom_site_type_symbol
 _atom_site_label
 _atom_site_symmetry_multiplicity
 _atom_site_fract_x
 _atom_site_fract_y
 _atom_site_fract_z
 _atom_site_occupancy
  Ta  Ta0  1  0.791511  0.956791  0.377258  1
  Ta  Ta1  1  0.708386  0.050137  0.882189  1
  Ta  Ta2  1  0.211623  0.453293  0.122756  1
  Ta  Ta3  1  0.296120  0.541104  0.628587  1
  Ta  Ta4  1  0.949863  0.382190  0.791614  1
  Ta  Ta5  1  0.043209  0.877258  0.708489  1
  Ta  Ta6  1  0.458896  0.128587  0.203880  1
  Ta  Ta7  1  0.546707  0.622756  0.288377  1
  Ta  Ta8  1  0.377244  0.788378  0.953293  1
  Ta  Ta9  1  0.871413  0.703880  0.041105  1
  Ta  Ta10  1  0.122741  0.208489  0.456791  1
  Ta  Ta11  1  0.617811  0.291614  0.550137  1
  Ga  Ga12  1  0.430975  0.930072  0.563952  1
  Ga  Ga13  1  0.936048  0.569025  0.430072  1
  Ga  Ga14  1  0.069929  0.063952  0.069025  1
  Pt  Pt15  1  0.181040  0.818961  0.318961  1
  Pt  Pt16  1  0.311003  0.170722  0.813979  1
  Pt  Pt17  1  0.829278  0.313979  0.188998  1
  Pt  Pt18  1  0.686020  0.688998  0.670722  1
  Pt  Pt19  1  0.563968  0.436032  0.936032  1
  N  N20  1  0.871847  0.128153  0.628153  1
  N  N21  1  0.623673  0.874899  0.124404  1
  N  N22  1  0.125101  0.624404  0.876327  1
  N  N23  1  0.375596  0.376327  0.374899  1
