# generated using pymatgen
data_ScNi7B3
_symmetry_space_group_name_H-M   'P 1'
_cell_length_a   9.38224383
_cell_length_b   7.48763834
_cell_length_c   7.48763800
_cell_angle_alpha   90.00000000
_cell_angle_beta   113.51770124
_cell_angle_gamma   113.51770280
_symmetry_Int_Tables_number   1
_chemical_formula_structural   ScNi7B3
_chemical_formula_sum   'Sc4 Ni28 B12'
_cell_volume   434.25427343
_cell_formula_units_Z   4
loop_
 _symmetry_equiv_pos_site_id
 _symmetry_equiv_pos_as_xyz
  1  'x, y, z'
loop_
 _atom_site_type_symbol
 _atom_site_label
 _atom_site_symmetry_multiplicity
 _atom_site_fract_x
 _atom_site_fract_y
 _atom_site_fract_z
 _atom_site_occupancy
  Sc  Sc0  1  0.829652  0.414825  0.164825  1
  Sc  Sc1  1  0.329652  0.164826  0.414826  1
  Sc  Sc2  1  0.670348  0.835175  0.585174  1
  Sc  Sc3  1  0.170348  0.585175  0.835175  1
  Ni  Ni4  1  0.499999  0.000000  0.000000  1
  Ni  Ni5  1  0.499999  0.500000  0.000000  1
  Ni  Ni6  1  0.000000  0.000000  0.000000  1
  Ni  Ni7  1  0.250000  0.313943  0.063943  1
  Ni  Ni8  1  0.250000  0.936058  0.063943  1
  Ni  Ni9  1  0.138664  0.569333  0.153975  1
  Ni  Ni10  1  0.454002  0.727002  0.186365  1
  Ni  Ni11  1  0.545997  0.272998  0.232362  1
  Ni  Ni12  1  0.045997  0.232362  0.272998  1
  Ni  Ni13  1  0.045997  0.813635  0.272998  1
  Ni  Ni14  1  0.750000  0.063942  0.313943  1
  Ni  Ni15  1  0.750000  0.686057  0.313943  1
  Ni  Ni16  1  0.361335  0.515310  0.430667  1
  Ni  Ni17  1  0.361335  0.846025  0.430667  1
  Ni  Ni18  1  0.138664  0.569333  0.484690  1
  Ni  Ni19  1  0.000000  0.000000  0.500000  1
  Ni  Ni20  1  0.861336  0.430667  0.515310  1
  Ni  Ni21  1  0.638665  0.153975  0.569333  1
  Ni  Ni22  1  0.638665  0.484690  0.569333  1
  Ni  Ni23  1  0.250000  0.313943  0.686058  1
  Ni  Ni24  1  0.250000  0.936058  0.686058  1
  Ni  Ni25  1  0.954003  0.186365  0.727002  1
  Ni  Ni26  1  0.954003  0.767638  0.727002  1
  Ni  Ni27  1  0.454002  0.727002  0.767637  1
  Ni  Ni28  1  0.545997  0.272998  0.813635  1
  Ni  Ni29  1  0.861336  0.430667  0.846026  1
  Ni  Ni30  1  0.750000  0.063942  0.936057  1
  Ni  Ni31  1  0.750000  0.686057  0.936057  1
  B  B32  1  0.000000  0.289362  0.000000  1
  B  B33  1  0.000000  0.710638  0.000000  1
  B  B34  1  0.632472  0.816236  0.066235  1
  B  B35  1  0.867529  0.933765  0.183765  1
  B  B36  1  0.499999  0.000000  0.289362  1
  B  B37  1  0.499999  0.500000  0.289362  1
  B  B38  1  0.000000  0.289362  0.500000  1
  B  B39  1  0.000000  0.710638  0.500000  1
  B  B40  1  0.499999  0.000000  0.710638  1
  B  B41  1  0.499999  0.500000  0.710638  1
  B  B42  1  0.132471  0.066235  0.816235  1
  B  B43  1  0.367528  0.183765  0.933765  1
