# generated using pymatgen
data_Ba3DyScS6
_symmetry_space_group_name_H-M   'P 1'
_cell_length_a   8.30665695
_cell_length_b   8.30665568
_cell_length_c   8.30665700
_cell_angle_alpha   92.88113090
_cell_angle_beta   92.88113736
_cell_angle_gamma   92.88112686
_symmetry_Int_Tables_number   1
_chemical_formula_structural   Ba3DyScS6
_chemical_formula_sum   'Ba6 Dy2 Sc2 S12'
_cell_volume   570.91448598
_cell_formula_units_Z   2
loop_
 _symmetry_equiv_pos_site_id
 _symmetry_equiv_pos_as_xyz
  1  'x, y, z'
loop_
 _atom_site_type_symbol
 _atom_site_label
 _atom_site_symmetry_multiplicity
 _atom_site_fract_x
 _atom_site_fract_y
 _atom_site_fract_z
 _atom_site_occupancy
  Ba  Ba0  1  0.371191  0.750000  0.128809  1
  Ba  Ba1  1  0.128809  0.371191  0.750000  1
  Ba  Ba2  1  0.750000  0.128809  0.371191  1
  Ba  Ba3  1  0.628809  0.250000  0.871191  1
  Ba  Ba4  1  0.871191  0.628809  0.250000  1
  Ba  Ba5  1  0.250000  0.871191  0.628809  1
  Dy  Dy6  1  0.250000  0.250000  0.250000  1
  Dy  Dy7  1  0.750000  0.750000  0.750000  1
  Sc  Sc8  1  0.500000  0.500000  0.500000  1
  Sc  Sc9  1  0.000000  0.000000  0.000000  1
  S  S10  1  0.538964  0.410559  0.202504  1
  S  S11  1  0.202504  0.538964  0.410559  1
  S  S12  1  0.410559  0.202504  0.538964  1
  S  S13  1  0.961036  0.297496  0.089441  1
  S  S14  1  0.089441  0.961036  0.297496  1
  S  S15  1  0.297496  0.089441  0.961036  1
  S  S16  1  0.461036  0.589441  0.797496  1
  S  S17  1  0.797496  0.461036  0.589441  1
  S  S18  1  0.589441  0.797496  0.461036  1
  S  S19  1  0.038964  0.702504  0.910559  1
  S  S20  1  0.702504  0.910559  0.038964  1
  S  S21  1  0.910559  0.038964  0.702504  1
