# generated using pymatgen
data_Ca3Zn2CuPd
_symmetry_space_group_name_H-M   'P 1'
_cell_length_a   5.77090300
_cell_length_b   7.92157300
_cell_length_c   14.03141100
_cell_angle_alpha   90.00000000
_cell_angle_beta   90.00000000
_cell_angle_gamma   90.00000000
_symmetry_Int_Tables_number   1
_chemical_formula_structural   Ca3Zn2CuPd
_chemical_formula_sum   'Ca12 Zn8 Cu4 Pd4'
_cell_volume   641.44075369
_cell_formula_units_Z   4
loop_
 _symmetry_equiv_pos_site_id
 _symmetry_equiv_pos_as_xyz
  1  'x, y, z'
loop_
 _atom_site_type_symbol
 _atom_site_label
 _atom_site_symmetry_multiplicity
 _atom_site_fract_x
 _atom_site_fract_y
 _atom_site_fract_z
 _atom_site_occupancy
  Ca  Ca0  1  0.141814  0.606850  0.097903  1
  Ca  Ca1  1  0.141814  0.893150  0.902097  1
  Ca  Ca2  1  0.858186  0.106850  0.402097  1
  Ca  Ca3  1  0.858186  0.393150  0.597903  1
  Ca  Ca4  1  0.862831  0.398462  0.900550  1
  Ca  Ca5  1  0.862831  0.101538  0.099450  1
  Ca  Ca6  1  0.137169  0.898462  0.599450  1
  Ca  Ca7  1  0.137169  0.601538  0.400550  1
  Ca  Ca8  1  0.371889  0.249920  0.249116  1
  Ca  Ca9  1  0.371889  0.250080  0.750884  1
  Ca  Ca10  1  0.628111  0.749920  0.250884  1
  Ca  Ca11  1  0.628111  0.750080  0.749116  1
  Zn  Zn12  1  0.375139  0.250000  0.000000  1
  Zn  Zn13  1  0.624861  0.750000  0.500000  1
  Zn  Zn14  1  0.632337  0.750000  0.000000  1
  Zn  Zn15  1  0.367663  0.250000  0.500000  1
  Zn  Zn16  1  0.859099  0.401709  0.246842  1
  Zn  Zn17  1  0.859099  0.098291  0.753158  1
  Zn  Zn18  1  0.140901  0.901709  0.253158  1
  Zn  Zn19  1  0.140901  0.598291  0.746842  1
  Cu  Cu20  1  0.633468  0.468370  0.091157  1
  Cu  Cu21  1  0.633468  0.031630  0.908843  1
  Cu  Cu22  1  0.366532  0.968370  0.408843  1
  Cu  Cu23  1  0.366532  0.531630  0.591157  1
  Pd  Pd24  1  0.367219  0.532958  0.905907  1
  Pd  Pd25  1  0.367219  0.967042  0.094093  1
  Pd  Pd26  1  0.632781  0.032958  0.594093  1
  Pd  Pd27  1  0.632781  0.467042  0.405907  1
