# generated using pymatgen
data_K2TlAsSe3
_symmetry_space_group_name_H-M   'P 1'
_cell_length_a   9.68793800
_cell_length_b   9.68793800
_cell_length_c   9.68793800
_cell_angle_alpha   90.00000000
_cell_angle_beta   90.00000000
_cell_angle_gamma   90.00000000
_symmetry_Int_Tables_number   1
_chemical_formula_structural   K2TlAsSe3
_chemical_formula_sum   'K8 Tl4 As4 Se12'
_cell_volume   909.27249132
_cell_formula_units_Z   4
loop_
 _symmetry_equiv_pos_site_id
 _symmetry_equiv_pos_as_xyz
  1  'x, y, z'
loop_
 _atom_site_type_symbol
 _atom_site_label
 _atom_site_symmetry_multiplicity
 _atom_site_fract_x
 _atom_site_fract_y
 _atom_site_fract_z
 _atom_site_occupancy
  K  K0  1  0.182711  0.682711  0.817289  1
  K  K1  1  0.682711  0.817289  0.182711  1
  K  K2  1  0.817289  0.182711  0.682711  1
  K  K3  1  0.317289  0.317289  0.317289  1
  K  K4  1  0.681058  0.181058  0.318942  1
  K  K5  1  0.181058  0.318942  0.681058  1
  K  K6  1  0.318942  0.681058  0.181058  1
  K  K7  1  0.818942  0.818942  0.818942  1
  Tl  Tl8  1  0.912357  0.412357  0.087643  1
  Tl  Tl9  1  0.412357  0.087643  0.912357  1
  Tl  Tl10  1  0.087643  0.912357  0.412357  1
  Tl  Tl11  1  0.587643  0.587643  0.587643  1
  As  As12  1  0.464152  0.964152  0.535848  1
  As  As13  1  0.964152  0.535848  0.464152  1
  As  As14  1  0.535848  0.464152  0.964152  1
  As  As15  1  0.035848  0.035848  0.035848  1
  Se  Se16  1  0.010862  0.797019  0.109420  1
  Se  Se17  1  0.890580  0.510862  0.702981  1
  Se  Se18  1  0.297019  0.390580  0.989138  1
  Se  Se19  1  0.510862  0.702981  0.890580  1
  Se  Se20  1  0.390580  0.989138  0.297019  1
  Se  Se21  1  0.797019  0.109420  0.010862  1
  Se  Se22  1  0.989138  0.297019  0.390580  1
  Se  Se23  1  0.109420  0.010862  0.797019  1
  Se  Se24  1  0.702981  0.890580  0.510862  1
  Se  Se25  1  0.489138  0.202981  0.609420  1
  Se  Se26  1  0.609420  0.489138  0.202981  1
  Se  Se27  1  0.202981  0.609420  0.489138  1
