# generated using pymatgen
data_Zr5P12Ru17Rh2
_symmetry_space_group_name_H-M   'P 1'
_cell_length_a   12.49323700
_cell_length_b   12.43322794
_cell_length_c   3.90715400
_cell_angle_alpha   90.00000000
_cell_angle_beta   90.00000000
_cell_angle_gamma   120.15979108
_symmetry_Int_Tables_number   1
_chemical_formula_structural   Zr5P12Ru17Rh2
_chemical_formula_sum   'Zr5 P12 Ru17 Rh2'
_cell_volume   524.74522692
_cell_formula_units_Z   1
loop_
 _symmetry_equiv_pos_site_id
 _symmetry_equiv_pos_as_xyz
  1  'x, y, z'
loop_
 _atom_site_type_symbol
 _atom_site_label
 _atom_site_symmetry_multiplicity
 _atom_site_fract_x
 _atom_site_fract_y
 _atom_site_fract_z
 _atom_site_occupancy
  Zr  Zr0  1  0.999586  0.188895  0.500000  1
  Zr  Zr1  1  0.810691  0.811105  0.500000  1
  Zr  Zr2  1  0.188427  0.000000  0.500000  1
  Zr  Zr3  1  0.665754  0.330276  0.000000  1
  Zr  Zr4  1  0.335477  0.669724  0.000000  1
  P  P5  1  0.999077  0.817527  0.000000  1
  P  P6  1  0.181551  0.182473  0.000000  1
  P  P7  1  0.821080  0.000000  0.000000  1
  P  P8  1  0.692491  0.171870  0.500000  1
  P  P9  1  0.822096  0.517688  0.500000  1
  P  P10  1  0.479483  0.303994  0.500000  1
  P  P11  1  0.175489  0.696006  0.500000  1
  P  P12  1  0.520622  0.828130  0.500000  1
  P  P13  1  0.304408  0.482312  0.500000  1
  P  P14  1  0.000693  0.367330  0.000000  1
  P  P15  1  0.633364  0.632670  0.000000  1
  P  P16  1  0.370703  0.000000  0.000000  1
  Ru  Ru17  1  0.555949  0.000000  0.000000  1
  Ru  Ru18  1  0.998900  0.717738  0.500000  1
  Ru  Ru19  1  0.281161  0.282262  0.500000  1
  Ru  Ru20  1  0.721274  0.000000  0.500000  1
  Ru  Ru21  1  0.810670  0.184406  0.000000  1
  Ru  Ru22  1  0.814602  0.622861  0.000000  1
  Ru  Ru23  1  0.373751  0.189970  0.000000  1
  Ru  Ru24  1  0.183781  0.810030  0.000000  1
  Ru  Ru25  1  0.626264  0.815594  0.000000  1
  Ru  Ru26  1  0.191741  0.377139  0.000000  1
  Ru  Ru27  1  0.870400  0.365321  0.500000  1
  Ru  Ru28  1  0.632051  0.505586  0.500000  1
  Ru  Ru29  1  0.493474  0.127153  0.500000  1
  Ru  Ru30  1  0.366322  0.872847  0.500000  1
  Ru  Ru31  1  0.505079  0.634679  0.500000  1
  Ru  Ru32  1  0.126464  0.494414  0.500000  1
  Ru  Ru33  1  0.001618  0.000000  0.000000  1
  Rh  Rh34  1  0.999202  0.552898  0.000000  1
  Rh  Rh35  1  0.446304  0.447102  0.000000  1
