# generated using pymatgen
data_Sc2ZnGa3
_symmetry_space_group_name_H-M   'P 1'
_cell_length_a   4.34965100
_cell_length_b   4.34965139
_cell_length_c   6.54917300
_cell_angle_alpha   90.00000000
_cell_angle_beta   90.00000000
_cell_angle_gamma   119.99998945
_symmetry_Int_Tables_number   1
_chemical_formula_structural   Sc2ZnGa3
_chemical_formula_sum   'Sc2 Zn1 Ga3'
_cell_volume   107.30649354
_cell_formula_units_Z   1
loop_
 _symmetry_equiv_pos_site_id
 _symmetry_equiv_pos_as_xyz
  1  'x, y, z'
loop_
 _atom_site_type_symbol
 _atom_site_label
 _atom_site_symmetry_multiplicity
 _atom_site_fract_x
 _atom_site_fract_y
 _atom_site_fract_z
 _atom_site_occupancy
  Sc  Sc0  1  0.666667  0.333333  0.744370  1
  Sc  Sc1  1  0.666667  0.333333  0.252901  1
  Zn  Zn2  1  0.333333  0.666667  0.529909  1
  Ga  Ga3  1  0.000000  0.000000  0.475407  1
  Ga  Ga4  1  0.000000  0.000000  0.037875  1
  Ga  Ga5  1  0.333333  0.666667  0.959538  1
