# generated using pymatgen
data_Li6Sc2VTc11Ge16
_symmetry_space_group_name_H-M   'P 1'
_cell_length_a   6.57093088
_cell_length_b   6.80525862
_cell_length_c   12.53445361
_cell_angle_alpha   89.97357677
_cell_angle_beta   90.02580640
_cell_angle_gamma   90.21930044
_symmetry_Int_Tables_number   1
_chemical_formula_structural   Li6Sc2VTc11Ge16
_chemical_formula_sum   'Li6 Sc2 V1 Tc11 Ge16'
_cell_volume   560.49748612
_cell_formula_units_Z   1
loop_
 _symmetry_equiv_pos_site_id
 _symmetry_equiv_pos_as_xyz
  1  'x, y, z'
loop_
 _atom_site_type_symbol
 _atom_site_label
 _atom_site_symmetry_multiplicity
 _atom_site_fract_x
 _atom_site_fract_y
 _atom_site_fract_z
 _atom_site_occupancy
  Li  Li0  1  0.027506  0.172275  0.082422  1
  Li  Li1  1  0.529659  0.325482  0.418257  1
  Li  Li2  1  0.471467  0.676728  0.912726  1
  Li  Li3  1  0.969475  0.825275  0.587339  1
  Li  Li4  1  0.971368  0.828242  0.913408  1
  Li  Li5  1  0.473265  0.672727  0.586209  1
  Sc  Sc6  1  0.512334  0.326721  0.082172  1
  Sc  Sc7  1  0.014693  0.170368  0.418322  1
  V  V8  1  0.353785  0.017253  0.752237  1
  Tc  Tc9  1  0.666082  0.000031  0.248951  1
  Tc  Tc10  1  0.166652  0.500660  0.250675  1
  Tc  Tc11  1  0.843485  0.495253  0.748718  1
  Tc  Tc12  1  0.821250  0.649992  0.126977  1
  Tc  Tc13  1  0.320904  0.850072  0.372344  1
  Tc  Tc14  1  0.670262  0.155333  0.870327  1
  Tc  Tc15  1  0.168758  0.339899  0.627946  1
  Tc  Tc16  1  0.177437  0.339523  0.871555  1
  Tc  Tc17  1  0.680283  0.156107  0.628299  1
  Tc  Tc18  1  0.330642  0.844130  0.129332  1
  Tc  Tc19  1  0.831515  0.656597  0.371379  1
  Ge  Ge20  1  0.819074  0.336796  0.246852  1
  Ge  Ge21  1  0.319253  0.164079  0.253923  1
  Ge  Ge22  1  0.684679  0.831169  0.749597  1
  Ge  Ge23  1  0.187359  0.675827  0.749836  1
  Ge  Ge24  1  0.024793  0.882906  0.244585  1
  Ge  Ge25  1  0.525166  0.617813  0.255503  1
  Ge  Ge26  1  0.476579  0.395674  0.747572  1
  Ge  Ge27  1  0.980354  0.101790  0.751837  1
  Ge  Ge28  1  0.824028  0.466054  0.948479  1
  Ge  Ge29  1  0.324096  0.029843  0.553238  1
  Ge  Ge30  1  0.679183  0.954623  0.042682  1
  Ge  Ge31  1  0.181322  0.543034  0.456908  1
  Ge  Ge32  1  0.168993  0.542546  0.044263  1
  Ge  Ge33  1  0.668053  0.956288  0.455475  1
  Ge  Ge34  1  0.317451  0.028269  0.952689  1
  Ge  Ge35  1  0.818799  0.470623  0.546965  1
