# generated using pymatgen
data_YbHo3(Al3Ir)2
_symmetry_space_group_name_H-M   'P 1'
_cell_length_a   5.52361200
_cell_length_b   5.52361086
_cell_length_c   8.66366600
_cell_angle_alpha   90.00000000
_cell_angle_beta   90.00000000
_cell_angle_gamma   120.00000681
_symmetry_Int_Tables_number   1
_chemical_formula_structural   YbHo3(Al3Ir)2
_chemical_formula_sum   'Yb1 Ho3 Al6 Ir2'
_cell_volume   228.91726184
_cell_formula_units_Z   1
loop_
 _symmetry_equiv_pos_site_id
 _symmetry_equiv_pos_as_xyz
  1  'x, y, z'
loop_
 _atom_site_type_symbol
 _atom_site_label
 _atom_site_symmetry_multiplicity
 _atom_site_fract_x
 _atom_site_fract_y
 _atom_site_fract_z
 _atom_site_occupancy
  Yb  Yb0  1  0.666667  0.333334  0.055581  1
  Ho  Ho1  1  0.666667  0.333334  0.445846  1
  Ho  Ho2  1  0.333334  0.666668  0.553210  1
  Ho  Ho3  1  0.333334  0.666668  0.947246  1
  Al  Al4  1  0.162962  0.325926  0.250694  1
  Al  Al5  1  0.162963  0.837038  0.250694  1
  Al  Al6  1  0.674074  0.837038  0.250694  1
  Al  Al7  1  0.324374  0.162187  0.748929  1
  Al  Al8  1  0.837814  0.162187  0.748929  1
  Al  Al9  1  0.837813  0.675626  0.748929  1
  Ir  Ir10  1  0.000000  0.000000  0.000243  1
  Ir  Ir11  1  0.000000  0.000000  0.499002  1
