# generated using pymatgen
data_YbY4Hf5(Si5Ir2)4
_symmetry_space_group_name_H-M   'P 1'
_cell_length_a   12.47812100
_cell_length_b   12.47812100
_cell_length_c   4.16564100
_cell_angle_alpha   90.00000000
_cell_angle_beta   90.00000000
_cell_angle_gamma   90.00000000
_symmetry_Int_Tables_number   1
_chemical_formula_structural   YbY4Hf5(Si5Ir2)4
_chemical_formula_sum   'Yb1 Y4 Hf5 Si20 Ir8'
_cell_volume   648.60489882
_cell_formula_units_Z   1
loop_
 _symmetry_equiv_pos_site_id
 _symmetry_equiv_pos_as_xyz
  1  'x, y, z'
loop_
 _atom_site_type_symbol
 _atom_site_label
 _atom_site_symmetry_multiplicity
 _atom_site_fract_x
 _atom_site_fract_y
 _atom_site_fract_z
 _atom_site_occupancy
  Yb  Yb0  1  0.000000  0.000000  0.000000  1
  Y  Y1  1  0.884093  0.384522  0.500000  1
  Y  Y2  1  0.115907  0.615478  0.500000  1
  Y  Y3  1  0.384522  0.115907  0.500000  1
  Y  Y4  1  0.615478  0.884093  0.500000  1
  Hf  Hf5  1  0.500000  0.500000  0.000000  1
  Hf  Hf6  1  0.674270  0.174949  0.500000  1
  Hf  Hf7  1  0.325730  0.825051  0.500000  1
  Hf  Hf8  1  0.174949  0.325730  0.500000  1
  Hf  Hf9  1  0.825051  0.674270  0.500000  1
  Si  Si10  1  0.565955  0.068309  0.000000  1
  Si  Si11  1  0.434045  0.931691  0.000000  1
  Si  Si12  1  0.068309  0.434045  0.000000  1
  Si  Si13  1  0.931691  0.565955  0.000000  1
  Si  Si14  1  0.666033  0.702284  0.000000  1
  Si  Si15  1  0.333967  0.297716  0.000000  1
  Si  Si16  1  0.162320  0.802212  0.000000  1
  Si  Si17  1  0.837680  0.197788  0.000000  1
  Si  Si18  1  0.297716  0.666033  0.000000  1
  Si  Si19  1  0.702284  0.333967  0.000000  1
  Si  Si20  1  0.197788  0.162320  0.000000  1
  Si  Si21  1  0.802212  0.837680  0.000000  1
  Si  Si22  1  0.650865  0.508333  0.500000  1
  Si  Si23  1  0.349135  0.491667  0.500000  1
  Si  Si24  1  0.154163  0.991931  0.500000  1
  Si  Si25  1  0.845837  0.008069  0.500000  1
  Si  Si26  1  0.491667  0.650865  0.500000  1
  Si  Si27  1  0.508333  0.349135  0.500000  1
  Si  Si28  1  0.008069  0.154163  0.500000  1
  Si  Si29  1  0.991931  0.845837  0.500000  1
  Ir  Ir30  1  0.741615  0.521881  0.000000  1
  Ir  Ir31  1  0.258385  0.478119  0.000000  1
  Ir  Ir32  1  0.246903  0.977510  0.000000  1
  Ir  Ir33  1  0.753097  0.022490  0.000000  1
  Ir  Ir34  1  0.478119  0.741615  0.000000  1
  Ir  Ir35  1  0.521881  0.258385  0.000000  1
  Ir  Ir36  1  0.022490  0.246903  0.000000  1
  Ir  Ir37  1  0.977510  0.753097  0.000000  1
