# generated using pymatgen
data_Y5FeRuO12
_symmetry_space_group_name_H-M   'P 1'
_cell_length_a   6.83661969
_cell_length_b   6.83661804
_cell_length_c   7.30591352
_cell_angle_alpha   74.39980592
_cell_angle_beta   74.39980991
_cell_angle_gamma   51.16647462
_symmetry_Int_Tables_number   1
_chemical_formula_structural   Y5FeRuO12
_chemical_formula_sum   'Y5 Fe1 Ru1 O12'
_cell_volume   253.89995231
_cell_formula_units_Z   1
loop_
 _symmetry_equiv_pos_site_id
 _symmetry_equiv_pos_as_xyz
  1  'x, y, z'
loop_
 _atom_site_type_symbol
 _atom_site_label
 _atom_site_symmetry_multiplicity
 _atom_site_fract_x
 _atom_site_fract_y
 _atom_site_fract_z
 _atom_site_occupancy
  Y  Y0  1  0.691941  0.691237  0.669512  1
  Y  Y1  1  0.694906  0.699012  0.140374  1
  Y  Y2  1  0.998526  0.001474  0.000000  1
  Y  Y3  1  0.300988  0.305094  0.859626  1
  Y  Y4  1  0.308763  0.308059  0.330488  1
  Fe  Fe5  1  0.248864  0.751136  0.500000  1
  Ru  Ru6  1  0.759442  0.240558  0.500000  1
  O  O7  1  0.400448  0.903769  0.925947  1
  O  O8  1  0.571793  0.096929  0.581793  1
  O  O9  1  0.903071  0.428207  0.418207  1
  O  O10  1  0.096231  0.599552  0.074053  1
  O  O11  1  0.993060  0.008107  0.316235  1
  O  O12  1  0.509354  0.489991  0.686497  1
  O  O13  1  0.902384  0.405156  0.923930  1
  O  O14  1  0.102041  0.578557  0.580261  1
  O  O15  1  0.421443  0.897959  0.419739  1
  O  O16  1  0.594844  0.097616  0.076070  1
  O  O17  1  0.510009  0.490646  0.313503  1
  O  O18  1  0.991893  0.006940  0.683765  1
