# generated using pymatgen
data_Zr2Ta(CrP)3
_symmetry_space_group_name_H-M   'P 1'
_cell_length_a   6.61708465
_cell_length_b   6.61708497
_cell_length_c   3.38213600
_cell_angle_alpha   90.00000000
_cell_angle_beta   90.00000000
_cell_angle_gamma   119.95150719
_symmetry_Int_Tables_number   1
_chemical_formula_structural   Zr2Ta(CrP)3
_chemical_formula_sum   'Zr2 Ta1 Cr3 P3'
_cell_volume   128.31195128
_cell_formula_units_Z   1
loop_
 _symmetry_equiv_pos_site_id
 _symmetry_equiv_pos_as_xyz
  1  'x, y, z'
loop_
 _atom_site_type_symbol
 _atom_site_label
 _atom_site_symmetry_multiplicity
 _atom_site_fract_x
 _atom_site_fract_y
 _atom_site_fract_z
 _atom_site_occupancy
  Zr  Zr0  1  0.593321  0.998494  0.500000  1
  Zr  Zr1  1  0.998494  0.593321  0.500000  1
  Ta  Ta2  1  0.403183  0.403183  0.500000  1
  Cr  Cr3  1  0.007284  0.250371  0.000000  1
  Cr  Cr4  1  0.250371  0.007284  0.000000  1
  Cr  Cr5  1  0.749747  0.749747  0.000000  1
  P  P6  1  0.660062  0.334891  0.000000  1
  P  P7  1  0.334891  0.660062  0.000000  1
  P  P8  1  0.002648  0.002648  0.500000  1
