# generated using pymatgen
data_Tb4Nd3Y(CdIr)2
_symmetry_space_group_name_H-M   'P 1'
_cell_length_a   9.77401993
_cell_length_b   9.77402000
_cell_length_c   9.78381600
_cell_angle_alpha   59.96684034
_cell_angle_beta   59.96684010
_cell_angle_gamma   60.06632414
_symmetry_Int_Tables_number   1
_chemical_formula_structural   Tb4Nd3Y(CdIr)2
_chemical_formula_sum   'Tb8 Nd6 Y2 Cd4 Ir4'
_cell_volume   660.90473588
_cell_formula_units_Z   2
loop_
 _symmetry_equiv_pos_site_id
 _symmetry_equiv_pos_as_xyz
  1  'x, y, z'
loop_
 _atom_site_type_symbol
 _atom_site_label
 _atom_site_symmetry_multiplicity
 _atom_site_fract_x
 _atom_site_fract_y
 _atom_site_fract_z
 _atom_site_occupancy
  Tb  Tb0  1  0.347718  0.347718  0.348156  1
  Tb  Tb1  1  0.347718  0.347718  0.956409  1
  Tb  Tb2  1  0.348156  0.956409  0.347718  1
  Tb  Tb3  1  0.956409  0.348156  0.347718  1
  Tb  Tb4  1  0.811771  0.188229  0.188229  1
  Tb  Tb5  1  0.188229  0.811771  0.811771  1
  Tb  Tb6  1  0.188229  0.811771  0.188229  1
  Tb  Tb7  1  0.811771  0.188229  0.811771  1
  Nd  Nd8  1  0.940448  0.559552  0.559552  1
  Nd  Nd9  1  0.559552  0.940448  0.940448  1
  Nd  Nd10  1  0.559552  0.940448  0.559552  1
  Nd  Nd11  1  0.940448  0.559552  0.940448  1
  Nd  Nd12  1  0.559280  0.559280  0.940720  1
  Nd  Nd13  1  0.940720  0.940720  0.559280  1
  Y  Y14  1  0.188592  0.188592  0.811408  1
  Y  Y15  1  0.811408  0.811408  0.188592  1
  Cd  Cd16  1  0.579747  0.579747  0.579489  1
  Cd  Cd17  1  0.579747  0.579747  0.261017  1
  Cd  Cd18  1  0.579489  0.261017  0.579747  1
  Cd  Cd19  1  0.261017  0.579489  0.579747  1
  Ir  Ir20  1  0.141125  0.141125  0.142044  1
  Ir  Ir21  1  0.141125  0.141125  0.575706  1
  Ir  Ir22  1  0.142044  0.575706  0.141125  1
  Ir  Ir23  1  0.575706  0.142044  0.141125  1
