# generated using pymatgen
data_La2YSi5AsPd20
_symmetry_space_group_name_H-M   'P 1'
_cell_length_a   8.81341055
_cell_length_b   8.81341052
_cell_length_c   8.78208500
_cell_angle_alpha   60.11750213
_cell_angle_beta   60.11750224
_cell_angle_gamma   59.76499135
_symmetry_Int_Tables_number   1
_chemical_formula_structural   La2YSi5AsPd20
_chemical_formula_sum   'La2 Y1 Si5 As1 Pd20'
_cell_volume   482.34712187
_cell_formula_units_Z   1
loop_
 _symmetry_equiv_pos_site_id
 _symmetry_equiv_pos_as_xyz
  1  'x, y, z'
loop_
 _atom_site_type_symbol
 _atom_site_label
 _atom_site_symmetry_multiplicity
 _atom_site_fract_x
 _atom_site_fract_y
 _atom_site_fract_z
 _atom_site_occupancy
  La  La0  1  0.749845  0.749845  0.750155  1
  La  La1  1  0.249845  0.249845  0.250155  1
  Y  Y2  1  0.001056  0.001056  0.998944  1
  Si  Si3  1  0.266316  0.266316  0.733684  1
  Si  Si4  1  0.734356  0.265435  0.734565  1
  Si  Si5  1  0.265435  0.734356  0.265644  1
  Si  Si6  1  0.265435  0.734356  0.734565  1
  Si  Si7  1  0.734356  0.265435  0.265644  1
  As  As8  1  0.735785  0.735785  0.264215  1
  Pd  Pd9  1  0.611742  0.611742  0.620662  1
  Pd  Pd10  1  0.385079  0.385079  0.386304  1
  Pd  Pd11  1  0.156461  0.613696  0.614921  1
  Pd  Pd12  1  0.613696  0.156461  0.614921  1
  Pd  Pd13  1  0.844145  0.379338  0.388258  1
  Pd  Pd14  1  0.379338  0.844145  0.388258  1
  Pd  Pd15  1  0.611742  0.611742  0.155855  1
  Pd  Pd16  1  0.385079  0.385079  0.843539  1
  Pd  Pd17  1  0.000841  0.000841  0.653431  1
  Pd  Pd18  1  0.000841  0.000841  0.344887  1
  Pd  Pd19  1  0.346569  0.655113  0.999159  1
  Pd  Pd20  1  0.655113  0.346569  0.999159  1
  Pd  Pd21  1  0.006300  0.652341  0.993700  1
  Pd  Pd22  1  0.652341  0.006300  0.347659  1
  Pd  Pd23  1  0.999902  0.344920  0.000098  1
  Pd  Pd24  1  0.344920  0.999902  0.655080  1
  Pd  Pd25  1  0.652341  0.006300  0.993700  1
  Pd  Pd26  1  0.344920  0.999902  0.000098  1
  Pd  Pd27  1  0.006300  0.652341  0.347659  1
  Pd  Pd28  1  0.999902  0.344920  0.655080  1
