# generated using pymatgen
data_Pr5NdHo10(CdIr)4
_symmetry_space_group_name_H-M   'P 1'
_cell_length_a   9.74865399
_cell_length_b   9.74926166
_cell_length_c   9.74926201
_cell_angle_alpha   59.99771780
_cell_angle_beta   60.00206277
_cell_angle_gamma   60.00205882
_symmetry_Int_Tables_number   1
_chemical_formula_structural   Pr5NdHo10(CdIr)4
_chemical_formula_sum   'Pr5 Nd1 Ho10 Cd4 Ir4'
_cell_volume   655.20795608
_cell_formula_units_Z   1
loop_
 _symmetry_equiv_pos_site_id
 _symmetry_equiv_pos_as_xyz
  1  'x, y, z'
loop_
 _atom_site_type_symbol
 _atom_site_label
 _atom_site_symmetry_multiplicity
 _atom_site_fract_x
 _atom_site_fract_y
 _atom_site_fract_z
 _atom_site_occupancy
  Pr  Pr0  1  0.558610  0.941390  0.941390  1
  Pr  Pr1  1  0.559000  0.941136  0.558490  1
  Pr  Pr2  1  0.941374  0.558490  0.941136  1
  Pr  Pr3  1  0.559000  0.558490  0.941136  1
  Pr  Pr4  1  0.941374  0.941136  0.558490  1
  Nd  Nd5  1  0.941809  0.558191  0.558191  1
  Ho  Ho6  1  0.346655  0.347091  0.347091  1
  Ho  Ho7  1  0.346759  0.347100  0.959381  1
  Ho  Ho8  1  0.346759  0.959381  0.347100  1
  Ho  Ho9  1  0.959162  0.347091  0.347091  1
  Ho  Ho10  1  0.812967  0.187033  0.187033  1
  Ho  Ho11  1  0.186997  0.813003  0.813003  1
  Ho  Ho12  1  0.186968  0.812787  0.187313  1
  Ho  Ho13  1  0.812931  0.187313  0.812787  1
  Ho  Ho14  1  0.186968  0.187313  0.812787  1
  Ho  Ho15  1  0.812931  0.812787  0.187313  1
  Cd  Cd16  1  0.580052  0.579152  0.579152  1
  Cd  Cd17  1  0.579237  0.579496  0.262027  1
  Cd  Cd18  1  0.579237  0.262027  0.579496  1
  Cd  Cd19  1  0.261643  0.579152  0.579152  1
  Ir  Ir20  1  0.141346  0.140984  0.140984  1
  Ir  Ir21  1  0.140765  0.141606  0.576865  1
  Ir  Ir22  1  0.140765  0.576865  0.141606  1
  Ir  Ir23  1  0.576686  0.140984  0.140984  1
