# generated using pymatgen
data_ThGeOs2C
_symmetry_space_group_name_H-M   'P 1'
_cell_length_a   5.98985400
_cell_length_b   5.98985387
_cell_length_c   7.32911200
_cell_angle_alpha   90.00000000
_cell_angle_beta   90.00000000
_cell_angle_gamma   140.78239811
_symmetry_Int_Tables_number   1
_chemical_formula_structural   ThGeOs2C
_chemical_formula_sum   'Th2 Ge2 Os4 C2'
_cell_volume   166.25877427
_cell_formula_units_Z   2
loop_
 _symmetry_equiv_pos_site_id
 _symmetry_equiv_pos_as_xyz
  1  'x, y, z'
loop_
 _atom_site_type_symbol
 _atom_site_label
 _atom_site_symmetry_multiplicity
 _atom_site_fract_x
 _atom_site_fract_y
 _atom_site_fract_z
 _atom_site_occupancy
  Th  Th0  1  0.553831  0.446169  0.250000  1
  Th  Th1  1  0.446169  0.553831  0.750000  1
  Ge  Ge2  1  0.271423  0.728577  0.250000  1
  Ge  Ge3  1  0.728577  0.271423  0.750000  1
  Os  Os4  1  0.837151  0.162849  0.056201  1
  Os  Os5  1  0.162849  0.837151  0.943799  1
  Os  Os6  1  0.162849  0.837151  0.556201  1
  Os  Os7  1  0.837151  0.162849  0.443799  1
  C  C8  1  0.000000  0.000000  0.000000  1
  C  C9  1  0.000000  0.000000  0.500000  1
