# generated using pymatgen
data_Hf4Ti2CrMoP4
_symmetry_space_group_name_H-M   'P 1'
_cell_length_a   3.49505600
_cell_length_b   6.68146763
_cell_length_c   7.99987602
_cell_angle_alpha   89.65320296
_cell_angle_beta   90.00000000
_cell_angle_gamma   90.00000000
_symmetry_Int_Tables_number   1
_chemical_formula_structural   Hf4Ti2CrMoP4
_chemical_formula_sum   'Hf4 Ti2 Cr1 Mo1 P4'
_cell_volume   186.81051111
_cell_formula_units_Z   1
loop_
 _symmetry_equiv_pos_site_id
 _symmetry_equiv_pos_as_xyz
  1  'x, y, z'
loop_
 _atom_site_type_symbol
 _atom_site_label
 _atom_site_symmetry_multiplicity
 _atom_site_fract_x
 _atom_site_fract_y
 _atom_site_fract_z
 _atom_site_occupancy
  Hf  Hf0  1  0.250000  0.533210  0.167959  1
  Hf  Hf1  1  0.750000  0.459245  0.836426  1
  Hf  Hf2  1  0.750000  0.963820  0.669432  1
  Hf  Hf3  1  0.250000  0.035330  0.327219  1
  Ti  Ti4  1  0.750000  0.363278  0.442701  1
  Ti  Ti5  1  0.750000  0.872145  0.056395  1
  Cr  Cr6  1  0.250000  0.134816  0.939184  1
  Mo  Mo7  1  0.250000  0.636231  0.561995  1
  P  P8  1  0.250000  0.764373  0.861992  1
  P  P9  1  0.750000  0.239226  0.132411  1
  P  P10  1  0.750000  0.739050  0.356018  1
  P  P11  1  0.250000  0.259275  0.648268  1
