# generated using pymatgen
data_Tb3YSc2(Si3Ru)8
_symmetry_space_group_name_H-M   'P 1'
_cell_length_a   10.07082002
_cell_length_b   10.07082037
_cell_length_c   8.11569111
_cell_angle_alpha   89.93086455
_cell_angle_beta   90.06913478
_cell_angle_gamma   132.53155005
_symmetry_Int_Tables_number   1
_chemical_formula_structural   Tb3YSc2(Si3Ru)8
_chemical_formula_sum   'Tb3 Y1 Sc2 Si24 Ru8'
_cell_volume   606.54977047
_cell_formula_units_Z   1
loop_
 _symmetry_equiv_pos_site_id
 _symmetry_equiv_pos_as_xyz
  1  'x, y, z'
loop_
 _atom_site_type_symbol
 _atom_site_label
 _atom_site_symmetry_multiplicity
 _atom_site_fract_x
 _atom_site_fract_y
 _atom_site_fract_z
 _atom_site_occupancy
  Tb  Tb0  1  0.997691  0.497691  0.250000  1
  Tb  Tb1  1  0.497609  0.997609  0.250000  1
  Tb  Tb2  1  0.002463  0.502463  0.750000  1
  Y  Y3  1  0.502111  0.002111  0.750000  1
  Sc  Sc4  1  0.499894  0.500002  0.500062  1
  Sc  Sc5  1  0.000002  0.999894  0.999938  1
  Si  Si6  1  0.794994  0.205726  0.499978  1
  Si  Si7  1  0.294144  0.705014  0.999737  1
  Si  Si8  1  0.205014  0.794144  0.500263  1
  Si  Si9  1  0.705726  0.294994  0.000022  1
  Si  Si10  1  0.331228  0.331226  0.832371  1
  Si  Si11  1  0.668936  0.668625  0.167737  1
  Si  Si12  1  0.168625  0.168936  0.332263  1
  Si  Si13  1  0.831226  0.831228  0.667629  1
  Si  Si14  1  0.119153  0.886841  0.729445  1
  Si  Si15  1  0.111413  0.878834  0.270710  1
  Si  Si16  1  0.612652  0.380459  0.229779  1
  Si  Si17  1  0.621326  0.389297  0.770742  1
  Si  Si18  1  0.880459  0.112652  0.270221  1
  Si  Si19  1  0.889297  0.121326  0.729258  1
  Si  Si20  1  0.386841  0.619153  0.770555  1
  Si  Si21  1  0.378834  0.611413  0.229290  1
  Si  Si22  1  0.344161  0.113236  0.503593  1
  Si  Si23  1  0.885613  0.653794  0.495894  1
  Si  Si24  1  0.386648  0.155952  0.004185  1
  Si  Si25  1  0.846170  0.614446  0.995561  1
  Si  Si26  1  0.655952  0.886648  0.495815  1
  Si  Si27  1  0.114446  0.346170  0.504439  1
  Si  Si28  1  0.613236  0.844161  0.996407  1
  Si  Si29  1  0.153794  0.385613  0.004106  1
  Ru  Ru30  1  0.666124  0.330573  0.500672  1
  Ru  Ru31  1  0.169389  0.833943  0.000230  1
  Ru  Ru32  1  0.333943  0.669389  0.499770  1
  Ru  Ru33  1  0.830573  0.166124  0.999328  1
  Ru  Ru34  1  0.126377  0.126139  0.627473  1
  Ru  Ru35  1  0.874137  0.873657  0.372412  1
  Ru  Ru36  1  0.373657  0.374137  0.127588  1
  Ru  Ru37  1  0.626139  0.626377  0.872527  1
