# generated using pymatgen
data_Dy4Zn3(Ga5Pd2)3
_symmetry_space_group_name_H-M   'P 1'
_cell_length_a   7.61018100
_cell_length_b   7.63595527
_cell_length_c   9.52660400
_cell_angle_alpha   90.00000000
_cell_angle_beta   90.00000000
_cell_angle_gamma   119.22415231
_symmetry_Int_Tables_number   1
_chemical_formula_structural   Dy4Zn3(Ga5Pd2)3
_chemical_formula_sum   'Dy4 Zn3 Ga15 Pd6'
_cell_volume   483.13620803
_cell_formula_units_Z   1
loop_
 _symmetry_equiv_pos_site_id
 _symmetry_equiv_pos_as_xyz
  1  'x, y, z'
loop_
 _atom_site_type_symbol
 _atom_site_label
 _atom_site_symmetry_multiplicity
 _atom_site_fract_x
 _atom_site_fract_y
 _atom_site_fract_z
 _atom_site_occupancy
  Dy  Dy0  1  0.996644  0.670632  0.250000  1
  Dy  Dy1  1  0.003045  0.330022  0.750000  1
  Dy  Dy2  1  0.672823  0.999452  0.250000  1
  Dy  Dy3  1  0.329559  0.002753  0.750000  1
  Zn  Zn4  1  0.138809  0.137371  0.250000  1
  Zn  Zn5  1  0.866255  0.865688  0.750000  1
  Zn  Zn6  1  0.341656  0.544562  0.250000  1
  Ga  Ga7  1  0.006306  0.336286  0.086200  1
  Ga  Ga8  1  0.996801  0.666848  0.917448  1
  Ga  Ga9  1  0.996801  0.666848  0.582552  1
  Ga  Ga10  1  0.333318  0.000051  0.415665  1
  Ga  Ga11  1  0.006306  0.336286  0.413800  1
  Ga  Ga12  1  0.667719  0.998521  0.583188  1
  Ga  Ga13  1  0.667719  0.998521  0.916812  1
  Ga  Ga14  1  0.333318  0.000051  0.084335  1
  Ga  Ga15  1  0.330594  0.330320  0.562727  1
  Ga  Ga16  1  0.664275  0.667277  0.431318  1
  Ga  Ga17  1  0.664275  0.667277  0.068682  1
  Ga  Ga18  1  0.330594  0.330320  0.937273  1
  Ga  Ga19  1  0.658118  0.455164  0.750000  1
  Ga  Ga20  1  0.539488  0.341263  0.250000  1
  Ga  Ga21  1  0.457176  0.657659  0.750000  1
  Pd  Pd22  1  0.673712  0.326803  0.000257  1
  Pd  Pd23  1  0.326543  0.672814  0.996463  1
  Pd  Pd24  1  0.326543  0.672814  0.503537  1
  Pd  Pd25  1  0.673712  0.326803  0.499743  1
  Pd  Pd26  1  0.998948  0.998797  0.000961  1
  Pd  Pd27  1  0.998948  0.998797  0.499039  1
