# generated using pymatgen
data_Pr7Y13Pt16
_symmetry_space_group_name_H-M   'P 1'
_cell_length_a   7.61608442
_cell_length_b   14.94392608
_cell_length_c   7.68445016
_cell_angle_alpha   90.02287995
_cell_angle_beta   89.99375556
_cell_angle_gamma   89.90860114
_symmetry_Int_Tables_number   1
_chemical_formula_structural   Pr7Y13Pt16
_chemical_formula_sum   'Pr7 Y13 Pt16'
_cell_volume   874.59838000
_cell_formula_units_Z   1
loop_
 _symmetry_equiv_pos_site_id
 _symmetry_equiv_pos_as_xyz
  1  'x, y, z'
loop_
 _atom_site_type_symbol
 _atom_site_label
 _atom_site_symmetry_multiplicity
 _atom_site_fract_x
 _atom_site_fract_y
 _atom_site_fract_z
 _atom_site_occupancy
  Pr  Pr0  1  0.001414  0.403944  0.177020  1
  Pr  Pr1  1  0.497829  0.595218  0.676666  1
  Pr  Pr2  1  0.501838  0.094130  0.321558  1
  Pr  Pr3  1  0.998186  0.907198  0.826083  1
  Pr  Pr4  1  0.997748  0.594184  0.822545  1
  Pr  Pr5  1  0.502137  0.404061  0.323122  1
  Pr  Pr6  1  0.498103  0.904602  0.676012  1
  Y  Y7  1  0.320582  0.248194  0.010191  1
  Y  Y8  1  0.177758  0.751003  0.510642  1
  Y  Y9  1  0.821347  0.248794  0.489613  1
  Y  Y10  1  0.678933  0.750380  0.989115  1
  Y  Y11  1  0.003188  0.096644  0.179121  1
  Y  Y12  1  0.342507  0.622406  0.169046  1
  Y  Y13  1  0.157291  0.376158  0.669340  1
  Y  Y14  1  0.844083  0.879269  0.329824  1
  Y  Y15  1  0.659859  0.121427  0.832683  1
  Y  Y16  1  0.657573  0.376496  0.831613  1
  Y  Y17  1  0.842661  0.622808  0.331740  1
  Y  Y18  1  0.157892  0.122162  0.668999  1
  Y  Y19  1  0.341737  0.877920  0.167540  1
  Pt  Pt20  1  0.177852  0.542899  0.466565  1
  Pt  Pt21  1  0.322932  0.456010  0.966211  1
  Pt  Pt22  1  0.676649  0.958960  0.036372  1
  Pt  Pt23  1  0.826144  0.046201  0.527758  1
  Pt  Pt24  1  0.823546  0.456339  0.534203  1
  Pt  Pt25  1  0.677032  0.542939  0.034119  1
  Pt  Pt26  1  0.315030  0.044595  0.970986  1
  Pt  Pt27  1  0.177719  0.959036  0.462191  1
  Pt  Pt28  1  0.452622  0.248925  0.621975  1
  Pt  Pt29  1  0.046733  0.750335  0.123004  1
  Pt  Pt30  1  0.954235  0.248374  0.880033  1
  Pt  Pt31  1  0.546780  0.750852  0.376480  1
  Pt  Pt32  1  0.186775  0.247253  0.361318  1
  Pt  Pt33  1  0.310652  0.750779  0.863130  1
  Pt  Pt34  1  0.691192  0.248164  0.136753  1
  Pt  Pt35  1  0.811441  0.751342  0.636429  1
