# generated using pymatgen
data_Dy7(ScPb2)5
_symmetry_space_group_name_H-M   'P 1'
_cell_length_a   6.36111059
_cell_length_b   9.24056153
_cell_length_c   11.39185500
_cell_angle_alpha   114.09339276
_cell_angle_beta   106.21221003
_cell_angle_gamma   90.00000052
_symmetry_Int_Tables_number   1
_chemical_formula_structural   Dy7(ScPb2)5
_chemical_formula_sum   'Dy7 Sc5 Pb10'
_cell_volume   581.98903498
_cell_formula_units_Z   1
loop_
 _symmetry_equiv_pos_site_id
 _symmetry_equiv_pos_as_xyz
  1  'x, y, z'
loop_
 _atom_site_type_symbol
 _atom_site_label
 _atom_site_symmetry_multiplicity
 _atom_site_fract_x
 _atom_site_fract_y
 _atom_site_fract_z
 _atom_site_occupancy
  Dy  Dy0  1  0.560228  0.324145  0.120457  1
  Dy  Dy1  1  0.939516  0.205461  0.879034  1
  Dy  Dy2  1  0.060762  0.792620  0.121522  1
  Dy  Dy3  1  0.143564  0.252157  0.287125  1
  Dy  Dy4  1  0.856886  0.746236  0.713771  1
  Dy  Dy5  1  0.642485  0.031100  0.284970  1
  Dy  Dy6  1  0.358669  0.971404  0.717340  1
  Sc  Sc7  1  0.554930  0.307422  0.609792  1
  Sc  Sc8  1  0.445037  0.694580  0.389610  1
  Sc  Sc9  1  0.944573  0.694580  0.389610  1
  Sc  Sc10  1  0.054862  0.307422  0.609792  1
  Sc  Sc11  1  0.439215  0.674014  0.878429  1
  Pb  Pb12  1  0.292714  0.594193  0.585429  1
  Pb  Pb13  1  0.710430  0.410628  0.420859  1
  Pb  Pb14  1  0.788999  0.989668  0.577997  1
  Pb  Pb15  1  0.211337  0.010707  0.422674  1
  Pb  Pb16  1  0.250307  0.994373  0.997336  1
  Pb  Pb17  1  0.747029  0.994373  0.997336  1
  Pb  Pb18  1  0.078063  0.478131  0.156129  1
  Pb  Pb19  1  0.922831  0.520551  0.845661  1
  Pb  Pb20  1  0.573799  0.672303  0.147598  1
  Pb  Pb21  1  0.423765  0.333929  0.847530  1
