# generated using pymatgen
data_Ca2TbYNi14
_symmetry_space_group_name_H-M   'P 1'
_cell_length_a   4.94163945
_cell_length_b   4.94163832
_cell_length_c   12.41425624
_cell_angle_alpha   78.51971294
_cell_angle_beta   78.51971397
_cell_angle_gamma   59.99999671
_symmetry_Int_Tables_number   1
_chemical_formula_structural   Ca2TbYNi14
_chemical_formula_sum   'Ca2 Tb1 Y1 Ni14'
_cell_volume   255.51131069
_cell_formula_units_Z   1
loop_
 _symmetry_equiv_pos_site_id
 _symmetry_equiv_pos_as_xyz
  1  'x, y, z'
loop_
 _atom_site_type_symbol
 _atom_site_label
 _atom_site_symmetry_multiplicity
 _atom_site_fract_x
 _atom_site_fract_y
 _atom_site_fract_z
 _atom_site_occupancy
  Ca  Ca0  1  0.851172  0.851172  0.446485  1
  Ca  Ca1  1  0.148897  0.148897  0.553308  1
  Tb  Tb2  1  0.051887  0.051887  0.844340  1
  Y  Y3  1  0.948080  0.948080  0.155760  1
  Ni  Ni4  1  0.500003  0.500003  0.499991  1
  Ni  Ni5  1  0.721529  0.721529  0.835410  1
  Ni  Ni6  1  0.278462  0.278462  0.164616  1
  Ni  Ni7  1  0.612256  0.612256  0.163230  1
  Ni  Ni8  1  0.387744  0.387744  0.836769  1
  Ni  Ni9  1  0.999957  0.500032  0.999979  1
  Ni  Ni10  1  0.500032  0.999957  0.999979  1
  Ni  Ni11  1  0.500032  0.500032  0.999979  1
  Ni  Ni12  1  0.391575  0.391575  0.326502  1
  Ni  Ni13  1  0.890348  0.391575  0.326502  1
  Ni  Ni14  1  0.391575  0.890348  0.326502  1
  Ni  Ni15  1  0.608397  0.608397  0.673550  1
  Ni  Ni16  1  0.109656  0.608397  0.673550  1
  Ni  Ni17  1  0.608397  0.109656  0.673550  1
