# generated using pymatgen
data_Ta10Ga6HC
_symmetry_space_group_name_H-M   'P 1'
_cell_length_a   7.73958300
_cell_length_b   7.73958369
_cell_length_c   5.31138900
_cell_angle_alpha   90.00000000
_cell_angle_beta   90.00000000
_cell_angle_gamma   120.00000133
_symmetry_Int_Tables_number   1
_chemical_formula_structural   Ta10Ga6HC
_chemical_formula_sum   'Ta10 Ga6 H1 C1'
_cell_volume   275.53317611
_cell_formula_units_Z   1
loop_
 _symmetry_equiv_pos_site_id
 _symmetry_equiv_pos_as_xyz
  1  'x, y, z'
loop_
 _atom_site_type_symbol
 _atom_site_label
 _atom_site_symmetry_multiplicity
 _atom_site_fract_x
 _atom_site_fract_y
 _atom_site_fract_z
 _atom_site_occupancy
  Ta  Ta0  1  0.235617  0.000000  0.252886  1
  Ta  Ta1  1  0.764383  0.000000  0.747114  1
  Ta  Ta2  1  0.000000  0.235617  0.252886  1
  Ta  Ta3  1  0.000000  0.764383  0.747114  1
  Ta  Ta4  1  0.764383  0.764383  0.252886  1
  Ta  Ta5  1  0.235617  0.235617  0.747114  1
  Ta  Ta6  1  0.333333  0.666667  0.000000  1
  Ta  Ta7  1  0.666667  0.333333  0.000000  1
  Ta  Ta8  1  0.666667  0.333333  0.500000  1
  Ta  Ta9  1  0.333333  0.666667  0.500000  1
  Ga  Ga10  1  0.597464  0.000000  0.246787  1
  Ga  Ga11  1  0.402536  0.000000  0.753213  1
  Ga  Ga12  1  0.000000  0.597464  0.246787  1
  Ga  Ga13  1  0.000000  0.402536  0.753213  1
  Ga  Ga14  1  0.402536  0.402536  0.246787  1
  Ga  Ga15  1  0.597464  0.597464  0.753213  1
  H  H16  1  0.000000  0.000000  0.000000  1
  C  C17  1  0.000000  0.000000  0.500000  1
