# generated using pymatgen
data_Ba8HfNpSe12
_symmetry_space_group_name_H-M   'P 1'
_cell_length_a   8.99620652
_cell_length_b   8.99620572
_cell_length_c   8.99620825
_cell_angle_alpha   89.44506256
_cell_angle_beta   89.44506501
_cell_angle_gamma   89.44506584
_symmetry_Int_Tables_number   1
_chemical_formula_structural   Ba8HfNpSe12
_chemical_formula_sum   'Ba8 Hf1 Np1 Se12'
_cell_volume   727.97685547
_cell_formula_units_Z   1
loop_
 _symmetry_equiv_pos_site_id
 _symmetry_equiv_pos_as_xyz
  1  'x, y, z'
loop_
 _atom_site_type_symbol
 _atom_site_label
 _atom_site_symmetry_multiplicity
 _atom_site_fract_x
 _atom_site_fract_y
 _atom_site_fract_z
 _atom_site_occupancy
  Ba  Ba0  1  0.876593  0.626339  0.247431  1
  Ba  Ba1  1  0.247431  0.876593  0.626339  1
  Ba  Ba2  1  0.626339  0.247431  0.876593  1
  Ba  Ba3  1  0.752569  0.123407  0.373661  1
  Ba  Ba4  1  0.373661  0.752569  0.123407  1
  Ba  Ba5  1  0.123407  0.373661  0.752569  1
  Ba  Ba6  1  0.248082  0.248082  0.248082  1
  Ba  Ba7  1  0.751918  0.751918  0.751918  1
  Hf  Hf8  1  0.000000  0.000000  0.000000  1
  Np  Np9  1  0.500000  0.500000  0.500000  1
  Se  Se10  1  0.201311  0.562225  0.422556  1
  Se  Se11  1  0.422556  0.201311  0.562225  1
  Se  Se12  1  0.562225  0.422556  0.201311  1
  Se  Se13  1  0.928441  0.060054  0.712428  1
  Se  Se14  1  0.712428  0.928441  0.060054  1
  Se  Se15  1  0.060054  0.712428  0.928441  1
  Se  Se16  1  0.798689  0.437775  0.577444  1
  Se  Se17  1  0.577444  0.798689  0.437775  1
  Se  Se18  1  0.437775  0.577444  0.798689  1
  Se  Se19  1  0.071559  0.939946  0.287572  1
  Se  Se20  1  0.287572  0.071559  0.939946  1
  Se  Se21  1  0.939946  0.287572  0.071559  1
