# generated using pymatgen
data_Ho7Er5Th4(AgRu)4
_symmetry_space_group_name_H-M   'P 1'
_cell_length_a   9.56825447
_cell_length_b   9.56947144
_cell_length_c   9.52227812
_cell_angle_alpha   60.14891607
_cell_angle_beta   60.15328724
_cell_angle_gamma   60.28474635
_symmetry_Int_Tables_number   1
_chemical_formula_structural   Ho7Er5Th4(AgRu)4
_chemical_formula_sum   'Ho7 Er5 Th4 Ag4 Ru4'
_cell_volume   619.24826450
_cell_formula_units_Z   1
loop_
 _symmetry_equiv_pos_site_id
 _symmetry_equiv_pos_as_xyz
  1  'x, y, z'
loop_
 _atom_site_type_symbol
 _atom_site_label
 _atom_site_symmetry_multiplicity
 _atom_site_fract_x
 _atom_site_fract_y
 _atom_site_fract_z
 _atom_site_occupancy
  Ho  Ho0  1  0.811891  0.811915  0.188100  1
  Ho  Ho1  1  0.935670  0.564196  0.564335  1
  Ho  Ho2  1  0.564225  0.935588  0.935816  1
  Ho  Ho3  1  0.564184  0.935626  0.564375  1
  Ho  Ho4  1  0.935544  0.564189  0.935843  1
  Ho  Ho5  1  0.564217  0.564251  0.935826  1
  Ho  Ho6  1  0.935618  0.935654  0.564383  1
  Er  Er7  1  0.812092  0.187415  0.188127  1
  Er  Er8  1  0.187329  0.812174  0.812493  1
  Er  Er9  1  0.187333  0.812064  0.188069  1
  Er  Er10  1  0.812090  0.187507  0.812385  1
  Er  Er11  1  0.187515  0.187698  0.812398  1
  Th  Th12  1  0.350441  0.350193  0.350194  1
  Th  Th13  1  0.350451  0.350286  0.948932  1
  Th  Th14  1  0.350326  0.948356  0.350651  1
  Th  Th15  1  0.948370  0.350287  0.350665  1
  Ag  Ag16  1  0.582440  0.582476  0.582045  1
  Ag  Ag17  1  0.582593  0.582434  0.252899  1
  Ag  Ag18  1  0.582281  0.253646  0.582050  1
  Ag  Ag19  1  0.253544  0.582254  0.582183  1
  Ru  Ru20  1  0.143661  0.143659  0.141813  1
  Ru  Ru21  1  0.143567  0.143693  0.570888  1
  Ru  Ru22  1  0.144500  0.569998  0.142865  1
  Ru  Ru23  1  0.570120  0.144436  0.142660  1
