# generated using pymatgen
data_DyTm7Ti9Si16Mo3
_symmetry_space_group_name_H-M   'P 1'
_cell_length_a   6.96827601
_cell_length_b   6.96737957
_cell_length_c   12.80697520
_cell_angle_alpha   89.98776891
_cell_angle_beta   89.99226754
_cell_angle_gamma   89.98323254
_symmetry_Int_Tables_number   1
_chemical_formula_structural   DyTm7Ti9Si16Mo3
_chemical_formula_sum   'Dy1 Tm7 Ti9 Si16 Mo3'
_cell_volume   621.78659018
_cell_formula_units_Z   1
loop_
 _symmetry_equiv_pos_site_id
 _symmetry_equiv_pos_as_xyz
  1  'x, y, z'
loop_
 _atom_site_type_symbol
 _atom_site_label
 _atom_site_symmetry_multiplicity
 _atom_site_fract_x
 _atom_site_fract_y
 _atom_site_fract_z
 _atom_site_occupancy
  Dy  Dy0  1  0.340140  0.000987  0.467140  1
  Tm  Tm1  1  0.998235  0.659695  0.033435  1
  Tm  Tm2  1  0.999829  0.340835  0.533135  1
  Tm  Tm3  1  0.659716  0.998199  0.966539  1
  Tm  Tm4  1  0.158144  0.500950  0.781881  1
  Tm  Tm5  1  0.841511  0.500172  0.283143  1
  Tm  Tm6  1  0.501018  0.158228  0.218025  1
  Tm  Tm7  1  0.500256  0.841331  0.716944  1
  Ti  Ti8  1  0.347368  0.507921  0.374532  1
  Ti  Ti9  1  0.847403  0.992179  0.376217  1
  Ti  Ti10  1  0.007283  0.151646  0.124706  1
  Ti  Ti11  1  0.992146  0.847406  0.623951  1
  Ti  Ti12  1  0.508178  0.347541  0.625604  1
  Ti  Ti13  1  0.151614  0.007444  0.875262  1
  Ti  Ti14  1  0.327002  0.327041  0.999981  1
  Ti  Ti15  1  0.493045  0.652950  0.127139  1
  Ti  Ti16  1  0.653061  0.493085  0.872794  1
  Si  Si17  1  0.046349  0.706562  0.434863  1
  Si  Si18  1  0.952340  0.293255  0.933984  1
  Si  Si19  1  0.708254  0.047225  0.565400  1
  Si  Si20  1  0.207888  0.453468  0.184678  1
  Si  Si21  1  0.792490  0.547458  0.684553  1
  Si  Si22  1  0.453295  0.207959  0.815316  1
  Si  Si23  1  0.548071  0.791896  0.315067  1
  Si  Si24  1  0.293229  0.952318  0.065975  1
  Si  Si25  1  0.797816  0.869664  0.183608  1
  Si  Si26  1  0.298477  0.629772  0.566595  1
  Si  Si27  1  0.702343  0.368951  0.066170  1
  Si  Si28  1  0.631485  0.299348  0.433652  1
  Si  Si29  1  0.368883  0.702347  0.933777  1
  Si  Si30  1  0.129814  0.202404  0.315281  1
  Si  Si31  1  0.201484  0.130675  0.684454  1
  Si  Si32  1  0.869779  0.797785  0.816392  1
  Mo  Mo33  1  0.673222  0.672421  0.500073  1
  Mo  Mo34  1  0.826375  0.172798  0.749435  1
  Mo  Mo35  1  0.172455  0.826081  0.250296  1
