# generated using pymatgen
data_TbTm11Ru7
_symmetry_space_group_name_H-M   'P 1'
_cell_length_a   11.13673400
_cell_length_b   8.27332915
_cell_length_c   11.12992881
_cell_angle_alpha   56.63740629
_cell_angle_beta   90.00000000
_cell_angle_gamma   90.00000000
_symmetry_Int_Tables_number   1
_chemical_formula_structural   TbTm11Ru7
_chemical_formula_sum   'Tb2 Tm22 Ru14'
_cell_volume   856.49473971
_cell_formula_units_Z   2
loop_
 _symmetry_equiv_pos_site_id
 _symmetry_equiv_pos_as_xyz
  1  'x, y, z'
loop_
 _atom_site_type_symbol
 _atom_site_label
 _atom_site_symmetry_multiplicity
 _atom_site_fract_x
 _atom_site_fract_y
 _atom_site_fract_z
 _atom_site_occupancy
  Tb  Tb0  1  0.704260  0.239832  0.533031  1
  Tb  Tb1  1  0.204260  0.760168  0.966969  1
  Tm  Tm2  1  0.844579  0.507966  0.655582  1
  Tm  Tm3  1  0.344579  0.492034  0.844418  1
  Tm  Tm4  1  0.155683  0.492447  0.345534  1
  Tm  Tm5  1  0.655683  0.507553  0.154466  1
  Tm  Tm6  1  0.006544  0.852238  0.362228  1
  Tm  Tm7  1  0.506544  0.147762  0.137772  1
  Tm  Tm8  1  0.994159  0.148544  0.637468  1
  Tm  Tm9  1  0.494159  0.851456  0.862532  1
  Tm  Tm10  1  0.794102  0.241053  0.032076  1
  Tm  Tm11  1  0.294102  0.758947  0.467924  1
  Tm  Tm12  1  0.929326  0.777086  0.091750  1
  Tm  Tm13  1  0.429326  0.222914  0.408250  1
  Tm  Tm14  1  0.068609  0.223430  0.909446  1
  Tm  Tm15  1  0.568609  0.776570  0.590554  1
  Tm  Tm16  1  0.302461  0.242943  0.674294  1
  Tm  Tm17  1  0.802461  0.757057  0.825706  1
  Tm  Tm18  1  0.698361  0.758865  0.325642  1
  Tm  Tm19  1  0.198361  0.241135  0.174358  1
  Tm  Tm20  1  0.925405  0.279181  0.293768  1
  Tm  Tm21  1  0.425405  0.720819  0.206232  1
  Tm  Tm22  1  0.074624  0.720467  0.705301  1
  Tm  Tm23  1  0.574624  0.279533  0.794699  1
  Ru  Ru24  1  0.498150  0.501998  0.500097  1
  Ru  Ru25  1  0.998150  0.498002  0.999903  1
  Ru  Ru26  1  0.647606  0.923359  0.034283  1
  Ru  Ru27  1  0.147606  0.076641  0.465717  1
  Ru  Ru28  1  0.353117  0.077866  0.965939  1
  Ru  Ru29  1  0.853117  0.922134  0.534061  1
  Ru  Ru30  1  0.398679  0.483433  0.104485  1
  Ru  Ru31  1  0.898679  0.516567  0.395515  1
  Ru  Ru32  1  0.601994  0.516134  0.895844  1
  Ru  Ru33  1  0.101994  0.483866  0.604156  1
  Ru  Ru34  1  0.822701  0.099775  0.848740  1
  Ru  Ru35  1  0.322701  0.900225  0.651260  1
  Ru  Ru36  1  0.179641  0.900663  0.154086  1
  Ru  Ru37  1  0.679641  0.099337  0.345914  1
