# generated using pymatgen
data_Hf6Al16FeNi6
_symmetry_space_group_name_H-M   'P 1'
_cell_length_a   8.48665577
_cell_length_b   8.48665513
_cell_length_c   8.48665600
_cell_angle_alpha   60.00000440
_cell_angle_beta   60.00000690
_cell_angle_gamma   59.99999986
_symmetry_Int_Tables_number   1
_chemical_formula_structural   Hf6Al16FeNi6
_chemical_formula_sum   'Hf6 Al16 Fe1 Ni6'
_cell_volume   432.20996795
_cell_formula_units_Z   1
loop_
 _symmetry_equiv_pos_site_id
 _symmetry_equiv_pos_as_xyz
  1  'x, y, z'
loop_
 _atom_site_type_symbol
 _atom_site_label
 _atom_site_symmetry_multiplicity
 _atom_site_fract_x
 _atom_site_fract_y
 _atom_site_fract_z
 _atom_site_occupancy
  Hf  Hf0  1  0.689374  0.689374  0.310626  1
  Hf  Hf1  1  0.310626  0.689374  0.310626  1
  Hf  Hf2  1  0.689374  0.310626  0.310626  1
  Hf  Hf3  1  0.310626  0.310626  0.689374  1
  Hf  Hf4  1  0.689374  0.310626  0.689374  1
  Hf  Hf5  1  0.310626  0.689374  0.689374  1
  Al  Al6  1  0.882520  0.882520  0.352439  1
  Al  Al7  1  0.882520  0.352439  0.882520  1
  Al  Al8  1  0.352439  0.882520  0.882520  1
  Al  Al9  1  0.882520  0.882520  0.882520  1
  Al  Al10  1  0.117480  0.117480  0.647561  1
  Al  Al11  1  0.117480  0.647561  0.117480  1
  Al  Al12  1  0.647561  0.117480  0.117480  1
  Al  Al13  1  0.117480  0.117480  0.117480  1
  Al  Al14  1  0.665951  0.665951  0.002147  1
  Al  Al15  1  0.665951  0.002147  0.665951  1
  Al  Al16  1  0.002147  0.665951  0.665951  1
  Al  Al17  1  0.665951  0.665951  0.665951  1
  Al  Al18  1  0.334049  0.334049  0.997853  1
  Al  Al19  1  0.334049  0.997853  0.334049  1
  Al  Al20  1  0.997853  0.334049  0.334049  1
  Al  Al21  1  0.334049  0.334049  0.334049  1
  Fe  Fe22  1  0.000000  0.000000  0.000000  1
  Ni  Ni23  1  0.000000  0.000000  0.500000  1
  Ni  Ni24  1  0.500000  0.000000  0.500000  1
  Ni  Ni25  1  0.000000  0.500000  0.500000  1
  Ni  Ni26  1  0.500000  0.500000  0.000000  1
  Ni  Ni27  1  0.000000  0.500000  0.000000  1
  Ni  Ni28  1  0.500000  0.000000  0.000000  1
