# generated using pymatgen
data_Ba6DyFe5O18
_symmetry_space_group_name_H-M   'P 1'
_cell_length_a   5.80799300
_cell_length_b   5.80806330
_cell_length_c   14.33165701
_cell_angle_alpha   89.99592362
_cell_angle_beta   90.00109861
_cell_angle_gamma   120.00528478
_symmetry_Int_Tables_number   1
_chemical_formula_structural   Ba6DyFe5O18
_chemical_formula_sum   'Ba6 Dy1 Fe5 O18'
_cell_volume   418.65986815
_cell_formula_units_Z   1
loop_
 _symmetry_equiv_pos_site_id
 _symmetry_equiv_pos_as_xyz
  1  'x, y, z'
loop_
 _atom_site_type_symbol
 _atom_site_label
 _atom_site_symmetry_multiplicity
 _atom_site_fract_x
 _atom_site_fract_y
 _atom_site_fract_z
 _atom_site_occupancy
  Ba  Ba0  1  0.666676  0.333352  0.098481  1
  Ba  Ba1  1  0.000029  0.000008  0.256717  1
  Ba  Ba2  1  0.666670  0.333338  0.412955  1
  Ba  Ba3  1  0.333322  0.666642  0.587112  1
  Ba  Ba4  1  0.999971  0.999999  0.743260  1
  Ba  Ba5  1  0.333324  0.666654  0.901443  1
  Dy  Dy6  1  0.000002  0.000006  0.000014  1
  Fe  Fe7  1  0.333335  0.666645  0.162876  1
  Fe  Fe8  1  0.333350  0.666653  0.349555  1
  Fe  Fe9  1  0.000031  0.000055  0.499979  1
  Fe  Fe10  1  0.666642  0.333287  0.650462  1
  Fe  Fe11  1  0.666655  0.333338  0.837207  1
  O  O12  1  0.177937  0.355887  0.091178  1
  O  O13  1  0.177913  0.822141  0.091228  1
  O  O14  1  0.644162  0.822113  0.091194  1
  O  O15  1  0.039051  0.519505  0.250200  1
  O  O16  1  0.480531  0.519496  0.250177  1
  O  O17  1  0.480520  0.960969  0.250204  1
  O  O18  1  0.165971  0.331909  0.420413  1
  O  O19  1  0.165918  0.834097  0.420381  1
  O  O20  1  0.668133  0.834057  0.420408  1
  O  O21  1  0.331874  0.165934  0.579579  1
  O  O22  1  0.834074  0.165894  0.579605  1
  O  O23  1  0.834029  0.668086  0.579570  1
  O  O24  1  0.519487  0.039046  0.749798  1
  O  O25  1  0.519474  0.480497  0.749821  1
  O  O26  1  0.960937  0.480490  0.749800  1
  O  O27  1  0.355831  0.177896  0.908801  1
  O  O28  1  0.822090  0.177872  0.908770  1
  O  O29  1  0.822067  0.644134  0.908812  1
