# generated using pymatgen
data_CsRe(OF2)2
_symmetry_space_group_name_H-M   'P 1'
_cell_length_a   6.10174500
_cell_length_b   6.10174500
_cell_length_c   10.03289900
_cell_angle_alpha   90.00000000
_cell_angle_beta   90.00000000
_cell_angle_gamma   90.00000000
_symmetry_Int_Tables_number   1
_chemical_formula_structural   CsRe(OF2)2
_chemical_formula_sum   'Cs2 Re2 O4 F8'
_cell_volume   373.53779273
_cell_formula_units_Z   2
loop_
 _symmetry_equiv_pos_site_id
 _symmetry_equiv_pos_as_xyz
  1  'x, y, z'
loop_
 _atom_site_type_symbol
 _atom_site_label
 _atom_site_symmetry_multiplicity
 _atom_site_fract_x
 _atom_site_fract_y
 _atom_site_fract_z
 _atom_site_occupancy
  Cs  Cs0  1  0.000000  0.500000  0.378718  1
  Cs  Cs1  1  0.500000  0.000000  0.621282  1
  Re  Re2  1  0.500000  0.000000  0.186993  1
  Re  Re3  1  0.000000  0.500000  0.813008  1
  O  O4  1  0.655240  0.155243  0.079921  1
  O  O5  1  0.344759  0.844759  0.079921  1
  O  O6  1  0.155243  0.344759  0.920079  1
  O  O7  1  0.844759  0.655240  0.920079  1
  F  F8  1  0.281946  0.218056  0.216230  1
  F  F9  1  0.718054  0.781943  0.216230  1
  F  F10  1  0.647802  0.147802  0.345191  1
  F  F11  1  0.352198  0.852198  0.345191  1
  F  F12  1  0.147802  0.352198  0.654810  1
  F  F13  1  0.852198  0.647802  0.654810  1
  F  F14  1  0.781943  0.281946  0.783769  1
  F  F15  1  0.218056  0.718054  0.783769  1
