# generated using pymatgen
data_Tm4Pd3PtO14
_symmetry_space_group_name_H-M   'P 1'
_cell_length_a   7.20023935
_cell_length_b   7.18860765
_cell_length_c   7.20023900
_cell_angle_alpha   59.94645709
_cell_angle_beta   59.99999700
_cell_angle_gamma   59.94645809
_symmetry_Int_Tables_number   1
_chemical_formula_structural   Tm4Pd3PtO14
_chemical_formula_sum   'Tm4 Pd3 Pt1 O14'
_cell_volume   263.31261890
_cell_formula_units_Z   1
loop_
 _symmetry_equiv_pos_site_id
 _symmetry_equiv_pos_as_xyz
  1  'x, y, z'
loop_
 _atom_site_type_symbol
 _atom_site_label
 _atom_site_symmetry_multiplicity
 _atom_site_fract_x
 _atom_site_fract_y
 _atom_site_fract_z
 _atom_site_occupancy
  Tm  Tm0  1  0.625000  0.625000  0.125000  1
  Tm  Tm1  1  0.625000  0.625000  0.625000  1
  Tm  Tm2  1  0.625000  0.125000  0.625000  1
  Tm  Tm3  1  0.125000  0.625000  0.625000  1
  Pd  Pd4  1  0.125000  0.125000  0.125000  1
  Pd  Pd5  1  0.625000  0.125000  0.125000  1
  Pd  Pd6  1  0.125000  0.125000  0.625000  1
  Pt  Pt7  1  0.125000  0.625000  0.125000  1
  O  O8  1  0.031928  0.468985  0.467158  1
  O  O9  1  0.782842  0.781015  0.218072  1
  O  O10  1  0.782374  0.217702  0.217550  1
  O  O11  1  0.467626  0.032298  0.467626  1
  O  O12  1  0.032450  0.032298  0.467626  1
  O  O13  1  0.031928  0.468985  0.031928  1
  O  O14  1  0.750088  0.749735  0.750088  1
  O  O15  1  0.499912  0.500265  0.499912  1
  O  O16  1  0.782374  0.217702  0.782374  1
  O  O17  1  0.218072  0.781015  0.218072  1
  O  O18  1  0.217550  0.217702  0.782374  1
  O  O19  1  0.467626  0.032298  0.032450  1
  O  O20  1  0.467158  0.468985  0.031928  1
  O  O21  1  0.218072  0.781015  0.782842  1
