# generated using pymatgen
data_Ba5Ho2Al2TcO13
_symmetry_space_group_name_H-M   'P 1'
_cell_length_a   5.96778000
_cell_length_b   5.96777993
_cell_length_c   25.01139000
_cell_angle_alpha   90.00000000
_cell_angle_beta   90.00000000
_cell_angle_gamma   120.00000040
_symmetry_Int_Tables_number   1
_chemical_formula_structural   Ba5Ho2Al2TcO13
_chemical_formula_sum   'Ba10 Ho4 Al4 Tc2 O26'
_cell_volume   771.42562689
_cell_formula_units_Z   2
loop_
 _symmetry_equiv_pos_site_id
 _symmetry_equiv_pos_as_xyz
  1  'x, y, z'
loop_
 _atom_site_type_symbol
 _atom_site_label
 _atom_site_symmetry_multiplicity
 _atom_site_fract_x
 _atom_site_fract_y
 _atom_site_fract_z
 _atom_site_occupancy
  Ba  Ba0  1  0.333333  0.666667  0.540649  1
  Ba  Ba1  1  0.666667  0.333333  0.459351  1
  Ba  Ba2  1  0.666667  0.333333  0.040649  1
  Ba  Ba3  1  0.333333  0.666667  0.959351  1
  Ba  Ba4  1  0.000000  0.000000  0.136176  1
  Ba  Ba5  1  0.000000  0.000000  0.863824  1
  Ba  Ba6  1  0.000000  0.000000  0.636176  1
  Ba  Ba7  1  0.000000  0.000000  0.363824  1
  Ba  Ba8  1  0.333333  0.666667  0.250000  1
  Ba  Ba9  1  0.666667  0.333333  0.750000  1
  Ho  Ho10  1  0.333333  0.666667  0.102287  1
  Ho  Ho11  1  0.666667  0.333333  0.897713  1
  Ho  Ho12  1  0.666667  0.333333  0.602287  1
  Ho  Ho13  1  0.333333  0.666667  0.397713  1
  Al  Al14  1  0.333333  0.666667  0.680600  1
  Al  Al15  1  0.666667  0.333333  0.319400  1
  Al  Al16  1  0.666667  0.333333  0.180600  1
  Al  Al17  1  0.333333  0.666667  0.819400  1
  Tc  Tc18  1  0.000000  0.000000  0.000000  1
  Tc  Tc19  1  0.000000  0.000000  0.500000  1
  O  O20  1  0.504288  0.008576  0.157597  1
  O  O21  1  0.495712  0.991424  0.842403  1
  O  O22  1  0.991424  0.495712  0.157597  1
  O  O23  1  0.495712  0.991424  0.657597  1
  O  O24  1  0.008576  0.504288  0.842403  1
  O  O25  1  0.504288  0.008576  0.342403  1
  O  O26  1  0.504288  0.495712  0.157597  1
  O  O27  1  0.008576  0.504288  0.657597  1
  O  O28  1  0.495712  0.504288  0.842403  1
  O  O29  1  0.991424  0.495712  0.342403  1
  O  O30  1  0.495712  0.504288  0.657597  1
  O  O31  1  0.504288  0.495712  0.342403  1
  O  O32  1  0.159561  0.319122  0.048769  1
  O  O33  1  0.840439  0.680878  0.951231  1
  O  O34  1  0.680878  0.840439  0.048769  1
  O  O35  1  0.840439  0.680878  0.548769  1
  O  O36  1  0.319122  0.159561  0.951231  1
  O  O37  1  0.159561  0.319122  0.451231  1
  O  O38  1  0.159561  0.840439  0.048769  1
  O  O39  1  0.319122  0.159561  0.548769  1
  O  O40  1  0.840439  0.159561  0.951231  1
  O  O41  1  0.680878  0.840439  0.451231  1
  O  O42  1  0.840439  0.159561  0.548769  1
  O  O43  1  0.159561  0.840439  0.451231  1
  O  O44  1  0.333333  0.666667  0.750000  1
  O  O45  1  0.666667  0.333333  0.250000  1
