# generated using pymatgen
data_BeCd3(BrO3)8
_symmetry_space_group_name_H-M   'P 1'
_cell_length_a   5.98185248
_cell_length_b   10.79315985
_cell_length_c   10.91749789
_cell_angle_alpha   119.34025949
_cell_angle_beta   89.67567575
_cell_angle_gamma   90.59971232
_symmetry_Int_Tables_number   1
_chemical_formula_structural   BeCd3(BrO3)8
_chemical_formula_sum   'Be1 Cd3 Br8 O24'
_cell_volume   614.41689285
_cell_formula_units_Z   1
loop_
 _symmetry_equiv_pos_site_id
 _symmetry_equiv_pos_as_xyz
  1  'x, y, z'
loop_
 _atom_site_type_symbol
 _atom_site_label
 _atom_site_symmetry_multiplicity
 _atom_site_fract_x
 _atom_site_fract_y
 _atom_site_fract_z
 _atom_site_occupancy
  Be  Be0  1  0.325970  0.759653  0.509887  1
  Cd  Cd1  1  0.640672  0.236837  0.494227  1
  Cd  Cd2  1  0.124821  0.271416  0.006720  1
  Cd  Cd3  1  0.631155  0.720823  0.989519  1
  Br  Br4  1  0.256020  0.440502  0.363746  1
  Br  Br5  1  0.790404  0.591733  0.648576  1
  Br  Br6  1  0.262446  0.908842  0.825982  1
  Br  Br7  1  0.753292  0.080363  0.139686  1
  Br  Br8  1  0.793068  0.083218  0.687127  1
  Br  Br9  1  0.269313  0.894716  0.325859  1
  Br  Br10  1  0.274371  0.411557  0.800883  1
  Br  Br11  1  0.782951  0.587505  0.201020  1
  O  O12  1  0.408318  0.875421  0.936028  1
  O  O13  1  0.930659  0.093276  0.025734  1
  O  O14  1  0.391642  0.797188  0.664608  1
  O  O15  1  0.844599  0.204511  0.300559  1
  O  O16  1  0.359853  0.328539  0.203720  1
  O  O17  1  0.879983  0.698794  0.816475  1
  O  O18  1  0.916018  0.234468  0.816737  1
  O  O19  1  0.397691  0.761512  0.188166  1
  O  O20  1  0.933676  0.944741  0.671410  1
  O  O21  1  0.392630  0.044434  0.349694  1
  O  O22  1  0.354196  0.071852  0.865220  1
  O  O23  1  0.825960  0.925916  0.132702  1
  O  O24  1  0.404681  0.267969  0.672866  1
  O  O25  1  0.913948  0.726747  0.327948  1
  O  O26  1  0.346860  0.410277  0.950127  1
  O  O27  1  0.849209  0.587050  0.047979  1
  O  O28  1  0.413607  0.555070  0.814240  1
  O  O29  1  0.918541  0.441231  0.184195  1
  O  O30  1  0.365027  0.602595  0.387276  1
  O  O31  1  0.874163  0.427182  0.616056  1
  O  O32  1  0.406164  0.408207  0.473171  1
  O  O33  1  0.958218  0.631104  0.550691  1
  O  O34  1  0.858870  0.092013  0.538865  1
  O  O35  1  0.360603  0.882746  0.472298  1
