# generated using pymatgen
data_Y5Er15Cd6IrRh
_symmetry_space_group_name_H-M   'P 1'
_cell_length_a   9.58377925
_cell_length_b   9.58378122
_cell_length_c   9.75362500
_cell_angle_alpha   90.00000000
_cell_angle_beta   90.00000000
_cell_angle_gamma   119.93111688
_symmetry_Int_Tables_number   1
_chemical_formula_structural   Y5Er15Cd6IrRh
_chemical_formula_sum   'Y5 Er15 Cd6 Ir1 Rh1'
_cell_volume   776.37476199
_cell_formula_units_Z   1
loop_
 _symmetry_equiv_pos_site_id
 _symmetry_equiv_pos_as_xyz
  1  'x, y, z'
loop_
 _atom_site_type_symbol
 _atom_site_label
 _atom_site_symmetry_multiplicity
 _atom_site_fract_x
 _atom_site_fract_y
 _atom_site_fract_z
 _atom_site_occupancy
  Y  Y0  1  0.542109  0.457891  0.250000  1
  Y  Y1  1  0.542126  0.083017  0.250000  1
  Y  Y2  1  0.916983  0.457874  0.250000  1
  Y  Y3  1  0.458821  0.917150  0.750000  1
  Y  Y4  1  0.082850  0.541179  0.750000  1
  Er  Er5  1  0.999566  0.000434  0.500423  1
  Er  Er6  1  0.999566  0.000434  0.999577  1
  Er  Er7  1  0.460092  0.539908  0.750000  1
  Er  Er8  1  0.209378  0.790622  0.440375  1
  Er  Er9  1  0.210218  0.418879  0.441072  1
  Er  Er10  1  0.581121  0.789782  0.441072  1
  Er  Er11  1  0.790253  0.209747  0.559774  1
  Er  Er12  1  0.790612  0.581998  0.559562  1
  Er  Er13  1  0.418002  0.209388  0.559562  1
  Er  Er14  1  0.790253  0.209747  0.940226  1
  Er  Er15  1  0.790612  0.581998  0.940438  1
  Er  Er16  1  0.418002  0.209388  0.940438  1
  Er  Er17  1  0.209378  0.790622  0.059625  1
  Er  Er18  1  0.210218  0.418879  0.058928  1
  Er  Er19  1  0.581121  0.789782  0.058928  1
  Cd  Cd20  1  0.886091  0.113909  0.250000  1
  Cd  Cd21  1  0.885327  0.772084  0.250000  1
  Cd  Cd22  1  0.227916  0.114673  0.250000  1
  Cd  Cd23  1  0.114000  0.886000  0.750000  1
  Cd  Cd24  1  0.115636  0.228973  0.750000  1
  Cd  Cd25  1  0.771027  0.884364  0.750000  1
  Ir  Ir26  1  0.665496  0.334504  0.750000  1
  Rh  Rh27  1  0.333227  0.666773  0.250000  1
