# generated using pymatgen
data_ErHf2ZrF15
_symmetry_space_group_name_H-M   'P 1'
_cell_length_a   8.13728129
_cell_length_b   8.13728192
_cell_length_c   8.12908813
_cell_angle_alpha   79.78737725
_cell_angle_beta   79.78737481
_cell_angle_gamma   100.12989024
_symmetry_Int_Tables_number   1
_chemical_formula_structural   ErHf2ZrF15
_chemical_formula_sum   'Er2 Hf4 Zr2 F30'
_cell_volume   509.26656222
_cell_formula_units_Z   2
loop_
 _symmetry_equiv_pos_site_id
 _symmetry_equiv_pos_as_xyz
  1  'x, y, z'
loop_
 _atom_site_type_symbol
 _atom_site_label
 _atom_site_symmetry_multiplicity
 _atom_site_fract_x
 _atom_site_fract_y
 _atom_site_fract_z
 _atom_site_occupancy
  Er  Er0  1  0.677267  0.322733  0.750000  1
  Er  Er1  1  0.321846  0.678154  0.250000  1
  Hf  Hf2  1  0.251420  0.748580  0.750000  1
  Hf  Hf3  1  0.748685  0.251315  0.250000  1
  Hf  Hf4  1  0.822793  0.752259  0.325435  1
  Hf  Hf5  1  0.247741  0.177207  0.174565  1
  Zr  Zr6  1  0.177960  0.248722  0.674562  1
  Zr  Zr7  1  0.751278  0.822040  0.825438  1
  F  F8  1  0.150498  0.182442  0.949531  1
  F  F9  1  0.686071  0.561872  0.849285  1
  F  F10  1  0.038960  0.657407  0.316234  1
  F  F11  1  0.654745  0.040735  0.816943  1
  F  F12  1  0.565678  0.688216  0.347337  1
  F  F13  1  0.183908  0.150058  0.443704  1
  F  F14  1  0.849942  0.816092  0.056296  1
  F  F15  1  0.311784  0.434322  0.152663  1
  F  F16  1  0.959265  0.345255  0.683057  1
  F  F17  1  0.342593  0.961040  0.183766  1
  F  F18  1  0.438128  0.313929  0.650715  1
  F  F19  1  0.817558  0.849502  0.550469  1
  F  F20  1  0.967002  0.032998  0.750000  1
  F  F21  1  0.543849  0.752061  0.029929  1
  F  F22  1  0.247939  0.456151  0.470071  1
  F  F23  1  0.453697  0.247102  0.972132  1
  F  F24  1  0.752898  0.546303  0.527868  1
  F  F25  1  0.032954  0.967046  0.250000  1
  F  F26  1  0.220565  0.724997  0.002131  1
  F  F27  1  0.224016  0.493899  0.780713  1
  F  F28  1  0.995541  0.723310  0.776980  1
  F  F29  1  0.725061  0.994871  0.277186  1
  F  F30  1  0.493840  0.223360  0.279326  1
  F  F31  1  0.725227  0.220274  0.502358  1
  F  F32  1  0.779726  0.274773  0.997642  1
  F  F33  1  0.776640  0.506160  0.220674  1
  F  F34  1  0.005129  0.274939  0.222814  1
  F  F35  1  0.276690  0.004459  0.723020  1
  F  F36  1  0.506101  0.775984  0.719287  1
  F  F37  1  0.275003  0.779435  0.497869  1
