# generated using pymatgen
data_Th3Sc(NiAs)4
_symmetry_space_group_name_H-M   'P 1'
_cell_length_a   4.09462700
_cell_length_b   4.09462675
_cell_length_c   15.53144200
_cell_angle_alpha   90.00000000
_cell_angle_beta   90.00000000
_cell_angle_gamma   119.99999395
_symmetry_Int_Tables_number   1
_chemical_formula_structural   Th3Sc(NiAs)4
_chemical_formula_sum   'Th3 Sc1 Ni4 As4'
_cell_volume   225.51275078
_cell_formula_units_Z   1
loop_
 _symmetry_equiv_pos_site_id
 _symmetry_equiv_pos_as_xyz
  1  'x, y, z'
loop_
 _atom_site_type_symbol
 _atom_site_label
 _atom_site_symmetry_multiplicity
 _atom_site_fract_x
 _atom_site_fract_y
 _atom_site_fract_z
 _atom_site_occupancy
  Th  Th0  1  0.000000  0.000000  0.750000  1
  Th  Th1  1  0.000000  0.000000  0.010952  1
  Th  Th2  1  0.000000  0.000000  0.489048  1
  Sc  Sc3  1  0.000000  0.000000  0.250000  1
  Ni  Ni4  1  0.333333  0.666667  0.158158  1
  Ni  Ni5  1  0.666667  0.333333  0.878191  1
  Ni  Ni6  1  0.666667  0.333333  0.621809  1
  Ni  Ni7  1  0.333333  0.666667  0.341842  1
  As  As8  1  0.333333  0.666667  0.618556  1
  As  As9  1  0.666667  0.333333  0.366417  1
  As  As10  1  0.666667  0.333333  0.133583  1
  As  As11  1  0.333333  0.666667  0.881444  1
