# generated using pymatgen
data_Na4TmUSe6
_symmetry_space_group_name_H-M   'P 1'
_cell_length_a   7.20394698
_cell_length_b   7.20394653
_cell_length_c   7.33460961
_cell_angle_alpha   80.48890014
_cell_angle_beta   80.48889433
_cell_angle_gamma   120.01690071
_symmetry_Int_Tables_number   1
_chemical_formula_structural   Na4TmUSe6
_chemical_formula_sum   'Na4 Tm1 U1 Se6'
_cell_volume   311.06230934
_cell_formula_units_Z   1
loop_
 _symmetry_equiv_pos_site_id
 _symmetry_equiv_pos_as_xyz
  1  'x, y, z'
loop_
 _atom_site_type_symbol
 _atom_site_label
 _atom_site_symmetry_multiplicity
 _atom_site_fract_x
 _atom_site_fract_y
 _atom_site_fract_z
 _atom_site_occupancy
  Na  Na0  1  0.999997  0.000003  0.000000  1
  Na  Na1  1  0.499899  0.500101  0.500000  1
  Na  Na2  1  0.839795  0.160205  0.500000  1
  Na  Na3  1  0.160215  0.839785  0.500000  1
  Tm  Tm4  1  0.667200  0.332800  0.000000  1
  U  U5  1  0.332648  0.667352  0.000000  1
  Se  Se6  1  0.275005  0.282020  0.229584  1
  Se  Se7  1  0.428815  0.069412  0.771058  1
  Se  Se8  1  0.084313  0.436455  0.772867  1
  Se  Se9  1  0.717980  0.724995  0.770416  1
  Se  Se10  1  0.563545  0.915687  0.227133  1
  Se  Se11  1  0.930588  0.571185  0.228942  1
