# generated using pymatgen
data_LaNpO4
_symmetry_space_group_name_H-M   'P 1'
_cell_length_a   6.65791190
_cell_length_b   6.65791202
_cell_length_c   6.65791202
_cell_angle_alpha   34.31200842
_cell_angle_beta   34.31200953
_cell_angle_gamma   34.31200065
_symmetry_Int_Tables_number   1
_chemical_formula_structural   LaNpO4
_chemical_formula_sum   'La1 Np1 O4'
_cell_volume   83.63659668
_cell_formula_units_Z   1
loop_
 _symmetry_equiv_pos_site_id
 _symmetry_equiv_pos_as_xyz
  1  'x, y, z'
loop_
 _atom_site_type_symbol
 _atom_site_label
 _atom_site_symmetry_multiplicity
 _atom_site_fract_x
 _atom_site_fract_y
 _atom_site_fract_z
 _atom_site_occupancy
  La  La0  1  0.000000  0.000000  0.000000  1
  Np  Np1  1  0.500000  0.500000  0.500000  1
  O  O2  1  0.613661  0.613661  0.613661  1
  O  O3  1  0.134116  0.134116  0.134116  1
  O  O4  1  0.865884  0.865884  0.865884  1
  O  O5  1  0.386339  0.386339  0.386339  1
