# generated using pymatgen
data_SmHo3(MgRh)4
_symmetry_space_group_name_H-M   'P 1'
_cell_length_a   4.12074900
_cell_length_b   7.11581873
_cell_length_c   8.53814209
_cell_angle_alpha   89.86702556
_cell_angle_beta   90.00000000
_cell_angle_gamma   90.00000000
_symmetry_Int_Tables_number   1
_chemical_formula_structural   SmHo3(MgRh)4
_chemical_formula_sum   'Sm1 Ho3 Mg4 Rh4'
_cell_volume   250.35902193
_cell_formula_units_Z   1
loop_
 _symmetry_equiv_pos_site_id
 _symmetry_equiv_pos_as_xyz
  1  'x, y, z'
loop_
 _atom_site_type_symbol
 _atom_site_label
 _atom_site_symmetry_multiplicity
 _atom_site_fract_x
 _atom_site_fract_y
 _atom_site_fract_z
 _atom_site_occupancy
  Sm  Sm0  1  0.750000  0.463393  0.822945  1
  Ho  Ho1  1  0.250000  0.037705  0.325161  1
  Ho  Ho2  1  0.750000  0.962991  0.674606  1
  Ho  Ho3  1  0.250000  0.536560  0.177891  1
  Mg  Mg4  1  0.250000  0.134410  0.944045  1
  Mg  Mg5  1  0.750000  0.863794  0.060018  1
  Mg  Mg6  1  0.250000  0.638988  0.555676  1
  Mg  Mg7  1  0.750000  0.363003  0.440330  1
  Rh  Rh8  1  0.750000  0.247196  0.133052  1
  Rh  Rh9  1  0.250000  0.756084  0.869463  1
  Rh  Rh10  1  0.750000  0.749287  0.369012  1
  Rh  Rh11  1  0.250000  0.246587  0.627801  1
