# generated using pymatgen
data_CaTbV2O6
_symmetry_space_group_name_H-M   'P 1'
_cell_length_a   5.37459544
_cell_length_b   5.61513357
_cell_length_c   7.62454332
_cell_angle_alpha   89.98271001
_cell_angle_beta   90.25665400
_cell_angle_gamma   89.51435217
_symmetry_Int_Tables_number   1
_chemical_formula_structural   CaTbV2O6
_chemical_formula_sum   'Ca2 Tb2 V4 O12'
_cell_volume   230.09104863
_cell_formula_units_Z   2
loop_
 _symmetry_equiv_pos_site_id
 _symmetry_equiv_pos_as_xyz
  1  'x, y, z'
loop_
 _atom_site_type_symbol
 _atom_site_label
 _atom_site_symmetry_multiplicity
 _atom_site_fract_x
 _atom_site_fract_y
 _atom_site_fract_z
 _atom_site_occupancy
  Ca  Ca0  1  0.984291  0.057176  0.750776  1
  Ca  Ca1  1  0.015659  0.942821  0.249229  1
  Tb  Tb2  1  0.516774  0.560421  0.749916  1
  Tb  Tb3  1  0.483279  0.439606  0.250077  1
  V  V4  1  0.000015  0.500014  0.000045  1
  V  V5  1  0.999883  0.500049  0.499959  1
  V  V6  1  0.500170  0.999955  0.500074  1
  V  V7  1  0.499974  0.999964  0.999885  1
  O  O8  1  0.409581  0.968203  0.756822  1
  O  O9  1  0.895852  0.527863  0.256502  1
  O  O10  1  0.104199  0.472145  0.743515  1
  O  O11  1  0.590384  0.031799  0.243162  1
  O  O12  1  0.208784  0.207614  0.052140  1
  O  O13  1  0.205845  0.209677  0.446678  1
  O  O14  1  0.689378  0.299772  0.951956  1
  O  O15  1  0.794180  0.790274  0.553320  1
  O  O16  1  0.298307  0.689455  0.454023  1
  O  O17  1  0.791135  0.792405  0.947865  1
  O  O18  1  0.701751  0.310478  0.545993  1
  O  O19  1  0.310559  0.700311  0.048061  1
