# generated using pymatgen
data_TbYb3(CdPt)4
_symmetry_space_group_name_H-M   'P 1'
_cell_length_a   4.13178900
_cell_length_b   7.29634381
_cell_length_c   8.79976271
_cell_angle_alpha   89.64347915
_cell_angle_beta   90.00000000
_cell_angle_gamma   90.00000000
_symmetry_Int_Tables_number   1
_chemical_formula_structural   TbYb3(CdPt)4
_chemical_formula_sum   'Tb1 Yb3 Cd4 Pt4'
_cell_volume   265.28089811
_cell_formula_units_Z   1
loop_
 _symmetry_equiv_pos_site_id
 _symmetry_equiv_pos_as_xyz
  1  'x, y, z'
loop_
 _atom_site_type_symbol
 _atom_site_label
 _atom_site_symmetry_multiplicity
 _atom_site_fract_x
 _atom_site_fract_y
 _atom_site_fract_z
 _atom_site_occupancy
  Tb  Tb0  1  0.750000  0.454005  0.824948  1
  Yb  Yb1  1  0.250000  0.044452  0.319191  1
  Yb  Yb2  1  0.250000  0.545447  0.181785  1
  Yb  Yb3  1  0.750000  0.956595  0.676286  1
  Cd  Cd4  1  0.250000  0.130652  0.937149  1
  Cd  Cd5  1  0.250000  0.642381  0.562344  1
  Cd  Cd6  1  0.750000  0.861262  0.064453  1
  Cd  Cd7  1  0.750000  0.358952  0.434196  1
  Pt  Pt8  1  0.250000  0.254523  0.637674  1
  Pt  Pt9  1  0.250000  0.737386  0.868023  1
  Pt  Pt10  1  0.750000  0.755131  0.367312  1
  Pt  Pt11  1  0.750000  0.259215  0.126644  1
