# generated using pymatgen
data_Ba7AcBi6
_symmetry_space_group_name_H-M   'P 1'
_cell_length_a   9.28139683
_cell_length_b   9.18530601
_cell_length_c   9.28139800
_cell_angle_alpha   109.26163397
_cell_angle_beta   109.67999418
_cell_angle_gamma   109.26163234
_symmetry_Int_Tables_number   1
_chemical_formula_structural   Ba7AcBi6
_chemical_formula_sum   'Ba7 Ac1 Bi6'
_cell_volume   610.68222247
_cell_formula_units_Z   1
loop_
 _symmetry_equiv_pos_site_id
 _symmetry_equiv_pos_as_xyz
  1  'x, y, z'
loop_
 _atom_site_type_symbol
 _atom_site_label
 _atom_site_symmetry_multiplicity
 _atom_site_fract_x
 _atom_site_fract_y
 _atom_site_fract_z
 _atom_site_occupancy
  Ba  Ba0  1  0.140843  0.504031  0.007208  1
  Ba  Ba1  1  0.643019  0.500741  0.001182  1
  Ba  Ba2  1  0.498818  0.999559  0.641838  1
  Ba  Ba3  1  0.366365  0.363188  0.359157  1
  Ba  Ba4  1  0.492792  0.996824  0.133635  1
  Ba  Ba5  1  0.000000  0.641030  0.500000  1
  Ba  Ba6  1  0.858162  0.857722  0.856981  1
  Ac  Ac7  1  0.000000  0.140913  0.500000  1
  Bi  Bi8  1  0.364210  0.609117  0.743447  1
  Bi  Bi9  1  0.879237  0.244907  0.135790  1
  Bi  Bi10  1  0.635419  0.762960  0.377165  1
  Bi  Bi11  1  0.122835  0.885796  0.258255  1
  Bi  Bi12  1  0.241745  0.127541  0.864581  1
  Bi  Bi13  1  0.756553  0.365670  0.620763  1
