# generated using pymatgen
data_Eu8Si13Pd3
_symmetry_space_group_name_H-M   'P 1'
_cell_length_a   8.27148500
_cell_length_b   8.27148600
_cell_length_c   8.58030200
_cell_angle_alpha   90.00000000
_cell_angle_beta   90.00000000
_cell_angle_gamma   120.00000001
_symmetry_Int_Tables_number   1
_chemical_formula_structural   Eu8Si13Pd3
_chemical_formula_sum   'Eu8 Si13 Pd3'
_cell_volume   508.39378290
_cell_formula_units_Z   1
loop_
 _symmetry_equiv_pos_site_id
 _symmetry_equiv_pos_as_xyz
  1  'x, y, z'
loop_
 _atom_site_type_symbol
 _atom_site_label
 _atom_site_symmetry_multiplicity
 _atom_site_fract_x
 _atom_site_fract_y
 _atom_site_fract_z
 _atom_site_occupancy
  Eu  Eu0  1  0.501387  0.498613  0.749050  1
  Eu  Eu1  1  0.502076  0.497924  0.250837  1
  Eu  Eu2  1  0.997228  0.498613  0.749050  1
  Eu  Eu3  1  0.995848  0.497924  0.250837  1
  Eu  Eu4  1  0.501387  0.002772  0.749050  1
  Eu  Eu5  1  0.502076  0.004152  0.250837  1
  Eu  Eu6  1  0.000000  0.000000  0.748990  1
  Eu  Eu7  1  0.000000  0.000000  0.251196  1
  Si  Si8  1  0.837346  0.162654  0.000697  1
  Si  Si9  1  0.166967  0.833033  0.999975  1
  Si  Si10  1  0.325309  0.162654  0.000697  1
  Si  Si11  1  0.164929  0.835071  0.500241  1
  Si  Si12  1  0.666065  0.833033  0.999975  1
  Si  Si13  1  0.835807  0.164193  0.499770  1
  Si  Si14  1  0.837346  0.674691  0.000697  1
  Si  Si15  1  0.670143  0.835071  0.500241  1
  Si  Si16  1  0.166967  0.333935  0.999975  1
  Si  Si17  1  0.328387  0.164193  0.499770  1
  Si  Si18  1  0.164929  0.329857  0.500241  1
  Si  Si19  1  0.835807  0.671613  0.499770  1
  Si  Si20  1  0.666667  0.333333  0.997819  1
  Pd  Pd21  1  0.333333  0.666667  0.002505  1
  Pd  Pd22  1  0.333333  0.666667  0.497835  1
  Pd  Pd23  1  0.666667  0.333333  0.499940  1
