# generated using pymatgen
data_TbEuSn5Ir3
_symmetry_space_group_name_H-M   'P 1'
_cell_length_a   13.62643014
_cell_length_b   13.62643033
_cell_length_c   7.25701500
_cell_angle_alpha   90.00000000
_cell_angle_beta   90.00000000
_cell_angle_gamma   161.08409568
_symmetry_Int_Tables_number   1
_chemical_formula_structural   TbEuSn5Ir3
_chemical_formula_sum   'Tb2 Eu2 Sn10 Ir6'
_cell_volume   436.82598354
_cell_formula_units_Z   2
loop_
 _symmetry_equiv_pos_site_id
 _symmetry_equiv_pos_as_xyz
  1  'x, y, z'
loop_
 _atom_site_type_symbol
 _atom_site_label
 _atom_site_symmetry_multiplicity
 _atom_site_fract_x
 _atom_site_fract_y
 _atom_site_fract_z
 _atom_site_occupancy
  Tb  Tb0  1  0.476655  0.523345  0.737454  1
  Tb  Tb1  1  0.523345  0.476655  0.237454  1
  Eu  Eu2  1  0.172603  0.827397  0.757147  1
  Eu  Eu3  1  0.827397  0.172603  0.257147  1
  Sn  Sn4  1  0.879083  0.120917  0.733424  1
  Sn  Sn5  1  0.120917  0.879083  0.233424  1
  Sn  Sn6  1  0.704722  0.295278  0.048251  1
  Sn  Sn7  1  0.295278  0.704722  0.548251  1
  Sn  Sn8  1  0.596451  0.403549  0.608623  1
  Sn  Sn9  1  0.403549  0.596451  0.108623  1
  Sn  Sn10  1  0.952231  0.047769  0.397601  1
  Sn  Sn11  1  0.047769  0.952231  0.897601  1
  Sn  Sn12  1  0.290272  0.709728  0.978899  1
  Sn  Sn13  1  0.709728  0.290272  0.478899  1
  Ir  Ir14  1  0.049086  0.950914  0.515421  1
  Ir  Ir15  1  0.950914  0.049086  0.015421  1
  Ir  Ir16  1  0.777317  0.222683  0.765177  1
  Ir  Ir17  1  0.222683  0.777317  0.265177  1
  Ir  Ir18  1  0.395918  0.604082  0.486001  1
  Ir  Ir19  1  0.604082  0.395918  0.986001  1
