# generated using pymatgen
data_DyY3Fe10(P6Rh5)2
_symmetry_space_group_name_H-M   'P 1'
_cell_length_a   3.78929700
_cell_length_b   10.45347848
_cell_length_c   12.24870357
_cell_angle_alpha   90.03485878
_cell_angle_beta   90.00000000
_cell_angle_gamma   90.00000000
_symmetry_Int_Tables_number   1
_chemical_formula_structural   DyY3Fe10(P6Rh5)2
_chemical_formula_sum   'Dy1 Y3 Fe10 P12 Rh10'
_cell_volume   485.18740631
_cell_formula_units_Z   1
loop_
 _symmetry_equiv_pos_site_id
 _symmetry_equiv_pos_as_xyz
  1  'x, y, z'
loop_
 _atom_site_type_symbol
 _atom_site_label
 _atom_site_symmetry_multiplicity
 _atom_site_fract_x
 _atom_site_fract_y
 _atom_site_fract_z
 _atom_site_occupancy
  Dy  Dy0  1  0.750000  0.076559  0.790432  1
  Y  Y1  1  0.250000  0.583098  0.712116  1
  Y  Y2  1  0.250000  0.916900  0.212049  1
  Y  Y3  1  0.750000  0.423446  0.290334  1
  Fe  Fe4  1  0.750000  0.774338  0.828597  1
  Fe  Fe5  1  0.750000  0.725670  0.328515  1
  Fe  Fe6  1  0.250000  0.874342  0.697091  1
  Fe  Fe7  1  0.250000  0.625728  0.196995  1
  Fe  Fe8  1  0.750000  0.120001  0.302059  1
  Fe  Fe9  1  0.750000  0.379968  0.802088  1
  Fe  Fe10  1  0.250000  0.459975  0.935064  1
  Fe  Fe11  1  0.250000  0.040033  0.435099  1
  Fe  Fe12  1  0.750000  0.541314  0.064393  1
  Fe  Fe13  1  0.750000  0.958716  0.564484  1
  P  P14  1  0.250000  0.439561  0.111504  1
  P  P15  1  0.250000  0.060482  0.611697  1
  P  P16  1  0.750000  0.570490  0.887253  1
  P  P17  1  0.750000  0.929599  0.387198  1
  P  P18  1  0.250000  0.272242  0.863541  1
  P  P19  1  0.250000  0.227686  0.363602  1
  P  P20  1  0.750000  0.726288  0.146453  1
  P  P21  1  0.750000  0.773707  0.646606  1
  P  P22  1  0.250000  0.610023  0.377022  1
  P  P23  1  0.250000  0.890036  0.876956  1
  P  P24  1  0.750000  0.402482  0.618309  1
  P  P25  1  0.750000  0.097491  0.118303  1
  Rh  Rh26  1  0.250000  0.707847  0.984495  1
  Rh  Rh27  1  0.250000  0.792205  0.484591  1
  Rh  Rh28  1  0.750000  0.286990  0.009175  1
  Rh  Rh29  1  0.750000  0.212938  0.509296  1
  Rh  Rh30  1  0.250000  0.411858  0.478543  1
  Rh  Rh31  1  0.250000  0.088124  0.978340  1
  Rh  Rh32  1  0.750000  0.599314  0.520084  1
  Rh  Rh33  1  0.750000  0.900603  0.020025  1
  Rh  Rh34  1  0.250000  0.229575  0.173788  1
  Rh  Rh35  1  0.250000  0.270372  0.673903  1
