# generated using pymatgen
data_Hf18Re7MoAs2
_symmetry_space_group_name_H-M   'P 1'
_cell_length_a   8.61663681
_cell_length_b   8.63304735
_cell_length_c   8.65779300
_cell_angle_alpha   90.00000000
_cell_angle_beta   90.00000000
_cell_angle_gamma   119.93336642
_symmetry_Int_Tables_number   1
_chemical_formula_structural   Hf18Re7MoAs2
_chemical_formula_sum   'Hf18 Re7 Mo1 As2'
_cell_volume   558.12432849
_cell_formula_units_Z   1
loop_
 _symmetry_equiv_pos_site_id
 _symmetry_equiv_pos_as_xyz
  1  'x, y, z'
loop_
 _atom_site_type_symbol
 _atom_site_label
 _atom_site_symmetry_multiplicity
 _atom_site_fract_x
 _atom_site_fract_y
 _atom_site_fract_z
 _atom_site_occupancy
  Hf  Hf0  1  0.806312  0.612708  0.546402  1
  Hf  Hf1  1  0.805448  0.193677  0.545546  1
  Hf  Hf2  1  0.388027  0.193625  0.545652  1
  Hf  Hf3  1  0.193743  0.387390  0.451980  1
  Hf  Hf4  1  0.193544  0.806695  0.452695  1
  Hf  Hf5  1  0.613297  0.806720  0.452602  1
  Hf  Hf6  1  0.193743  0.387390  0.048020  1
  Hf  Hf7  1  0.193544  0.806695  0.047305  1
  Hf  Hf8  1  0.613297  0.806720  0.047398  1
  Hf  Hf9  1  0.806312  0.612708  0.953598  1
  Hf  Hf10  1  0.805448  0.193677  0.954454  1
  Hf  Hf11  1  0.388027  0.193625  0.954348  1
  Hf  Hf12  1  0.458858  0.917663  0.750000  1
  Hf  Hf13  1  0.459536  0.541348  0.750000  1
  Hf  Hf14  1  0.081657  0.541280  0.750000  1
  Hf  Hf15  1  0.541614  0.083329  0.250000  1
  Hf  Hf16  1  0.541980  0.458619  0.250000  1
  Hf  Hf17  1  0.916915  0.458787  0.250000  1
  Re  Re18  1  0.109749  0.890126  0.750000  1
  Re  Re19  1  0.780239  0.890143  0.750000  1
  Re  Re20  1  0.890522  0.780944  0.250000  1
  Re  Re21  1  0.890423  0.109225  0.250000  1
  Re  Re22  1  0.219097  0.109282  0.250000  1
  Re  Re23  1  0.999844  0.999708  0.499458  1
  Re  Re24  1  0.999844  0.999708  0.000542  1
  Mo  Mo25  1  0.108387  0.216940  0.750000  1
  As  As26  1  0.667127  0.334402  0.750000  1
  As  As27  1  0.333466  0.666867  0.250000  1
