# generated using pymatgen
data_Ho7Er3(In2Bi)2
_symmetry_space_group_name_H-M   'P 1'
_cell_length_a   9.00587951
_cell_length_b   8.99728567
_cell_length_c   6.57504201
_cell_angle_alpha   89.99958877
_cell_angle_beta   90.00523733
_cell_angle_gamma   119.97537155
_symmetry_Int_Tables_number   1
_chemical_formula_structural   Ho7Er3(In2Bi)2
_chemical_formula_sum   'Ho7 Er3 In4 Bi2'
_cell_volume   461.50300139
_cell_formula_units_Z   1
loop_
 _symmetry_equiv_pos_site_id
 _symmetry_equiv_pos_as_xyz
  1  'x, y, z'
loop_
 _atom_site_type_symbol
 _atom_site_label
 _atom_site_symmetry_multiplicity
 _atom_site_fract_x
 _atom_site_fract_y
 _atom_site_fract_z
 _atom_site_occupancy
  Ho  Ho0  1  0.670745  0.338076  0.006464  1
  Ho  Ho1  1  0.769894  0.761081  0.749894  1
  Ho  Ho2  1  0.230068  0.991105  0.749924  1
  Ho  Ho3  1  0.000039  0.241074  0.749883  1
  Ho  Ho4  1  0.236831  0.237421  0.250061  1
  Ho  Ho5  1  0.763093  0.000388  0.250036  1
  Ho  Ho6  1  0.000071  0.761779  0.250054  1
  Er  Er7  1  0.329142  0.667317  0.006583  1
  Er  Er8  1  0.329246  0.667325  0.493481  1
  Er  Er9  1  0.670715  0.338044  0.493493  1
  In  In10  1  0.000297  0.597306  0.749736  1
  In  In11  1  0.603917  0.606392  0.250310  1
  In  In12  1  0.395841  0.001962  0.250193  1
  In  In13  1  0.000267  0.397060  0.250276  1
  Bi  Bi14  1  0.395222  0.394681  0.749794  1
  Bi  Bi15  1  0.604611  0.998989  0.749819  1
