# generated using pymatgen
data_Li4TbPr3Si8
_symmetry_space_group_name_H-M   'P 1'
_cell_length_a   3.86738700
_cell_length_b   7.73951140
_cell_length_c   10.46366219
_cell_angle_alpha   89.88933596
_cell_angle_beta   90.00000000
_cell_angle_gamma   90.00000000
_symmetry_Int_Tables_number   1
_chemical_formula_structural   Li4TbPr3Si8
_chemical_formula_sum   'Li4 Tb1 Pr3 Si8'
_cell_volume   313.19446459
_cell_formula_units_Z   1
loop_
 _symmetry_equiv_pos_site_id
 _symmetry_equiv_pos_as_xyz
  1  'x, y, z'
loop_
 _atom_site_type_symbol
 _atom_site_label
 _atom_site_symmetry_multiplicity
 _atom_site_fract_x
 _atom_site_fract_y
 _atom_site_fract_z
 _atom_site_occupancy
  Li  Li0  1  0.250000  0.994415  0.389586  1
  Li  Li1  1  0.750000  0.003841  0.610497  1
  Li  Li2  1  0.250000  0.495398  0.107625  1
  Li  Li3  1  0.750000  0.509078  0.890456  1
  Tb  Tb4  1  0.250000  0.135392  0.864742  1
  Pr  Pr5  1  0.750000  0.862594  0.134974  1
  Pr  Pr6  1  0.250000  0.637640  0.636560  1
  Pr  Pr7  1  0.750000  0.359238  0.364955  1
  Si  Si8  1  0.750000  0.272080  0.064610  1
  Si  Si9  1  0.250000  0.732598  0.929077  1
  Si  Si10  1  0.750000  0.773000  0.429729  1
  Si  Si11  1  0.250000  0.221952  0.575617  1
  Si  Si12  1  0.750000  0.842915  0.822914  1
  Si  Si13  1  0.250000  0.164784  0.173361  1
  Si  Si14  1  0.750000  0.331562  0.682648  1
  Si  Si15  1  0.250000  0.663513  0.322648  1
