# generated using pymatgen
data_CsTh(TcO4)6
_symmetry_space_group_name_H-M   'P 1'
_cell_length_a   10.61082600
_cell_length_b   10.61082525
_cell_length_c   6.38038100
_cell_angle_alpha   90.00000000
_cell_angle_beta   90.00000000
_cell_angle_gamma   120.00000235
_symmetry_Int_Tables_number   1
_chemical_formula_structural   CsTh(TcO4)6
_chemical_formula_sum   'Cs1 Th1 Tc6 O24'
_cell_volume   622.12204280
_cell_formula_units_Z   1
loop_
 _symmetry_equiv_pos_site_id
 _symmetry_equiv_pos_as_xyz
  1  'x, y, z'
loop_
 _atom_site_type_symbol
 _atom_site_label
 _atom_site_symmetry_multiplicity
 _atom_site_fract_x
 _atom_site_fract_y
 _atom_site_fract_z
 _atom_site_occupancy
  Cs  Cs0  1  0.666667  0.333333  0.750000  1
  Th  Th1  1  0.333333  0.666667  0.250000  1
  Tc  Tc2  1  0.113103  0.416069  0.750000  1
  Tc  Tc3  1  0.336890  0.289443  0.250000  1
  Tc  Tc4  1  0.583931  0.697032  0.750000  1
  Tc  Tc5  1  0.952551  0.663110  0.250000  1
  Tc  Tc6  1  0.302968  0.886897  0.750000  1
  Tc  Tc7  1  0.710557  0.047449  0.250000  1
  O  O8  1  0.471970  0.629031  0.524914  1
  O  O9  1  0.370969  0.842939  0.524914  1
  O  O10  1  0.910551  0.800606  0.250000  1
  O  O11  1  0.116938  0.789163  0.750000  1
  O  O12  1  0.199394  0.109946  0.250000  1
  O  O13  1  0.210837  0.327775  0.750000  1
  O  O14  1  0.445808  0.322138  0.032070  1
  O  O15  1  0.890054  0.089449  0.250000  1
  O  O16  1  0.143127  0.730798  0.250000  1
  O  O17  1  0.157061  0.528030  0.975086  1
  O  O18  1  0.157061  0.528030  0.524914  1
  O  O19  1  0.931777  0.288808  0.750000  1
  O  O20  1  0.269202  0.412329  0.250000  1
  O  O21  1  0.711192  0.642970  0.750000  1
  O  O22  1  0.876330  0.554192  0.467930  1
  O  O23  1  0.357030  0.068223  0.750000  1
  O  O24  1  0.677862  0.123670  0.032070  1
  O  O25  1  0.471970  0.629031  0.975086  1
  O  O26  1  0.370969  0.842939  0.975086  1
  O  O27  1  0.677862  0.123670  0.467930  1
  O  O28  1  0.445808  0.322138  0.467930  1
  O  O29  1  0.876330  0.554192  0.032070  1
  O  O30  1  0.672225  0.883062  0.750000  1
  O  O31  1  0.587671  0.856873  0.250000  1
