# generated using pymatgen
data_Zr4CoRhN
_symmetry_space_group_name_H-M   'P 1'
_cell_length_a   8.70099104
_cell_length_b   8.70099152
_cell_length_c   8.70099200
_cell_angle_alpha   59.99999818
_cell_angle_beta   59.99999634
_cell_angle_gamma   60.00000379
_symmetry_Int_Tables_number   1
_chemical_formula_structural   Zr4CoRhN
_chemical_formula_sum   'Zr16 Co4 Rh4 N4'
_cell_volume   465.79115017
_cell_formula_units_Z   4
loop_
 _symmetry_equiv_pos_site_id
 _symmetry_equiv_pos_as_xyz
  1  'x, y, z'
loop_
 _atom_site_type_symbol
 _atom_site_label
 _atom_site_symmetry_multiplicity
 _atom_site_fract_x
 _atom_site_fract_y
 _atom_site_fract_z
 _atom_site_occupancy
  Zr  Zr0  1  0.082708  0.639097  0.639097  1
  Zr  Zr1  1  0.639097  0.082708  0.639097  1
  Zr  Zr2  1  0.639097  0.639097  0.082708  1
  Zr  Zr3  1  0.639097  0.639097  0.639097  1
  Zr  Zr4  1  0.814596  0.814596  0.185404  1
  Zr  Zr5  1  0.185404  0.185404  0.814596  1
  Zr  Zr6  1  0.814596  0.185404  0.814596  1
  Zr  Zr7  1  0.185404  0.814596  0.185404  1
  Zr  Zr8  1  0.185404  0.814596  0.814596  1
  Zr  Zr9  1  0.814596  0.185404  0.185404  1
  Zr  Zr10  1  0.434158  0.434158  0.065842  1
  Zr  Zr11  1  0.065842  0.065842  0.434158  1
  Zr  Zr12  1  0.434158  0.065842  0.434158  1
  Zr  Zr13  1  0.065842  0.434158  0.065842  1
  Zr  Zr14  1  0.065842  0.434158  0.434158  1
  Zr  Zr15  1  0.434158  0.065842  0.065842  1
  Co  Co16  1  0.446970  0.851010  0.851010  1
  Co  Co17  1  0.851010  0.446970  0.851010  1
  Co  Co18  1  0.851010  0.851010  0.446970  1
  Co  Co19  1  0.851010  0.851010  0.851010  1
  Rh  Rh20  1  0.749042  0.416986  0.416986  1
  Rh  Rh21  1  0.416986  0.749042  0.416986  1
  Rh  Rh22  1  0.416986  0.416986  0.749042  1
  Rh  Rh23  1  0.416986  0.416986  0.416986  1
  N  N24  1  0.623238  0.125587  0.125587  1
  N  N25  1  0.125587  0.623238  0.125587  1
  N  N26  1  0.125587  0.125587  0.623238  1
  N  N27  1  0.125587  0.125587  0.125587  1
