# generated using pymatgen
data_LiMn(IO3)4
_symmetry_space_group_name_H-M   'P 1'
_cell_length_a   4.92746018
_cell_length_b   6.46057676
_cell_length_c   8.61300410
_cell_angle_alpha   83.19600991
_cell_angle_beta   91.02932438
_cell_angle_gamma   90.41687308
_symmetry_Int_Tables_number   1
_chemical_formula_structural   LiMn(IO3)4
_chemical_formula_sum   'Li1 Mn1 I4 O12'
_cell_volume   272.20976405
_cell_formula_units_Z   1
loop_
 _symmetry_equiv_pos_site_id
 _symmetry_equiv_pos_as_xyz
  1  'x, y, z'
loop_
 _atom_site_type_symbol
 _atom_site_label
 _atom_site_symmetry_multiplicity
 _atom_site_fract_x
 _atom_site_fract_y
 _atom_site_fract_z
 _atom_site_occupancy
  Li  Li0  1  0.500000  0.000000  0.500000  1
  Mn  Mn1  1  0.500000  0.500000  0.500000  1
  I  I2  1  0.516512  0.796918  0.163224  1
  I  I3  1  0.014951  0.278620  0.249739  1
  I  I4  1  0.985049  0.721380  0.750261  1
  I  I5  1  0.483488  0.203082  0.836776  1
  O  O6  1  0.746026  0.621630  0.080479  1
  O  O7  1  0.706976  0.042916  0.110999  1
  O  O8  1  0.246574  0.485605  0.320754  1
  O  O9  1  0.220066  0.052181  0.316523  1
  O  O10  1  0.642079  0.751486  0.374597  1
  O  O11  1  0.763364  0.267812  0.402841  1
  O  O12  1  0.236636  0.732188  0.597159  1
  O  O13  1  0.357921  0.248514  0.625403  1
  O  O14  1  0.779934  0.947819  0.683477  1
  O  O15  1  0.753426  0.514395  0.679246  1
  O  O16  1  0.293024  0.957084  0.889001  1
  O  O17  1  0.253974  0.378370  0.919521  1
