# generated using pymatgen
data_Tb5TmOsRu
_symmetry_space_group_name_H-M   'P 1'
_cell_length_a   6.34112192
_cell_length_b   7.34103493
_cell_length_c   9.18019716
_cell_angle_alpha   89.94268748
_cell_angle_beta   90.43667389
_cell_angle_gamma   89.95547978
_symmetry_Int_Tables_number   1
_chemical_formula_structural   Tb5TmOsRu
_chemical_formula_sum   'Tb10 Tm2 Os2 Ru2'
_cell_volume   427.32907048
_cell_formula_units_Z   2
loop_
 _symmetry_equiv_pos_site_id
 _symmetry_equiv_pos_as_xyz
  1  'x, y, z'
loop_
 _atom_site_type_symbol
 _atom_site_label
 _atom_site_symmetry_multiplicity
 _atom_site_fract_x
 _atom_site_fract_y
 _atom_site_fract_z
 _atom_site_occupancy
  Tb  Tb0  1  0.634674  0.039506  0.251492  1
  Tb  Tb1  1  0.365326  0.960494  0.748508  1
  Tb  Tb2  1  0.132600  0.459326  0.748064  1
  Tb  Tb3  1  0.867400  0.540674  0.251936  1
  Tb  Tb4  1  0.171232  0.177552  0.065556  1
  Tb  Tb5  1  0.828768  0.822448  0.934444  1
  Tb  Tb6  1  0.669000  0.323008  0.934943  1
  Tb  Tb7  1  0.828829  0.822032  0.564636  1
  Tb  Tb8  1  0.331000  0.676992  0.065057  1
  Tb  Tb9  1  0.171171  0.177968  0.435364  1
  Tm  Tm10  1  0.332490  0.674782  0.437013  1
  Tm  Tm11  1  0.667510  0.325218  0.562987  1
  Os  Os12  1  0.459580  0.385803  0.253418  1
  Os  Os13  1  0.540420  0.614197  0.746582  1
  Ru  Ru14  1  0.958597  0.114396  0.749310  1
  Ru  Ru15  1  0.041403  0.885604  0.250690  1
