# generated using pymatgen
data_Pr2(Ga3Ir)3
_symmetry_space_group_name_H-M   'P 1'
_cell_length_a   7.66292827
_cell_length_b   7.66292883
_cell_length_c   9.65628900
_cell_angle_alpha   90.00000000
_cell_angle_beta   90.00000000
_cell_angle_gamma   119.62294639
_symmetry_Int_Tables_number   1
_chemical_formula_structural   Pr2(Ga3Ir)3
_chemical_formula_sum   'Pr4 Ga18 Ir6'
_cell_volume   492.91043131
_cell_formula_units_Z   2
loop_
 _symmetry_equiv_pos_site_id
 _symmetry_equiv_pos_as_xyz
  1  'x, y, z'
loop_
 _atom_site_type_symbol
 _atom_site_label
 _atom_site_symmetry_multiplicity
 _atom_site_fract_x
 _atom_site_fract_y
 _atom_site_fract_z
 _atom_site_occupancy
  Pr  Pr0  1  0.997011  0.669584  0.250000  1
  Pr  Pr1  1  0.002989  0.330416  0.750000  1
  Pr  Pr2  1  0.669584  0.997011  0.250000  1
  Pr  Pr3  1  0.330416  0.002989  0.750000  1
  Ga  Ga4  1  0.130048  0.130048  0.250000  1
  Ga  Ga5  1  0.869952  0.869952  0.750000  1
  Ga  Ga6  1  0.001849  0.335138  0.077488  1
  Ga  Ga7  1  0.998151  0.664862  0.922512  1
  Ga  Ga8  1  0.998151  0.664862  0.577488  1
  Ga  Ga9  1  0.335138  0.001849  0.422512  1
  Ga  Ga10  1  0.001849  0.335138  0.422512  1
  Ga  Ga11  1  0.664862  0.998151  0.577488  1
  Ga  Ga12  1  0.664862  0.998151  0.922512  1
  Ga  Ga13  1  0.335138  0.001849  0.077488  1
  Ga  Ga14  1  0.333391  0.333391  0.555896  1
  Ga  Ga15  1  0.666609  0.666609  0.444104  1
  Ga  Ga16  1  0.666609  0.666609  0.055896  1
  Ga  Ga17  1  0.333391  0.333391  0.944104  1
  Ga  Ga18  1  0.339298  0.544845  0.250000  1
  Ga  Ga19  1  0.660702  0.455155  0.750000  1
  Ga  Ga20  1  0.544845  0.339298  0.250000  1
  Ga  Ga21  1  0.455155  0.660702  0.750000  1
  Ir  Ir22  1  0.670806  0.329194  0.000000  1
  Ir  Ir23  1  0.329194  0.670806  0.000000  1
  Ir  Ir24  1  0.329194  0.670806  0.500000  1
  Ir  Ir25  1  0.670806  0.329194  0.500000  1
  Ir  Ir26  1  0.000000  0.000000  0.000000  1
  Ir  Ir27  1  0.000000  0.000000  0.500000  1
