# generated using pymatgen
data_Sc2Ga9TcRu4
_symmetry_space_group_name_H-M   'P 1'
_cell_length_a   7.87645975
_cell_length_b   7.87645957
_cell_length_c   7.87646092
_cell_angle_alpha   134.06049423
_cell_angle_beta   134.06049612
_cell_angle_gamma   66.99353796
_symmetry_Int_Tables_number   1
_chemical_formula_structural   Sc2Ga9TcRu4
_chemical_formula_sum   'Sc2 Ga9 Tc1 Ru4'
_cell_volume   248.22812307
_cell_formula_units_Z   1
loop_
 _symmetry_equiv_pos_site_id
 _symmetry_equiv_pos_as_xyz
  1  'x, y, z'
loop_
 _atom_site_type_symbol
 _atom_site_label
 _atom_site_symmetry_multiplicity
 _atom_site_fract_x
 _atom_site_fract_y
 _atom_site_fract_z
 _atom_site_occupancy
  Sc  Sc0  1  0.000202  0.500202  0.500000  1
  Sc  Sc1  1  0.500202  0.000202  0.500000  1
  Ga  Ga2  1  0.431029  0.855996  0.000000  1
  Ga  Ga3  1  0.143623  0.143623  0.575642  1
  Ga  Ga4  1  0.855996  0.431029  0.000000  1
  Ga  Ga5  1  0.855996  0.855996  0.424966  1
  Ga  Ga6  1  0.567981  0.143623  0.000000  1
  Ga  Ga7  1  0.143623  0.567981  0.000000  1
  Ga  Ga8  1  0.567981  0.567981  0.424358  1
  Ga  Ga9  1  0.000010  0.000010  0.000000  1
  Ga  Ga10  1  0.431029  0.431029  0.575034  1
  Tc  Tc11  1  0.185392  0.185392  0.000000  1
  Ru  Ru12  1  0.814923  0.814923  0.000000  1
  Ru  Ru13  1  0.250895  0.750895  0.500000  1
  Ru  Ru14  1  0.750895  0.250895  0.500000  1
  Ru  Ru15  1  0.500224  0.500224  0.000000  1
