# generated using pymatgen
data_Ba4Si7SbPt8
_symmetry_space_group_name_H-M   'P 1'
_cell_length_a   7.05996975
_cell_length_b   7.92857584
_cell_length_c   8.18466900
_cell_angle_alpha   92.55327764
_cell_angle_beta   88.99977647
_cell_angle_gamma   89.39985246
_symmetry_Int_Tables_number   1
_chemical_formula_structural   Ba4Si7SbPt8
_chemical_formula_sum   'Ba4 Si7 Sb1 Pt8'
_cell_volume   457.58738079
_cell_formula_units_Z   1
loop_
 _symmetry_equiv_pos_site_id
 _symmetry_equiv_pos_as_xyz
  1  'x, y, z'
loop_
 _atom_site_type_symbol
 _atom_site_label
 _atom_site_symmetry_multiplicity
 _atom_site_fract_x
 _atom_site_fract_y
 _atom_site_fract_z
 _atom_site_occupancy
  Ba  Ba0  1  0.875660  0.503172  0.750101  1
  Ba  Ba1  1  0.368745  0.003688  0.247058  1
  Ba  Ba2  1  0.637348  0.993650  0.744257  1
  Ba  Ba3  1  0.134638  0.504324  0.259019  1
  Si  Si4  1  0.907044  0.855270  0.428733  1
  Si  Si5  1  0.087091  0.860490  0.928339  1
  Si  Si6  1  0.600232  0.362041  0.427784  1
  Si  Si7  1  0.081119  0.128716  0.564876  1
  Si  Si8  1  0.602667  0.653425  0.079661  1
  Si  Si9  1  0.901107  0.140260  0.072045  1
  Si  Si10  1  0.408104  0.629944  0.586910  1
  Sb  Sb11  1  0.405692  0.358621  0.920294  1
  Pt  Pt12  1  0.846800  0.154965  0.368836  1
  Pt  Pt13  1  0.145550  0.830516  0.627553  1
  Pt  Pt14  1  0.123508  0.150595  0.856232  1
  Pt  Pt15  1  0.340537  0.317795  0.600219  1
  Pt  Pt16  1  0.362794  0.691297  0.882926  1
  Pt  Pt17  1  0.851602  0.845719  0.135915  1
  Pt  Pt18  1  0.670620  0.354922  0.139440  1
  Pt  Pt19  1  0.649140  0.660591  0.379800  1
