# generated using pymatgen
data_Ce6Sb8(PdPt)3
_symmetry_space_group_name_H-M   'P 1'
_cell_length_a   8.52929655
_cell_length_b   8.52574292
_cell_length_c   8.52574166
_cell_angle_alpha   109.45473012
_cell_angle_beta   109.39399418
_cell_angle_gamma   109.54808569
_symmetry_Int_Tables_number   1
_chemical_formula_structural   Ce6Sb8(PdPt)3
_chemical_formula_sum   'Ce6 Sb8 Pd3 Pt3'
_cell_volume   477.35933230
_cell_formula_units_Z   1
loop_
 _symmetry_equiv_pos_site_id
 _symmetry_equiv_pos_as_xyz
  1  'x, y, z'
loop_
 _atom_site_type_symbol
 _atom_site_label
 _atom_site_symmetry_multiplicity
 _atom_site_fract_x
 _atom_site_fract_y
 _atom_site_fract_z
 _atom_site_occupancy
  Ce  Ce0  1  0.873305  0.249007  0.123565  1
  Ce  Ce1  1  0.626695  0.750260  0.375702  1
  Ce  Ce2  1  0.250000  0.127351  0.877351  1
  Ce  Ce3  1  0.750000  0.372989  0.622989  1
  Ce  Ce4  1  0.123024  0.874268  0.249674  1
  Ce  Ce5  1  0.376976  0.626650  0.751244  1
  Sb  Sb6  1  0.671078  0.501304  0.998758  1
  Sb  Sb7  1  0.497943  0.997191  0.667845  1
  Sb  Sb8  1  0.002057  0.669902  0.499248  1
  Sb  Sb9  1  0.828922  0.827680  0.830226  1
  Sb  Sb10  1  0.497730  0.000092  0.170328  1
  Sb  Sb11  1  0.169453  0.501660  0.998352  1
  Sb  Sb12  1  0.002270  0.172598  0.502362  1
  Sb  Sb13  1  0.330547  0.328899  0.332207  1
  Pd  Pd14  1  0.375244  0.249164  0.627325  1
  Pd  Pd15  1  0.124756  0.752080  0.873920  1
  Pd  Pd16  1  0.250000  0.622294  0.372294  1
  Pt  Pt17  1  0.750000  0.877406  0.127406  1
  Pt  Pt18  1  0.625209  0.375655  0.248760  1
  Pt  Pt19  1  0.874791  0.123551  0.750446  1
