# generated using pymatgen
data_YbTm2(BPt2)3
_symmetry_space_group_name_H-M   'P 1'
_cell_length_a   5.36171586
_cell_length_b   5.38123816
_cell_length_c   7.76724400
_cell_angle_alpha   90.00000000
_cell_angle_beta   90.00000000
_cell_angle_gamma   120.12051681
_symmetry_Int_Tables_number   1
_chemical_formula_structural   YbTm2(BPt2)3
_chemical_formula_sum   'Yb1 Tm2 B3 Pt6'
_cell_volume   193.84513075
_cell_formula_units_Z   1
loop_
 _symmetry_equiv_pos_site_id
 _symmetry_equiv_pos_as_xyz
  1  'x, y, z'
loop_
 _atom_site_type_symbol
 _atom_site_label
 _atom_site_symmetry_multiplicity
 _atom_site_fract_x
 _atom_site_fract_y
 _atom_site_fract_z
 _atom_site_occupancy
  Yb  Yb0  1  0.000000  0.500000  0.166667  1
  Tm  Tm1  1  0.500000  0.500000  0.835847  1
  Tm  Tm2  1  0.500000  0.000000  0.497486  1
  B  B3  1  0.500000  0.500000  0.331664  1
  B  B4  1  0.500000  0.000000  0.001669  1
  B  B5  1  0.000000  0.500000  0.666667  1
  Pt  Pt6  1  0.153482  0.853250  0.831633  1
  Pt  Pt7  1  0.153482  0.300231  0.501700  1
  Pt  Pt8  1  0.702602  0.851300  0.166667  1
  Pt  Pt9  1  0.846518  0.146750  0.831633  1
  Pt  Pt10  1  0.846518  0.699769  0.501700  1
  Pt  Pt11  1  0.297398  0.148700  0.166667  1
