# generated using pymatgen
data_Ho12Mn2In3
_symmetry_space_group_name_H-M   'P 1'
_cell_length_a   8.43814392
_cell_length_b   8.43814456
_cell_length_c   8.43814458
_cell_angle_alpha   110.17877383
_cell_angle_beta   110.17877494
_cell_angle_gamma   108.06519960
_symmetry_Int_Tables_number   1
_chemical_formula_structural   Ho12Mn2In3
_chemical_formula_sum   'Ho12 Mn2 In3'
_cell_volume   462.29941031
_cell_formula_units_Z   1
loop_
 _symmetry_equiv_pos_site_id
 _symmetry_equiv_pos_as_xyz
  1  'x, y, z'
loop_
 _atom_site_type_symbol
 _atom_site_label
 _atom_site_symmetry_multiplicity
 _atom_site_fract_x
 _atom_site_fract_y
 _atom_site_fract_z
 _atom_site_occupancy
  Ho  Ho0  1  0.456040  0.209194  0.246846  1
  Ho  Ho1  1  0.543960  0.790806  0.753154  1
  Ho  Ho2  1  0.962348  0.209194  0.753154  1
  Ho  Ho3  1  0.209194  0.962348  0.753154  1
  Ho  Ho4  1  0.037652  0.790806  0.246846  1
  Ho  Ho5  1  0.790806  0.037652  0.246846  1
  Ho  Ho6  1  0.209194  0.456040  0.246846  1
  Ho  Ho7  1  0.790806  0.543960  0.753154  1
  Ho  Ho8  1  0.304023  0.304023  0.608046  1
  Ho  Ho9  1  0.695977  0.695977  0.391954  1
  Ho  Ho10  1  0.304023  0.695977  0.000000  1
  Ho  Ho11  1  0.695977  0.304023  0.000000  1
  Mn  Mn12  1  0.394240  0.394240  0.000000  1
  Mn  Mn13  1  0.605760  0.605760  0.000000  1
  In  In14  1  0.500000  0.000000  0.500000  1
  In  In15  1  0.000000  0.500000  0.500000  1
  In  In16  1  0.000000  0.000000  0.000000  1
