# generated using pymatgen
data_Dy3Y6Ho11(Cd3Ru)2
_symmetry_space_group_name_H-M   'P 1'
_cell_length_a   9.59858600
_cell_length_b   9.59858573
_cell_length_c   9.82751700
_cell_angle_alpha   90.00000000
_cell_angle_beta   90.00000000
_cell_angle_gamma   120.00000094
_symmetry_Int_Tables_number   1
_chemical_formula_structural   Dy3Y6Ho11(Cd3Ru)2
_chemical_formula_sum   'Dy3 Y6 Ho11 Cd6 Ru2'
_cell_volume   784.13157050
_cell_formula_units_Z   1
loop_
 _symmetry_equiv_pos_site_id
 _symmetry_equiv_pos_as_xyz
  1  'x, y, z'
loop_
 _atom_site_type_symbol
 _atom_site_label
 _atom_site_symmetry_multiplicity
 _atom_site_fract_x
 _atom_site_fract_y
 _atom_site_fract_z
 _atom_site_occupancy
  Dy  Dy0  1  0.209752  0.790248  0.439821  1
  Dy  Dy1  1  0.209752  0.419505  0.439821  1
  Dy  Dy2  1  0.580495  0.790248  0.439821  1
  Y  Y3  1  0.541145  0.458855  0.249925  1
  Y  Y4  1  0.541145  0.082289  0.249925  1
  Y  Y5  1  0.917711  0.458855  0.249925  1
  Y  Y6  1  0.458934  0.541066  0.750111  1
  Y  Y7  1  0.458934  0.917869  0.750111  1
  Y  Y8  1  0.082131  0.541066  0.750111  1
  Ho  Ho9  1  0.000000  0.000000  0.500043  1
  Ho  Ho10  1  0.000000  0.000000  0.000037  1
  Ho  Ho11  1  0.790072  0.209928  0.560251  1
  Ho  Ho12  1  0.790072  0.580145  0.560251  1
  Ho  Ho13  1  0.419855  0.209928  0.560251  1
  Ho  Ho14  1  0.790079  0.209921  0.939789  1
  Ho  Ho15  1  0.790079  0.580159  0.939789  1
  Ho  Ho16  1  0.419841  0.209921  0.939789  1
  Ho  Ho17  1  0.209898  0.790102  0.060153  1
  Ho  Ho18  1  0.209898  0.419797  0.060153  1
  Ho  Ho19  1  0.580203  0.790102  0.060153  1
  Cd  Cd20  1  0.885486  0.114514  0.249957  1
  Cd  Cd21  1  0.885486  0.770973  0.249957  1
  Cd  Cd22  1  0.229027  0.114514  0.249957  1
  Cd  Cd23  1  0.114503  0.885497  0.750055  1
  Cd  Cd24  1  0.114503  0.229006  0.750055  1
  Cd  Cd25  1  0.770994  0.885497  0.750055  1
  Ru  Ru26  1  0.333333  0.666667  0.249777  1
  Ru  Ru27  1  0.666667  0.333333  0.749958  1
