# generated using pymatgen
data_Tb3PrCo12(CuB3)2
_symmetry_space_group_name_H-M   'P 1'
_cell_length_a   5.08113372
_cell_length_b   5.06341397
_cell_length_c   12.79143900
_cell_angle_alpha   89.99999367
_cell_angle_beta   89.99956949
_cell_angle_gamma   119.94348610
_symmetry_Int_Tables_number   1
_chemical_formula_structural   Tb3PrCo12(CuB3)2
_chemical_formula_sum   'Tb3 Pr1 Co12 Cu2 B6'
_cell_volume   285.16822504
_cell_formula_units_Z   1
loop_
 _symmetry_equiv_pos_site_id
 _symmetry_equiv_pos_as_xyz
  1  'x, y, z'
loop_
 _atom_site_type_symbol
 _atom_site_label
 _atom_site_symmetry_multiplicity
 _atom_site_fract_x
 _atom_site_fract_y
 _atom_site_fract_z
 _atom_site_occupancy
  Tb  Tb0  1  0.999991  0.999998  0.500077  1
  Tb  Tb1  1  0.999987  0.000001  0.262930  1
  Tb  Tb2  1  0.999997  0.000001  0.736778  1
  Pr  Pr3  1  0.999993  0.999982  0.000237  1
  Co  Co4  1  0.499985  0.999995  0.162704  1
  Co  Co5  1  0.499986  0.499996  0.162683  1
  Co  Co6  1  0.999990  0.499999  0.162722  1
  Co  Co7  1  0.499994  0.999996  0.837439  1
  Co  Co8  1  0.499995  0.499996  0.837452  1
  Co  Co9  1  0.999994  0.499996  0.837442  1
  Co  Co10  1  0.499984  0.999999  0.386881  1
  Co  Co11  1  0.499995  0.499999  0.386922  1
  Co  Co12  1  0.999986  0.500002  0.386959  1
  Co  Co13  1  0.499991  0.999990  0.613175  1
  Co  Co14  1  0.499993  0.500000  0.613081  1
  Co  Co15  1  0.999994  0.499999  0.613044  1
  Cu  Cu16  1  0.333216  0.666036  0.999867  1
  Cu  Cu17  1  0.666797  0.334038  0.999882  1
  B  B18  1  0.333285  0.666575  0.500010  1
  B  B19  1  0.666694  0.333422  0.500010  1
  B  B20  1  0.333281  0.666487  0.270914  1
  B  B21  1  0.666685  0.333503  0.270914  1
  B  B22  1  0.666826  0.333466  0.728936  1
  B  B23  1  0.333160  0.666526  0.728936  1
