# generated using pymatgen
data_Tb6Pr4Sn5Sb3
_symmetry_space_group_name_H-M   'P 1'
_cell_length_a   8.15911600
_cell_length_b   8.24677443
_cell_length_c   15.51206000
_cell_angle_alpha   90.17030822
_cell_angle_beta   90.00000000
_cell_angle_gamma   90.00000000
_symmetry_Int_Tables_number   1
_chemical_formula_structural   Tb6Pr4Sn5Sb3
_chemical_formula_sum   'Tb12 Pr8 Sn10 Sb6'
_cell_volume   1043.74589571
_cell_formula_units_Z   2
loop_
 _symmetry_equiv_pos_site_id
 _symmetry_equiv_pos_as_xyz
  1  'x, y, z'
loop_
 _atom_site_type_symbol
 _atom_site_label
 _atom_site_symmetry_multiplicity
 _atom_site_fract_x
 _atom_site_fract_y
 _atom_site_fract_z
 _atom_site_occupancy
  Tb  Tb0  1  0.370894  0.837934  0.878597  1
  Tb  Tb1  1  0.870894  0.662066  0.621403  1
  Tb  Tb2  1  0.628172  0.161484  0.377963  1
  Tb  Tb3  1  0.128172  0.338516  0.122037  1
  Tb  Tb4  1  0.630091  0.162793  0.121256  1
  Tb  Tb5  1  0.130091  0.337207  0.378744  1
  Tb  Tb6  1  0.369944  0.838210  0.622177  1
  Tb  Tb7  1  0.869944  0.661790  0.877823  1
  Tb  Tb8  1  0.199725  0.499367  0.749642  1
  Tb  Tb9  1  0.699725  0.000633  0.750358  1
  Tb  Tb10  1  0.800562  0.500211  0.249133  1
  Tb  Tb11  1  0.300562  0.999789  0.250867  1
  Pr  Pr12  1  0.529380  0.323809  0.899616  1
  Pr  Pr13  1  0.029380  0.176191  0.600384  1
  Pr  Pr14  1  0.471929  0.678923  0.399396  1
  Pr  Pr15  1  0.971929  0.821077  0.100604  1
  Pr  Pr16  1  0.473864  0.677188  0.100002  1
  Pr  Pr17  1  0.973864  0.822812  0.399998  1
  Pr  Pr18  1  0.526345  0.319431  0.599752  1
  Pr  Pr19  1  0.026345  0.180569  0.900248  1
  Sn  Sn20  1  0.289409  0.036039  0.456528  1
  Sn  Sn21  1  0.789409  0.463961  0.043472  1
  Sn  Sn22  1  0.567032  0.624689  0.749402  1
  Sn  Sn23  1  0.067032  0.875311  0.750598  1
  Sn  Sn24  1  0.432611  0.375248  0.249958  1
  Sn  Sn25  1  0.932611  0.124752  0.250042  1
  Sn  Sn26  1  0.332966  0.141506  0.750766  1
  Sn  Sn27  1  0.832966  0.358494  0.749234  1
  Sn  Sn28  1  0.668001  0.858921  0.249910  1
  Sn  Sn29  1  0.168001  0.641079  0.250090  1
  Sb  Sb30  1  0.287386  0.035817  0.044494  1
  Sb  Sb31  1  0.787386  0.464183  0.455506  1
  Sb  Sb32  1  0.709844  0.963729  0.544422  1
  Sb  Sb33  1  0.209844  0.536271  0.955578  1
  Sb  Sb34  1  0.711844  0.964649  0.954964  1
  Sb  Sb35  1  0.211844  0.535351  0.545036  1
