# generated using pymatgen
data_TbDySi2Tc
_symmetry_space_group_name_H-M   'P 1'
_cell_length_a   5.83026997
_cell_length_b   5.83027012
_cell_length_c   10.12687487
_cell_angle_alpha   63.44633637
_cell_angle_beta   63.44633505
_cell_angle_gamma   42.20060657
_symmetry_Int_Tables_number   1
_chemical_formula_structural   TbDySi2Tc
_chemical_formula_sum   'Tb2 Dy2 Si4 Tc2'
_cell_volume   202.95767037
_cell_formula_units_Z   2
loop_
 _symmetry_equiv_pos_site_id
 _symmetry_equiv_pos_as_xyz
  1  'x, y, z'
loop_
 _atom_site_type_symbol
 _atom_site_label
 _atom_site_symmetry_multiplicity
 _atom_site_fract_x
 _atom_site_fract_y
 _atom_site_fract_z
 _atom_site_occupancy
  Tb  Tb0  1  0.812436  0.812436  0.108673  1
  Tb  Tb1  1  0.187564  0.187564  0.891327  1
  Dy  Dy2  1  0.004784  0.004784  0.323139  1
  Dy  Dy3  1  0.995216  0.995216  0.676861  1
  Si  Si4  1  0.500783  0.500783  0.122350  1
  Si  Si5  1  0.499217  0.499217  0.877650  1
  Si  Si6  1  0.643986  0.643986  0.438838  1
  Si  Si7  1  0.356014  0.356014  0.561162  1
  Tc  Tc8  1  0.272903  0.272903  0.370733  1
  Tc  Tc9  1  0.727097  0.727097  0.629267  1
