# generated using pymatgen
data_UNi2Rh3S8
_symmetry_space_group_name_H-M   'P 1'
_cell_length_a   7.17787963
_cell_length_b   6.88455170
_cell_length_c   7.17788000
_cell_angle_alpha   58.58028037
_cell_angle_beta   59.99999830
_cell_angle_gamma   58.58028379
_symmetry_Int_Tables_number   1
_chemical_formula_structural   UNi2Rh3S8
_chemical_formula_sum   'U1 Ni2 Rh3 S8'
_cell_volume   245.29701082
_cell_formula_units_Z   1
loop_
 _symmetry_equiv_pos_site_id
 _symmetry_equiv_pos_as_xyz
  1  'x, y, z'
loop_
 _atom_site_type_symbol
 _atom_site_label
 _atom_site_symmetry_multiplicity
 _atom_site_fract_x
 _atom_site_fract_y
 _atom_site_fract_z
 _atom_site_occupancy
  U  U0  1  0.000000  0.500000  0.000000  1
  Ni  Ni1  1  0.375430  0.373709  0.375430  1
  Ni  Ni2  1  0.624570  0.626291  0.624570  1
  Rh  Rh3  1  0.000000  0.000000  0.500000  1
  Rh  Rh4  1  0.500000  0.000000  0.000000  1
  Rh  Rh5  1  0.000000  0.000000  0.000000  1
  S  S6  1  0.258989  0.227029  0.754992  1
  S  S7  1  0.241853  0.774441  0.241853  1
  S  S8  1  0.754992  0.227029  0.258989  1
  S  S9  1  0.258989  0.227029  0.258989  1
  S  S10  1  0.741011  0.772971  0.245008  1
  S  S11  1  0.758147  0.225559  0.758147  1
  S  S12  1  0.245008  0.772971  0.741011  1
  S  S13  1  0.741011  0.772971  0.741011  1
