# generated using pymatgen
data_La5(FeB3)2
_symmetry_space_group_name_H-M   'P 1'
_cell_length_a   5.47821995
_cell_length_b   5.47821953
_cell_length_c   8.88289884
_cell_angle_alpha   107.96029082
_cell_angle_beta   72.03971217
_cell_angle_gamma   120.00000769
_symmetry_Int_Tables_number   1
_chemical_formula_structural   La5(FeB3)2
_chemical_formula_sum   'La5 Fe2 B6'
_cell_volume   215.73778393
_cell_formula_units_Z   1
loop_
 _symmetry_equiv_pos_site_id
 _symmetry_equiv_pos_as_xyz
  1  'x, y, z'
loop_
 _atom_site_type_symbol
 _atom_site_label
 _atom_site_symmetry_multiplicity
 _atom_site_fract_x
 _atom_site_fract_y
 _atom_site_fract_z
 _atom_site_occupancy
  La  La0  1  0.000000  0.000000  0.000000  1
  La  La1  1  0.250819  0.749181  0.247541  1
  La  La2  1  0.582972  0.417029  0.251084  1
  La  La3  1  0.417029  0.582971  0.748915  1
  La  La4  1  0.749180  0.250818  0.752458  1
  Fe  Fe5  1  0.878969  0.121030  0.363091  1
  Fe  Fe6  1  0.121030  0.878969  0.636908  1
  B  B7  1  0.166479  0.166479  0.500000  1
  B  B8  1  0.500000  0.166479  0.500000  1
  B  B9  1  0.166479  0.500000  0.500000  1
  B  B10  1  0.833522  0.500000  0.500000  1
  B  B11  1  0.500000  0.833521  0.500000  1
  B  B12  1  0.833522  0.833522  0.500000  1
