# generated using pymatgen
data_Tm2Ga(SiRh2)3
_symmetry_space_group_name_H-M   'P 1'
_cell_length_a   6.62582475
_cell_length_b   6.63001206
_cell_length_c   6.62582500
_cell_angle_alpha   130.20247827
_cell_angle_beta   113.96004580
_cell_angle_gamma   87.02126926
_symmetry_Int_Tables_number   1
_chemical_formula_structural   Tm2Ga(SiRh2)3
_chemical_formula_sum   'Tm2 Ga1 Si3 Rh6'
_cell_volume   193.72269198
_cell_formula_units_Z   1
loop_
 _symmetry_equiv_pos_site_id
 _symmetry_equiv_pos_as_xyz
  1  'x, y, z'
loop_
 _atom_site_type_symbol
 _atom_site_label
 _atom_site_symmetry_multiplicity
 _atom_site_fract_x
 _atom_site_fract_y
 _atom_site_fract_z
 _atom_site_occupancy
  Tm  Tm0  1  0.250901  0.561824  0.310922  1
  Tm  Tm1  1  0.750642  0.462582  0.711939  1
  Ga  Ga2  1  0.095170  0.898791  0.803621  1
  Si  Si3  1  0.936977  0.129995  0.193018  1
  Si  Si4  1  0.566793  0.758673  0.191880  1
  Si  Si5  1  0.403565  0.201841  0.798275  1
  Rh  Rh6  1  0.710694  0.006291  0.714386  1
  Rh  Rh7  1  0.218351  0.495165  0.723099  1
  Rh  Rh8  1  0.291905  0.006291  0.295595  1
  Rh  Rh9  1  0.772066  0.495165  0.276814  1
  Rh  Rh10  1  0.970817  0.991692  0.459575  1
  Rh  Rh11  1  0.532116  0.991692  0.020875  1
