# generated using pymatgen
data_NdPuSi4
_symmetry_space_group_name_H-M   'P 1'
_cell_length_a   4.11848203
_cell_length_b   4.11848167
_cell_length_c   7.61083547
_cell_angle_alpha   105.69800573
_cell_angle_beta   105.69800621
_cell_angle_gamma   90.00000001
_symmetry_Int_Tables_number   1
_chemical_formula_structural   NdPuSi4
_chemical_formula_sum   'Nd1 Pu1 Si4'
_cell_volume   119.26981809
_cell_formula_units_Z   1
loop_
 _symmetry_equiv_pos_site_id
 _symmetry_equiv_pos_as_xyz
  1  'x, y, z'
loop_
 _atom_site_type_symbol
 _atom_site_label
 _atom_site_symmetry_multiplicity
 _atom_site_fract_x
 _atom_site_fract_y
 _atom_site_fract_z
 _atom_site_occupancy
  Nd  Nd0  1  0.000000  0.000000  0.000000  1
  Pu  Pu1  1  0.250000  0.749999  0.499999  1
  Si  Si2  1  0.585060  0.585060  0.170121  1
  Si  Si3  1  0.667875  0.167876  0.335752  1
  Si  Si4  1  0.832123  0.332124  0.664249  1
  Si  Si5  1  0.414938  0.414938  0.829878  1
