# generated using pymatgen
data_Hf4BeAsH2
_symmetry_space_group_name_H-M   'P 1'
_cell_length_a   5.33188963
_cell_length_b   5.33188859
_cell_length_c   5.33188911
_cell_angle_alpha   104.74388193
_cell_angle_beta   104.74385757
_cell_angle_gamma   119.40652230
_symmetry_Int_Tables_number   1
_chemical_formula_structural   Hf4BeAsH2
_chemical_formula_sum   'Hf4 Be1 As1 H2'
_cell_volume   114.01565853
_cell_formula_units_Z   1
loop_
 _symmetry_equiv_pos_site_id
 _symmetry_equiv_pos_as_xyz
  1  'x, y, z'
loop_
 _atom_site_type_symbol
 _atom_site_label
 _atom_site_symmetry_multiplicity
 _atom_site_fract_x
 _atom_site_fract_y
 _atom_site_fract_z
 _atom_site_occupancy
  Hf  Hf0  1  0.164071  0.664071  0.828144  1
  Hf  Hf1  1  0.835929  0.335929  0.171856  1
  Hf  Hf2  1  0.335929  0.164071  0.500000  1
  Hf  Hf3  1  0.664071  0.835929  0.500000  1
  Be  Be4  1  0.250000  0.250000  0.000000  1
  As  As5  1  0.750000  0.750000  0.000000  1
  H  H6  1  0.750000  0.250000  0.500000  1
  H  H7  1  0.250000  0.750000  0.500000  1
