# generated using pymatgen
data_GaS23
_symmetry_space_group_name_H-M   'P 1'
_cell_length_a   5.57730891
_cell_length_b   9.65445054
_cell_length_c   15.29507973
_cell_angle_alpha   89.05712094
_cell_angle_beta   86.41939261
_cell_angle_gamma   90.71539444
_symmetry_Int_Tables_number   1
_chemical_formula_structural   GaS23
_chemical_formula_sum   'Ga1 S23'
_cell_volume   821.78227552
_cell_formula_units_Z   1
loop_
 _symmetry_equiv_pos_site_id
 _symmetry_equiv_pos_as_xyz
  1  'x, y, z'
loop_
 _atom_site_type_symbol
 _atom_site_label
 _atom_site_symmetry_multiplicity
 _atom_site_fract_x
 _atom_site_fract_y
 _atom_site_fract_z
 _atom_site_occupancy
  Ga  Ga0  1  0.489723  0.193862  0.398306  1
  S  S1  1  0.524554  0.795881  0.389851  1
  S  S2  1  0.998913  0.302398  0.112368  1
  S  S3  1  0.776033  0.250121  0.499119  1
  S  S4  1  0.308426  0.768470  0.503362  1
  S  S5  1  0.191606  0.260370  0.996495  1
  S  S6  1  0.799071  0.736861  0.004308  1
  S  S7  1  0.233586  0.379624  0.363405  1
  S  S8  1  0.693765  0.609274  0.365161  1
  S  S9  1  0.798623  0.128108  0.151627  1
  S  S10  1  0.199031  0.871061  0.135131  1
  S  S11  1  0.697803  0.629636  0.638224  1
  S  S12  1  0.303794  0.373334  0.622936  1
  S  S13  1  0.203277  0.877422  0.856972  1
  S  S14  1  0.795359  0.128357  0.862903  1
  S  S15  1  0.997712  0.696310  0.111057  1
  S  S16  1  0.508427  0.805728  0.609997  1
  S  S17  1  0.512406  0.201680  0.596117  1
  S  S18  1  0.006195  0.699742  0.890373  1
  S  S19  1  0.988484  0.304186  0.891288  1
  S  S20  1  0.483506  0.492314  0.287218  1
  S  S21  1  0.007332  0.996072  0.221917  1
  S  S22  1  0.476209  0.493256  0.711493  1
  S  S23  1  0.006164  0.005931  0.780376  1
