# generated using pymatgen
data_SrPrNd2(Si5Pt3)2
_symmetry_space_group_name_H-M   'P 1'
_cell_length_a   8.29726143
_cell_length_b   8.30477638
_cell_length_c   8.30477679
_cell_angle_alpha   136.74073420
_cell_angle_beta   105.44675961
_cell_angle_gamma   90.32333211
_symmetry_Int_Tables_number   1
_chemical_formula_structural   SrPrNd2(Si5Pt3)2
_chemical_formula_sum   'Sr1 Pr1 Nd2 Si10 Pt6'
_cell_volume   360.32966558
_cell_formula_units_Z   1
loop_
 _symmetry_equiv_pos_site_id
 _symmetry_equiv_pos_as_xyz
  1  'x, y, z'
loop_
 _atom_site_type_symbol
 _atom_site_label
 _atom_site_symmetry_multiplicity
 _atom_site_fract_x
 _atom_site_fract_y
 _atom_site_fract_z
 _atom_site_occupancy
  Sr  Sr0  1  0.862805  0.628317  0.234488  1
  Pr  Pr1  1  0.605099  0.872010  0.733090  1
  Nd  Nd2  1  0.139329  0.371829  0.767501  1
  Nd  Nd3  1  0.395544  0.128062  0.267481  1
  Si  Si4  1  0.499054  0.748941  0.249343  1
  Si  Si5  1  0.499054  0.249710  0.750113  1
  Si  Si6  1  0.229764  0.980557  0.750370  1
  Si  Si7  1  0.771035  0.520998  0.749818  1
  Si  Si8  1  0.771035  0.021216  0.250037  1
  Si  Si9  1  0.229764  0.479392  0.249207  1
  Si  Si10  1  0.037376  0.888459  0.148917  1
  Si  Si11  1  0.962948  0.112512  0.850437  1
  Si  Si12  1  0.737267  0.386372  0.350895  1
  Si  Si13  1  0.260755  0.611601  0.649153  1
  Pt  Pt14  1  0.001175  0.749998  0.751157  1
  Pt  Pt15  1  0.001175  0.250017  0.251177  1
  Pt  Pt16  1  0.253064  0.864010  0.389055  1
  Pt  Pt17  1  0.745406  0.136402  0.609003  1
  Pt  Pt18  1  0.473682  0.363489  0.110193  1
  Pt  Pt19  1  0.524672  0.636105  0.888567  1
