# generated using pymatgen
data_YbMn5As3
_symmetry_space_group_name_H-M   'P 1'
_cell_length_a   3.73713000
_cell_length_b   11.28372000
_cell_length_c   12.67238500
_cell_angle_alpha   90.00000000
_cell_angle_beta   90.00000000
_cell_angle_gamma   90.00000000
_symmetry_Int_Tables_number   1
_chemical_formula_structural   YbMn5As3
_chemical_formula_sum   'Yb4 Mn20 As12'
_cell_volume   534.37836281
_cell_formula_units_Z   4
loop_
 _symmetry_equiv_pos_site_id
 _symmetry_equiv_pos_as_xyz
  1  'x, y, z'
loop_
 _atom_site_type_symbol
 _atom_site_label
 _atom_site_symmetry_multiplicity
 _atom_site_fract_x
 _atom_site_fract_y
 _atom_site_fract_z
 _atom_site_occupancy
  Yb  Yb0  1  0.250000  0.589442  0.706406  1
  Yb  Yb1  1  0.250000  0.910558  0.206406  1
  Yb  Yb2  1  0.750000  0.410558  0.293594  1
  Yb  Yb3  1  0.750000  0.089442  0.793594  1
  Mn  Mn4  1  0.250000  0.716665  0.979600  1
  Mn  Mn5  1  0.250000  0.783335  0.479600  1
  Mn  Mn6  1  0.750000  0.283335  0.020400  1
  Mn  Mn7  1  0.750000  0.216665  0.520400  1
  Mn  Mn8  1  0.250000  0.408567  0.495945  1
  Mn  Mn9  1  0.250000  0.091433  0.995945  1
  Mn  Mn10  1  0.750000  0.591433  0.504055  1
  Mn  Mn11  1  0.750000  0.908567  0.004055  1
  Mn  Mn12  1  0.250000  0.205712  0.181875  1
  Mn  Mn13  1  0.250000  0.294288  0.681875  1
  Mn  Mn14  1  0.750000  0.794288  0.818125  1
  Mn  Mn15  1  0.750000  0.705712  0.318125  1
  Mn  Mn16  1  0.250000  0.886424  0.688839  1
  Mn  Mn17  1  0.250000  0.613576  0.188839  1
  Mn  Mn18  1  0.750000  0.113576  0.311161  1
  Mn  Mn19  1  0.750000  0.386424  0.811161  1
  Mn  Mn20  1  0.250000  0.466945  0.936061  1
  Mn  Mn21  1  0.250000  0.033055  0.436061  1
  Mn  Mn22  1  0.750000  0.533055  0.063939  1
  Mn  Mn23  1  0.750000  0.966945  0.563939  1
  As  As24  1  0.250000  0.408604  0.118967  1
  As  As25  1  0.250000  0.091396  0.618967  1
  As  As26  1  0.750000  0.591396  0.881033  1
  As  As27  1  0.750000  0.908604  0.381033  1
  As  As28  1  0.250000  0.263942  0.874769  1
  As  As29  1  0.250000  0.236058  0.374769  1
  As  As30  1  0.750000  0.736058  0.125231  1
  As  As31  1  0.750000  0.763942  0.625231  1
  As  As32  1  0.250000  0.584158  0.379593  1
  As  As33  1  0.250000  0.915842  0.879593  1
  As  As34  1  0.750000  0.415842  0.620407  1
  As  As35  1  0.750000  0.084158  0.120407  1
