# generated using pymatgen
data_Li8Al3InPt4
_symmetry_space_group_name_H-M   'P 1'
_cell_length_a   6.13641301
_cell_length_b   6.13499400
_cell_length_c   6.13768504
_cell_angle_alpha   90.00419226
_cell_angle_beta   90.00551707
_cell_angle_gamma   89.99581678
_symmetry_Int_Tables_number   1
_chemical_formula_structural   Li8Al3InPt4
_chemical_formula_sum   'Li8 Al3 In1 Pt4'
_cell_volume   231.06454879
_cell_formula_units_Z   1
loop_
 _symmetry_equiv_pos_site_id
 _symmetry_equiv_pos_as_xyz
  1  'x, y, z'
loop_
 _atom_site_type_symbol
 _atom_site_label
 _atom_site_symmetry_multiplicity
 _atom_site_fract_x
 _atom_site_fract_y
 _atom_site_fract_z
 _atom_site_occupancy
  Li  Li0  1  0.241930  0.758026  0.241965  1
  Li  Li1  1  0.758021  0.241936  0.241971  1
  Li  Li2  1  0.241940  0.241927  0.758072  1
  Li  Li3  1  0.999903  0.999911  0.000045  1
  Li  Li4  1  0.000033  0.500012  0.500010  1
  Li  Li5  1  0.758037  0.758023  0.758055  1
  Li  Li6  1  0.500012  0.000035  0.500010  1
  Li  Li7  1  0.500011  0.500012  0.999952  1
  Al  Al8  1  0.999924  0.999917  0.499881  1
  Al  Al9  1  0.999927  0.500077  0.000105  1
  Al  Al10  1  0.500113  0.999914  0.000108  1
  In  In11  1  0.500101  0.500122  0.499878  1
  Pt  Pt12  1  0.238835  0.238831  0.238831  1
  Pt  Pt13  1  0.761162  0.238844  0.761163  1
  Pt  Pt14  1  0.761235  0.761234  0.238766  1
  Pt  Pt15  1  0.238816  0.761179  0.761186  1
