# generated using pymatgen
data_TbHo5Cd23P
_symmetry_space_group_name_H-M   'P 1'
_cell_length_a   9.99769868
_cell_length_b   9.99769749
_cell_length_c   9.99117900
_cell_angle_alpha   60.02156230
_cell_angle_beta   60.02156624
_cell_angle_gamma   59.95687340
_symmetry_Int_Tables_number   1
_chemical_formula_structural   TbHo5Cd23P
_chemical_formula_sum   'Tb1 Ho5 Cd23 P1'
_cell_volume   706.15723741
_cell_formula_units_Z   1
loop_
 _symmetry_equiv_pos_site_id
 _symmetry_equiv_pos_as_xyz
  1  'x, y, z'
loop_
 _atom_site_type_symbol
 _atom_site_label
 _atom_site_symmetry_multiplicity
 _atom_site_fract_x
 _atom_site_fract_y
 _atom_site_fract_z
 _atom_site_occupancy
  Tb  Tb0  1  0.803276  0.803276  0.196724  1
  Ho  Ho1  1  0.196051  0.804217  0.195783  1
  Ho  Ho2  1  0.804217  0.196051  0.195783  1
  Ho  Ho3  1  0.196023  0.196023  0.803977  1
  Ho  Ho4  1  0.804217  0.196051  0.803949  1
  Ho  Ho5  1  0.196051  0.804217  0.803949  1
  Cd  Cd6  1  0.836677  0.836677  0.490825  1
  Cd  Cd7  1  0.836138  0.490693  0.836585  1
  Cd  Cd8  1  0.490693  0.836138  0.836585  1
  Cd  Cd9  1  0.836677  0.836677  0.835820  1
  Cd  Cd10  1  0.163415  0.163415  0.509307  1
  Cd  Cd11  1  0.164180  0.509175  0.163323  1
  Cd  Cd12  1  0.509175  0.164180  0.163323  1
  Cd  Cd13  1  0.163415  0.163415  0.163862  1
  Cd  Cd14  1  0.621272  0.621272  0.136157  1
  Cd  Cd15  1  0.621044  0.136067  0.621445  1
  Cd  Cd16  1  0.136067  0.621044  0.621445  1
  Cd  Cd17  1  0.621272  0.621272  0.621299  1
  Cd  Cd18  1  0.378555  0.378555  0.863933  1
  Cd  Cd19  1  0.378701  0.863843  0.378728  1
  Cd  Cd20  1  0.863843  0.378701  0.378728  1
  Cd  Cd21  1  0.378555  0.378555  0.378956  1
  Cd  Cd22  1  0.000168  0.000168  0.499832  1
  Cd  Cd23  1  0.499765  0.000138  0.500235  1
  Cd  Cd24  1  0.000138  0.499765  0.500235  1
  Cd  Cd25  1  0.500168  0.500168  0.999832  1
  Cd  Cd26  1  0.000138  0.499765  0.999862  1
  Cd  Cd27  1  0.499765  0.000138  0.999862  1
  Cd  Cd28  1  0.499726  0.499726  0.500274  1
  P  P29  1  0.000621  0.000621  0.999379  1
