# generated using pymatgen
data_Cs2CuSe16
_symmetry_space_group_name_H-M   'P 1'
_cell_length_a   13.04657300
_cell_length_b   13.04657300
_cell_length_c   7.24615900
_cell_angle_alpha   90.00000000
_cell_angle_beta   90.00000000
_cell_angle_gamma   90.00000000
_symmetry_Int_Tables_number   1
_chemical_formula_structural   Cs2CuSe16
_chemical_formula_sum   'Cs4 Cu2 Se32'
_cell_volume   1233.39094768
_cell_formula_units_Z   2
loop_
 _symmetry_equiv_pos_site_id
 _symmetry_equiv_pos_as_xyz
  1  'x, y, z'
loop_
 _atom_site_type_symbol
 _atom_site_label
 _atom_site_symmetry_multiplicity
 _atom_site_fract_x
 _atom_site_fract_y
 _atom_site_fract_z
 _atom_site_occupancy
  Cs  Cs0  1  0.500000  0.000000  0.000000  1
  Cs  Cs1  1  0.000000  0.500000  0.000000  1
  Cs  Cs2  1  0.500000  0.500000  0.500000  1
  Cs  Cs3  1  0.000000  0.000000  0.500000  1
  Cu  Cu4  1  0.000000  0.000000  0.000000  1
  Cu  Cu5  1  0.500000  0.500000  0.000000  1
  Se  Se6  1  0.190391  0.422839  0.583554  1
  Se  Se7  1  0.809609  0.577161  0.583554  1
  Se  Se8  1  0.577161  0.190391  0.416446  1
  Se  Se9  1  0.422839  0.809609  0.416446  1
  Se  Se10  1  0.309609  0.922839  0.583554  1
  Se  Se11  1  0.077161  0.309609  0.416446  1
  Se  Se12  1  0.820908  0.964329  0.962839  1
  Se  Se13  1  0.035671  0.820908  0.037161  1
  Se  Se14  1  0.964329  0.179092  0.037161  1
  Se  Se15  1  0.179092  0.035671  0.962839  1
  Se  Se16  1  0.535671  0.679092  0.037161  1
  Se  Se17  1  0.464329  0.320908  0.037161  1
  Se  Se18  1  0.679092  0.464329  0.962839  1
  Se  Se19  1  0.320908  0.535671  0.962839  1
  Se  Se20  1  0.789505  0.205182  0.124836  1
  Se  Se21  1  0.794818  0.789505  0.875164  1
  Se  Se22  1  0.205182  0.210495  0.875164  1
  Se  Se23  1  0.210495  0.794818  0.124836  1
  Se  Se24  1  0.294818  0.710495  0.875164  1
  Se  Se25  1  0.705182  0.289505  0.875164  1
  Se  Se26  1  0.710495  0.705182  0.124836  1
  Se  Se27  1  0.289505  0.294818  0.124836  1
  Se  Se28  1  0.919210  0.308541  0.585961  1
  Se  Se29  1  0.691459  0.919210  0.414039  1
  Se  Se30  1  0.308541  0.080790  0.414039  1
  Se  Se31  1  0.080790  0.691459  0.585961  1
  Se  Se32  1  0.191459  0.580790  0.414039  1
  Se  Se33  1  0.808541  0.419210  0.414039  1
  Se  Se34  1  0.580790  0.808541  0.585961  1
  Se  Se35  1  0.419210  0.191459  0.585961  1
  Se  Se36  1  0.690391  0.077161  0.583554  1
  Se  Se37  1  0.922839  0.690391  0.416446  1
