# generated using pymatgen
data_Ho3Tm3Co4(P6Ir7)2
_symmetry_space_group_name_H-M   'P 1'
_cell_length_a   3.87340500
_cell_length_b   11.01217010
_cell_length_c   12.69741811
_cell_angle_alpha   90.01520734
_cell_angle_beta   90.00000000
_cell_angle_gamma   90.00000000
_symmetry_Int_Tables_number   1
_chemical_formula_structural   Ho3Tm3Co4(P6Ir7)2
_chemical_formula_sum   'Ho3 Tm3 Co4 P12 Ir14'
_cell_volume   541.60320440
_cell_formula_units_Z   1
loop_
 _symmetry_equiv_pos_site_id
 _symmetry_equiv_pos_as_xyz
  1  'x, y, z'
loop_
 _atom_site_type_symbol
 _atom_site_label
 _atom_site_symmetry_multiplicity
 _atom_site_fract_x
 _atom_site_fract_y
 _atom_site_fract_z
 _atom_site_occupancy
  Ho  Ho0  1  0.000000  0.500189  0.523112  1
  Ho  Ho1  1  0.500000  0.000149  0.477032  1
  Ho  Ho2  1  0.000000  0.314865  0.801171  1
  Tm  Tm3  1  0.500000  0.821287  0.199172  1
  Tm  Tm4  1  0.500000  0.178474  0.198985  1
  Tm  Tm5  1  0.000000  0.684822  0.801311  1
  Co  Co6  1  0.000000  0.500277  0.987496  1
  Co  Co7  1  0.500000  0.999713  0.016644  1
  Co  Co8  1  0.000000  0.158714  0.003690  1
  Co  Co9  1  0.000000  0.840920  0.003611  1
  P  P10  1  0.500000  0.316579  0.620247  1
  P  P11  1  0.500000  0.683769  0.620797  1
  P  P12  1  0.000000  0.183237  0.378760  1
  P  P13  1  0.000000  0.816928  0.379154  1
  P  P14  1  0.500000  0.500365  0.883861  1
  P  P15  1  0.000000  0.999822  0.111612  1
  P  P16  1  0.500000  0.851010  0.900223  1
  P  P17  1  0.500000  0.148358  0.900135  1
  P  P18  1  0.000000  0.661542  0.102074  1
  P  P19  1  0.000000  0.338174  0.101801  1
  P  P20  1  0.500000  0.500175  0.354648  1
  P  P21  1  0.000000  0.000417  0.645326  1
  Ir  Ir22  1  0.500000  0.295066  0.428482  1
  Ir  Ir23  1  0.500000  0.705389  0.428912  1
  Ir  Ir24  1  0.000000  0.204088  0.569835  1
  Ir  Ir25  1  0.000000  0.796689  0.570397  1
  Ir  Ir26  1  0.500000  0.869814  0.717325  1
  Ir  Ir27  1  0.500000  0.128485  0.716187  1
  Ir  Ir28  1  0.000000  0.630676  0.282776  1
  Ir  Ir29  1  0.000000  0.369406  0.282272  1
  Ir  Ir30  1  0.500000  0.332409  0.996251  1
  Ir  Ir31  1  0.500000  0.667803  0.995898  1
  Ir  Ir32  1  0.500000  0.500359  0.171227  1
  Ir  Ir33  1  0.000000  0.999680  0.830901  1
  Ir  Ir34  1  0.500000  0.500407  0.705555  1
  Ir  Ir35  1  0.000000  0.999945  0.293124  1
