# generated using pymatgen
data_NpTeO5
_symmetry_space_group_name_H-M   'P 1'
_cell_length_a   10.45488200
_cell_length_b   5.53532500
_cell_length_c   7.79017800
_cell_angle_alpha   90.00000000
_cell_angle_beta   90.00000000
_cell_angle_gamma   90.00000000
_symmetry_Int_Tables_number   1
_chemical_formula_structural   NpTeO5
_chemical_formula_sum   'Np4 Te4 O20'
_cell_volume   450.82671308
_cell_formula_units_Z   4
loop_
 _symmetry_equiv_pos_site_id
 _symmetry_equiv_pos_as_xyz
  1  'x, y, z'
loop_
 _atom_site_type_symbol
 _atom_site_label
 _atom_site_symmetry_multiplicity
 _atom_site_fract_x
 _atom_site_fract_y
 _atom_site_fract_z
 _atom_site_occupancy
  Np  Np0  1  0.513281  0.970263  0.007606  1
  Np  Np1  1  0.486719  0.029737  0.507606  1
  Np  Np2  1  0.986719  0.970263  0.507606  1
  Np  Np3  1  0.013281  0.029737  0.007606  1
  Te  Te4  1  0.750005  0.643095  0.255491  1
  Te  Te5  1  0.249995  0.356905  0.755491  1
  Te  Te6  1  0.749995  0.643095  0.755491  1
  Te  Te7  1  0.250005  0.356905  0.255491  1
  O  O8  1  0.707933  0.733093  0.005329  1
  O  O9  1  0.292067  0.266907  0.505329  1
  O  O10  1  0.792067  0.733093  0.505329  1
  O  O11  1  0.207933  0.266907  0.005329  1
  O  O12  1  0.602504  0.850864  0.283462  1
  O  O13  1  0.397496  0.149136  0.783462  1
  O  O14  1  0.897496  0.850864  0.783462  1
  O  O15  1  0.102504  0.149136  0.283462  1
  O  O16  1  0.893370  0.860749  0.227929  1
  O  O17  1  0.106630  0.139251  0.727929  1
  O  O18  1  0.606630  0.860749  0.727929  1
  O  O19  1  0.393370  0.139251  0.227929  1
  O  O20  1  0.111628  0.765385  0.012445  1
  O  O21  1  0.888372  0.234615  0.512445  1
  O  O22  1  0.388372  0.765385  0.512445  1
  O  O23  1  0.611628  0.234615  0.012445  1
  O  O24  1  0.083719  0.700862  0.503739  1
  O  O25  1  0.916281  0.299138  0.003739  1
  O  O26  1  0.416281  0.700862  0.003739  1
  O  O27  1  0.583719  0.299138  0.503739  1
