# generated using pymatgen
data_Tb4HoEr(Si2Ni)2
_symmetry_space_group_name_H-M   'P 1'
_cell_length_a   4.12170800
_cell_length_b   11.23232600
_cell_length_c   11.30026600
_cell_angle_alpha   90.00000000
_cell_angle_beta   90.00000000
_cell_angle_gamma   90.00000000
_symmetry_Int_Tables_number   1
_chemical_formula_structural   Tb4HoEr(Si2Ni)2
_chemical_formula_sum   'Tb8 Ho2 Er2 Si8 Ni4'
_cell_volume   523.16127247
_cell_formula_units_Z   2
loop_
 _symmetry_equiv_pos_site_id
 _symmetry_equiv_pos_as_xyz
  1  'x, y, z'
loop_
 _atom_site_type_symbol
 _atom_site_label
 _atom_site_symmetry_multiplicity
 _atom_site_fract_x
 _atom_site_fract_y
 _atom_site_fract_z
 _atom_site_occupancy
  Tb  Tb0  1  0.250000  0.125730  0.557277  1
  Tb  Tb1  1  0.250000  0.374270  0.057277  1
  Tb  Tb2  1  0.750000  0.873846  0.442904  1
  Tb  Tb3  1  0.750000  0.626154  0.942904  1
  Tb  Tb4  1  0.250000  0.803394  0.716165  1
  Tb  Tb5  1  0.250000  0.696606  0.216165  1
  Tb  Tb6  1  0.750000  0.195489  0.284392  1
  Tb  Tb7  1  0.750000  0.304511  0.784392  1
  Ho  Ho8  1  0.250000  0.059153  0.882455  1
  Ho  Ho9  1  0.250000  0.440847  0.382455  1
  Er  Er10  1  0.750000  0.941381  0.117024  1
  Er  Er11  1  0.750000  0.558619  0.617024  1
  Si  Si12  1  0.250000  0.815307  0.976866  1
  Si  Si13  1  0.250000  0.684693  0.476866  1
  Si  Si14  1  0.750000  0.184989  0.023778  1
  Si  Si15  1  0.750000  0.315011  0.523778  1
  Si  Si16  1  0.250000  0.498069  0.801442  1
  Si  Si17  1  0.250000  0.001931  0.301442  1
  Si  Si18  1  0.750000  0.503121  0.197841  1
  Si  Si19  1  0.750000  0.996879  0.697841  1
  Ni  Ni20  1  0.250000  0.369065  0.627033  1
  Ni  Ni21  1  0.250000  0.130935  0.127033  1
  Ni  Ni22  1  0.750000  0.631065  0.372823  1
  Ni  Ni23  1  0.750000  0.868935  0.872823  1
