# generated using pymatgen
data_TbTmTcB6
_symmetry_space_group_name_H-M   'P 1'
_cell_length_a   3.66476100
_cell_length_b   9.12498600
_cell_length_c   11.51895000
_cell_angle_alpha   90.00000000
_cell_angle_beta   90.00000000
_cell_angle_gamma   90.00000000
_symmetry_Int_Tables_number   1
_chemical_formula_structural   TbTmTcB6
_chemical_formula_sum   'Tb4 Tm4 Tc4 B24'
_cell_volume   385.20397233
_cell_formula_units_Z   4
loop_
 _symmetry_equiv_pos_site_id
 _symmetry_equiv_pos_as_xyz
  1  'x, y, z'
loop_
 _atom_site_type_symbol
 _atom_site_label
 _atom_site_symmetry_multiplicity
 _atom_site_fract_x
 _atom_site_fract_y
 _atom_site_fract_z
 _atom_site_occupancy
  Tb  Tb0  1  0.000000  0.323698  0.414323  1
  Tb  Tb1  1  0.000000  0.676302  0.585677  1
  Tb  Tb2  1  0.000000  0.823698  0.085677  1
  Tb  Tb3  1  0.000000  0.176302  0.914323  1
  Tm  Tm4  1  0.000000  0.943165  0.369679  1
  Tm  Tm5  1  0.000000  0.056835  0.630321  1
  Tm  Tm6  1  0.000000  0.443165  0.130321  1
  Tm  Tm7  1  0.000000  0.556835  0.869679  1
  Tc  Tc8  1  0.000000  0.639385  0.319881  1
  Tc  Tc9  1  0.000000  0.360615  0.680119  1
  Tc  Tc10  1  0.000000  0.139385  0.180119  1
  Tc  Tc11  1  0.000000  0.860615  0.819881  1
  B  B12  1  0.500000  0.553734  0.432341  1
  B  B13  1  0.500000  0.446266  0.567659  1
  B  B14  1  0.500000  0.053734  0.067659  1
  B  B15  1  0.500000  0.946266  0.932341  1
  B  B16  1  0.500000  0.749942  0.418093  1
  B  B17  1  0.500000  0.250058  0.581907  1
  B  B18  1  0.500000  0.249942  0.081907  1
  B  B19  1  0.500000  0.750058  0.918093  1
  B  B20  1  0.500000  0.792722  0.265537  1
  B  B21  1  0.500000  0.207278  0.734463  1
  B  B22  1  0.500000  0.292722  0.234463  1
  B  B23  1  0.500000  0.707278  0.765537  1
  B  B24  1  0.500000  0.630482  0.185288  1
  B  B25  1  0.500000  0.369518  0.814712  1
  B  B26  1  0.500000  0.130482  0.314712  1
  B  B27  1  0.500000  0.869518  0.685288  1
  B  B28  1  0.500000  0.982255  0.212462  1
  B  B29  1  0.500000  0.017745  0.787538  1
  B  B30  1  0.500000  0.482255  0.287538  1
  B  B31  1  0.500000  0.517745  0.712462  1
  B  B32  1  0.500000  0.598331  0.027344  1
  B  B33  1  0.500000  0.401669  0.972656  1
  B  B34  1  0.500000  0.098331  0.472656  1
  B  B35  1  0.500000  0.901669  0.527344  1
