# generated using pymatgen
data_Pr7Ho(Si3Rh)4
_symmetry_space_group_name_H-M   'P 1'
_cell_length_a   8.28988316
_cell_length_b   8.29271314
_cell_length_c   8.37216000
_cell_angle_alpha   90.00000000
_cell_angle_beta   90.00000000
_cell_angle_gamma   120.01129686
_symmetry_Int_Tables_number   1
_chemical_formula_structural   Pr7Ho(Si3Rh)4
_chemical_formula_sum   'Pr7 Ho1 Si12 Rh4'
_cell_volume   498.38361340
_cell_formula_units_Z   1
loop_
 _symmetry_equiv_pos_site_id
 _symmetry_equiv_pos_as_xyz
  1  'x, y, z'
loop_
 _atom_site_type_symbol
 _atom_site_label
 _atom_site_symmetry_multiplicity
 _atom_site_fract_x
 _atom_site_fract_y
 _atom_site_fract_z
 _atom_site_occupancy
  Pr  Pr0  1  0.000824  0.000412  0.250000  1
  Pr  Pr1  1  0.999787  0.999894  0.750000  1
  Pr  Pr2  1  0.504752  0.495889  0.250000  1
  Pr  Pr3  1  0.504752  0.008864  0.250000  1
  Pr  Pr4  1  0.993541  0.496770  0.250000  1
  Pr  Pr5  1  0.493891  0.506584  0.750000  1
  Pr  Pr6  1  0.493891  0.987307  0.750000  1
  Ho  Ho7  1  0.007704  0.503852  0.750000  1
  Si  Si8  1  0.165300  0.832483  0.506339  1
  Si  Si9  1  0.165300  0.332816  0.506339  1
  Si  Si10  1  0.667688  0.833844  0.501106  1
  Si  Si11  1  0.833793  0.167972  0.500174  1
  Si  Si12  1  0.833793  0.665822  0.500174  1
  Si  Si13  1  0.334483  0.167242  0.498461  1
  Si  Si14  1  0.833793  0.167972  0.999826  1
  Si  Si15  1  0.833793  0.665822  0.999826  1
  Si  Si16  1  0.334483  0.167242  0.001539  1
  Si  Si17  1  0.165300  0.832483  0.993661  1
  Si  Si18  1  0.165300  0.332816  0.993661  1
  Si  Si19  1  0.667688  0.833844  0.998894  1
  Rh  Rh20  1  0.330591  0.665296  0.485919  1
  Rh  Rh21  1  0.669481  0.334740  0.530369  1
  Rh  Rh22  1  0.669481  0.334740  0.969631  1
  Rh  Rh23  1  0.330591  0.665296  0.014081  1
