# generated using pymatgen
data_NdAl10IrRu
_symmetry_space_group_name_H-M   'P 1'
_cell_length_a   6.87619138
_cell_length_b   6.87619102
_cell_length_c   9.20695807
_cell_angle_alpha   90.08214284
_cell_angle_beta   89.91785470
_cell_angle_gamma   97.07130694
_symmetry_Int_Tables_number   1
_chemical_formula_structural   NdAl10IrRu
_chemical_formula_sum   'Nd2 Al20 Ir2 Ru2'
_cell_volume   432.01145504
_cell_formula_units_Z   2
loop_
 _symmetry_equiv_pos_site_id
 _symmetry_equiv_pos_as_xyz
  1  'x, y, z'
loop_
 _atom_site_type_symbol
 _atom_site_label
 _atom_site_symmetry_multiplicity
 _atom_site_fract_x
 _atom_site_fract_y
 _atom_site_fract_z
 _atom_site_occupancy
  Nd  Nd0  1  0.873397  0.126603  0.750436  1
  Nd  Nd1  1  0.126603  0.873397  0.249564  1
  Al  Al2  1  0.589763  0.857425  0.251778  1
  Al  Al3  1  0.776616  0.517761  0.252298  1
  Al  Al4  1  0.159825  0.840175  0.895227  1
  Al  Al5  1  0.410237  0.142575  0.748222  1
  Al  Al6  1  0.620924  0.379076  0.948289  1
  Al  Al7  1  0.840747  0.159253  0.398243  1
  Al  Al8  1  0.777110  0.777110  0.000000  1
  Al  Al9  1  0.857425  0.589763  0.748222  1
  Al  Al10  1  0.840175  0.159825  0.104773  1
  Al  Al11  1  0.223384  0.482239  0.747702  1
  Al  Al12  1  0.159253  0.840747  0.601757  1
  Al  Al13  1  0.777022  0.777022  0.500000  1
  Al  Al14  1  0.482239  0.223384  0.252298  1
  Al  Al15  1  0.622571  0.377429  0.549319  1
  Al  Al16  1  0.222978  0.222978  0.500000  1
  Al  Al17  1  0.377429  0.622571  0.450681  1
  Al  Al18  1  0.142575  0.410237  0.251778  1
  Al  Al19  1  0.517761  0.776616  0.747702  1
  Al  Al20  1  0.379076  0.620924  0.051711  1
  Al  Al21  1  0.222890  0.222890  0.000000  1
  Ir  Ir22  1  0.500000  0.000000  0.000000  1
  Ir  Ir23  1  0.000000  0.500000  0.000000  1
  Ru  Ru24  1  0.500000  0.000000  0.500000  1
  Ru  Ru25  1  0.000000  0.500000  0.500000  1
