# generated using pymatgen
data_Ho3Tm13(InPt)4
_symmetry_space_group_name_H-M   'P 1'
_cell_length_a   9.61028348
_cell_length_b   9.60588523
_cell_length_c   9.62210416
_cell_angle_alpha   59.97439577
_cell_angle_beta   59.92905361
_cell_angle_gamma   59.86541963
_symmetry_Int_Tables_number   1
_chemical_formula_structural   Ho3Tm13(InPt)4
_chemical_formula_sum   'Ho3 Tm13 In4 Pt4'
_cell_volume   627.00096501
_cell_formula_units_Z   1
loop_
 _symmetry_equiv_pos_site_id
 _symmetry_equiv_pos_as_xyz
  1  'x, y, z'
loop_
 _atom_site_type_symbol
 _atom_site_label
 _atom_site_symmetry_multiplicity
 _atom_site_fract_x
 _atom_site_fract_y
 _atom_site_fract_z
 _atom_site_occupancy
  Ho  Ho0  1  0.061583  0.061583  0.438417  1
  Ho  Ho1  1  0.437506  0.063301  0.436891  1
  Ho  Ho2  1  0.063301  0.437506  0.062302  1
  Tm  Tm3  1  0.053287  0.649473  0.648677  1
  Tm  Tm4  1  0.437303  0.437303  0.062697  1
  Tm  Tm5  1  0.649473  0.053287  0.648564  1
  Tm  Tm6  1  0.189278  0.809422  0.190223  1
  Tm  Tm7  1  0.190116  0.190116  0.809884  1
  Tm  Tm8  1  0.810726  0.810726  0.189274  1
  Tm  Tm9  1  0.438838  0.061878  0.061096  1
  Tm  Tm10  1  0.809495  0.189194  0.190221  1
  Tm  Tm11  1  0.061878  0.438838  0.438188  1
  Tm  Tm12  1  0.809422  0.189278  0.811079  1
  Tm  Tm13  1  0.189194  0.809495  0.811091  1
  Tm  Tm14  1  0.649739  0.649535  0.051779  1
  Tm  Tm15  1  0.649535  0.649739  0.648949  1
  In  In16  1  0.416335  0.416733  0.416349  1
  In  In17  1  0.748359  0.417449  0.417389  1
  In  In18  1  0.417449  0.748359  0.416802  1
  In  In19  1  0.416733  0.416335  0.750582  1
  Pt  Pt20  1  0.857872  0.857052  0.428288  1
  Pt  Pt21  1  0.857052  0.857872  0.856789  1
  Pt  Pt22  1  0.427727  0.857801  0.857588  1
  Pt  Pt23  1  0.857801  0.427727  0.856884  1
