# generated using pymatgen
data_RbPr5NdIrBr12
_symmetry_space_group_name_H-M   'P 1'
_cell_length_a   9.74533265
_cell_length_b   9.55386560
_cell_length_c   9.61264941
_cell_angle_alpha   104.52827115
_cell_angle_beta   104.80948291
_cell_angle_gamma   104.27514854
_symmetry_Int_Tables_number   1
_chemical_formula_structural   RbPr5NdIrBr12
_chemical_formula_sum   'Rb1 Pr5 Nd1 Ir1 Br12'
_cell_volume   790.08714090
_cell_formula_units_Z   1
loop_
 _symmetry_equiv_pos_site_id
 _symmetry_equiv_pos_as_xyz
  1  'x, y, z'
loop_
 _atom_site_type_symbol
 _atom_site_label
 _atom_site_symmetry_multiplicity
 _atom_site_fract_x
 _atom_site_fract_y
 _atom_site_fract_z
 _atom_site_occupancy
  Rb  Rb0  1  0.499953  0.500073  0.499833  1
  Pr  Pr1  1  0.315081  0.009232  0.105440  1
  Pr  Pr2  1  0.010063  0.101378  0.304093  1
  Pr  Pr3  1  0.990210  0.899457  0.696307  1
  Pr  Pr4  1  0.684859  0.990409  0.894521  1
  Pr  Pr5  1  0.899827  0.694430  0.989840  1
  Nd  Nd6  1  0.099752  0.303508  0.010346  1
  Ir  Ir7  1  0.000051  0.999999  0.000282  1
  Br  Br8  1  0.213576  0.671446  0.074904  1
  Br  Br9  1  0.421423  0.334621  0.113170  1
  Br  Br10  1  0.674844  0.076508  0.216015  1
  Br  Br11  1  0.925484  0.784247  0.327156  1
  Br  Br12  1  0.116187  0.428666  0.332941  1
  Br  Br13  1  0.331745  0.113804  0.426914  1
  Br  Br14  1  0.668258  0.886327  0.573175  1
  Br  Br15  1  0.883901  0.571468  0.664395  1
  Br  Br16  1  0.075019  0.217519  0.675702  1
  Br  Br17  1  0.325185  0.923851  0.784080  1
  Br  Br18  1  0.575969  0.665517  0.885723  1
  Br  Br19  1  0.788616  0.327539  0.925168  1
