# generated using pymatgen
data_Pm4ZnIr3
_symmetry_space_group_name_H-M   'P 1'
_cell_length_a   7.50766542
_cell_length_b   5.78161214
_cell_length_c   4.36755400
_cell_angle_alpha   90.00000000
_cell_angle_beta   90.00000000
_cell_angle_gamma   91.02560469
_symmetry_Int_Tables_number   1
_chemical_formula_structural   Pm4ZnIr3
_chemical_formula_sum   'Pm4 Zn1 Ir3'
_cell_volume   189.54946620
_cell_formula_units_Z   1
loop_
 _symmetry_equiv_pos_site_id
 _symmetry_equiv_pos_as_xyz
  1  'x, y, z'
loop_
 _atom_site_type_symbol
 _atom_site_label
 _atom_site_symmetry_multiplicity
 _atom_site_fract_x
 _atom_site_fract_y
 _atom_site_fract_z
 _atom_site_occupancy
  Pm  Pm0  1  0.110655  0.501293  0.000000  1
  Pm  Pm1  1  0.577610  0.744672  0.000000  1
  Pm  Pm2  1  0.245433  0.013791  0.499999  1
  Pm  Pm3  1  0.729265  0.240491  0.499999  1
  Zn  Zn4  1  0.882719  0.755834  0.499999  1
  Ir  Ir5  1  0.470484  0.223746  0.000000  1
  Ir  Ir6  1  0.948549  0.990323  0.000000  1
  Ir  Ir7  1  0.368617  0.529853  0.499999  1
