# generated using pymatgen
data_NdU5(Co3P2)6
_symmetry_space_group_name_H-M   'P 1'
_cell_length_a   10.44949000
_cell_length_b   3.74409100
_cell_length_c   12.34863300
_cell_angle_alpha   90.00000000
_cell_angle_beta   90.00000000
_cell_angle_gamma   90.00000000
_symmetry_Int_Tables_number   1
_chemical_formula_structural   NdU5(Co3P2)6
_chemical_formula_sum   'Nd1 U5 Co18 P12'
_cell_volume   483.12595978
_cell_formula_units_Z   1
loop_
 _symmetry_equiv_pos_site_id
 _symmetry_equiv_pos_as_xyz
  1  'x, y, z'
loop_
 _atom_site_type_symbol
 _atom_site_label
 _atom_site_symmetry_multiplicity
 _atom_site_fract_x
 _atom_site_fract_y
 _atom_site_fract_z
 _atom_site_occupancy
  Nd  Nd0  1  0.750000  0.249999  0.520862  1
  U  U1  1  0.069644  0.749999  0.207361  1
  U  U2  1  0.430355  0.749999  0.207361  1
  U  U3  1  0.250000  0.749999  0.475589  1
  U  U4  1  0.570128  0.249999  0.793000  1
  U  U5  1  0.929872  0.249999  0.793000  1
  Co  Co6  1  0.083393  0.249999  0.002512  1
  Co  Co7  1  0.416608  0.249999  0.002512  1
  Co  Co8  1  0.250000  0.749999  0.014253  1
  Co  Co9  1  0.750000  0.749999  0.159036  1
  Co  Co10  1  0.627253  0.249999  0.286122  1
  Co  Co11  1  0.872747  0.249999  0.286122  1
  Co  Co12  1  0.250000  0.249999  0.298812  1
  Co  Co13  1  0.546592  0.749999  0.428071  1
  Co  Co14  1  0.953408  0.749999  0.428071  1
  Co  Co15  1  0.053465  0.249999  0.570884  1
  Co  Co16  1  0.446535  0.249999  0.570884  1
  Co  Co17  1  0.750000  0.749999  0.711778  1
  Co  Co18  1  0.128994  0.749999  0.711065  1
  Co  Co19  1  0.371006  0.749999  0.711065  1
  Co  Co20  1  0.250000  0.249999  0.837810  1
  Co  Co21  1  0.750000  0.249999  0.987268  1
  Co  Co22  1  0.581812  0.749999  0.997417  1
  Co  Co23  1  0.918187  0.749999  0.997417  1
  P  P24  1  0.594532  0.249999  0.106448  1
  P  P25  1  0.905467  0.249999  0.106448  1
  P  P26  1  0.250000  0.249999  0.115573  1
  P  P27  1  0.750000  0.749999  0.340025  1
  P  P28  1  0.058247  0.249999  0.387115  1
  P  P29  1  0.441753  0.249999  0.387115  1
  P  P30  1  0.558064  0.749999  0.614086  1
  P  P31  1  0.941936  0.749999  0.614086  1
  P  P32  1  0.250000  0.249999  0.655392  1
  P  P33  1  0.750000  0.749999  0.889093  1
  P  P34  1  0.096479  0.749999  0.893174  1
  P  P35  1  0.403522  0.749999  0.893174  1
