# generated using pymatgen
data_SrY(Al5Ru)4
_symmetry_space_group_name_H-M   'P 1'
_cell_length_a   6.89474034
_cell_length_b   6.89473986
_cell_length_c   9.19012200
_cell_angle_alpha   90.00000000
_cell_angle_beta   90.00000000
_cell_angle_gamma   96.80280918
_symmetry_Int_Tables_number   1
_chemical_formula_structural   SrY(Al5Ru)4
_chemical_formula_sum   'Sr1 Y1 Al20 Ru4'
_cell_volume   433.79915330
_cell_formula_units_Z   1
loop_
 _symmetry_equiv_pos_site_id
 _symmetry_equiv_pos_as_xyz
  1  'x, y, z'
loop_
 _atom_site_type_symbol
 _atom_site_label
 _atom_site_symmetry_multiplicity
 _atom_site_fract_x
 _atom_site_fract_y
 _atom_site_fract_z
 _atom_site_occupancy
  Sr  Sr0  1  0.877681  0.122319  0.750000  1
  Y  Y1  1  0.124852  0.875148  0.250000  1
  Al  Al2  1  0.622741  0.377259  0.543051  1
  Al  Al3  1  0.377011  0.622989  0.447290  1
  Al  Al4  1  0.377011  0.622989  0.052710  1
  Al  Al5  1  0.622741  0.377259  0.956949  1
  Al  Al6  1  0.226352  0.227275  0.497270  1
  Al  Al7  1  0.772725  0.773648  0.497270  1
  Al  Al8  1  0.772725  0.773648  0.002730  1
  Al  Al9  1  0.226352  0.227275  0.002730  1
  Al  Al10  1  0.844236  0.155764  0.100923  1
  Al  Al11  1  0.162309  0.837691  0.900713  1
  Al  Al12  1  0.162309  0.837691  0.599287  1
  Al  Al13  1  0.844236  0.155764  0.399077  1
  Al  Al14  1  0.859870  0.591490  0.750000  1
  Al  Al15  1  0.139207  0.415220  0.250000  1
  Al  Al16  1  0.408510  0.140130  0.750000  1
  Al  Al17  1  0.584780  0.860793  0.250000  1
  Al  Al18  1  0.221328  0.479095  0.750000  1
  Al  Al19  1  0.779744  0.521191  0.250000  1
  Al  Al20  1  0.520905  0.778672  0.750000  1
  Al  Al21  1  0.478809  0.220256  0.250000  1
  Ru  Ru22  1  0.999737  0.502954  0.497858  1
  Ru  Ru23  1  0.999737  0.502954  0.002142  1
  Ru  Ru24  1  0.497046  0.000263  0.002142  1
  Ru  Ru25  1  0.497046  0.000263  0.497858  1
