# generated using pymatgen
data_Ho2Lu2Tc3Os5
_symmetry_space_group_name_H-M   'P 1'
_cell_length_a   5.28541287
_cell_length_b   5.28635061
_cell_length_c   8.89267301
_cell_angle_alpha   90.00000014
_cell_angle_beta   89.99433270
_cell_angle_gamma   120.00585432
_symmetry_Int_Tables_number   1
_chemical_formula_structural   Ho2Lu2Tc3Os5
_chemical_formula_sum   'Ho2 Lu2 Tc3 Os5'
_cell_volume   215.16528898
_cell_formula_units_Z   1
loop_
 _symmetry_equiv_pos_site_id
 _symmetry_equiv_pos_as_xyz
  1  'x, y, z'
loop_
 _atom_site_type_symbol
 _atom_site_label
 _atom_site_symmetry_multiplicity
 _atom_site_fract_x
 _atom_site_fract_y
 _atom_site_fract_z
 _atom_site_occupancy
  Ho  Ho0  1  0.335672  0.667837  0.435086  1
  Ho  Ho1  1  0.668571  0.334285  0.563738  1
  Lu  Lu2  1  0.668477  0.334238  0.936547  1
  Lu  Lu3  1  0.335565  0.667783  0.064553  1
  Tc  Tc4  1  0.168292  0.340131  0.751312  1
  Tc  Tc5  1  0.168292  0.828162  0.751312  1
  Tc  Tc6  1  0.335295  0.167647  0.248701  1
  Os  Os7  1  0.822920  0.651336  0.248637  1
  Os  Os8  1  0.649997  0.824999  0.751448  1
  Os  Os9  1  0.012070  0.006035  0.000393  1
  Os  Os10  1  0.822920  0.171583  0.248637  1
  Os  Os11  1  0.011931  0.005966  0.499635  1
