# generated using pymatgen
data_Y3Ho(SiNi2)4
_symmetry_space_group_name_H-M   'P 1'
_cell_length_a   5.40521276
_cell_length_b   6.39592500
_cell_length_c   7.04849200
_cell_angle_alpha   90.00000000
_cell_angle_beta   89.96965192
_cell_angle_gamma   90.00000000
_symmetry_Int_Tables_number   1
_chemical_formula_structural   Y3Ho(SiNi2)4
_chemical_formula_sum   'Y3 Ho1 Si4 Ni8'
_cell_volume   243.67574689
_cell_formula_units_Z   1
loop_
 _symmetry_equiv_pos_site_id
 _symmetry_equiv_pos_as_xyz
  1  'x, y, z'
loop_
 _atom_site_type_symbol
 _atom_site_label
 _atom_site_symmetry_multiplicity
 _atom_site_fract_x
 _atom_site_fract_y
 _atom_site_fract_z
 _atom_site_occupancy
  Y  Y0  1  0.147884  0.750000  0.530692  1
  Y  Y1  1  0.648081  0.250000  0.969424  1
  Y  Y2  1  0.851096  0.250000  0.469457  1
  Ho  Ho3  1  0.350114  0.750000  0.030332  1
  Si  Si4  1  0.648282  0.750000  0.375208  1
  Si  Si5  1  0.850499  0.750000  0.877330  1
  Si  Si6  1  0.351031  0.250000  0.623135  1
  Si  Si7  1  0.148498  0.250000  0.123488  1
  Ni  Ni8  1  0.910813  0.557642  0.171149  1
  Ni  Ni9  1  0.589774  0.942245  0.672279  1
  Ni  Ni10  1  0.093299  0.056547  0.829780  1
  Ni  Ni11  1  0.408371  0.443151  0.327259  1
  Ni  Ni12  1  0.093299  0.443453  0.829780  1
  Ni  Ni13  1  0.408371  0.056849  0.327259  1
  Ni  Ni14  1  0.910813  0.942358  0.171149  1
  Ni  Ni15  1  0.589774  0.557755  0.672279  1
