# generated using pymatgen
data_CeDyPa(SnRh)3
_symmetry_space_group_name_H-M   'P 1'
_cell_length_a   7.44709308
_cell_length_b   7.57256862
_cell_length_c   4.01532900
_cell_angle_alpha   90.00000000
_cell_angle_beta   90.00000000
_cell_angle_gamma   120.53124929
_symmetry_Int_Tables_number   1
_chemical_formula_structural   CeDyPa(SnRh)3
_chemical_formula_sum   'Ce1 Dy1 Pa1 Sn3 Rh3'
_cell_volume   195.04369328
_cell_formula_units_Z   1
loop_
 _symmetry_equiv_pos_site_id
 _symmetry_equiv_pos_as_xyz
  1  'x, y, z'
loop_
 _atom_site_type_symbol
 _atom_site_label
 _atom_site_symmetry_multiplicity
 _atom_site_fract_x
 _atom_site_fract_y
 _atom_site_fract_z
 _atom_site_occupancy
  Ce  Ce0  1  0.411946  0.000471  0.000000  1
  Dy  Dy1  1  0.591873  0.592223  0.000000  1
  Pa  Pa2  1  0.999727  0.414398  0.000000  1
  Sn  Sn3  1  0.266398  0.258694  0.500000  1
  Sn  Sn4  1  0.995107  0.753577  0.500000  1
  Sn  Sn5  1  0.736224  0.986985  0.500000  1
  Rh  Rh6  1  0.692418  0.330303  0.500000  1
  Rh  Rh7  1  0.304922  0.646270  0.500000  1
  Rh  Rh8  1  0.001385  0.017078  0.000000  1
