# generated using pymatgen
data_TbPaTlRh2
_symmetry_space_group_name_H-M   'P 1'
_cell_length_a   7.68458500
_cell_length_b   7.68444426
_cell_length_c   3.64939900
_cell_angle_alpha   90.00000000
_cell_angle_beta   90.00000000
_cell_angle_gamma   95.32841322
_symmetry_Int_Tables_number   1
_chemical_formula_structural   TbPaTlRh2
_chemical_formula_sum   'Tb2 Pa2 Tl2 Rh4'
_cell_volume   214.57221225
_cell_formula_units_Z   2
loop_
 _symmetry_equiv_pos_site_id
 _symmetry_equiv_pos_as_xyz
  1  'x, y, z'
loop_
 _atom_site_type_symbol
 _atom_site_label
 _atom_site_symmetry_multiplicity
 _atom_site_fract_x
 _atom_site_fract_y
 _atom_site_fract_z
 _atom_site_occupancy
  Tb  Tb0  1  0.172555  0.327387  0.500000  1
  Tb  Tb1  1  0.827386  0.672555  0.500000  1
  Pa  Pa2  1  0.671166  0.171154  0.500000  1
  Pa  Pa3  1  0.328877  0.828882  0.500000  1
  Tl  Tl4  1  0.500032  0.500023  0.000000  1
  Tl  Tl5  1  0.000028  0.000039  0.000000  1
  Rh  Rh6  1  0.857359  0.357376  0.000000  1
  Rh  Rh7  1  0.142422  0.642410  0.000000  1
  Rh  Rh8  1  0.378443  0.121723  0.000000  1
  Rh  Rh9  1  0.621731  0.878454  0.000000  1
