# generated using pymatgen
data_La4Fe2SnB6
_symmetry_space_group_name_H-M   'P 1'
_cell_length_a   5.44146630
_cell_length_b   5.44141709
_cell_length_c   8.53717750
_cell_angle_alpha   71.45432649
_cell_angle_beta   71.41614397
_cell_angle_gamma   59.99970536
_symmetry_Int_Tables_number   1
_chemical_formula_structural   La4Fe2SnB6
_chemical_formula_sum   'La4 Fe2 Sn1 B6'
_cell_volume   203.58307397
_cell_formula_units_Z   1
loop_
 _symmetry_equiv_pos_site_id
 _symmetry_equiv_pos_as_xyz
  1  'x, y, z'
loop_
 _atom_site_type_symbol
 _atom_site_label
 _atom_site_symmetry_multiplicity
 _atom_site_fract_x
 _atom_site_fract_y
 _atom_site_fract_z
 _atom_site_occupancy
  La  La0  1  0.254256  0.253563  0.237925  1
  La  La1  1  0.745744  0.746437  0.762075  1
  La  La2  1  0.412440  0.413137  0.761982  1
  La  La3  1  0.587560  0.586863  0.238018  1
  Fe  Fe4  1  0.119371  0.119672  0.641586  1
  Fe  Fe5  1  0.880629  0.880328  0.358414  1
  Sn  Sn6  1  0.000000  0.000000  0.000000  1
  B  B7  1  0.832432  0.500000  0.500000  1
  B  B8  1  0.499994  0.167573  0.500008  1
  B  B9  1  0.167574  0.832427  0.499992  1
  B  B10  1  0.500006  0.832427  0.499992  1
  B  B11  1  0.832426  0.167573  0.500008  1
  B  B12  1  0.167568  0.500000  0.500000  1
