# generated using pymatgen
data_Tb16In4Ir2PdRh
_symmetry_space_group_name_H-M   'P 1'
_cell_length_a   9.71381163
_cell_length_b   9.72435610
_cell_length_c   9.71911600
_cell_angle_alpha   60.01782386
_cell_angle_beta   59.98193469
_cell_angle_gamma   59.98194430
_symmetry_Int_Tables_number   1
_chemical_formula_structural   Tb16In4Ir2PdRh
_chemical_formula_sum   'Tb16 In4 Ir2 Pd1 Rh1'
_cell_volume   649.08582476
_cell_formula_units_Z   1
loop_
 _symmetry_equiv_pos_site_id
 _symmetry_equiv_pos_as_xyz
  1  'x, y, z'
loop_
 _atom_site_type_symbol
 _atom_site_label
 _atom_site_symmetry_multiplicity
 _atom_site_fract_x
 _atom_site_fract_y
 _atom_site_fract_z
 _atom_site_occupancy
  Tb  Tb0  1  0.810068  0.810455  0.189739  1
  Tb  Tb1  1  0.810303  0.185433  0.809672  1
  Tb  Tb2  1  0.194795  0.185056  0.810074  1
  Tb  Tb3  1  0.650182  0.048176  0.650821  1
  Tb  Tb4  1  0.059869  0.060783  0.439674  1
  Tb  Tb5  1  0.436097  0.438993  0.062455  1
  Tb  Tb6  1  0.647854  0.653581  0.648311  1
  Tb  Tb7  1  0.810303  0.185433  0.194593  1
  Tb  Tb8  1  0.189295  0.810747  0.809970  1
  Tb  Tb9  1  0.051905  0.652906  0.647594  1
  Tb  Tb10  1  0.439225  0.061718  0.061095  1
  Tb  Tb11  1  0.439225  0.061718  0.437961  1
  Tb  Tb12  1  0.061184  0.440763  0.061452  1
  Tb  Tb13  1  0.647854  0.653581  0.050254  1
  Tb  Tb14  1  0.189295  0.810747  0.189989  1
  Tb  Tb15  1  0.061184  0.440763  0.436602  1
  In  In16  1  0.417600  0.417585  0.417230  1
  In  In17  1  0.417600  0.417585  0.747585  1
  In  In18  1  0.417602  0.747587  0.417405  1
  In  In19  1  0.747490  0.417742  0.417384  1
  Ir  Ir20  1  0.858357  0.856726  0.858105  1
  Ir  Ir21  1  0.858357  0.856726  0.426814  1
  Pd  Pd22  1  0.857651  0.427867  0.857241  1
  Rh  Rh23  1  0.426708  0.857328  0.857983  1
