# generated using pymatgen
data_Ho2TmCo8NiP6
_symmetry_space_group_name_H-M   'P 1'
_cell_length_a   3.69612100
_cell_length_b   10.50118700
_cell_length_c   12.17974400
_cell_angle_alpha   90.00000000
_cell_angle_beta   90.00000000
_cell_angle_gamma   90.00000000
_symmetry_Int_Tables_number   1
_chemical_formula_structural   Ho2TmCo8NiP6
_chemical_formula_sum   'Ho4 Tm2 Co16 Ni2 P12'
_cell_volume   472.74041565
_cell_formula_units_Z   2
loop_
 _symmetry_equiv_pos_site_id
 _symmetry_equiv_pos_as_xyz
  1  'x, y, z'
loop_
 _atom_site_type_symbol
 _atom_site_label
 _atom_site_symmetry_multiplicity
 _atom_site_fract_x
 _atom_site_fract_y
 _atom_site_fract_z
 _atom_site_occupancy
  Ho  Ho0  1  0.000000  0.500000  0.521105  1
  Ho  Ho1  1  0.500000  0.000000  0.477975  1
  Ho  Ho2  1  0.000000  0.684611  0.794468  1
  Ho  Ho3  1  0.000000  0.315389  0.794468  1
  Tm  Tm4  1  0.500000  0.818728  0.206551  1
  Tm  Tm5  1  0.500000  0.181272  0.206551  1
  Co  Co6  1  0.000000  0.500000  0.986553  1
  Co  Co7  1  0.500000  0.000000  0.014162  1
  Co  Co8  1  0.500000  0.297497  0.429726  1
  Co  Co9  1  0.500000  0.702503  0.429726  1
  Co  Co10  1  0.000000  0.202027  0.568743  1
  Co  Co11  1  0.000000  0.797973  0.568743  1
  Co  Co12  1  0.500000  0.879073  0.709776  1
  Co  Co13  1  0.500000  0.120927  0.709776  1
  Co  Co14  1  0.000000  0.621260  0.289634  1
  Co  Co15  1  0.000000  0.378740  0.289634  1
  Co  Co16  1  0.500000  0.332784  0.995930  1
  Co  Co17  1  0.500000  0.667216  0.995930  1
  Co  Co18  1  0.000000  0.165582  0.004870  1
  Co  Co19  1  0.000000  0.834418  0.004870  1
  Co  Co20  1  0.000000  0.000000  0.840390  1
  Co  Co21  1  0.000000  0.000000  0.295548  1
  Ni  Ni22  1  0.500000  0.500000  0.161328  1
  Ni  Ni23  1  0.500000  0.500000  0.703828  1
  P  P24  1  0.500000  0.309913  0.615038  1
  P  P25  1  0.500000  0.690087  0.615038  1
  P  P26  1  0.000000  0.188040  0.382923  1
  P  P27  1  0.000000  0.811960  0.382923  1
  P  P28  1  0.500000  0.500000  0.884314  1
  P  P29  1  0.000000  0.000000  0.118045  1
  P  P30  1  0.500000  0.847612  0.893233  1
  P  P31  1  0.500000  0.152388  0.893233  1
  P  P32  1  0.000000  0.655737  0.106627  1
  P  P33  1  0.000000  0.344263  0.106627  1
  P  P34  1  0.500000  0.500000  0.346436  1
  P  P35  1  0.000000  0.000000  0.655279  1
