# generated using pymatgen
data_Ba2Li4Ag2P5
_symmetry_space_group_name_H-M   'P 1'
_cell_length_a   4.44818658
_cell_length_b   4.42811470
_cell_length_c   13.54033209
_cell_angle_alpha   99.41103318
_cell_angle_beta   99.45407797
_cell_angle_gamma   89.99999546
_symmetry_Int_Tables_number   1
_chemical_formula_structural   Ba2Li4Ag2P5
_chemical_formula_sum   'Ba2 Li4 Ag2 P5'
_cell_volume   259.44272668
_cell_formula_units_Z   1
loop_
 _symmetry_equiv_pos_site_id
 _symmetry_equiv_pos_as_xyz
  1  'x, y, z'
loop_
 _atom_site_type_symbol
 _atom_site_label
 _atom_site_symmetry_multiplicity
 _atom_site_fract_x
 _atom_site_fract_y
 _atom_site_fract_z
 _atom_site_occupancy
  Ba  Ba0  1  0.646113  0.646113  0.292225  1
  Ba  Ba1  1  0.352579  0.352579  0.705159  1
  Li  Li2  1  0.450518  0.950518  0.901037  1
  Li  Li3  1  0.050735  0.550735  0.101470  1
  Li  Li4  1  0.550081  0.050081  0.100161  1
  Li  Li5  1  0.749424  0.249424  0.498848  1
  Ag  Ag6  1  0.950479  0.450479  0.900957  1
  Ag  Ag7  1  0.249719  0.749719  0.499438  1
  P  P8  1  0.501308  0.501308  0.002615  1
  P  P9  1  0.889473  0.889473  0.778948  1
  P  P10  1  0.109718  0.109718  0.219436  1
  P  P11  1  0.804572  0.804572  0.609145  1
  P  P12  1  0.195281  0.195281  0.390561  1
