# generated using pymatgen
data_Lu20AlBi7Ir4
_symmetry_space_group_name_H-M   'P 1'
_cell_length_a   7.73231137
_cell_length_b   8.75098952
_cell_length_c   12.07237600
_cell_angle_alpha   90.10512429
_cell_angle_beta   90.11045969
_cell_angle_gamma   90.14419899
_symmetry_Int_Tables_number   1
_chemical_formula_structural   Lu20AlBi7Ir4
_chemical_formula_sum   'Lu20 Al1 Bi7 Ir4'
_cell_volume   816.87637116
_cell_formula_units_Z   1
loop_
 _symmetry_equiv_pos_site_id
 _symmetry_equiv_pos_as_xyz
  1  'x, y, z'
loop_
 _atom_site_type_symbol
 _atom_site_label
 _atom_site_symmetry_multiplicity
 _atom_site_fract_x
 _atom_site_fract_y
 _atom_site_fract_z
 _atom_site_occupancy
  Lu  Lu0  1  0.829555  0.741430  0.788971  1
  Lu  Lu1  1  0.162105  0.250459  0.206413  1
  Lu  Lu2  1  0.345396  0.259487  0.712451  1
  Lu  Lu3  1  0.660444  0.751042  0.290915  1
  Lu  Lu4  1  0.383762  0.740683  0.697742  1
  Lu  Lu5  1  0.624607  0.249908  0.308123  1
  Lu  Lu6  1  0.862719  0.257881  0.807647  1
  Lu  Lu7  1  0.124388  0.749364  0.192699  1
  Lu  Lu8  1  0.946480  0.751179  0.502070  1
  Lu  Lu9  1  0.055435  0.248831  0.499240  1
  Lu  Lu10  1  0.451787  0.258983  0.991946  1
  Lu  Lu11  1  0.552995  0.741167  0.996718  1
  Lu  Lu12  1  0.676902  0.044560  0.567511  1
  Lu  Lu13  1  0.324326  0.954742  0.434432  1
  Lu  Lu14  1  0.174876  0.956650  0.932805  1
  Lu  Lu15  1  0.324885  0.543510  0.433436  1
  Lu  Lu16  1  0.821817  0.041698  0.065150  1
  Lu  Lu17  1  0.672320  0.458035  0.574991  1
  Lu  Lu18  1  0.823604  0.456411  0.063656  1
  Lu  Lu19  1  0.182173  0.542679  0.931666  1
  Al  Al20  1  0.565494  0.494116  0.830345  1
  Bi  Bi21  1  0.433143  0.508810  0.174464  1
  Bi  Bi22  1  0.067622  0.509043  0.671551  1
  Bi  Bi23  1  0.432293  0.991416  0.169049  1
  Bi  Bi24  1  0.932692  0.490601  0.327747  1
  Bi  Bi25  1  0.566818  0.008035  0.827955  1
  Bi  Bi26  1  0.933221  0.009628  0.326490  1
  Bi  Bi27  1  0.067982  0.991747  0.675412  1
  Ir  Ir28  1  0.575280  0.749756  0.509843  1
  Ir  Ir29  1  0.426229  0.249589  0.491405  1
  Ir  Ir30  1  0.071692  0.249482  0.989137  1
  Ir  Ir31  1  0.926958  0.749079  0.008019  1
