# generated using pymatgen
data_YbFeP2O7
_symmetry_space_group_name_H-M   'P 1'
_cell_length_a   4.62205264
_cell_length_b   5.50379382
_cell_length_c   5.50369377
_cell_angle_alpha   105.08274335
_cell_angle_beta   95.82244023
_cell_angle_gamma   95.82515176
_symmetry_Int_Tables_number   1
_chemical_formula_structural   YbFeP2O7
_chemical_formula_sum   'Yb1 Fe1 P2 O7'
_cell_volume   133.28966807
_cell_formula_units_Z   1
loop_
 _symmetry_equiv_pos_site_id
 _symmetry_equiv_pos_as_xyz
  1  'x, y, z'
loop_
 _atom_site_type_symbol
 _atom_site_label
 _atom_site_symmetry_multiplicity
 _atom_site_fract_x
 _atom_site_fract_y
 _atom_site_fract_z
 _atom_site_occupancy
  Yb  Yb0  1  0.000017  0.246570  0.753405  1
  Fe  Fe1  1  0.999960  0.868237  0.131760  1
  P  P2  1  0.588556  0.327934  0.239477  1
  P  P3  1  0.411443  0.760516  0.672081  1
  O  O4  1  0.296830  0.192771  0.084623  1
  O  O5  1  0.761516  0.491656  0.103529  1
  O  O6  1  0.779329  0.150857  0.339219  1
  O  O7  1  0.238515  0.896463  0.508349  1
  O  O8  1  0.500004  0.494968  0.505037  1
  O  O9  1  0.703170  0.915380  0.807241  1
  O  O10  1  0.220658  0.660769  0.849155  1
