# generated using pymatgen
data_YbZr2(GaIr2)3
_symmetry_space_group_name_H-M   'P 1'
_cell_length_a   5.43116600
_cell_length_b   5.43116674
_cell_length_c   15.47825100
_cell_angle_alpha   90.00000000
_cell_angle_beta   90.00000000
_cell_angle_gamma   120.00000770
_symmetry_Int_Tables_number   1
_chemical_formula_structural   YbZr2(GaIr2)3
_chemical_formula_sum   'Yb2 Zr4 Ga6 Ir12'
_cell_volume   395.40184883
_cell_formula_units_Z   2
loop_
 _symmetry_equiv_pos_site_id
 _symmetry_equiv_pos_as_xyz
  1  'x, y, z'
loop_
 _atom_site_type_symbol
 _atom_site_label
 _atom_site_symmetry_multiplicity
 _atom_site_fract_x
 _atom_site_fract_y
 _atom_site_fract_z
 _atom_site_occupancy
  Yb  Yb0  1  0.333333  0.666667  0.750000  1
  Yb  Yb1  1  0.666667  0.333333  0.250000  1
  Zr  Zr2  1  0.333333  0.666667  0.543937  1
  Zr  Zr3  1  0.666667  0.333333  0.456063  1
  Zr  Zr4  1  0.666667  0.333333  0.043937  1
  Zr  Zr5  1  0.333333  0.666667  0.956063  1
  Ga  Ga6  1  0.000000  0.000000  0.250000  1
  Ga  Ga7  1  0.000000  0.000000  0.750000  1
  Ga  Ga8  1  0.333333  0.666667  0.250000  1
  Ga  Ga9  1  0.666667  0.333333  0.750000  1
  Ga  Ga10  1  0.000000  0.000000  0.000000  1
  Ga  Ga11  1  0.000000  0.000000  0.500000  1
  Ir  Ir12  1  0.170490  0.340980  0.121276  1
  Ir  Ir13  1  0.829510  0.659020  0.878724  1
  Ir  Ir14  1  0.659020  0.829510  0.121276  1
  Ir  Ir15  1  0.829510  0.659020  0.621276  1
  Ir  Ir16  1  0.340980  0.170490  0.878724  1
  Ir  Ir17  1  0.170490  0.340980  0.378724  1
  Ir  Ir18  1  0.170490  0.829510  0.121276  1
  Ir  Ir19  1  0.340980  0.170490  0.621276  1
  Ir  Ir20  1  0.829510  0.170490  0.878724  1
  Ir  Ir21  1  0.659020  0.829510  0.378724  1
  Ir  Ir22  1  0.829510  0.170490  0.621276  1
  Ir  Ir23  1  0.170490  0.829510  0.378724  1
