# generated using pymatgen
data_Tm4CoCu2Si4Ru
_symmetry_space_group_name_H-M   'P 1'
_cell_length_a   4.15417100
_cell_length_b   6.80317981
_cell_length_c   7.28514567
_cell_angle_alpha   91.13083851
_cell_angle_beta   90.00000000
_cell_angle_gamma   90.00000000
_symmetry_Int_Tables_number   1
_chemical_formula_structural   Tm4CoCu2Si4Ru
_chemical_formula_sum   'Tm4 Co1 Cu2 Si4 Ru1'
_cell_volume   205.84957078
_cell_formula_units_Z   1
loop_
 _symmetry_equiv_pos_site_id
 _symmetry_equiv_pos_as_xyz
  1  'x, y, z'
loop_
 _atom_site_type_symbol
 _atom_site_label
 _atom_site_symmetry_multiplicity
 _atom_site_fract_x
 _atom_site_fract_y
 _atom_site_fract_z
 _atom_site_occupancy
  Tm  Tm0  1  0.250000  0.994346  0.795729  1
  Tm  Tm1  1  0.750000  0.003641  0.201654  1
  Tm  Tm2  1  0.250000  0.493212  0.694258  1
  Tm  Tm3  1  0.750000  0.501513  0.307108  1
  Co  Co4  1  0.750000  0.350587  0.938751  1
  Cu  Cu5  1  0.750000  0.828931  0.573927  1
  Cu  Cu6  1  0.250000  0.173729  0.427032  1
  Si  Si7  1  0.250000  0.296011  0.085912  1
  Si  Si8  1  0.750000  0.699912  0.905334  1
  Si  Si9  1  0.250000  0.792111  0.394312  1
  Si  Si10  1  0.750000  0.209595  0.613564  1
  Ru  Ru11  1  0.250000  0.656409  0.062419  1
