# generated using pymatgen
data_Ti10V9Si16Os
_symmetry_space_group_name_H-M   'P 1'
_cell_length_a   6.50662139
_cell_length_b   6.50662104
_cell_length_c   11.98956000
_cell_angle_alpha   89.90829537
_cell_angle_beta   90.09170496
_cell_angle_gamma   89.66719090
_symmetry_Int_Tables_number   1
_chemical_formula_structural   Ti10V9Si16Os
_chemical_formula_sum   'Ti10 V9 Si16 Os1'
_cell_volume   507.58157547
_cell_formula_units_Z   1
loop_
 _symmetry_equiv_pos_site_id
 _symmetry_equiv_pos_as_xyz
  1  'x, y, z'
loop_
 _atom_site_type_symbol
 _atom_site_label
 _atom_site_symmetry_multiplicity
 _atom_site_fract_x
 _atom_site_fract_y
 _atom_site_fract_z
 _atom_site_occupancy
  Ti  Ti0  1  0.002419  0.341505  0.221438  1
  Ti  Ti1  1  0.160288  0.502676  0.469523  1
  Ti  Ti2  1  0.836594  0.498117  0.969392  1
  Ti  Ti3  1  0.502676  0.160288  0.530477  1
  Ti  Ti4  1  0.498117  0.836594  0.030608  1
  Ti  Ti5  1  0.998696  0.660356  0.721086  1
  Ti  Ti6  1  0.341505  0.002419  0.778562  1
  Ti  Ti7  1  0.660356  0.998696  0.278914  1
  Ti  Ti8  1  0.331259  0.667543  0.249075  1
  Ti  Ti9  1  0.667543  0.331259  0.750925  1
  V  V10  1  0.994750  0.154562  0.622456  1
  V  V11  1  0.346857  0.501413  0.869202  1
  V  V12  1  0.654043  0.504641  0.372026  1
  V  V13  1  0.501413  0.346857  0.130798  1
  V  V14  1  0.504641  0.654043  0.627974  1
  V  V15  1  0.003944  0.836181  0.122926  1
  V  V16  1  0.154562  0.994750  0.377544  1
  V  V17  1  0.836181  0.003944  0.877074  1
  V  V18  1  0.834878  0.834878  0.500000  1
  Si  Si19  1  0.044615  0.295216  0.816489  1
  Si  Si20  1  0.205378  0.536645  0.060177  1
  Si  Si21  1  0.798684  0.461907  0.562608  1
  Si  Si22  1  0.536645  0.205378  0.939823  1
  Si  Si23  1  0.461907  0.798684  0.437392  1
  Si  Si24  1  0.955916  0.703811  0.315990  1
  Si  Si25  1  0.295216  0.044615  0.183511  1
  Si  Si26  1  0.703811  0.955916  0.684010  1
  Si  Si27  1  0.290056  0.366427  0.673127  1
  Si  Si28  1  0.130863  0.795972  0.924101  1
  Si  Si29  1  0.865769  0.206363  0.424152  1
  Si  Si30  1  0.795972  0.130863  0.075899  1
  Si  Si31  1  0.206363  0.865769  0.575848  1
  Si  Si32  1  0.709592  0.633433  0.174203  1
  Si  Si33  1  0.366427  0.290056  0.326873  1
  Si  Si34  1  0.633433  0.709592  0.825797  1
  Os  Os35  1  0.168635  0.168635  0.000000  1
