# generated using pymatgen
data_Sc6Ti2Al13Os7W
_symmetry_space_group_name_H-M   'P 1'
_cell_length_a   8.83381046
_cell_length_b   8.83381155
_cell_length_c   8.83582796
_cell_angle_alpha   59.77697901
_cell_angle_beta   59.77697518
_cell_angle_gamma   59.62212615
_symmetry_Int_Tables_number   1
_chemical_formula_structural   Sc6Ti2Al13Os7W
_chemical_formula_sum   'Sc6 Ti2 Al13 Os7 W1'
_cell_volume   484.51693385
_cell_formula_units_Z   1
loop_
 _symmetry_equiv_pos_site_id
 _symmetry_equiv_pos_as_xyz
  1  'x, y, z'
loop_
 _atom_site_type_symbol
 _atom_site_label
 _atom_site_symmetry_multiplicity
 _atom_site_fract_x
 _atom_site_fract_y
 _atom_site_fract_z
 _atom_site_occupancy
  Sc  Sc0  1  0.713439  0.713439  0.278746  1
  Sc  Sc1  1  0.290890  0.713626  0.286876  1
  Sc  Sc2  1  0.713626  0.290890  0.286876  1
  Sc  Sc3  1  0.288415  0.288415  0.712274  1
  Sc  Sc4  1  0.714193  0.280942  0.713125  1
  Sc  Sc5  1  0.280942  0.714193  0.713125  1
  Ti  Ti6  1  0.879982  0.360400  0.877551  1
  Ti  Ti7  1  0.360400  0.879982  0.877551  1
  Al  Al8  1  0.882176  0.882176  0.878873  1
  Al  Al9  1  0.121538  0.121538  0.639620  1
  Al  Al10  1  0.122606  0.638341  0.119933  1
  Al  Al11  1  0.638341  0.122606  0.119933  1
  Al  Al12  1  0.121772  0.121772  0.118492  1
  Al  Al13  1  0.665018  0.665018  0.002854  1
  Al  Al14  1  0.663082  0.006493  0.667481  1
  Al  Al15  1  0.006493  0.663082  0.667481  1
  Al  Al16  1  0.660162  0.660162  0.665628  1
  Al  Al17  1  0.336256  0.336256  0.993564  1
  Al  Al18  1  0.335361  0.993586  0.338085  1
  Al  Al19  1  0.993586  0.335361  0.338085  1
  Al  Al20  1  0.335609  0.335609  0.337776  1
  Os  Os21  1  0.999344  0.999344  0.006454  1
  Os  Os22  1  0.997920  0.997920  0.496815  1
  Os  Os23  1  0.506448  0.996790  0.498954  1
  Os  Os24  1  0.996790  0.506448  0.498954  1
  Os  Os25  1  0.500408  0.500408  0.999172  1
  Os  Os26  1  0.998794  0.499968  0.000088  1
  Os  Os27  1  0.499968  0.998794  0.000088  1
  W  W28  1  0.876443  0.876443  0.365542  1
