# generated using pymatgen
data_Cr3TcH4
_symmetry_space_group_name_H-M   'P 1'
_cell_length_a   2.75061300
_cell_length_b   4.36782302
_cell_length_c   4.74172804
_cell_angle_alpha   89.99866010
_cell_angle_beta   89.99848320
_cell_angle_gamma   90.00005870
_symmetry_Int_Tables_number   1
_chemical_formula_structural   Cr3TcH4
_chemical_formula_sum   'Cr3 Tc1 H4'
_cell_volume   56.96802532
_cell_formula_units_Z   1
loop_
 _symmetry_equiv_pos_site_id
 _symmetry_equiv_pos_as_xyz
  1  'x, y, z'
loop_
 _atom_site_type_symbol
 _atom_site_label
 _atom_site_symmetry_multiplicity
 _atom_site_fract_x
 _atom_site_fract_y
 _atom_site_fract_z
 _atom_site_occupancy
  Cr  Cr0  1  0.124996  0.978588  0.995227  1
  Cr  Cr1  1  0.624972  0.978582  0.488348  1
  Cr  Cr2  1  0.624970  0.478691  0.159749  1
  Tc  Tc3  1  0.124966  0.478614  0.657859  1
  H  H4  1  0.125011  0.222492  0.311837  1
  H  H5  1  0.624983  0.742341  0.840097  1
  H  H6  1  0.124970  0.734858  0.311837  1
  H  H7  1  0.624996  0.214740  0.840195  1
