# generated using pymatgen
data_Tl(FeCl4)2
_symmetry_space_group_name_H-M   'P 1'
_cell_length_a   10.62893776
_cell_length_b   10.62893727
_cell_length_c   13.07580090
_cell_angle_alpha   55.65397180
_cell_angle_beta   55.65397298
_cell_angle_gamma   49.67337124
_symmetry_Int_Tables_number   1
_chemical_formula_structural   Tl(FeCl4)2
_chemical_formula_sum   'Tl2 Fe4 Cl16'
_cell_volume   882.10462616
_cell_formula_units_Z   2
loop_
 _symmetry_equiv_pos_site_id
 _symmetry_equiv_pos_as_xyz
  1  'x, y, z'
loop_
 _atom_site_type_symbol
 _atom_site_label
 _atom_site_symmetry_multiplicity
 _atom_site_fract_x
 _atom_site_fract_y
 _atom_site_fract_z
 _atom_site_occupancy
  Tl  Tl0  1  0.006979  0.993021  0.750000  1
  Tl  Tl1  1  0.993021  0.006979  0.250000  1
  Fe  Fe2  1  0.161192  0.669885  0.534852  1
  Fe  Fe3  1  0.330115  0.838808  0.965148  1
  Fe  Fe4  1  0.838808  0.330115  0.465148  1
  Fe  Fe5  1  0.669885  0.161192  0.034852  1
  Cl  Cl6  1  0.295250  0.401272  0.551906  1
  Cl  Cl7  1  0.598728  0.704750  0.948094  1
  Cl  Cl8  1  0.704750  0.598728  0.448094  1
  Cl  Cl9  1  0.401272  0.295250  0.051906  1
  Cl  Cl10  1  0.897075  0.810504  0.520934  1
  Cl  Cl11  1  0.189496  0.102925  0.979066  1
  Cl  Cl12  1  0.102925  0.189496  0.479066  1
  Cl  Cl13  1  0.810504  0.897075  0.020934  1
  Cl  Cl14  1  0.147599  0.685306  0.703632  1
  Cl  Cl15  1  0.314694  0.852401  0.796368  1
  Cl  Cl16  1  0.852401  0.314694  0.296368  1
  Cl  Cl17  1  0.685306  0.147599  0.203632  1
  Cl  Cl18  1  0.280374  0.821556  0.344254  1
  Cl  Cl19  1  0.178444  0.719626  0.155746  1
  Cl  Cl20  1  0.719626  0.178444  0.655746  1
  Cl  Cl21  1  0.821556  0.280374  0.844254  1
