# generated using pymatgen
data_Y12Si12IrOs3
_symmetry_space_group_name_H-M   'P 1'
_cell_length_a   4.22255400
_cell_length_b   10.72185330
_cell_length_c   12.36009601
_cell_angle_alpha   90.05473485
_cell_angle_beta   90.00000000
_cell_angle_gamma   90.00000000
_symmetry_Int_Tables_number   1
_chemical_formula_structural   Y12Si12IrOs3
_chemical_formula_sum   'Y12 Si12 Ir1 Os3'
_cell_volume   559.58584336
_cell_formula_units_Z   1
loop_
 _symmetry_equiv_pos_site_id
 _symmetry_equiv_pos_as_xyz
  1  'x, y, z'
loop_
 _atom_site_type_symbol
 _atom_site_label
 _atom_site_symmetry_multiplicity
 _atom_site_fract_x
 _atom_site_fract_y
 _atom_site_fract_z
 _atom_site_occupancy
  Y  Y0  1  0.250000  0.880862  0.021486  1
  Y  Y1  1  0.250000  0.619578  0.521782  1
  Y  Y2  1  0.750000  0.119513  0.978677  1
  Y  Y3  1  0.750000  0.381389  0.478020  1
  Y  Y4  1  0.250000  0.919544  0.605033  1
  Y  Y5  1  0.250000  0.580027  0.103954  1
  Y  Y6  1  0.750000  0.079715  0.395917  1
  Y  Y7  1  0.750000  0.419618  0.895313  1
  Y  Y8  1  0.250000  0.661485  0.800667  1
  Y  Y9  1  0.250000  0.837948  0.300201  1
  Y  Y10  1  0.750000  0.338774  0.199661  1
  Y  Y11  1  0.750000  0.160014  0.698639  1
  Si  Si12  1  0.250000  0.009514  0.821735  1
  Si  Si13  1  0.250000  0.494051  0.320285  1
  Si  Si14  1  0.750000  0.993312  0.179572  1
  Si  Si15  1  0.750000  0.506713  0.679667  1
  Si  Si16  1  0.250000  0.247813  0.839989  1
  Si  Si17  1  0.250000  0.251342  0.341182  1
  Si  Si18  1  0.750000  0.751412  0.158984  1
  Si  Si19  1  0.750000  0.747263  0.658633  1
  Si  Si20  1  0.250000  0.205136  0.544400  1
  Si  Si21  1  0.250000  0.295787  0.044263  1
  Si  Si22  1  0.750000  0.796498  0.455932  1
  Si  Si23  1  0.750000  0.701948  0.956403  1
  Ir  Ir24  1  0.750000  0.888640  0.818618  1
  Os  Os25  1  0.250000  0.389219  0.681116  1
  Os  Os26  1  0.250000  0.111042  0.181022  1
  Os  Os27  1  0.750000  0.611842  0.318848  1
