# generated using pymatgen
data_Dy2HfGaIr2
_symmetry_space_group_name_H-M   'P 1'
_cell_length_a   4.46127500
_cell_length_b   6.93280412
_cell_length_c   8.03100958
_cell_angle_alpha   88.48896230
_cell_angle_beta   90.00000000
_cell_angle_gamma   90.00000000
_symmetry_Int_Tables_number   1
_chemical_formula_structural   Dy2HfGaIr2
_chemical_formula_sum   'Dy4 Hf2 Ga2 Ir4'
_cell_volume   248.30589010
_cell_formula_units_Z   2
loop_
 _symmetry_equiv_pos_site_id
 _symmetry_equiv_pos_as_xyz
  1  'x, y, z'
loop_
 _atom_site_type_symbol
 _atom_site_label
 _atom_site_symmetry_multiplicity
 _atom_site_fract_x
 _atom_site_fract_y
 _atom_site_fract_z
 _atom_site_occupancy
  Dy  Dy0  1  0.250000  0.523622  0.165151  1
  Dy  Dy1  1  0.750000  0.476378  0.834849  1
  Dy  Dy2  1  0.750000  0.977353  0.703129  1
  Dy  Dy3  1  0.250000  0.022647  0.296871  1
  Hf  Hf4  1  0.250000  0.640834  0.576001  1
  Hf  Hf5  1  0.750000  0.359166  0.423999  1
  Ga  Ga6  1  0.750000  0.842042  0.073645  1
  Ga  Ga7  1  0.250000  0.157958  0.926355  1
  Ir  Ir8  1  0.250000  0.776485  0.887772  1
  Ir  Ir9  1  0.750000  0.223515  0.112228  1
  Ir  Ir10  1  0.750000  0.736529  0.399511  1
  Ir  Ir11  1  0.250000  0.263471  0.600489  1
