# generated using pymatgen
data_Ca2LaZn6(CuNi2)3
_symmetry_space_group_name_H-M   'P 1'
_cell_length_a   8.96210300
_cell_length_b   8.95887884
_cell_length_c   4.04672300
_cell_angle_alpha   90.00000000
_cell_angle_beta   90.00000000
_cell_angle_gamma   120.01190188
_symmetry_Int_Tables_number   1
_chemical_formula_structural   Ca2LaZn6(CuNi2)3
_chemical_formula_sum   'Ca2 La1 Zn6 Cu3 Ni6'
_cell_volume   281.34914893
_cell_formula_units_Z   1
loop_
 _symmetry_equiv_pos_site_id
 _symmetry_equiv_pos_as_xyz
  1  'x, y, z'
loop_
 _atom_site_type_symbol
 _atom_site_label
 _atom_site_symmetry_multiplicity
 _atom_site_fract_x
 _atom_site_fract_y
 _atom_site_fract_z
 _atom_site_occupancy
  Ca  Ca0  1  0.331113  0.665336  0.000000  1
  Ca  Ca1  1  0.665778  0.334664  0.000000  1
  La  La2  1  0.005123  0.000000  0.500000  1
  Zn  Zn3  1  0.497271  0.000000  0.500000  1
  Zn  Zn4  1  0.306580  0.304206  0.000000  1
  Zn  Zn5  1  0.002372  0.695794  0.000000  1
  Zn  Zn6  1  0.999111  0.306683  0.000000  1
  Zn  Zn7  1  0.692428  0.693317  0.000000  1
  Zn  Zn8  1  0.701738  0.000000  0.000000  1
  Cu  Cu9  1  0.499370  0.500591  0.500000  1
  Cu  Cu10  1  0.998779  0.499409  0.500000  1
  Cu  Cu11  1  0.299893  0.000000  0.000000  1
  Ni  Ni12  1  0.180000  0.360118  0.500000  1
  Ni  Ni13  1  0.818218  0.180217  0.500000  1
  Ni  Ni14  1  0.363088  0.181833  0.500000  1
  Ni  Ni15  1  0.638001  0.819783  0.500000  1
  Ni  Ni16  1  0.181255  0.818167  0.500000  1
  Ni  Ni17  1  0.819882  0.639882  0.500000  1
