# generated using pymatgen
data_LuTiNbGa4
_symmetry_space_group_name_H-M   'P 1'
_cell_length_a   5.50125168
_cell_length_b   5.50125260
_cell_length_c   5.50125254
_cell_angle_alpha   104.41289276
_cell_angle_beta   104.41289083
_cell_angle_gamma   120.14462302
_symmetry_Int_Tables_number   1
_chemical_formula_structural   LuTiNbGa4
_chemical_formula_sum   'Lu1 Ti1 Nb1 Ga4'
_cell_volume   124.77488633
_cell_formula_units_Z   1
loop_
 _symmetry_equiv_pos_site_id
 _symmetry_equiv_pos_as_xyz
  1  'x, y, z'
loop_
 _atom_site_type_symbol
 _atom_site_label
 _atom_site_symmetry_multiplicity
 _atom_site_fract_x
 _atom_site_fract_y
 _atom_site_fract_z
 _atom_site_occupancy
  Lu  Lu0  1  0.000000  0.000000  0.000000  1
  Ti  Ti1  1  0.750000  0.250000  0.500000  1
  Nb  Nb2  1  0.250000  0.750000  0.500000  1
  Ga  Ga3  1  0.302288  0.302288  0.604577  1
  Ga  Ga4  1  0.697712  0.697712  0.395423  1
  Ga  Ga5  1  0.697712  0.302288  0.000000  1
  Ga  Ga6  1  0.302288  0.697712  0.000000  1
