# generated using pymatgen
data_Sc12MnCo2Si12Pt
_symmetry_space_group_name_H-M   'P 1'
_cell_length_a   3.99773800
_cell_length_b   10.14940566
_cell_length_c   11.67450217
_cell_angle_alpha   89.93832683
_cell_angle_beta   90.00000000
_cell_angle_gamma   90.00000000
_symmetry_Int_Tables_number   1
_chemical_formula_structural   Sc12MnCo2Si12Pt
_chemical_formula_sum   'Sc12 Mn1 Co2 Si12 Pt1'
_cell_volume   473.68873677
_cell_formula_units_Z   1
loop_
 _symmetry_equiv_pos_site_id
 _symmetry_equiv_pos_as_xyz
  1  'x, y, z'
loop_
 _atom_site_type_symbol
 _atom_site_label
 _atom_site_symmetry_multiplicity
 _atom_site_fract_x
 _atom_site_fract_y
 _atom_site_fract_z
 _atom_site_occupancy
  Sc  Sc0  1  0.250000  0.882115  0.023281  1
  Sc  Sc1  1  0.250000  0.619041  0.521776  1
  Sc  Sc2  1  0.750000  0.125454  0.979538  1
  Sc  Sc3  1  0.750000  0.378314  0.474629  1
  Sc  Sc4  1  0.250000  0.920730  0.603024  1
  Sc  Sc5  1  0.250000  0.580001  0.101826  1
  Sc  Sc6  1  0.750000  0.078804  0.401844  1
  Sc  Sc7  1  0.750000  0.420778  0.901848  1
  Sc  Sc8  1  0.250000  0.650373  0.799418  1
  Sc  Sc9  1  0.250000  0.844935  0.299909  1
  Sc  Sc10  1  0.750000  0.338834  0.199750  1
  Sc  Sc11  1  0.750000  0.165962  0.698067  1
  Mn  Mn12  1  0.750000  0.612160  0.323315  1
  Co  Co13  1  0.250000  0.387626  0.676616  1
  Co  Co14  1  0.250000  0.111517  0.176757  1
  Si  Si15  1  0.250000  0.021100  0.823562  1
  Si  Si16  1  0.250000  0.484012  0.321211  1
  Si  Si17  1  0.750000  0.995745  0.178731  1
  Si  Si18  1  0.750000  0.501803  0.678403  1
  Si  Si19  1  0.250000  0.256463  0.837922  1
  Si  Si20  1  0.250000  0.243464  0.337231  1
  Si  Si21  1  0.750000  0.752239  0.159823  1
  Si  Si22  1  0.750000  0.742814  0.655584  1
  Si  Si23  1  0.250000  0.199174  0.544717  1
  Si  Si24  1  0.250000  0.302443  0.046178  1
  Si  Si25  1  0.750000  0.805519  0.455325  1
  Si  Si26  1  0.750000  0.691827  0.958081  1
  Pt  Pt27  1  0.750000  0.886752  0.821638  1
