# generated using pymatgen
data_Np5Fe12Co(NiP2)6
_symmetry_space_group_name_H-M   'P 1'
_cell_length_a   12.03995400
_cell_length_b   12.03995398
_cell_length_c   3.71983600
_cell_angle_alpha   90.00000000
_cell_angle_beta   90.00000000
_cell_angle_gamma   120.00000006
_symmetry_Int_Tables_number   1
_chemical_formula_structural   Np5Fe12Co(NiP2)6
_chemical_formula_sum   'Np5 Fe12 Co1 Ni6 P12'
_cell_volume   466.98623473
_cell_formula_units_Z   1
loop_
 _symmetry_equiv_pos_site_id
 _symmetry_equiv_pos_as_xyz
  1  'x, y, z'
loop_
 _atom_site_type_symbol
 _atom_site_label
 _atom_site_symmetry_multiplicity
 _atom_site_fract_x
 _atom_site_fract_y
 _atom_site_fract_z
 _atom_site_occupancy
  Np  Np0  1  0.666667  0.333333  0.000000  1
  Np  Np1  1  0.333333  0.666667  0.000000  1
  Np  Np2  1  0.181784  0.181784  0.500000  1
  Np  Np3  1  0.818216  0.000000  0.500000  1
  Np  Np4  1  0.000000  0.818216  0.500000  1
  Fe  Fe5  1  0.820108  0.199270  0.000000  1
  Fe  Fe6  1  0.800730  0.620837  0.000000  1
  Fe  Fe7  1  0.379163  0.179892  0.000000  1
  Fe  Fe8  1  0.199270  0.820108  0.000000  1
  Fe  Fe9  1  0.620837  0.800730  0.000000  1
  Fe  Fe10  1  0.179892  0.379163  0.000000  1
  Fe  Fe11  1  0.553066  0.553066  0.000000  1
  Fe  Fe12  1  0.446934  0.000000  0.000000  1
  Fe  Fe13  1  0.000000  0.446934  0.000000  1
  Fe  Fe14  1  0.714515  0.714515  0.500000  1
  Fe  Fe15  1  0.285485  0.000000  0.500000  1
  Fe  Fe16  1  0.000000  0.285485  0.500000  1
  Co  Co17  1  0.000000  0.000000  0.000000  1
  Ni  Ni18  1  0.640426  0.122772  0.500000  1
  Ni  Ni19  1  0.877228  0.517654  0.500000  1
  Ni  Ni20  1  0.482346  0.359574  0.500000  1
  Ni  Ni21  1  0.122772  0.640426  0.500000  1
  Ni  Ni22  1  0.517654  0.877228  0.500000  1
  Ni  Ni23  1  0.359574  0.482346  0.500000  1
  P  P24  1  0.364073  0.364073  0.000000  1
  P  P25  1  0.635927  0.000000  0.000000  1
  P  P26  1  0.000000  0.635927  0.000000  1
  P  P27  1  0.833675  0.310916  0.500000  1
  P  P28  1  0.689084  0.522760  0.500000  1
  P  P29  1  0.477240  0.166325  0.500000  1
  P  P30  1  0.310916  0.833675  0.500000  1
  P  P31  1  0.522760  0.689084  0.500000  1
  P  P32  1  0.166325  0.477240  0.500000  1
  P  P33  1  0.813590  0.813590  0.000000  1
  P  P34  1  0.186410  0.000000  0.000000  1
  P  P35  1  0.000000  0.186410  0.000000  1
