# generated using pymatgen
data_Lu3Zn2Si3Rh
_symmetry_space_group_name_H-M   'P 1'
_cell_length_a   6.77737297
_cell_length_b   6.77737204
_cell_length_c   4.12290800
_cell_angle_alpha   90.00000000
_cell_angle_beta   90.00000000
_cell_angle_gamma   121.95765470
_symmetry_Int_Tables_number   1
_chemical_formula_structural   Lu3Zn2Si3Rh
_chemical_formula_sum   'Lu3 Zn2 Si3 Rh1'
_cell_volume   160.67460520
_cell_formula_units_Z   1
loop_
 _symmetry_equiv_pos_site_id
 _symmetry_equiv_pos_as_xyz
  1  'x, y, z'
loop_
 _atom_site_type_symbol
 _atom_site_label
 _atom_site_symmetry_multiplicity
 _atom_site_fract_x
 _atom_site_fract_y
 _atom_site_fract_z
 _atom_site_occupancy
  Lu  Lu0  1  0.581581  0.003779  0.500001  1
  Lu  Lu1  1  0.429059  0.429059  0.500001  1
  Lu  Lu2  1  0.003779  0.581581  0.500001  1
  Zn  Zn3  1  0.236539  0.990127  0.000000  1
  Zn  Zn4  1  0.990127  0.236538  0.000000  1
  Si  Si5  1  0.671055  0.349524  0.000000  1
  Si  Si6  1  0.349524  0.671055  0.000000  1
  Si  Si7  1  0.980978  0.980978  0.500001  1
  Rh  Rh8  1  0.757358  0.757359  0.000000  1
