# generated using pymatgen
data_TbCe(Np2Ni9)2
_symmetry_space_group_name_H-M   'P 1'
_cell_length_a   4.88321900
_cell_length_b   4.88321950
_cell_length_c   16.25796700
_cell_angle_alpha   90.00000000
_cell_angle_beta   90.00000000
_cell_angle_gamma   120.00000336
_symmetry_Int_Tables_number   1
_chemical_formula_structural   TbCe(Np2Ni9)2
_chemical_formula_sum   'Tb1 Ce1 Np4 Ni18'
_cell_volume   335.74480615
_cell_formula_units_Z   1
loop_
 _symmetry_equiv_pos_site_id
 _symmetry_equiv_pos_as_xyz
  1  'x, y, z'
loop_
 _atom_site_type_symbol
 _atom_site_label
 _atom_site_symmetry_multiplicity
 _atom_site_fract_x
 _atom_site_fract_y
 _atom_site_fract_z
 _atom_site_occupancy
  Tb  Tb0  1  0.333333  0.666667  0.250000  1
  Ce  Ce1  1  0.666667  0.333333  0.750000  1
  Np  Np2  1  0.333333  0.666667  0.466768  1
  Np  Np3  1  0.666667  0.333333  0.967970  1
  Np  Np4  1  0.666667  0.333333  0.532030  1
  Np  Np5  1  0.333333  0.666667  0.033232  1
  Ni  Ni6  1  0.833354  0.166646  0.373509  1
  Ni  Ni7  1  0.166684  0.833316  0.874692  1
  Ni  Ni8  1  0.833354  0.666708  0.126491  1
  Ni  Ni9  1  0.166684  0.333366  0.625308  1
  Ni  Ni10  1  0.000000  0.000000  0.499507  1
  Ni  Ni11  1  0.666634  0.833316  0.874692  1
  Ni  Ni12  1  0.833354  0.666708  0.373509  1
  Ni  Ni13  1  0.166684  0.333366  0.874692  1
  Ni  Ni14  1  0.333292  0.166646  0.126491  1
  Ni  Ni15  1  0.666667  0.333333  0.250000  1
  Ni  Ni16  1  0.833354  0.166646  0.126491  1
  Ni  Ni17  1  0.000000  0.000000  0.750000  1
  Ni  Ni18  1  0.666634  0.833316  0.625308  1
  Ni  Ni19  1  0.333292  0.166646  0.373509  1
  Ni  Ni20  1  0.000000  0.000000  0.000493  1
  Ni  Ni21  1  0.166684  0.833316  0.625308  1
  Ni  Ni22  1  0.333333  0.666667  0.750000  1
  Ni  Ni23  1  0.000000  0.000000  0.250000  1
