# generated using pymatgen
data_Nb6ReSi6Ru4W
_symmetry_space_group_name_H-M   'P 1'
_cell_length_a   7.50810184
_cell_length_b   7.52211367
_cell_length_c   7.52211399
_cell_angle_alpha   126.87467556
_cell_angle_beta   123.81157741
_cell_angle_gamma   81.03775343
_symmetry_Int_Tables_number   1
_chemical_formula_structural   Nb6ReSi6Ru4W
_chemical_formula_sum   'Nb6 Re1 Si6 Ru4 W1'
_cell_volume   272.03286818
_cell_formula_units_Z   1
loop_
 _symmetry_equiv_pos_site_id
 _symmetry_equiv_pos_as_xyz
  1  'x, y, z'
loop_
 _atom_site_type_symbol
 _atom_site_label
 _atom_site_symmetry_multiplicity
 _atom_site_fract_x
 _atom_site_fract_y
 _atom_site_fract_z
 _atom_site_occupancy
  Nb  Nb0  1  0.557919  0.093054  0.035785  1
  Nb  Nb1  1  0.442081  0.477866  0.535136  1
  Nb  Nb2  1  0.959222  0.491226  0.028010  1
  Nb  Nb3  1  0.040778  0.068788  0.532004  1
  Nb  Nb4  1  0.752021  0.920227  0.667501  1
  Nb  Nb5  1  0.247979  0.915480  0.168206  1
  Re  Re6  1  0.000000  0.250071  0.250071  1
  Si  Si7  1  0.779896  0.551049  0.272267  1
  Si  Si8  1  0.220104  0.492370  0.771153  1
  Si  Si9  1  0.334547  0.818090  0.491776  1
  Si  Si10  1  0.665453  0.157228  0.483543  1
  Si  Si11  1  0.827137  0.820000  0.985622  1
  Si  Si12  1  0.172863  0.158484  0.992864  1
  Ru  Ru13  1  0.158809  0.744484  0.651732  1
  Ru  Ru14  1  0.841191  0.492921  0.585674  1
  Ru  Ru15  1  0.592078  0.746626  0.085908  1
  Ru  Ru16  1  0.407922  0.493829  0.154547  1
  W  W17  1  0.500000  0.250403  0.750403  1
