# generated using pymatgen
data_Pr5OsPtO12
_symmetry_space_group_name_H-M   'P 1'
_cell_length_a   7.18116411
_cell_length_b   7.18116418
_cell_length_c   7.62031323
_cell_angle_alpha   74.57880891
_cell_angle_beta   74.57880581
_cell_angle_gamma   50.91484489
_symmetry_Int_Tables_number   1
_chemical_formula_structural   Pr5OsPtO12
_chemical_formula_sum   'Pr5 Os1 Pt1 O12'
_cell_volume   291.50101048
_cell_formula_units_Z   1
loop_
 _symmetry_equiv_pos_site_id
 _symmetry_equiv_pos_as_xyz
  1  'x, y, z'
loop_
 _atom_site_type_symbol
 _atom_site_label
 _atom_site_symmetry_multiplicity
 _atom_site_fract_x
 _atom_site_fract_y
 _atom_site_fract_z
 _atom_site_occupancy
  Pr  Pr0  1  0.295826  0.309677  0.358510  1
  Pr  Pr1  1  0.690323  0.704174  0.641490  1
  Pr  Pr2  1  0.691384  0.698361  0.164764  1
  Pr  Pr3  1  0.301639  0.308616  0.835236  1
  Pr  Pr4  1  0.997669  0.002331  0.500000  1
  Os  Os5  1  0.759375  0.240625  0.000000  1
  Pt  Pt6  1  0.250865  0.749135  0.000000  1
  O  O7  1  0.092234  0.598632  0.577394  1
  O  O8  1  0.997431  0.002173  0.172867  1
  O  O9  1  0.401368  0.907766  0.422606  1
  O  O10  1  0.509378  0.491475  0.172784  1
  O  O11  1  0.096701  0.571609  0.081932  1
  O  O12  1  0.900581  0.401676  0.426448  1
  O  O13  1  0.997827  0.002569  0.827133  1
  O  O14  1  0.598324  0.099418  0.573552  1
  O  O15  1  0.508525  0.490622  0.827216  1
  O  O16  1  0.583668  0.101508  0.080029  1
  O  O17  1  0.428391  0.903299  0.918068  1
  O  O18  1  0.898492  0.416332  0.919971  1
