# generated using pymatgen
data_La4Dy4Te3WO24
_symmetry_space_group_name_H-M   'P 1'
_cell_length_a   5.46445439
_cell_length_b   9.35974761
_cell_length_c   10.23074620
_cell_angle_alpha   89.96736078
_cell_angle_beta   89.93219207
_cell_angle_gamma   90.16122490
_symmetry_Int_Tables_number   1
_chemical_formula_structural   La4Dy4Te3WO24
_chemical_formula_sum   'La4 Dy4 Te3 W1 O24'
_cell_volume   523.25834070
_cell_formula_units_Z   1
loop_
 _symmetry_equiv_pos_site_id
 _symmetry_equiv_pos_as_xyz
  1  'x, y, z'
loop_
 _atom_site_type_symbol
 _atom_site_label
 _atom_site_symmetry_multiplicity
 _atom_site_fract_x
 _atom_site_fract_y
 _atom_site_fract_z
 _atom_site_occupancy
  La  La0  1  0.529699  0.219073  0.358016  1
  La  La1  1  0.033017  0.277935  0.641695  1
  La  La2  1  0.469591  0.720211  0.143517  1
  La  La3  1  0.970002  0.779243  0.856973  1
  Dy  Dy4  1  0.519169  0.104447  0.955197  1
  Dy  Dy5  1  0.019830  0.396368  0.044391  1
  Dy  Dy6  1  0.481328  0.602958  0.543326  1
  Dy  Dy7  1  0.978725  0.897747  0.456780  1
  Te  Te8  1  0.966478  0.510123  0.358429  1
  Te  Te9  1  0.534577  0.489640  0.858191  1
  Te  Te10  1  0.033659  0.009822  0.141598  1
  W  W11  1  0.465667  0.990553  0.642568  1
  O  O12  1  0.306711  0.142852  0.166661  1
  O  O13  1  0.805412  0.356570  0.831793  1
  O  O14  1  0.693489  0.641484  0.331625  1
  O  O15  1  0.192089  0.858697  0.665438  1
  O  O16  1  0.724549  0.106293  0.559752  1
  O  O17  1  0.228505  0.394799  0.437211  1
  O  O18  1  0.272958  0.606520  0.936382  1
  O  O19  1  0.773899  0.892226  0.063011  1
  O  O20  1  0.672003  0.634386  0.743698  1
  O  O21  1  0.174135  0.867600  0.257382  1
  O  O22  1  0.321970  0.131541  0.758407  1
  O  O23  1  0.827624  0.365823  0.243992  1
  O  O24  1  0.665438  0.952974  0.792725  1
  O  O25  1  0.163959  0.550510  0.205868  1
  O  O26  1  0.337115  0.448086  0.706148  1
  O  O27  1  0.832980  0.048883  0.293017  1
  O  O28  1  0.254148  0.077975  0.504281  1
  O  O29  1  0.758010  0.425658  0.497565  1
  O  O30  1  0.744172  0.574480  0.996260  1
  O  O31  1  0.243023  0.925975  0.002670  1
  O  O32  1  0.105197  0.662091  0.466494  1
  O  O33  1  0.608203  0.835998  0.537675  1
  O  O34  1  0.895579  0.161003  0.032637  1
  O  O35  1  0.397087  0.339455  0.968628  1
