# generated using pymatgen
data_Nd5Nb2O12
_symmetry_space_group_name_H-M   'P 1'
_cell_length_a   7.09876619
_cell_length_b   7.09876654
_cell_length_c   7.74735854
_cell_angle_alpha   74.10482997
_cell_angle_beta   74.10482556
_cell_angle_gamma   50.86546383
_symmetry_Int_Tables_number   1
_chemical_formula_structural   Nd5Nb2O12
_chemical_formula_sum   'Nd5 Nb2 O12'
_cell_volume   288.56523541
_cell_formula_units_Z   1
loop_
 _symmetry_equiv_pos_site_id
 _symmetry_equiv_pos_as_xyz
  1  'x, y, z'
loop_
 _atom_site_type_symbol
 _atom_site_label
 _atom_site_symmetry_multiplicity
 _atom_site_fract_x
 _atom_site_fract_y
 _atom_site_fract_z
 _atom_site_occupancy
  Nd  Nd0  1  0.304564  0.304564  0.360534  1
  Nd  Nd1  1  0.695436  0.695436  0.639466  1
  Nd  Nd2  1  0.690808  0.690808  0.171309  1
  Nd  Nd3  1  0.309192  0.309192  0.828691  1
  Nd  Nd4  1  0.000000  0.000000  0.500000  1
  Nb  Nb5  1  0.766924  0.233076  0.000000  1
  Nb  Nb6  1  0.233076  0.766924  0.000000  1
  O  O7  1  0.095376  0.593954  0.576916  1
  O  O8  1  0.999053  0.999053  0.191547  1
  O  O9  1  0.406046  0.904624  0.423084  1
  O  O10  1  0.500473  0.500473  0.178833  1
  O  O11  1  0.100036  0.576720  0.080658  1
  O  O12  1  0.904624  0.406046  0.423084  1
  O  O13  1  0.000947  0.000947  0.808453  1
  O  O14  1  0.593954  0.095375  0.576916  1
  O  O15  1  0.499527  0.499527  0.821167  1
  O  O16  1  0.576720  0.100036  0.080658  1
  O  O17  1  0.423280  0.899964  0.919342  1
  O  O18  1  0.899964  0.423280  0.919342  1
