# generated using pymatgen
data_Dy16Cd4CoIrRu2
_symmetry_space_group_name_H-M   'P 1'
_cell_length_a   9.62445036
_cell_length_b   9.58064212
_cell_length_c   9.66316200
_cell_angle_alpha   59.71467356
_cell_angle_beta   59.86686355
_cell_angle_gamma   59.62053901
_symmetry_Int_Tables_number   1
_chemical_formula_structural   Dy16Cd4CoIrRu2
_chemical_formula_sum   'Dy16 Cd4 Co1 Ir1 Ru2'
_cell_volume   626.23806539
_cell_formula_units_Z   1
loop_
 _symmetry_equiv_pos_site_id
 _symmetry_equiv_pos_as_xyz
  1  'x, y, z'
loop_
 _atom_site_type_symbol
 _atom_site_label
 _atom_site_symmetry_multiplicity
 _atom_site_fract_x
 _atom_site_fract_y
 _atom_site_fract_z
 _atom_site_occupancy
  Dy  Dy0  1  0.593578  0.603183  0.593883  1
  Dy  Dy1  1  0.593578  0.603183  0.209356  1
  Dy  Dy2  1  0.597097  0.208001  0.597451  1
  Dy  Dy3  1  0.212889  0.601404  0.592854  1
  Dy  Dy4  1  0.061948  0.437270  0.440832  1
  Dy  Dy5  1  0.437658  0.057792  0.065381  1
  Dy  Dy6  1  0.437658  0.057792  0.439169  1
  Dy  Dy7  1  0.061948  0.437270  0.059951  1
  Dy  Dy8  1  0.439093  0.438105  0.061401  1
  Dy  Dy9  1  0.064793  0.055753  0.439727  1
  Dy  Dy10  1  0.186908  0.809480  0.815663  1
  Dy  Dy11  1  0.809241  0.189601  0.189467  1
  Dy  Dy12  1  0.809241  0.189601  0.811691  1
  Dy  Dy13  1  0.186908  0.809480  0.187949  1
  Dy  Dy14  1  0.814417  0.810184  0.187699  1
  Dy  Dy15  1  0.189225  0.189550  0.810612  1
  Cd  Cd16  1  0.830984  0.829469  0.830981  1
  Cd  Cd17  1  0.830984  0.829469  0.508565  1
  Cd  Cd18  1  0.830754  0.507254  0.830997  1
  Cd  Cd19  1  0.507060  0.829765  0.831588  1
  Co  Co20  1  0.393196  0.830200  0.388302  1
  Ir  Ir21  1  0.827506  0.393813  0.389340  1
  Ru  Ru22  1  0.391668  0.391192  0.387205  1
  Ru  Ru23  1  0.391668  0.391192  0.829935  1
