# generated using pymatgen
data_Dy4Al2(ReOs)3
_symmetry_space_group_name_H-M   'P 1'
_cell_length_a   5.35735030
_cell_length_b   5.37261393
_cell_length_c   8.93999100
_cell_angle_alpha   90.00000000
_cell_angle_beta   90.00000000
_cell_angle_gamma   120.09429834
_symmetry_Int_Tables_number   1
_chemical_formula_structural   Dy4Al2(ReOs)3
_chemical_formula_sum   'Dy4 Al2 Re3 Os3'
_cell_volume   222.63320307
_cell_formula_units_Z   1
loop_
 _symmetry_equiv_pos_site_id
 _symmetry_equiv_pos_as_xyz
  1  'x, y, z'
loop_
 _atom_site_type_symbol
 _atom_site_label
 _atom_site_symmetry_multiplicity
 _atom_site_fract_x
 _atom_site_fract_y
 _atom_site_fract_z
 _atom_site_occupancy
  Dy  Dy0  1  0.331381  0.665692  0.437252  1
  Dy  Dy1  1  0.660646  0.330323  0.557629  1
  Dy  Dy2  1  0.660646  0.330323  0.942371  1
  Dy  Dy3  1  0.331381  0.665692  0.062748  1
  Al  Al4  1  0.179271  0.837108  0.750000  1
  Al  Al5  1  0.179271  0.342164  0.750000  1
  Re  Re6  1  0.832371  0.170160  0.250000  1
  Re  Re7  1  0.832371  0.662210  0.250000  1
  Re  Re8  1  0.344195  0.172096  0.250000  1
  Os  Os9  1  0.986039  0.993020  0.504941  1
  Os  Os10  1  0.986039  0.993020  0.995059  1
  Os  Os11  1  0.676387  0.838194  0.750000  1
