# generated using pymatgen
data_Ho4Lu2Al24CuRu4Rh3
_symmetry_space_group_name_H-M   'P 1'
_cell_length_a   8.81242500
_cell_length_b   8.75908008
_cell_length_c   9.52909700
_cell_angle_alpha   90.00000000
_cell_angle_beta   90.00000000
_cell_angle_gamma   119.96982907
_symmetry_Int_Tables_number   1
_chemical_formula_structural   Ho4Lu2Al24CuRu4Rh3
_chemical_formula_sum   'Ho4 Lu2 Al24 Cu1 Ru4 Rh3'
_cell_volume   637.18899334
_cell_formula_units_Z   1
loop_
 _symmetry_equiv_pos_site_id
 _symmetry_equiv_pos_as_xyz
  1  'x, y, z'
loop_
 _atom_site_type_symbol
 _atom_site_label
 _atom_site_symmetry_multiplicity
 _atom_site_fract_x
 _atom_site_fract_y
 _atom_site_fract_z
 _atom_site_occupancy
  Ho  Ho0  1  0.617280  0.808658  0.249129  1
  Ho  Ho1  1  0.382720  0.191342  0.750871  1
  Ho  Ho2  1  0.189287  0.801951  0.250299  1
  Ho  Ho3  1  0.810713  0.198049  0.749701  1
  Lu  Lu4  1  0.190637  0.390286  0.249587  1
  Lu  Lu5  1  0.809363  0.609714  0.750413  1
  Al  Al6  1  0.331161  0.666691  0.026409  1
  Al  Al7  1  0.668839  0.333309  0.973591  1
  Al  Al8  1  0.668460  0.334574  0.525529  1
  Al  Al9  1  0.331540  0.665426  0.474471  1
  Al  Al10  1  0.162634  0.326724  0.576191  1
  Al  Al11  1  0.837366  0.673276  0.423809  1
  Al  Al12  1  0.675606  0.837672  0.578073  1
  Al  Al13  1  0.841429  0.673949  0.077882  1
  Al  Al14  1  0.324394  0.162328  0.421927  1
  Al  Al15  1  0.158571  0.326051  0.922118  1
  Al  Al16  1  0.161933  0.835403  0.578016  1
  Al  Al17  1  0.323792  0.158468  0.080032  1
  Al  Al18  1  0.838067  0.164597  0.421984  1
  Al  Al19  1  0.676208  0.841532  0.919968  1
  Al  Al20  1  0.837754  0.164757  0.078377  1
  Al  Al21  1  0.162246  0.835243  0.921623  1
  Al  Al22  1  0.560970  0.122550  0.249329  1
  Al  Al23  1  0.439030  0.877450  0.750671  1
  Al  Al24  1  0.876389  0.437297  0.249401  1
  Al  Al25  1  0.123611  0.562703  0.750599  1
  Al  Al26  1  0.560158  0.437727  0.250692  1
  Al  Al27  1  0.439842  0.562273  0.749308  1
  Al  Al28  1  0.999481  0.002210  0.250252  1
  Al  Al29  1  0.000519  0.997790  0.749748  1
  Cu  Cu30  1  0.500000  0.500000  0.000000  1
  Ru  Ru31  1  0.000000  0.500000  0.000000  1
  Ru  Ru32  1  0.000000  0.500000  0.500000  1
  Ru  Ru33  1  0.000000  0.000000  0.000000  1
  Ru  Ru34  1  0.000000  0.000000  0.500000  1
  Rh  Rh35  1  0.500000  0.000000  0.000000  1
  Rh  Rh36  1  0.500000  0.000000  0.500000  1
  Rh  Rh37  1  0.500000  0.500000  0.500000  1
