# generated using pymatgen
data_Hf8Nb2CuSn7
_symmetry_space_group_name_H-M   'P 1'
_cell_length_a   5.79284301
_cell_length_b   8.62875137
_cell_length_c   8.62875700
_cell_angle_alpha   119.99998506
_cell_angle_beta   89.99951752
_cell_angle_gamma   90.00095786
_symmetry_Int_Tables_number   1
_chemical_formula_structural   Hf8Nb2CuSn7
_chemical_formula_sum   'Hf8 Nb2 Cu1 Sn7'
_cell_volume   373.52411940
_cell_formula_units_Z   1
loop_
 _symmetry_equiv_pos_site_id
 _symmetry_equiv_pos_as_xyz
  1  'x, y, z'
loop_
 _atom_site_type_symbol
 _atom_site_label
 _atom_site_symmetry_multiplicity
 _atom_site_fract_x
 _atom_site_fract_y
 _atom_site_fract_z
 _atom_site_occupancy
  Hf  Hf0  1  0.000002  0.666662  0.333328  1
  Hf  Hf1  1  0.000002  0.333334  0.666672  1
  Hf  Hf2  1  0.736694  0.274506  0.000000  1
  Hf  Hf3  1  0.736711  0.725504  0.725484  1
  Hf  Hf4  1  0.736711  0.000020  0.274516  1
  Hf  Hf5  1  0.263300  0.725498  0.000000  1
  Hf  Hf6  1  0.263290  0.274496  0.274514  1
  Hf  Hf7  1  0.263290  0.999982  0.725486  1
  Nb  Nb8  1  0.500000  0.333337  0.666674  1
  Nb  Nb9  1  0.500000  0.666663  0.333326  1
  Cu  Cu10  1  0.499999  0.000001  0.000000  1
  Sn  Sn11  1  0.750948  0.613922  0.000000  1
  Sn  Sn12  1  0.750949  0.386109  0.386114  1
  Sn  Sn13  1  0.750949  0.999995  0.613886  1
  Sn  Sn14  1  0.249051  0.386080  0.000000  1
  Sn  Sn15  1  0.249053  0.613888  0.613885  1
  Sn  Sn16  1  0.249053  0.000003  0.386115  1
  Sn  Sn17  1  0.999998  0.000001  0.000000  1
