# generated using pymatgen
data_Li2Sm3AgPb3
_symmetry_space_group_name_H-M   'P 1'
_cell_length_a   7.53477800
_cell_length_b   7.51920085
_cell_length_c   4.72450500
_cell_angle_alpha   90.00000000
_cell_angle_beta   90.00000000
_cell_angle_gamma   120.06855332
_symmetry_Int_Tables_number   1
_chemical_formula_structural   Li2Sm3AgPb3
_chemical_formula_sum   'Li2 Sm3 Ag1 Pb3'
_cell_volume   231.64806185
_cell_formula_units_Z   1
loop_
 _symmetry_equiv_pos_site_id
 _symmetry_equiv_pos_as_xyz
  1  'x, y, z'
loop_
 _atom_site_type_symbol
 _atom_site_label
 _atom_site_symmetry_multiplicity
 _atom_site_fract_x
 _atom_site_fract_y
 _atom_site_fract_z
 _atom_site_occupancy
  Li  Li0  1  0.773140  0.768973  0.000000  1
  Li  Li1  1  0.004167  0.231027  0.000000  1
  Sm  Sm2  1  0.550851  0.000000  0.500000  1
  Sm  Sm3  1  0.432980  0.428788  0.500000  1
  Sm  Sm4  1  0.004191  0.571212  0.500000  1
  Ag  Ag5  1  0.235826  0.000000  0.000000  1
  Pb  Pb6  1  0.985886  0.000000  0.500000  1
  Pb  Pb7  1  0.335967  0.658975  0.000000  1
  Pb  Pb8  1  0.676993  0.341025  0.000000  1
