# generated using pymatgen
data_Tb4ReTc5Ru2
_symmetry_space_group_name_H-M   'P 1'
_cell_length_a   5.26235799
_cell_length_b   5.31493347
_cell_length_c   9.27301800
_cell_angle_alpha   90.00000000
_cell_angle_beta   90.00000000
_cell_angle_gamma   120.33106016
_symmetry_Int_Tables_number   1
_chemical_formula_structural   Tb4ReTc5Ru2
_chemical_formula_sum   'Tb4 Re1 Tc5 Ru2'
_cell_volume   223.85740736
_cell_formula_units_Z   1
loop_
 _symmetry_equiv_pos_site_id
 _symmetry_equiv_pos_as_xyz
  1  'x, y, z'
loop_
 _atom_site_type_symbol
 _atom_site_label
 _atom_site_symmetry_multiplicity
 _atom_site_fract_x
 _atom_site_fract_y
 _atom_site_fract_z
 _atom_site_occupancy
  Tb  Tb0  1  0.332821  0.666411  0.437878  1
  Tb  Tb1  1  0.664587  0.332293  0.562090  1
  Tb  Tb2  1  0.664587  0.332293  0.937910  1
  Tb  Tb3  1  0.332821  0.666411  0.062122  1
  Re  Re4  1  0.668347  0.834173  0.750000  1
  Tc  Tc5  1  0.830198  0.170290  0.250000  1
  Tc  Tc6  1  0.830198  0.659907  0.250000  1
  Tc  Tc7  1  0.343469  0.171734  0.250000  1
  Tc  Tc8  1  0.176335  0.830711  0.750000  1
  Tc  Tc9  1  0.176335  0.345625  0.750000  1
  Ru  Ru10  1  0.990151  0.995075  0.500170  1
  Ru  Ru11  1  0.990151  0.995075  0.999830  1
