# generated using pymatgen
data_BPb3BrO4
_symmetry_space_group_name_H-M   'P 1'
_cell_length_a   7.25351100
_cell_length_b   8.92714400
_cell_length_c   11.84072000
_cell_angle_alpha   90.00000000
_cell_angle_beta   90.00000000
_cell_angle_gamma   90.00000000
_symmetry_Int_Tables_number   1
_chemical_formula_structural   BPb3BrO4
_chemical_formula_sum   'B4 Pb12 Br4 O16'
_cell_volume   766.72376674
_cell_formula_units_Z   4
loop_
 _symmetry_equiv_pos_site_id
 _symmetry_equiv_pos_as_xyz
  1  'x, y, z'
loop_
 _atom_site_type_symbol
 _atom_site_label
 _atom_site_symmetry_multiplicity
 _atom_site_fract_x
 _atom_site_fract_y
 _atom_site_fract_z
 _atom_site_occupancy
  B  B0  1  0.250000  0.989898  0.500000  1
  B  B1  1  0.750000  0.010102  0.000000  1
  B  B2  1  0.750000  0.010102  0.500000  1
  B  B3  1  0.250000  0.989898  0.000000  1
  Pb  Pb4  1  0.491882  0.286982  0.406277  1
  Pb  Pb5  1  0.508118  0.713018  0.906277  1
  Pb  Pb6  1  0.008118  0.286982  0.593723  1
  Pb  Pb7  1  0.991882  0.713018  0.093723  1
  Pb  Pb8  1  0.508118  0.713018  0.593723  1
  Pb  Pb9  1  0.491882  0.286982  0.093723  1
  Pb  Pb10  1  0.991882  0.713018  0.406277  1
  Pb  Pb11  1  0.008118  0.286982  0.906277  1
  Pb  Pb12  1  0.407178  0.914633  0.250000  1
  Pb  Pb13  1  0.592822  0.085367  0.750000  1
  Pb  Pb14  1  0.092822  0.914633  0.750000  1
  Pb  Pb15  1  0.907178  0.085367  0.250000  1
  Br  Br16  1  0.163535  0.425880  0.250000  1
  Br  Br17  1  0.836465  0.574120  0.750000  1
  Br  Br18  1  0.336465  0.425880  0.750000  1
  Br  Br19  1  0.663535  0.574120  0.250000  1
  O  O20  1  0.588357  0.171335  0.250000  1
  O  O21  1  0.411643  0.828665  0.750000  1
  O  O22  1  0.911643  0.171335  0.750000  1
  O  O23  1  0.088357  0.828665  0.250000  1
  O  O24  1  0.308648  0.067386  0.405043  1
  O  O25  1  0.691352  0.932614  0.905043  1
  O  O26  1  0.191352  0.067386  0.594957  1
  O  O27  1  0.808648  0.932614  0.094957  1
  O  O28  1  0.691352  0.932614  0.594957  1
  O  O29  1  0.308648  0.067386  0.094957  1
  O  O30  1  0.808648  0.932614  0.405043  1
  O  O31  1  0.191352  0.067386  0.905043  1
  O  O32  1  0.750000  0.166520  0.500000  1
  O  O33  1  0.250000  0.833480  0.000000  1
  O  O34  1  0.250000  0.833480  0.500000  1
  O  O35  1  0.750000  0.166520  0.000000  1
