# generated using pymatgen
data_Ce2Ho2Al24IrPd8
_symmetry_space_group_name_H-M   'P 1'
_cell_length_a   7.55464937
_cell_length_b   7.57472783
_cell_length_c   13.17914268
_cell_angle_alpha   84.58844802
_cell_angle_beta   79.03703561
_cell_angle_gamma   59.92577406
_symmetry_Int_Tables_number   1
_chemical_formula_structural   Ce2Ho2Al24IrPd8
_chemical_formula_sum   'Ce2 Ho2 Al24 Ir1 Pd8'
_cell_volume   640.72928468
_cell_formula_units_Z   1
loop_
 _symmetry_equiv_pos_site_id
 _symmetry_equiv_pos_as_xyz
  1  'x, y, z'
loop_
 _atom_site_type_symbol
 _atom_site_label
 _atom_site_symmetry_multiplicity
 _atom_site_fract_x
 _atom_site_fract_y
 _atom_site_fract_z
 _atom_site_occupancy
  Ce  Ce0  1  0.393434  0.168515  0.808785  1
  Ce  Ce1  1  0.606566  0.831485  0.191215  1
  Ho  Ho2  1  0.733547  0.498252  0.809257  1
  Ho  Ho3  1  0.266453  0.501748  0.190743  1
  Al  Al4  1  0.687565  0.829887  0.945456  1
  Al  Al5  1  0.312435  0.170113  0.054544  1
  Al  Al6  1  0.145539  0.832996  0.561082  1
  Al  Al7  1  0.854461  0.167004  0.438918  1
  Al  Al8  1  0.479489  0.166962  0.559421  1
  Al  Al9  1  0.520511  0.833038  0.440579  1
  Al  Al10  1  0.216522  0.166212  0.329515  1
  Al  Al11  1  0.783478  0.833788  0.670485  1
  Al  Al12  1  0.436454  0.507812  0.670954  1
  Al  Al13  1  0.563546  0.492188  0.329046  1
  Al  Al14  1  0.108591  0.159571  0.668917  1
  Al  Al15  1  0.891409  0.840429  0.331083  1
  Al  Al16  1  0.349651  0.500385  0.946246  1
  Al  Al17  1  0.650349  0.499615  0.053754  1
  Al  Al18  1  0.013817  0.170635  0.955801  1
  Al  Al19  1  0.986183  0.829365  0.044199  1
  Al  Al20  1  0.186737  0.500043  0.441123  1
  Al  Al21  1  0.813263  0.499957  0.558877  1
  Al  Al22  1  0.734538  0.164102  0.183181  1
  Al  Al23  1  0.265462  0.835898  0.816819  1
  Al  Al24  1  0.060129  0.631289  0.817070  1
  Al  Al25  1  0.939871  0.368711  0.182930  1
  Al  Al26  1  0.856872  0.042380  0.816686  1
  Al  Al27  1  0.143128  0.957620  0.183314  1
  Ir  Ir28  1  0.000000  0.500000  0.000000  1
  Pd  Pd29  1  0.118444  0.493856  0.638556  1
  Pd  Pd30  1  0.881556  0.506144  0.361444  1
  Pd  Pd31  1  0.657294  0.171839  0.999907  1
  Pd  Pd32  1  0.342706  0.828161  0.000093  1
  Pd  Pd33  1  0.537786  0.168215  0.362470  1
  Pd  Pd34  1  0.462214  0.831785  0.637530  1
  Pd  Pd35  1  0.779656  0.174747  0.637441  1
  Pd  Pd36  1  0.220344  0.825253  0.362559  1
