# generated using pymatgen
data_La6Pr3Nd(Bi3Br)2
_symmetry_space_group_name_H-M   'P 1'
_cell_length_a   9.78904300
_cell_length_b   9.78904332
_cell_length_c   6.82094500
_cell_angle_alpha   90.00000000
_cell_angle_beta   90.00000000
_cell_angle_gamma   120.00000229
_symmetry_Int_Tables_number   1
_chemical_formula_structural   La6Pr3Nd(Bi3Br)2
_chemical_formula_sum   'La6 Pr3 Nd1 Bi6 Br2'
_cell_volume   566.05112264
_cell_formula_units_Z   1
loop_
 _symmetry_equiv_pos_site_id
 _symmetry_equiv_pos_as_xyz
  1  'x, y, z'
loop_
 _atom_site_type_symbol
 _atom_site_label
 _atom_site_symmetry_multiplicity
 _atom_site_fract_x
 _atom_site_fract_y
 _atom_site_fract_z
 _atom_site_occupancy
  La  La0  1  0.727210  0.000009  0.750035  1
  La  La1  1  0.999991  0.272790  0.249965  1
  La  La2  1  0.727210  0.727200  0.249965  1
  La  La3  1  0.272800  0.000009  0.249965  1
  La  La4  1  0.272800  0.272790  0.750035  1
  La  La5  1  0.999991  0.727200  0.750035  1
  Pr  Pr6  1  0.333333  0.666667  0.500000  1
  Pr  Pr7  1  0.333333  0.666667  0.000000  1
  Pr  Pr8  1  0.666667  0.333333  0.500000  1
  Nd  Nd9  1  0.666667  0.333333  0.000000  1
  Bi  Bi10  1  0.384200  0.000113  0.750101  1
  Bi  Bi11  1  0.615913  0.000113  0.249899  1
  Bi  Bi12  1  0.999887  0.615800  0.249899  1
  Bi  Bi13  1  0.615913  0.615800  0.750101  1
  Bi  Bi14  1  0.999887  0.384087  0.750101  1
  Bi  Bi15  1  0.384200  0.384087  0.249899  1
  Br  Br16  1  0.000000  0.000000  0.500000  1
  Br  Br17  1  0.000000  0.000000  0.000000  1
