# generated using pymatgen
data_Ho9Er3Fe2Sn2Os
_symmetry_space_group_name_H-M   'P 1'
_cell_length_a   8.34928141
_cell_length_b   8.34952205
_cell_length_c   8.34927941
_cell_angle_alpha   108.87385491
_cell_angle_beta   108.83709709
_cell_angle_gamma   110.70865299
_symmetry_Int_Tables_number   1
_chemical_formula_structural   Ho9Er3Fe2Sn2Os
_chemical_formula_sum   'Ho9 Er3 Fe2 Sn2 Os1'
_cell_volume   447.91102726
_cell_formula_units_Z   1
loop_
 _symmetry_equiv_pos_site_id
 _symmetry_equiv_pos_as_xyz
  1  'x, y, z'
loop_
 _atom_site_type_symbol
 _atom_site_label
 _atom_site_symmetry_multiplicity
 _atom_site_fract_x
 _atom_site_fract_y
 _atom_site_fract_z
 _atom_site_occupancy
  Ho  Ho0  1  0.308533  0.308122  0.615987  1
  Ho  Ho1  1  0.691099  0.692036  0.383725  1
  Ho  Ho2  1  0.308313  0.692036  0.000937  1
  Ho  Ho3  1  0.692135  0.308122  0.999589  1
  Ho  Ho4  1  0.430629  0.193283  0.237577  1
  Ho  Ho5  1  0.569754  0.806832  0.762762  1
  Ho  Ho6  1  0.955705  0.193283  0.762654  1
  Ho  Ho7  1  0.192526  0.955313  0.762787  1
  Ho  Ho8  1  0.044071  0.806832  0.237079  1
  Er  Er9  1  0.807698  0.043968  0.236268  1
  Er  Er10  1  0.192067  0.428851  0.236785  1
  Er  Er11  1  0.807628  0.571103  0.763475  1
  Fe  Fe12  1  0.385588  0.386218  0.000630  1
  Fe  Fe13  1  0.613609  0.613044  0.999433  1
  Sn  Sn14  1  0.500679  0.000792  0.500113  1
  Sn  Sn15  1  0.000033  0.500096  0.500061  1
  Os  Os16  1  0.999934  0.000069  0.000136  1
