# generated using pymatgen
data_La3Gd5(CdIr)2
_symmetry_space_group_name_H-M   'P 1'
_cell_length_a   9.85587651
_cell_length_b   9.85587636
_cell_length_c   9.85587600
_cell_angle_alpha   59.99999449
_cell_angle_beta   59.99999499
_cell_angle_gamma   59.99999810
_symmetry_Int_Tables_number   1
_chemical_formula_structural   La3Gd5(CdIr)2
_chemical_formula_sum   'La6 Gd10 Cd4 Ir4'
_cell_volume   676.97197775
_cell_formula_units_Z   2
loop_
 _symmetry_equiv_pos_site_id
 _symmetry_equiv_pos_as_xyz
  1  'x, y, z'
loop_
 _atom_site_type_symbol
 _atom_site_label
 _atom_site_symmetry_multiplicity
 _atom_site_fract_x
 _atom_site_fract_y
 _atom_site_fract_z
 _atom_site_occupancy
  La  La0  1  0.941528  0.558472  0.558472  1
  La  La1  1  0.558472  0.941528  0.941528  1
  La  La2  1  0.558472  0.941528  0.558472  1
  La  La3  1  0.941528  0.558472  0.941528  1
  La  La4  1  0.558472  0.558472  0.941528  1
  La  La5  1  0.941528  0.941528  0.558472  1
  Gd  Gd6  1  0.346002  0.346002  0.346002  1
  Gd  Gd7  1  0.346002  0.346002  0.961994  1
  Gd  Gd8  1  0.346002  0.961994  0.346002  1
  Gd  Gd9  1  0.961994  0.346002  0.346002  1
  Gd  Gd10  1  0.810863  0.189137  0.189137  1
  Gd  Gd11  1  0.189137  0.810863  0.810863  1
  Gd  Gd12  1  0.189137  0.810863  0.189137  1
  Gd  Gd13  1  0.810863  0.189137  0.810863  1
  Gd  Gd14  1  0.189137  0.189137  0.810863  1
  Gd  Gd15  1  0.810863  0.810863  0.189137  1
  Cd  Cd16  1  0.579008  0.579008  0.579008  1
  Cd  Cd17  1  0.579008  0.579008  0.262974  1
  Cd  Cd18  1  0.579008  0.262974  0.579008  1
  Cd  Cd19  1  0.262974  0.579008  0.579008  1
  Ir  Ir20  1  0.140285  0.140285  0.140285  1
  Ir  Ir21  1  0.140285  0.140285  0.579143  1
  Ir  Ir22  1  0.140285  0.579143  0.140285  1
  Ir  Ir23  1  0.579143  0.140285  0.140285  1
