# generated using pymatgen
data_Tb2DyThMgRu
_symmetry_space_group_name_H-M   'P 1'
_cell_length_a   9.76939410
_cell_length_b   9.76939456
_cell_length_c   9.76936800
_cell_angle_alpha   60.00008992
_cell_angle_beta   60.00008836
_cell_angle_gamma   59.99981370
_symmetry_Int_Tables_number   1
_chemical_formula_structural   Tb2DyThMgRu
_chemical_formula_sum   'Tb8 Dy4 Th4 Mg4 Ru4'
_cell_volume   659.30553873
_cell_formula_units_Z   4
loop_
 _symmetry_equiv_pos_site_id
 _symmetry_equiv_pos_as_xyz
  1  'x, y, z'
loop_
 _atom_site_type_symbol
 _atom_site_label
 _atom_site_symmetry_multiplicity
 _atom_site_fract_x
 _atom_site_fract_y
 _atom_site_fract_z
 _atom_site_occupancy
  Tb  Tb0  1  0.436440  0.436440  0.063560  1
  Tb  Tb1  1  0.063560  0.063560  0.436440  1
  Tb  Tb2  1  0.185773  0.814227  0.814227  1
  Tb  Tb3  1  0.814227  0.185773  0.185773  1
  Tb  Tb4  1  0.814227  0.185773  0.814227  1
  Tb  Tb5  1  0.185773  0.814227  0.185773  1
  Tb  Tb6  1  0.814180  0.814180  0.185820  1
  Tb  Tb7  1  0.185820  0.185820  0.814180  1
  Dy  Dy8  1  0.063568  0.436432  0.436432  1
  Dy  Dy9  1  0.436432  0.063568  0.063568  1
  Dy  Dy10  1  0.436432  0.063568  0.436432  1
  Dy  Dy11  1  0.063568  0.436432  0.063568  1
  Th  Th12  1  0.595917  0.595917  0.595746  1
  Th  Th13  1  0.595917  0.595917  0.212421  1
  Th  Th14  1  0.595746  0.212421  0.595917  1
  Th  Th15  1  0.212421  0.595746  0.595917  1
  Mg  Mg16  1  0.829759  0.829759  0.829813  1
  Mg  Mg17  1  0.829759  0.829759  0.510668  1
  Mg  Mg18  1  0.829813  0.510668  0.829759  1
  Mg  Mg19  1  0.510668  0.829813  0.829759  1
  Ru  Ru20  1  0.393604  0.393604  0.393903  1
  Ru  Ru21  1  0.393604  0.393604  0.818890  1
  Ru  Ru22  1  0.393903  0.818890  0.393604  1
  Ru  Ru23  1  0.818890  0.393903  0.393604  1
