# generated using pymatgen
data_Y6Er6Co4BiOs
_symmetry_space_group_name_H-M   'P 1'
_cell_length_a   8.31714349
_cell_length_b   8.30224761
_cell_length_c   8.30224797
_cell_angle_alpha   110.47203871
_cell_angle_beta   111.13073881
_cell_angle_gamma   106.77342890
_symmetry_Int_Tables_number   1
_chemical_formula_structural   Y6Er6Co4BiOs
_chemical_formula_sum   'Y6 Er6 Co4 Bi1 Os1'
_cell_volume   440.96287896
_cell_formula_units_Z   1
loop_
 _symmetry_equiv_pos_site_id
 _symmetry_equiv_pos_as_xyz
  1  'x, y, z'
loop_
 _atom_site_type_symbol
 _atom_site_label
 _atom_site_symmetry_multiplicity
 _atom_site_fract_x
 _atom_site_fract_y
 _atom_site_fract_z
 _atom_site_occupancy
  Y  Y0  1  0.280541  0.181089  0.463345  1
  Y  Y1  1  0.719459  0.818911  0.536655  1
  Y  Y2  1  0.280541  0.817195  0.099452  1
  Y  Y3  1  0.719459  0.182805  0.900548  1
  Y  Y4  1  0.619341  0.311593  0.307748  1
  Y  Y5  1  0.380659  0.688407  0.692252  1
  Er  Er6  1  0.002073  0.311833  0.690238  1
  Er  Er7  1  0.997927  0.688167  0.309762  1
  Er  Er8  1  0.212403  0.409580  0.195539  1
  Er  Er9  1  0.787597  0.590420  0.804461  1
  Er  Er10  1  0.212403  0.016864  0.802823  1
  Er  Er11  1  0.787597  0.983136  0.197177  1
  Co  Co12  1  0.000000  0.375661  0.375661  1
  Co  Co13  1  0.000000  0.624339  0.624339  1
  Co  Co14  1  0.387994  0.889175  0.498820  1
  Co  Co15  1  0.612006  0.110825  0.501180  1
  Bi  Bi16  1  0.500000  0.500000  0.000000  1
  Os  Os17  1  0.000000  0.000000  0.000000  1
