# generated using pymatgen
data_Sb2IF17
_symmetry_space_group_name_H-M   'P 1'
_cell_length_a   8.65776200
_cell_length_b   12.15430876
_cell_length_c   16.13429800
_cell_angle_alpha   49.21183562
_cell_angle_beta   90.00000000
_cell_angle_gamma   90.00000000
_symmetry_Int_Tables_number   1
_chemical_formula_structural   Sb2IF17
_chemical_formula_sum   'Sb8 I4 F68'
_cell_volume   1285.45372261
_cell_formula_units_Z   4
loop_
 _symmetry_equiv_pos_site_id
 _symmetry_equiv_pos_as_xyz
  1  'x, y, z'
loop_
 _atom_site_type_symbol
 _atom_site_label
 _atom_site_symmetry_multiplicity
 _atom_site_fract_x
 _atom_site_fract_y
 _atom_site_fract_z
 _atom_site_occupancy
  Sb  Sb0  1  0.521737  0.534153  0.156153  1
  Sb  Sb1  1  0.978263  0.534153  0.656153  1
  Sb  Sb2  1  0.478263  0.465847  0.843847  1
  Sb  Sb3  1  0.021737  0.465847  0.343847  1
  Sb  Sb4  1  0.502613  0.916381  0.857135  1
  Sb  Sb5  1  0.997387  0.916381  0.357135  1
  Sb  Sb6  1  0.497387  0.083619  0.142865  1
  Sb  Sb7  1  0.002613  0.083619  0.642865  1
  I  I8  1  0.500000  0.500000  0.500000  1
  I  I9  1  0.000000  0.500000  0.000000  1
  I  I10  1  0.500000  0.000000  0.500000  1
  I  I11  1  0.000000  0.000000  0.000000  1
  F  F12  1  0.334565  0.452346  0.155700  1
  F  F13  1  0.165435  0.452346  0.655700  1
  F  F14  1  0.665435  0.547654  0.844300  1
  F  F15  1  0.834565  0.547654  0.344300  1
  F  F16  1  0.409603  0.656812  0.169268  1
  F  F17  1  0.090397  0.656812  0.669268  1
  F  F18  1  0.590397  0.343188  0.830732  1
  F  F19  1  0.909603  0.343188  0.330732  1
  F  F20  1  0.707674  0.634397  0.132873  1
  F  F21  1  0.792326  0.634397  0.632873  1
  F  F22  1  0.292326  0.365603  0.867127  1
  F  F23  1  0.207674  0.365603  0.367127  1
  F  F24  1  0.630486  0.433760  0.120645  1
  F  F25  1  0.869514  0.433760  0.620645  1
  F  F26  1  0.369514  0.566240  0.879355  1
  F  F27  1  0.130486  0.566240  0.379355  1
  F  F28  1  0.519668  0.118141  0.735094  1
  F  F29  1  0.980332  0.118141  0.235094  1
  F  F30  1  0.480332  0.881859  0.264906  1
  F  F31  1  0.019668  0.881859  0.764906  1
  F  F32  1  0.550809  0.386219  0.309873  1
  F  F33  1  0.949191  0.386219  0.809873  1
  F  F34  1  0.449191  0.613781  0.690127  1
  F  F35  1  0.050809  0.613781  0.190127  1
  F  F36  1  0.426989  0.871902  0.771334  1
  F  F37  1  0.073011  0.871902  0.271334  1
  F  F38  1  0.573011  0.128098  0.228666  1
  F  F39  1  0.926989  0.128098  0.728666  1
  F  F40  1  0.483781  0.693796  0.989013  1
  F  F41  1  0.016219  0.693796  0.489013  1
  F  F42  1  0.516219  0.306204  0.010987  1
  F  F43  1  0.983781  0.306204  0.510987  1
  F  F44  1  0.296578  0.922660  0.895014  1
  F  F45  1  0.203422  0.922660  0.395014  1
  F  F46  1  0.703422  0.077340  0.104986  1
  F  F47  1  0.796578  0.077340  0.604986  1
  F  F48  1  0.579469  0.935370  0.957506  1
  F  F49  1  0.920531  0.935370  0.457506  1
  F  F50  1  0.420531  0.064630  0.042494  1
  F  F51  1  0.079469  0.064630  0.542494  1
  F  F52  1  0.705890  0.869563  0.844072  1
  F  F53  1  0.794110  0.869563  0.344072  1
  F  F54  1  0.294110  0.130437  0.155928  1
  F  F55  1  0.205890  0.130437  0.655928  1
  F  F56  1  0.654879  0.631963  0.451455  1
  F  F57  1  0.845121  0.631963  0.951455  1
  F  F58  1  0.345121  0.368037  0.548545  1
  F  F59  1  0.154879  0.368037  0.048545  1
  F  F60  1  0.529466  0.428247  0.639920  1
  F  F61  1  0.970534  0.428247  0.139920  1
  F  F62  1  0.470534  0.571753  0.360080  1
  F  F63  1  0.029466  0.571753  0.860080  1
  F  F64  1  0.638263  0.367468  0.524191  1
  F  F65  1  0.861737  0.367468  0.024191  1
  F  F66  1  0.361737  0.632532  0.475809  1
  F  F67  1  0.138263  0.632532  0.975809  1
  F  F68  1  0.522514  0.890116  0.460593  1
  F  F69  1  0.977486  0.890116  0.960593  1
  F  F70  1  0.477486  0.109884  0.539407  1
  F  F71  1  0.022514  0.109884  0.039407  1
  F  F72  1  0.669926  0.105089  0.419459  1
  F  F73  1  0.830074  0.105089  0.919459  1
  F  F74  1  0.330074  0.894911  0.580541  1
  F  F75  1  0.169926  0.894911  0.080541  1
  F  F76  1  0.622628  0.872183  0.618842  1
  F  F77  1  0.877372  0.872183  0.118842  1
  F  F78  1  0.377372  0.127817  0.381158  1
  F  F79  1  0.122628  0.127817  0.881158  1
