# generated using pymatgen
data_NdHo(ZnPb)2
_symmetry_space_group_name_H-M   'P 1'
_cell_length_a   4.64889000
_cell_length_b   4.64888964
_cell_length_c   16.18260300
_cell_angle_alpha   90.00000000
_cell_angle_beta   90.00000000
_cell_angle_gamma   119.99998834
_symmetry_Int_Tables_number   1
_chemical_formula_structural   NdHo(ZnPb)2
_chemical_formula_sum   'Nd2 Ho2 Zn4 Pb4'
_cell_volume   302.88486289
_cell_formula_units_Z   2
loop_
 _symmetry_equiv_pos_site_id
 _symmetry_equiv_pos_as_xyz
  1  'x, y, z'
loop_
 _atom_site_type_symbol
 _atom_site_label
 _atom_site_symmetry_multiplicity
 _atom_site_fract_x
 _atom_site_fract_y
 _atom_site_fract_z
 _atom_site_occupancy
  Nd  Nd0  1  0.000000  0.000000  0.000000  1
  Nd  Nd1  1  0.000000  0.000000  0.500000  1
  Ho  Ho2  1  0.000000  0.000000  0.250000  1
  Ho  Ho3  1  0.000000  0.000000  0.750000  1
  Zn  Zn4  1  0.333333  0.666667  0.166749  1
  Zn  Zn5  1  0.666667  0.333333  0.833251  1
  Zn  Zn6  1  0.666667  0.333333  0.666749  1
  Zn  Zn7  1  0.333333  0.666667  0.333251  1
  Pb  Pb8  1  0.333333  0.666667  0.615382  1
  Pb  Pb9  1  0.666667  0.333333  0.384618  1
  Pb  Pb10  1  0.666667  0.333333  0.115382  1
  Pb  Pb11  1  0.333333  0.666667  0.884618  1
