# generated using pymatgen
data_BaSc2PbO5
_symmetry_space_group_name_H-M   'P 1'
_cell_length_a   4.16076800
_cell_length_b   5.99885600
_cell_length_c   22.43567300
_cell_angle_alpha   90.00000000
_cell_angle_beta   90.00000000
_cell_angle_gamma   90.00000000
_symmetry_Int_Tables_number   1
_chemical_formula_structural   BaSc2PbO5
_chemical_formula_sum   'Ba4 Sc8 Pb4 O20'
_cell_volume   559.99098968
_cell_formula_units_Z   4
loop_
 _symmetry_equiv_pos_site_id
 _symmetry_equiv_pos_as_xyz
  1  'x, y, z'
loop_
 _atom_site_type_symbol
 _atom_site_label
 _atom_site_symmetry_multiplicity
 _atom_site_fract_x
 _atom_site_fract_y
 _atom_site_fract_z
 _atom_site_occupancy
  Ba  Ba0  1  0.250000  0.517323  0.186566  1
  Ba  Ba1  1  0.750000  0.482677  0.813434  1
  Ba  Ba2  1  0.750000  0.982677  0.686566  1
  Ba  Ba3  1  0.250000  0.017323  0.313434  1
  Sc  Sc4  1  0.250000  0.975581  0.813807  1
  Sc  Sc5  1  0.750000  0.024419  0.186193  1
  Sc  Sc6  1  0.750000  0.524419  0.313807  1
  Sc  Sc7  1  0.250000  0.475581  0.686193  1
  Sc  Sc8  1  0.250000  0.982044  0.554189  1
  Sc  Sc9  1  0.750000  0.017956  0.445811  1
  Sc  Sc10  1  0.750000  0.517956  0.054189  1
  Sc  Sc11  1  0.250000  0.482044  0.945811  1
  Pb  Pb12  1  0.250000  0.998971  0.074931  1
  Pb  Pb13  1  0.750000  0.001029  0.925069  1
  Pb  Pb14  1  0.750000  0.501029  0.574931  1
  Pb  Pb15  1  0.250000  0.498971  0.425069  1
  O  O16  1  0.250000  0.562262  0.038370  1
  O  O17  1  0.750000  0.437738  0.961630  1
  O  O18  1  0.750000  0.937738  0.538370  1
  O  O19  1  0.250000  0.062262  0.461630  1
  O  O20  1  0.250000  0.708750  0.608858  1
  O  O21  1  0.750000  0.291250  0.391142  1
  O  O22  1  0.750000  0.791250  0.108858  1
  O  O23  1  0.250000  0.208750  0.891142  1
  O  O24  1  0.250000  0.724920  0.886910  1
  O  O25  1  0.750000  0.275080  0.113090  1
  O  O26  1  0.750000  0.775080  0.386910  1
  O  O27  1  0.250000  0.224920  0.613090  1
  O  O28  1  0.250000  0.728429  0.749618  1
  O  O29  1  0.750000  0.271571  0.250382  1
  O  O30  1  0.750000  0.771571  0.249618  1
  O  O31  1  0.250000  0.228429  0.750382  1
  O  O32  1  0.250000  0.516683  0.323107  1
  O  O33  1  0.750000  0.483317  0.676893  1
  O  O34  1  0.750000  0.983317  0.823107  1
  O  O35  1  0.250000  0.016683  0.176893  1
