# generated using pymatgen
data_Ca3LaTi4O12
_symmetry_space_group_name_H-M   'P 1'
_cell_length_a   7.78024900
_cell_length_b   5.46749309
_cell_length_c   5.53531385
_cell_angle_alpha   90.04718921
_cell_angle_beta   90.00000000
_cell_angle_gamma   90.00000000
_symmetry_Int_Tables_number   1
_chemical_formula_structural   Ca3LaTi4O12
_chemical_formula_sum   'Ca3 La1 Ti4 O12'
_cell_volume   235.46363378
_cell_formula_units_Z   1
loop_
 _symmetry_equiv_pos_site_id
 _symmetry_equiv_pos_as_xyz
  1  'x, y, z'
loop_
 _atom_site_type_symbol
 _atom_site_label
 _atom_site_symmetry_multiplicity
 _atom_site_fract_x
 _atom_site_fract_y
 _atom_site_fract_z
 _atom_site_occupancy
  Ca  Ca0  1  0.500000  0.006576  0.036488  1
  Ca  Ca1  1  0.500000  0.493082  0.541811  1
  Ca  Ca2  1  0.000000  0.992718  0.961251  1
  La  La3  1  0.000000  0.505305  0.466796  1
  Ti  Ti4  1  0.254207  0.499455  0.999740  1
  Ti  Ti5  1  0.254882  0.000554  0.499551  1
  Ti  Ti6  1  0.745118  0.000554  0.499551  1
  Ti  Ti7  1  0.745793  0.499455  0.999740  1
  O  O8  1  0.286558  0.292764  0.291691  1
  O  O9  1  0.208601  0.788928  0.211832  1
  O  O10  1  0.710551  0.212094  0.787402  1
  O  O11  1  0.783530  0.711591  0.711458  1
  O  O12  1  0.216470  0.711591  0.711458  1
  O  O13  1  0.289449  0.212094  0.787402  1
  O  O14  1  0.791399  0.788928  0.211832  1
  O  O15  1  0.713442  0.292764  0.291691  1
  O  O16  1  0.500000  0.925736  0.476324  1
  O  O17  1  0.000000  0.426113  0.009799  1
  O  O18  1  0.500000  0.574790  0.984329  1
  O  O19  1  0.000000  0.064905  0.519854  1
