# generated using pymatgen
data_La8Pr8Cd3HgIr4
_symmetry_space_group_name_H-M   'P 1'
_cell_length_a   10.04965614
_cell_length_b   10.04949720
_cell_length_c   10.10352114
_cell_angle_alpha   59.80667835
_cell_angle_beta   59.80692895
_cell_angle_gamma   60.43246380
_symmetry_Int_Tables_number   1
_chemical_formula_structural   La8Pr8Cd3HgIr4
_chemical_formula_sum   'La8 Pr8 Cd3 Hg1 Ir4'
_cell_volume   721.72177595
_cell_formula_units_Z   1
loop_
 _symmetry_equiv_pos_site_id
 _symmetry_equiv_pos_as_xyz
  1  'x, y, z'
loop_
 _atom_site_type_symbol
 _atom_site_label
 _atom_site_symmetry_multiplicity
 _atom_site_fract_x
 _atom_site_fract_y
 _atom_site_fract_z
 _atom_site_occupancy
  La  La0  1  0.346013  0.346001  0.348370  1
  La  La1  1  0.347508  0.347500  0.955759  1
  La  La2  1  0.349812  0.956421  0.346889  1
  La  La3  1  0.956436  0.349842  0.346869  1
  La  La4  1  0.810516  0.189155  0.189453  1
  La  La5  1  0.189765  0.808895  0.809405  1
  La  La6  1  0.189155  0.810497  0.189477  1
  La  La7  1  0.808910  0.189744  0.809421  1
  Pr  Pr8  1  0.191998  0.192001  0.807843  1
  Pr  Pr9  1  0.805332  0.805336  0.193210  1
  Pr  Pr10  1  0.937433  0.563060  0.563397  1
  Pr  Pr11  1  0.561927  0.936925  0.936916  1
  Pr  Pr12  1  0.563057  0.937442  0.563393  1
  Pr  Pr13  1  0.936923  0.561932  0.936913  1
  Pr  Pr14  1  0.561408  0.561407  0.939311  1
  Pr  Pr15  1  0.938727  0.938741  0.561096  1
  Cd  Cd16  1  0.580456  0.580473  0.259391  1
  Cd  Cd17  1  0.578956  0.259155  0.580428  1
  Cd  Cd18  1  0.259124  0.578966  0.580430  1
  Hg  Hg19  1  0.583608  0.583609  0.581539  1
  Ir  Ir20  1  0.139044  0.139035  0.145928  1
  Ir  Ir21  1  0.139404  0.139396  0.576561  1
  Ir  Ir22  1  0.147396  0.577088  0.138994  1
  Ir  Ir23  1  0.577090  0.147377  0.139005  1
