# generated using pymatgen
data_La2Y10ZnCo4Hg
_symmetry_space_group_name_H-M   'P 1'
_cell_length_a   8.51579649
_cell_length_b   8.28606877
_cell_length_c   8.28607030
_cell_angle_alpha   111.45131531
_cell_angle_beta   108.65969909
_cell_angle_gamma   107.29141917
_symmetry_Int_Tables_number   1
_chemical_formula_structural   La2Y10ZnCo4Hg
_chemical_formula_sum   'La2 Y10 Zn1 Co4 Hg1'
_cell_volume   455.14921802
_cell_formula_units_Z   1
loop_
 _symmetry_equiv_pos_site_id
 _symmetry_equiv_pos_as_xyz
  1  'x, y, z'
loop_
 _atom_site_type_symbol
 _atom_site_label
 _atom_site_symmetry_multiplicity
 _atom_site_fract_x
 _atom_site_fract_y
 _atom_site_fract_z
 _atom_site_occupancy
  La  La0  1  0.425715  0.222317  0.203398  1
  La  La1  1  0.574285  0.777683  0.796602  1
  Y  Y2  1  0.038235  0.237709  0.800525  1
  Y  Y3  1  0.961765  0.762291  0.199475  1
  Y  Y4  1  0.175900  0.282445  0.460614  1
  Y  Y5  1  0.824100  0.717555  0.539386  1
  Y  Y6  1  0.175900  0.715287  0.893454  1
  Y  Y7  1  0.824100  0.284713  0.106546  1
  Y  Y8  1  0.317642  0.638299  0.304111  1
  Y  Y9  1  0.682358  0.361701  0.695889  1
  Y  Y10  1  0.317642  0.013530  0.679342  1
  Y  Y11  1  0.682358  0.986470  0.320658  1
  Zn  Zn12  1  0.000000  0.000000  0.000000  1
  Co  Co13  1  0.341227  0.004534  0.336693  1
  Co  Co14  1  0.658773  0.995466  0.663307  1
  Co  Co15  1  0.094672  0.612775  0.481897  1
  Co  Co16  1  0.905328  0.387225  0.518103  1
  Hg  Hg17  1  0.500000  0.500000  0.000000  1
