# generated using pymatgen
data_LiTm2Pa2Zn3Rh4
_symmetry_space_group_name_H-M   'P 1'
_cell_length_a   3.78998900
_cell_length_b   7.10032945
_cell_length_c   8.43291250
_cell_angle_alpha   92.43422887
_cell_angle_beta   90.00000000
_cell_angle_gamma   90.00000000
_symmetry_Int_Tables_number   1
_chemical_formula_structural   LiTm2Pa2Zn3Rh4
_chemical_formula_sum   'Li1 Tm2 Pa2 Zn3 Rh4'
_cell_volume   226.72633867
_cell_formula_units_Z   1
loop_
 _symmetry_equiv_pos_site_id
 _symmetry_equiv_pos_as_xyz
  1  'x, y, z'
loop_
 _atom_site_type_symbol
 _atom_site_label
 _atom_site_symmetry_multiplicity
 _atom_site_fract_x
 _atom_site_fract_y
 _atom_site_fract_z
 _atom_site_occupancy
  Li  Li0  1  0.250000  0.621083  0.552669  1
  Tm  Tm1  1  0.750000  0.943432  0.685671  1
  Tm  Tm2  1  0.250000  0.060354  0.316531  1
  Pa  Pa3  1  0.250000  0.549268  0.192447  1
  Pa  Pa4  1  0.750000  0.451783  0.808414  1
  Zn  Zn5  1  0.750000  0.374103  0.444194  1
  Zn  Zn6  1  0.750000  0.886259  0.062905  1
  Zn  Zn7  1  0.250000  0.113930  0.936577  1
  Rh  Rh8  1  0.250000  0.717140  0.882161  1
  Rh  Rh9  1  0.750000  0.282558  0.119807  1
  Rh  Rh10  1  0.750000  0.750020  0.354777  1
  Rh  Rh11  1  0.250000  0.250069  0.643847  1
