# generated using pymatgen
data_Dy8Lu12Si15Tc
_symmetry_space_group_name_H-M   'P 1'
_cell_length_a   7.27078815
_cell_length_b   7.66098125
_cell_length_c   14.31356700
_cell_angle_alpha   90.00000000
_cell_angle_beta   90.00000000
_cell_angle_gamma   90.17854422
_symmetry_Int_Tables_number   1
_chemical_formula_structural   Dy8Lu12Si15Tc
_chemical_formula_sum   'Dy8 Lu12 Si15 Tc1'
_cell_volume   797.28144524
_cell_formula_units_Z   1
loop_
 _symmetry_equiv_pos_site_id
 _symmetry_equiv_pos_as_xyz
  1  'x, y, z'
loop_
 _atom_site_type_symbol
 _atom_site_label
 _atom_site_symmetry_multiplicity
 _atom_site_fract_x
 _atom_site_fract_y
 _atom_site_fract_z
 _atom_site_occupancy
  Dy  Dy0  1  0.016233  0.181977  0.096571  1
  Dy  Dy1  1  0.987020  0.827993  0.904081  1
  Dy  Dy2  1  0.484813  0.678862  0.904214  1
  Dy  Dy3  1  0.987020  0.827993  0.595919  1
  Dy  Dy4  1  0.514821  0.320218  0.096581  1
  Dy  Dy5  1  0.016233  0.181977  0.403429  1
  Dy  Dy6  1  0.514821  0.320218  0.403419  1
  Dy  Dy7  1  0.484813  0.678862  0.595786  1
  Lu  Lu8  1  0.155929  0.507604  0.750000  1
  Lu  Lu9  1  0.839671  0.488678  0.250000  1
  Lu  Lu10  1  0.339292  0.012995  0.250000  1
  Lu  Lu11  1  0.665896  0.990941  0.750000  1
  Lu  Lu12  1  0.313105  0.173041  0.626742  1
  Lu  Lu13  1  0.675350  0.825001  0.374799  1
  Lu  Lu14  1  0.174789  0.678794  0.374429  1
  Lu  Lu15  1  0.675350  0.825001  0.125201  1
  Lu  Lu16  1  0.836600  0.315504  0.626460  1
  Lu  Lu17  1  0.313105  0.173041  0.873258  1
  Lu  Lu18  1  0.836600  0.315504  0.873540  1
  Lu  Lu19  1  0.174789  0.678794  0.125571  1
  Si  Si20  1  0.970253  0.891443  0.250000  1
  Si  Si21  1  0.473258  0.608175  0.250000  1
  Si  Si22  1  0.528479  0.394700  0.750000  1
  Si  Si23  1  0.281492  0.865865  0.750000  1
  Si  Si24  1  0.716053  0.131968  0.250000  1
  Si  Si25  1  0.219213  0.368758  0.250000  1
  Si  Si26  1  0.773066  0.626923  0.750000  1
  Si  Si27  1  0.158871  0.472856  0.536895  1
  Si  Si28  1  0.846106  0.533096  0.461991  1
  Si  Si29  1  0.345341  0.967989  0.460229  1
  Si  Si30  1  0.846106  0.533096  0.038009  1
  Si  Si31  1  0.651307  0.031665  0.538099  1
  Si  Si32  1  0.158871  0.472856  0.963105  1
  Si  Si33  1  0.651307  0.031665  0.961901  1
  Si  Si34  1  0.345341  0.967989  0.039771  1
  Tc  Tc35  1  0.028685  0.097960  0.750000  1
