# generated using pymatgen
data_TbErCo2(SnH)2
_symmetry_space_group_name_H-M   'P 1'
_cell_length_a   4.25551800
_cell_length_b   7.09336500
_cell_length_c   8.17133600
_cell_angle_alpha   90.00038149
_cell_angle_beta   90.00000000
_cell_angle_gamma   90.00000000
_symmetry_Int_Tables_number   1
_chemical_formula_structural   TbErCo2(SnH)2
_chemical_formula_sum   'Tb2 Er2 Co4 Sn4 H4'
_cell_volume   246.65947814
_cell_formula_units_Z   2
loop_
 _symmetry_equiv_pos_site_id
 _symmetry_equiv_pos_as_xyz
  1  'x, y, z'
loop_
 _atom_site_type_symbol
 _atom_site_label
 _atom_site_symmetry_multiplicity
 _atom_site_fract_x
 _atom_site_fract_y
 _atom_site_fract_z
 _atom_site_occupancy
  Tb  Tb0  1  0.750000  0.013789  0.686988  1
  Tb  Tb1  1  0.250000  0.986211  0.313012  1
  Er  Er2  1  0.250000  0.485892  0.184626  1
  Er  Er3  1  0.750000  0.514108  0.815374  1
  Co  Co4  1  0.750000  0.771121  0.103078  1
  Co  Co5  1  0.250000  0.228879  0.896922  1
  Co  Co6  1  0.250000  0.725134  0.605127  1
  Co  Co7  1  0.750000  0.274866  0.394873  1
  Sn  Sn8  1  0.750000  0.653418  0.426339  1
  Sn  Sn9  1  0.250000  0.346582  0.573661  1
  Sn  Sn10  1  0.250000  0.844241  0.927715  1
  Sn  Sn11  1  0.750000  0.155759  0.072285  1
  H  H12  1  0.250000  0.449591  0.920010  1
  H  H13  1  0.750000  0.550409  0.079990  1
  H  H14  1  0.750000  0.053086  0.419035  1
  H  H15  1  0.250000  0.946914  0.580965  1
