# generated using pymatgen
data_Zr4Ta3Nb3Si8
_symmetry_space_group_name_H-M   'P 1'
_cell_length_a   6.87759204
_cell_length_b   6.87778510
_cell_length_c   12.75837526
_cell_angle_alpha   90.01953096
_cell_angle_beta   90.01246019
_cell_angle_gamma   90.00033217
_symmetry_Int_Tables_number   1
_chemical_formula_structural   Zr4Ta3Nb3Si8
_chemical_formula_sum   'Zr8 Ta6 Nb6 Si16'
_cell_volume   603.50427304
_cell_formula_units_Z   2
loop_
 _symmetry_equiv_pos_site_id
 _symmetry_equiv_pos_as_xyz
  1  'x, y, z'
loop_
 _atom_site_type_symbol
 _atom_site_label
 _atom_site_symmetry_multiplicity
 _atom_site_fract_x
 _atom_site_fract_y
 _atom_site_fract_z
 _atom_site_occupancy
  Zr  Zr0  1  0.000577  0.660171  0.030867  1
  Zr  Zr1  1  0.999244  0.340136  0.531109  1
  Zr  Zr2  1  0.660054  0.000352  0.969180  1
  Zr  Zr3  1  0.159791  0.499525  0.781039  1
  Zr  Zr4  1  0.839758  0.500841  0.280940  1
  Zr  Zr5  1  0.499215  0.160059  0.218948  1
  Zr  Zr6  1  0.500480  0.840218  0.719185  1
  Zr  Zr7  1  0.340229  0.999093  0.468954  1
  Ta  Ta8  1  0.494722  0.652898  0.123886  1
  Ta  Ta9  1  0.152770  0.005127  0.873984  1
  Ta  Ta10  1  0.669680  0.669656  0.499904  1
  Ta  Ta11  1  0.830856  0.169504  0.750173  1
  Ta  Ta12  1  0.170094  0.830063  0.249674  1
  Ta  Ta13  1  0.330256  0.330435  0.999944  1
  Nb  Nb14  1  0.347518  0.505119  0.375992  1
  Nb  Nb15  1  0.847074  0.994878  0.373888  1
  Nb  Nb16  1  0.005027  0.152766  0.125969  1
  Nb  Nb17  1  0.994877  0.847108  0.626238  1
  Nb  Nb18  1  0.653167  0.494964  0.876218  1
  Nb  Nb19  1  0.504938  0.347207  0.624017  1
  Si  Si20  1  0.043869  0.701332  0.436515  1
  Si  Si21  1  0.956169  0.298844  0.936374  1
  Si  Si22  1  0.701281  0.043948  0.563437  1
  Si  Si23  1  0.201295  0.456092  0.186451  1
  Si  Si24  1  0.798799  0.543777  0.686438  1
  Si  Si25  1  0.455861  0.201363  0.813410  1
  Si  Si26  1  0.543963  0.798678  0.313365  1
  Si  Si27  1  0.298588  0.955846  0.063345  1
  Si  Si28  1  0.865263  0.792129  0.822744  1
  Si  Si29  1  0.134746  0.207943  0.322636  1
  Si  Si30  1  0.791829  0.865237  0.177356  1
  Si  Si31  1  0.292097  0.634662  0.572575  1
  Si  Si32  1  0.707911  0.365161  0.072796  1
  Si  Si33  1  0.634772  0.292049  0.427450  1
  Si  Si34  1  0.365316  0.708124  0.927449  1
  Si  Si35  1  0.207915  0.134693  0.677550  1
