# generated using pymatgen
data_TmScP7IrRu11
_symmetry_space_group_name_H-M   'P 1'
_cell_length_a   9.35126250
_cell_length_b   9.40009187
_cell_length_c   3.92936800
_cell_angle_alpha   90.00000000
_cell_angle_beta   90.00000000
_cell_angle_gamma   119.70454962
_symmetry_Int_Tables_number   1
_chemical_formula_structural   TmScP7IrRu11
_chemical_formula_sum   'Tm1 Sc1 P7 Ir1 Ru11'
_cell_volume   300.01361219
_cell_formula_units_Z   1
loop_
 _symmetry_equiv_pos_site_id
 _symmetry_equiv_pos_as_xyz
  1  'x, y, z'
loop_
 _atom_site_type_symbol
 _atom_site_label
 _atom_site_symmetry_multiplicity
 _atom_site_fract_x
 _atom_site_fract_y
 _atom_site_fract_z
 _atom_site_occupancy
  Tm  Tm0  1  0.331547  0.663522  0.000000  1
  Sc  Sc1  1  0.667893  0.334857  0.500000  1
  P  P2  1  0.599064  0.714052  0.500000  1
  P  P3  1  0.999452  0.000123  0.000000  1
  P  P4  1  0.276977  0.878152  0.500000  1
  P  P5  1  0.118966  0.400511  0.500000  1
  P  P6  1  0.883681  0.573310  0.000000  1
  P  P7  1  0.429874  0.311607  0.000000  1
  P  P8  1  0.693963  0.122518  0.000000  1
  Ir  Ir9  1  0.549993  0.943252  0.500000  1
  Ru  Ru10  1  0.393567  0.442990  0.500000  1
  Ru  Ru11  1  0.913246  0.123816  0.500000  1
  Ru  Ru12  1  0.209199  0.085582  0.500000  1
  Ru  Ru13  1  0.877330  0.793768  0.500000  1
  Ru  Ru14  1  0.725650  0.893608  0.000000  1
  Ru  Ru15  1  0.109410  0.835842  0.000000  1
  Ru  Ru16  1  0.165087  0.272066  0.000000  1
  Ru  Ru17  1  0.430481  0.071338  0.000000  1
  Ru  Ru18  1  0.932086  0.359198  0.000000  1
  Ru  Ru19  1  0.642957  0.574449  0.000000  1
  Ru  Ru20  1  0.049578  0.605440  0.500000  1
