# generated using pymatgen
data_Tb2NdV(Co4P3)2
_symmetry_space_group_name_H-M   'P 1'
_cell_length_a   3.70669600
_cell_length_b   10.57957800
_cell_length_c   12.27845000
_cell_angle_alpha   90.00000000
_cell_angle_beta   90.00000000
_cell_angle_gamma   90.00000000
_symmetry_Int_Tables_number   1
_chemical_formula_structural   Tb2NdV(Co4P3)2
_chemical_formula_sum   'Tb4 Nd2 V2 Co16 P12'
_cell_volume   481.50284802
_cell_formula_units_Z   2
loop_
 _symmetry_equiv_pos_site_id
 _symmetry_equiv_pos_as_xyz
  1  'x, y, z'
loop_
 _atom_site_type_symbol
 _atom_site_label
 _atom_site_symmetry_multiplicity
 _atom_site_fract_x
 _atom_site_fract_y
 _atom_site_fract_z
 _atom_site_occupancy
  Tb  Tb0  1  0.500000  0.818663  0.203952  1
  Tb  Tb1  1  0.500000  0.181337  0.203952  1
  Tb  Tb2  1  0.000000  0.681337  0.796048  1
  Tb  Tb3  1  0.000000  0.318663  0.796048  1
  Nd  Nd4  1  0.000000  0.500000  0.523279  1
  Nd  Nd5  1  0.500000  0.000000  0.476721  1
  V  V6  1  0.500000  0.500000  0.152056  1
  V  V7  1  0.000000  0.000000  0.847944  1
  Co  Co8  1  0.500000  0.500000  0.704874  1
  Co  Co9  1  0.000000  0.000000  0.295126  1
  Co  Co10  1  0.000000  0.500000  0.987303  1
  Co  Co11  1  0.500000  0.000000  0.012697  1
  Co  Co12  1  0.500000  0.332315  0.993535  1
  Co  Co13  1  0.500000  0.667685  0.993535  1
  Co  Co14  1  0.000000  0.167685  0.006465  1
  Co  Co15  1  0.000000  0.832315  0.006465  1
  Co  Co16  1  0.500000  0.295489  0.430072  1
  Co  Co17  1  0.500000  0.704511  0.430072  1
  Co  Co18  1  0.000000  0.204511  0.569928  1
  Co  Co19  1  0.000000  0.795489  0.569928  1
  Co  Co20  1  0.500000  0.879455  0.709864  1
  Co  Co21  1  0.500000  0.120545  0.709864  1
  Co  Co22  1  0.000000  0.620545  0.290136  1
  Co  Co23  1  0.000000  0.379455  0.290136  1
  P  P24  1  0.500000  0.500000  0.883756  1
  P  P25  1  0.000000  0.000000  0.116244  1
  P  P26  1  0.500000  0.500000  0.342553  1
  P  P27  1  0.000000  0.000000  0.657447  1
  P  P28  1  0.500000  0.308090  0.616852  1
  P  P29  1  0.500000  0.691910  0.616852  1
  P  P30  1  0.000000  0.191910  0.383148  1
  P  P31  1  0.000000  0.808090  0.383148  1
  P  P32  1  0.500000  0.846023  0.892787  1
  P  P33  1  0.500000  0.153977  0.892787  1
  P  P34  1  0.000000  0.653977  0.107213  1
  P  P35  1  0.000000  0.346023  0.107213  1
