# generated using pymatgen
data_TbY4Ho3Pt4
_symmetry_space_group_name_H-M   'P 1'
_cell_length_a   4.76916900
_cell_length_b   7.18238428
_cell_length_c   8.82195002
_cell_angle_alpha   89.98807740
_cell_angle_beta   90.00000000
_cell_angle_gamma   90.00000000
_symmetry_Int_Tables_number   1
_chemical_formula_structural   TbY4Ho3Pt4
_chemical_formula_sum   'Tb1 Y4 Ho3 Pt4'
_cell_volume   302.18710894
_cell_formula_units_Z   1
loop_
 _symmetry_equiv_pos_site_id
 _symmetry_equiv_pos_as_xyz
  1  'x, y, z'
loop_
 _atom_site_type_symbol
 _atom_site_label
 _atom_site_symmetry_multiplicity
 _atom_site_fract_x
 _atom_site_fract_y
 _atom_site_fract_z
 _atom_site_occupancy
  Tb  Tb0  1  0.750000  0.644937  0.419949  1
  Y  Y1  1  0.250000  0.990618  0.331040  1
  Y  Y2  1  0.250000  0.489537  0.168349  1
  Y  Y3  1  0.750000  0.010578  0.669400  1
  Y  Y4  1  0.750000  0.509888  0.831068  1
  Ho  Ho5  1  0.250000  0.855668  0.920396  1
  Ho  Ho6  1  0.250000  0.354979  0.580080  1
  Ho  Ho7  1  0.750000  0.144374  0.079605  1
  Pt  Pt8  1  0.250000  0.256220  0.906144  1
  Pt  Pt9  1  0.250000  0.756991  0.595145  1
  Pt  Pt10  1  0.750000  0.743971  0.092510  1
  Pt  Pt11  1  0.750000  0.242240  0.406314  1
