# generated using pymatgen
data_Ta4Be3Al3ZnGa
_symmetry_space_group_name_H-M   'P 1'
_cell_length_a   4.88512511
_cell_length_b   4.88853806
_cell_length_c   8.06307900
_cell_angle_alpha   90.00000000
_cell_angle_beta   90.00000000
_cell_angle_gamma   119.26965846
_symmetry_Int_Tables_number   1
_chemical_formula_structural   Ta4Be3Al3ZnGa
_chemical_formula_sum   'Ta4 Be3 Al3 Zn1 Ga1'
_cell_volume   167.97148909
_cell_formula_units_Z   1
loop_
 _symmetry_equiv_pos_site_id
 _symmetry_equiv_pos_as_xyz
  1  'x, y, z'
loop_
 _atom_site_type_symbol
 _atom_site_label
 _atom_site_symmetry_multiplicity
 _atom_site_fract_x
 _atom_site_fract_y
 _atom_site_fract_z
 _atom_site_occupancy
  Ta  Ta0  1  0.663428  0.336682  0.311600  1
  Ta  Ta1  1  0.335069  0.662331  0.183977  1
  Ta  Ta2  1  0.335069  0.662331  0.816023  1
  Ta  Ta3  1  0.663428  0.336682  0.688400  1
  Be  Be4  1  0.167433  0.833146  0.500000  1
  Be  Be5  1  0.361463  0.190158  0.000000  1
  Be  Be6  1  0.809845  0.639038  0.000000  1
  Al  Al7  1  0.011856  0.988955  0.234805  1
  Al  Al8  1  0.011856  0.988955  0.765195  1
  Al  Al9  1  0.165040  0.347332  0.500000  1
  Zn  Zn10  1  0.821506  0.178115  0.000000  1
  Ga  Ga11  1  0.654054  0.836229  0.500000  1
