# generated using pymatgen
data_KCN5
_symmetry_space_group_name_H-M   'P 1'
_cell_length_a   6.31406366
_cell_length_b   5.31835409
_cell_length_c   8.95964228
_cell_angle_alpha   75.79107061
_cell_angle_beta   111.85308070
_cell_angle_gamma   130.98690808
_symmetry_Int_Tables_number   1
_chemical_formula_structural   KCN5
_chemical_formula_sum   'K1 C1 N5'
_cell_volume   210.79307943
_cell_formula_units_Z   1
loop_
 _symmetry_equiv_pos_site_id
 _symmetry_equiv_pos_as_xyz
  1  'x, y, z'
loop_
 _atom_site_type_symbol
 _atom_site_label
 _atom_site_symmetry_multiplicity
 _atom_site_fract_x
 _atom_site_fract_y
 _atom_site_fract_z
 _atom_site_occupancy
  K  K0  1  0.816439  0.616155  0.623399  1
  C  C1  1  0.522253  0.843680  0.644989  1
  N  N2  1  0.083341  0.422181  0.958465  1
  N  N3  1  0.378020  0.918367  0.635233  1
  N  N4  1  0.203955  0.350330  0.058874  1
  N  N5  1  0.824177  0.151211  0.332251  1
  N  N6  1  0.800588  0.347781  0.311382  1
