# generated using pymatgen
data_Tm2Bi5SbO14
_symmetry_space_group_name_H-M   'P 1'
_cell_length_a   6.56721802
_cell_length_b   6.80607466
_cell_length_c   7.74570900
_cell_angle_alpha   106.16050865
_cell_angle_beta   89.94507046
_cell_angle_gamma   99.13880215
_symmetry_Int_Tables_number   1
_chemical_formula_structural   Tm2Bi5SbO14
_chemical_formula_sum   'Tm2 Bi5 Sb1 O14'
_cell_volume   327.96698313
_cell_formula_units_Z   1
loop_
 _symmetry_equiv_pos_site_id
 _symmetry_equiv_pos_as_xyz
  1  'x, y, z'
loop_
 _atom_site_type_symbol
 _atom_site_label
 _atom_site_symmetry_multiplicity
 _atom_site_fract_x
 _atom_site_fract_y
 _atom_site_fract_z
 _atom_site_occupancy
  Tm  Tm0  1  0.460297  0.003919  0.244726  1
  Tm  Tm1  1  0.539703  0.996081  0.755274  1
  Bi  Bi2  1  0.000000  0.000000  0.500000  1
  Bi  Bi3  1  0.258281  0.516999  0.881713  1
  Bi  Bi4  1  0.741719  0.483001  0.118287  1
  Bi  Bi5  1  0.725152  0.463612  0.608996  1
  Bi  Bi6  1  0.274848  0.536388  0.391004  1
  Sb  Sb7  1  0.000000  0.000000  0.000000  1
  O  O8  1  0.462834  0.662374  0.180443  1
  O  O9  1  0.537166  0.337626  0.819557  1
  O  O10  1  0.292748  0.952612  0.949915  1
  O  O11  1  0.707252  0.047388  0.050085  1
  O  O12  1  0.302259  0.923044  0.509217  1
  O  O13  1  0.697741  0.076956  0.490783  1
  O  O14  1  0.529318  0.345967  0.349321  1
  O  O15  1  0.470682  0.654033  0.650679  1
  O  O16  1  0.922083  0.690808  0.966773  1
  O  O17  1  0.077917  0.309192  0.033227  1
  O  O18  1  0.098257  0.327195  0.616654  1
  O  O19  1  0.901743  0.672805  0.383346  1
  O  O20  1  0.885116  0.941607  0.744764  1
  O  O21  1  0.114884  0.058393  0.255236  1
