# generated using pymatgen
data_Y2Er6B24IrRh3
_symmetry_space_group_name_H-M   'P 1'
_cell_length_a   3.63963300
_cell_length_b   9.15504400
_cell_length_c   11.49015800
_cell_angle_alpha   90.05231879
_cell_angle_beta   90.00000000
_cell_angle_gamma   90.00000000
_symmetry_Int_Tables_number   1
_chemical_formula_structural   Y2Er6B24IrRh3
_chemical_formula_sum   'Y2 Er6 B24 Ir1 Rh3'
_cell_volume   382.86339804
_cell_formula_units_Z   1
loop_
 _symmetry_equiv_pos_site_id
 _symmetry_equiv_pos_as_xyz
  1  'x, y, z'
loop_
 _atom_site_type_symbol
 _atom_site_label
 _atom_site_symmetry_multiplicity
 _atom_site_fract_x
 _atom_site_fract_y
 _atom_site_fract_z
 _atom_site_occupancy
  Y  Y0  1  0.500000  0.322790  0.414040  1
  Y  Y1  1  0.500000  0.677218  0.586660  1
  Er  Er2  1  0.500000  0.178392  0.912784  1
  Er  Er3  1  0.500000  0.821516  0.086331  1
  Er  Er4  1  0.500000  0.445317  0.126045  1
  Er  Er5  1  0.500000  0.555706  0.873336  1
  Er  Er6  1  0.500000  0.055606  0.626958  1
  Er  Er7  1  0.500000  0.943634  0.373992  1
  B  B8  1  0.000000  0.109100  0.470371  1
  B  B9  1  0.000000  0.890458  0.529856  1
  B  B10  1  0.000000  0.389703  0.969889  1
  B  B11  1  0.000000  0.610723  0.029799  1
  B  B12  1  0.000000  0.132400  0.315768  1
  B  B13  1  0.000000  0.867139  0.684422  1
  B  B14  1  0.000000  0.366574  0.816258  1
  B  B15  1  0.000000  0.633709  0.183329  1
  B  B16  1  0.000000  0.054104  0.065310  1
  B  B17  1  0.000000  0.946303  0.934678  1
  B  B18  1  0.000000  0.445981  0.565923  1
  B  B19  1  0.000000  0.553656  0.434158  1
  B  B20  1  0.000000  0.483089  0.286301  1
  B  B21  1  0.000000  0.516875  0.713695  1
  B  B22  1  0.000000  0.017667  0.787045  1
  B  B23  1  0.000000  0.982620  0.213442  1
  B  B24  1  0.000000  0.249705  0.078755  1
  B  B25  1  0.000000  0.750549  0.920885  1
  B  B26  1  0.000000  0.250378  0.579895  1
  B  B27  1  0.000000  0.749285  0.420212  1
  B  B28  1  0.000000  0.293974  0.234555  1
  B  B29  1  0.000000  0.705932  0.764926  1
  B  B30  1  0.000000  0.205394  0.736193  1
  B  B31  1  0.000000  0.794350  0.263726  1
  Ir  Ir32  1  0.500000  0.138961  0.178143  1
  Rh  Rh33  1  0.500000  0.861607  0.822541  1
  Rh  Rh34  1  0.500000  0.359292  0.680181  1
  Rh  Rh35  1  0.500000  0.640294  0.319603  1
