# generated using pymatgen
data_Gd12Fe2TcAg2
_symmetry_space_group_name_H-M   'P 1'
_cell_length_a   8.35275336
_cell_length_b   8.35233176
_cell_length_c   8.35275400
_cell_angle_alpha   108.55359711
_cell_angle_beta   108.60057579
_cell_angle_gamma   111.27680360
_symmetry_Int_Tables_number   1
_chemical_formula_structural   Gd12Fe2TcAg2
_chemical_formula_sum   'Gd12 Fe2 Tc1 Ag2'
_cell_volume   448.23875831
_cell_formula_units_Z   1
loop_
 _symmetry_equiv_pos_site_id
 _symmetry_equiv_pos_as_xyz
  1  'x, y, z'
loop_
 _atom_site_type_symbol
 _atom_site_label
 _atom_site_symmetry_multiplicity
 _atom_site_fract_x
 _atom_site_fract_y
 _atom_site_fract_z
 _atom_site_occupancy
  Gd  Gd0  1  0.189117  0.433468  0.244351  1
  Gd  Gd1  1  0.810883  0.566532  0.755649  1
  Gd  Gd2  1  0.189105  0.944753  0.755648  1
  Gd  Gd3  1  0.946962  0.191280  0.755689  1
  Gd  Gd4  1  0.810895  0.055247  0.244352  1
  Gd  Gd5  1  0.053038  0.808720  0.244311  1
  Gd  Gd6  1  0.435591  0.191280  0.244321  1
  Gd  Gd7  1  0.564409  0.808720  0.755679  1
  Gd  Gd8  1  0.310071  0.309458  0.619539  1
  Gd  Gd9  1  0.689929  0.690542  0.380461  1
  Gd  Gd10  1  0.689919  0.309458  0.999386  1
  Gd  Gd11  1  0.310081  0.690542  0.000614  1
  Fe  Fe12  1  0.377595  0.377598  0.000004  1
  Fe  Fe13  1  0.622405  0.622402  0.999996  1
  Tc  Tc14  1  0.000000  0.000000  0.000000  1
  Ag  Ag15  1  0.000000  0.500000  0.500000  1
  Ag  Ag16  1  0.500000  0.000000  0.500000  1
