# generated using pymatgen
data_CaTh3(Al8Pd3)3
_symmetry_space_group_name_H-M   'P 1'
_cell_length_a   7.62064385
_cell_length_b   7.61835881
_cell_length_c   13.33207891
_cell_angle_alpha   84.63974691
_cell_angle_beta   100.90869484
_cell_angle_gamma   119.82337820
_symmetry_Int_Tables_number   1
_chemical_formula_structural   CaTh3(Al8Pd3)3
_chemical_formula_sum   'Ca1 Th3 Al24 Pd9'
_cell_volume   659.37453718
_cell_formula_units_Z   1
loop_
 _symmetry_equiv_pos_site_id
 _symmetry_equiv_pos_as_xyz
  1  'x, y, z'
loop_
 _atom_site_type_symbol
 _atom_site_label
 _atom_site_symmetry_multiplicity
 _atom_site_fract_x
 _atom_site_fract_y
 _atom_site_fract_z
 _atom_site_occupancy
  Ca  Ca0  1  0.436796  0.831909  0.805960  1
  Th  Th1  1  0.562222  0.166978  0.193317  1
  Th  Th2  1  0.767987  0.502480  0.806130  1
  Th  Th3  1  0.232509  0.498264  0.193317  1
  Al  Al4  1  0.477819  0.164002  0.945037  1
  Al  Al5  1  0.520566  0.833363  0.050389  1
  Al  Al6  1  0.021180  0.165307  0.560351  1
  Al  Al7  1  0.980074  0.834784  0.441006  1
  Al  Al8  1  0.352710  0.833059  0.559214  1
  Al  Al9  1  0.646946  0.166312  0.442662  1
  Al  Al10  1  0.622709  0.834607  0.336413  1
  Al  Al11  1  0.378509  0.162502  0.664962  1
  Al  Al12  1  0.058830  0.493495  0.664910  1
  Al  Al13  1  0.945167  0.510499  0.336807  1
  Al  Al14  1  0.730509  0.844203  0.663501  1
  Al  Al15  1  0.266754  0.155401  0.338235  1
  Al  Al16  1  0.150380  0.498843  0.945363  1
  Al  Al17  1  0.851391  0.503538  0.052883  1
  Al  Al18  1  0.818362  0.835728  0.954581  1
  Al  Al19  1  0.179155  0.164535  0.042378  1
  Al  Al20  1  0.312233  0.499311  0.442204  1
  Al  Al21  1  0.687913  0.501122  0.558621  1
  Al  Al22  1  0.098250  0.835831  0.184261  1
  Al  Al23  1  0.899474  0.164777  0.815756  1
  Al  Al24  1  0.305051  0.366254  0.813995  1
  Al  Al25  1  0.696922  0.634558  0.186104  1
  Al  Al26  1  0.100315  0.961131  0.815322  1
  Al  Al27  1  0.898256  0.036625  0.184468  1
  Pd  Pd28  1  0.386201  0.505838  0.636439  1
  Pd  Pd29  1  0.613290  0.493040  0.363141  1
  Pd  Pd30  1  0.171823  0.828929  0.001056  1
  Pd  Pd31  1  0.829236  0.172126  0.001819  1
  Pd  Pd32  1  0.293933  0.832981  0.362399  1
  Pd  Pd33  1  0.707014  0.167709  0.636721  1
  Pd  Pd34  1  0.046254  0.826639  0.636623  1
  Pd  Pd35  1  0.952655  0.174372  0.362359  1
  Pd  Pd36  1  0.500605  0.498948  0.001296  1
