# generated using pymatgen
data_La3Sn6Rh
_symmetry_space_group_name_H-M   'P 1'
_cell_length_a   8.91189742
_cell_length_b   8.91189779
_cell_length_c   13.57047400
_cell_angle_alpha   90.00000000
_cell_angle_beta   90.00000000
_cell_angle_gamma   148.94556241
_symmetry_Int_Tables_number   1
_chemical_formula_structural   La3Sn6Rh
_chemical_formula_sum   'La6 Sn12 Rh2'
_cell_volume   555.98198831
_cell_formula_units_Z   2
loop_
 _symmetry_equiv_pos_site_id
 _symmetry_equiv_pos_as_xyz
  1  'x, y, z'
loop_
 _atom_site_type_symbol
 _atom_site_label
 _atom_site_symmetry_multiplicity
 _atom_site_fract_x
 _atom_site_fract_y
 _atom_site_fract_z
 _atom_site_occupancy
  La  La0  1  0.899560  0.100440  0.092330  1
  La  La1  1  0.100440  0.899560  0.592330  1
  La  La2  1  0.897336  0.102664  0.750000  1
  La  La3  1  0.100440  0.899560  0.907670  1
  La  La4  1  0.102664  0.897336  0.250000  1
  La  La5  1  0.899560  0.100440  0.407670  1
  Sn  Sn6  1  0.753069  0.246931  0.567039  1
  Sn  Sn7  1  0.431547  0.568453  0.577457  1
  Sn  Sn8  1  0.568453  0.431547  0.422543  1
  Sn  Sn9  1  0.734437  0.265563  0.250000  1
  Sn  Sn10  1  0.265563  0.734437  0.750000  1
  Sn  Sn11  1  0.246931  0.753069  0.067039  1
  Sn  Sn12  1  0.246931  0.753069  0.432961  1
  Sn  Sn13  1  0.568453  0.431547  0.077457  1
  Sn  Sn14  1  0.457168  0.542832  0.250000  1
  Sn  Sn15  1  0.542832  0.457168  0.750000  1
  Sn  Sn16  1  0.753069  0.246931  0.932961  1
  Sn  Sn17  1  0.431547  0.568453  0.922543  1
  Rh  Rh18  1  0.301687  0.698313  0.250000  1
  Rh  Rh19  1  0.698313  0.301687  0.750000  1
