# generated using pymatgen
data_Ti6NbCo8Si14W
_symmetry_space_group_name_H-M   'P 1'
_cell_length_a   9.16621747
_cell_length_b   9.16618289
_cell_length_c   9.16710440
_cell_angle_alpha   94.18697095
_cell_angle_beta   94.18733272
_cell_angle_gamma   148.64401220
_symmetry_Int_Tables_number   1
_chemical_formula_structural   Ti6NbCo8Si14W
_chemical_formula_sum   'Ti6 Nb1 Co8 Si14 W1'
_cell_volume   385.87657150
_cell_formula_units_Z   1
loop_
 _symmetry_equiv_pos_site_id
 _symmetry_equiv_pos_as_xyz
  1  'x, y, z'
loop_
 _atom_site_type_symbol
 _atom_site_label
 _atom_site_symmetry_multiplicity
 _atom_site_fract_x
 _atom_site_fract_y
 _atom_site_fract_z
 _atom_site_occupancy
  Ti  Ti0  1  0.864325  0.135302  0.999588  1
  Ti  Ti1  1  0.135267  0.864283  0.999590  1
  Ti  Ti2  1  0.500977  0.691326  0.192305  1
  Ti  Ti3  1  0.500194  0.308743  0.808939  1
  Ti  Ti4  1  0.308731  0.500172  0.808925  1
  Ti  Ti5  1  0.691348  0.500986  0.192290  1
  Nb  Nb6  1  0.867374  0.867380  0.734723  1
  Co  Co7  1  0.399856  0.899869  0.799740  1
  Co  Co8  1  0.100423  0.600440  0.200842  1
  Co  Co9  1  0.100435  0.899322  0.498784  1
  Co  Co10  1  0.398338  0.599465  0.498791  1
  Co  Co11  1  0.599493  0.398359  0.498809  1
  Co  Co12  1  0.899324  0.100425  0.498803  1
  Co  Co13  1  0.899884  0.399888  0.799772  1
  Co  Co14  1  0.600437  0.100443  0.200871  1
  Si  Si15  1  0.293289  0.293302  0.586557  1
  Si  Si16  1  0.706164  0.706177  0.412406  1
  Si  Si17  1  0.705160  0.295147  0.000384  1
  Si  Si18  1  0.295228  0.705236  0.000386  1
  Si  Si19  1  0.000631  0.293441  0.294073  1
  Si  Si20  1  0.000259  0.704574  0.704813  1
  Si  Si21  1  0.704571  0.000242  0.704822  1
  Si  Si22  1  0.293454  0.000634  0.294083  1
  Si  Si23  1  0.500268  0.905623  0.405883  1
  Si  Si24  1  0.499925  0.094247  0.594193  1
  Si  Si25  1  0.094236  0.499912  0.594185  1
  Si  Si26  1  0.905640  0.500285  0.405874  1
  Si  Si27  1  0.750803  0.750804  0.002455  1
  Si  Si28  1  0.251655  0.251657  0.002466  1
  W  W29  1  0.132308  0.132317  0.264644  1
