# generated using pymatgen
data_Tb6Mg3ZnPt13
_symmetry_space_group_name_H-M   'P 1'
_cell_length_a   8.31180527
_cell_length_b   8.31180611
_cell_length_c   8.33609300
_cell_angle_alpha   109.53042469
_cell_angle_beta   109.53042674
_cell_angle_gamma   109.41195455
_symmetry_Int_Tables_number   1
_chemical_formula_structural   Tb6Mg3ZnPt13
_chemical_formula_sum   'Tb6 Mg3 Zn1 Pt13'
_cell_volume   443.01002673
_cell_formula_units_Z   1
loop_
 _symmetry_equiv_pos_site_id
 _symmetry_equiv_pos_as_xyz
  1  'x, y, z'
loop_
 _atom_site_type_symbol
 _atom_site_label
 _atom_site_symmetry_multiplicity
 _atom_site_fract_x
 _atom_site_fract_y
 _atom_site_fract_z
 _atom_site_occupancy
  Tb  Tb0  1  0.699420  0.699420  0.003860  1
  Tb  Tb1  1  0.300580  0.000000  0.304439  1
  Tb  Tb2  1  0.000000  0.300580  0.304439  1
  Tb  Tb3  1  0.300580  0.300580  0.996140  1
  Tb  Tb4  1  0.699420  0.000000  0.695561  1
  Tb  Tb5  1  0.000000  0.699420  0.695561  1
  Mg  Mg6  1  0.000000  0.500000  0.000000  1
  Mg  Mg7  1  0.500000  0.000000  0.000000  1
  Mg  Mg8  1  0.500000  0.500000  0.500000  1
  Zn  Zn9  1  0.000000  0.000000  0.500000  1
  Pt  Pt10  1  0.332843  0.332843  0.666592  1
  Pt  Pt11  1  0.667157  0.000000  0.333749  1
  Pt  Pt12  1  0.000000  0.667157  0.333749  1
  Pt  Pt13  1  0.665637  0.334363  0.000000  1
  Pt  Pt14  1  0.334363  0.668727  0.334363  1
  Pt  Pt15  1  0.000000  0.332843  0.666251  1
  Pt  Pt16  1  0.334363  0.665637  0.000000  1
  Pt  Pt17  1  0.332843  0.000000  0.666251  1
  Pt  Pt18  1  0.668727  0.334363  0.334363  1
  Pt  Pt19  1  0.667157  0.667157  0.333408  1
  Pt  Pt20  1  0.665637  0.331273  0.665637  1
  Pt  Pt21  1  0.331273  0.665637  0.665637  1
  Pt  Pt22  1  0.000000  0.000000  0.000000  1
