# generated using pymatgen
data_Y5Th3(MgRu)2
_symmetry_space_group_name_H-M   'P 1'
_cell_length_a   9.77630450
_cell_length_b   9.87567015
_cell_length_c   9.86432291
_cell_angle_alpha   59.37296405
_cell_angle_beta   60.21446268
_cell_angle_gamma   60.25557708
_symmetry_Int_Tables_number   1
_chemical_formula_structural   Y5Th3(MgRu)2
_chemical_formula_sum   'Y10 Th6 Mg4 Ru4'
_cell_volume   672.53118303
_cell_formula_units_Z   2
loop_
 _symmetry_equiv_pos_site_id
 _symmetry_equiv_pos_as_xyz
  1  'x, y, z'
loop_
 _atom_site_type_symbol
 _atom_site_label
 _atom_site_symmetry_multiplicity
 _atom_site_fract_x
 _atom_site_fract_y
 _atom_site_fract_z
 _atom_site_occupancy
  Y  Y0  1  0.189946  0.810053  0.189947  1
  Y  Y1  1  0.810764  0.189236  0.810765  1
  Y  Y2  1  0.188975  0.190203  0.810158  1
  Y  Y3  1  0.810161  0.810661  0.188976  1
  Y  Y4  1  0.933952  0.566825  0.566281  1
  Y  Y5  1  0.566280  0.932942  0.933952  1
  Y  Y6  1  0.562768  0.937231  0.562770  1
  Y  Y7  1  0.937759  0.562241  0.937760  1
  Y  Y8  1  0.562344  0.562650  0.938510  1
  Y  Y9  1  0.938510  0.936497  0.562346  1
  Th  Th10  1  0.341191  0.347810  0.349027  1
  Th  Th11  1  0.349075  0.342188  0.960853  1
  Th  Th12  1  0.349031  0.961970  0.341187  1
  Th  Th13  1  0.960851  0.347883  0.349077  1
  Th  Th14  1  0.815924  0.184428  0.183836  1
  Th  Th15  1  0.183836  0.815812  0.815922  1
  Mg  Mg16  1  0.581385  0.580072  0.578473  1
  Mg  Mg17  1  0.577936  0.582506  0.259906  1
  Mg  Mg18  1  0.578471  0.260069  0.581389  1
  Mg  Mg19  1  0.259906  0.579652  0.577937  1
  Ru  Ru20  1  0.127936  0.149867  0.149566  1
  Ru  Ru21  1  0.149915  0.126349  0.573515  1
  Ru  Ru22  1  0.149566  0.572631  0.127934  1
  Ru  Ru23  1  0.573517  0.150222  0.149911  1
