# generated using pymatgen
data_Ac5Pr3(RuO6)4
_symmetry_space_group_name_H-M   'P 1'
_cell_length_a   10.27526946
_cell_length_b   10.27476620
_cell_length_c   5.69157500
_cell_angle_alpha   75.15143297
_cell_angle_beta   75.09944455
_cell_angle_gamma   69.56158349
_symmetry_Int_Tables_number   1
_chemical_formula_structural   Ac5Pr3(RuO6)4
_chemical_formula_sum   'Ac5 Pr3 Ru4 O24'
_cell_volume   534.85861452
_cell_formula_units_Z   1
loop_
 _symmetry_equiv_pos_site_id
 _symmetry_equiv_pos_as_xyz
  1  'x, y, z'
loop_
 _atom_site_type_symbol
 _atom_site_label
 _atom_site_symmetry_multiplicity
 _atom_site_fract_x
 _atom_site_fract_y
 _atom_site_fract_z
 _atom_site_occupancy
  Ac  Ac0  1  0.708817  0.933041  0.884389  1
  Ac  Ac1  1  0.934807  0.705959  0.386514  1
  Ac  Ac2  1  0.290447  0.073435  0.117749  1
  Ac  Ac3  1  0.633588  0.367644  0.746431  1
  Ac  Ac4  1  0.366421  0.632334  0.250362  1
  Pr  Pr5  1  0.106624  0.896117  0.751359  1
  Pr  Pr6  1  0.894581  0.108279  0.250570  1
  Pr  Pr7  1  0.066199  0.288687  0.623216  1
  Ru  Ru8  1  0.496820  0.801892  0.561609  1
  Ru  Ru9  1  0.197063  0.500256  0.940610  1
  Ru  Ru10  1  0.499556  0.199754  0.439915  1
  Ru  Ru11  1  0.804257  0.495084  0.056846  1
  O  O12  1  0.607919  0.169862  0.136806  1
  O  O13  1  0.834950  0.384578  0.356841  1
  O  O14  1  0.385579  0.832818  0.861998  1
  O  O15  1  0.166171  0.614306  0.641321  1
  O  O16  1  0.471817  0.070606  0.717523  1
  O  O17  1  0.935321  0.520640  0.779850  1
  O  O18  1  0.527540  0.930955  0.285595  1
  O  O19  1  0.075816  0.464997  0.227876  1
  O  O20  1  0.321653  0.221979  0.375605  1
  O  O21  1  0.786301  0.669637  0.128922  1
  O  O22  1  0.672189  0.779973  0.636519  1
  O  O23  1  0.214023  0.329060  0.855029  1
  O  O24  1  0.895171  0.925441  0.074188  1
  O  O25  1  0.073716  0.112049  0.430533  1
  O  O26  1  0.106383  0.080633  0.924419  1
  O  O27  1  0.926100  0.895329  0.572429  1
  O  O28  1  0.161127  0.685778  0.068276  1
  O  O29  1  0.312424  0.839744  0.429870  1
  O  O30  1  0.841524  0.310899  0.922591  1
  O  O31  1  0.685986  0.162047  0.565106  1
  O  O32  1  0.377962  0.455756  0.974800  1
  O  O33  1  0.540731  0.621462  0.522650  1
  O  O34  1  0.622542  0.538840  0.024576  1
  O  O35  1  0.457878  0.380125  0.477109  1
