# generated using pymatgen
data_HoTm4(Cd2Ni)2
_symmetry_space_group_name_H-M   'P 1'
_cell_length_a   3.52012200
_cell_length_b   7.79739100
_cell_length_c   18.11938000
_cell_angle_alpha   90.00000000
_cell_angle_beta   90.00000000
_cell_angle_gamma   90.00000000
_symmetry_Int_Tables_number   1
_chemical_formula_structural   HoTm4(Cd2Ni)2
_chemical_formula_sum   'Ho2 Tm8 Cd8 Ni4'
_cell_volume   497.33653133
_cell_formula_units_Z   2
loop_
 _symmetry_equiv_pos_site_id
 _symmetry_equiv_pos_as_xyz
  1  'x, y, z'
loop_
 _atom_site_type_symbol
 _atom_site_label
 _atom_site_symmetry_multiplicity
 _atom_site_fract_x
 _atom_site_fract_y
 _atom_site_fract_z
 _atom_site_occupancy
  Ho  Ho0  1  0.000000  0.500000  0.500000  1
  Ho  Ho1  1  0.000000  0.000000  0.000000  1
  Tm  Tm2  1  0.000000  0.755168  0.278882  1
  Tm  Tm3  1  0.000000  0.244832  0.721118  1
  Tm  Tm4  1  0.000000  0.744832  0.778882  1
  Tm  Tm5  1  0.000000  0.255168  0.221118  1
  Tm  Tm6  1  0.000000  0.618081  0.088806  1
  Tm  Tm7  1  0.000000  0.381919  0.911194  1
  Tm  Tm8  1  0.000000  0.881919  0.588806  1
  Tm  Tm9  1  0.000000  0.118081  0.411194  1
  Cd  Cd10  1  0.500000  0.707756  0.930469  1
  Cd  Cd11  1  0.500000  0.292244  0.069531  1
  Cd  Cd12  1  0.500000  0.792244  0.430469  1
  Cd  Cd13  1  0.500000  0.207756  0.569531  1
  Cd  Cd14  1  0.500000  0.565787  0.651760  1
  Cd  Cd15  1  0.500000  0.434213  0.348240  1
  Cd  Cd16  1  0.500000  0.934213  0.151760  1
  Cd  Cd17  1  0.500000  0.065787  0.848240  1
  Ni  Ni18  1  0.500000  0.536509  0.196757  1
  Ni  Ni19  1  0.500000  0.463491  0.803243  1
  Ni  Ni20  1  0.500000  0.963491  0.696757  1
  Ni  Ni21  1  0.500000  0.036509  0.303243  1
