# generated using pymatgen
data_La7Nd9Cd2Hg2IrOs3
_symmetry_space_group_name_H-M   'P 1'
_cell_length_a   9.97448532
_cell_length_b   10.01290869
_cell_length_c   10.06423490
_cell_angle_alpha   59.78456473
_cell_angle_beta   59.99640455
_cell_angle_gamma   60.21024490
_symmetry_Int_Tables_number   1
_chemical_formula_structural   La7Nd9Cd2Hg2IrOs3
_chemical_formula_sum   'La7 Nd9 Cd2 Hg2 Ir1 Os3'
_cell_volume   710.68261602
_cell_formula_units_Z   1
loop_
 _symmetry_equiv_pos_site_id
 _symmetry_equiv_pos_as_xyz
  1  'x, y, z'
loop_
 _atom_site_type_symbol
 _atom_site_label
 _atom_site_symmetry_multiplicity
 _atom_site_fract_x
 _atom_site_fract_y
 _atom_site_fract_z
 _atom_site_occupancy
  La  La0  1  0.345499  0.346537  0.348305  1
  La  La1  1  0.345886  0.345589  0.959269  1
  La  La2  1  0.347481  0.956125  0.347183  1
  La  La3  1  0.959513  0.347156  0.346979  1
  La  La4  1  0.811997  0.190336  0.188865  1
  La  La5  1  0.188150  0.812207  0.810332  1
  La  La6  1  0.189608  0.810135  0.189555  1
  Nd  Nd7  1  0.809714  0.191653  0.807484  1
  Nd  Nd8  1  0.190129  0.192061  0.807989  1
  Nd  Nd9  1  0.807309  0.806379  0.192574  1
  Nd  Nd10  1  0.937236  0.561348  0.562320  1
  Nd  Nd11  1  0.560604  0.938266  0.938104  1
  Nd  Nd12  1  0.559226  0.938173  0.563933  1
  Nd  Nd13  1  0.938222  0.561179  0.940415  1
  Nd  Nd14  1  0.558992  0.562611  0.939268  1
  Nd  Nd15  1  0.938769  0.940852  0.561458  1
  Cd  Cd16  1  0.578446  0.260796  0.581236  1
  Cd  Cd17  1  0.260863  0.577873  0.580567  1
  Hg  Hg18  1  0.584147  0.582427  0.584958  1
  Hg  Hg19  1  0.583495  0.583561  0.248468  1
  Ir  Ir20  1  0.581005  0.141118  0.140673  1
  Os  Os21  1  0.136962  0.135352  0.142036  1
  Os  Os22  1  0.142574  0.133158  0.583119  1
  Os  Os23  1  0.144168  0.585109  0.134908  1
