# generated using pymatgen
data_Lu4ZrPt3F28
_symmetry_space_group_name_H-M   'P 1'
_cell_length_a   5.51478043
_cell_length_b   8.77451561
_cell_length_c   11.86564367
_cell_angle_alpha   62.72491967
_cell_angle_beta   89.93156859
_cell_angle_gamma   89.94496556
_symmetry_Int_Tables_number   1
_chemical_formula_structural   Lu4ZrPt3F28
_chemical_formula_sum   'Lu4 Zr1 Pt3 F28'
_cell_volume   510.33398882
_cell_formula_units_Z   1
loop_
 _symmetry_equiv_pos_site_id
 _symmetry_equiv_pos_as_xyz
  1  'x, y, z'
loop_
 _atom_site_type_symbol
 _atom_site_label
 _atom_site_symmetry_multiplicity
 _atom_site_fract_x
 _atom_site_fract_y
 _atom_site_fract_z
 _atom_site_occupancy
  Lu  Lu0  1  0.761845  0.820047  0.761512  1
  Lu  Lu1  1  0.258421  0.185576  0.729360  1
  Lu  Lu2  1  0.240377  0.182941  0.239295  1
  Lu  Lu3  1  0.739889  0.814615  0.265201  1
  Zr  Zr4  1  0.754860  0.274531  0.956532  1
  Pt  Pt5  1  0.260112  0.728553  0.542832  1
  Pt  Pt6  1  0.239557  0.728119  0.043823  1
  Pt  Pt7  1  0.741356  0.273394  0.455543  1
  F  F8  1  0.440706  0.702898  0.915955  1
  F  F9  1  0.938725  0.298246  0.584100  1
  F  F10  1  0.535479  0.290810  0.087271  1
  F  F11  1  0.059035  0.702886  0.415799  1
  F  F12  1  0.437422  0.281323  0.540897  1
  F  F13  1  0.938884  0.727073  0.953068  1
  F  F14  1  0.561486  0.719715  0.455941  1
  F  F15  1  0.063774  0.273657  0.052580  1
  F  F16  1  0.777800  0.534205  0.856597  1
  F  F17  1  0.270725  0.476931  0.640970  1
  F  F18  1  0.218518  0.476804  0.145217  1
  F  F19  1  0.729195  0.524928  0.356224  1
  F  F20  1  0.756297  0.015238  0.061485  1
  F  F21  1  0.257828  0.980334  0.450175  1
  F  F22  1  0.248488  0.979483  0.947038  1
  F  F23  1  0.744444  0.021643  0.549885  1
  F  F24  1  0.966936  0.727744  0.638062  1
  F  F25  1  0.469732  0.269076  0.849896  1
  F  F26  1  0.036950  0.273525  0.362849  1
  F  F27  1  0.530051  0.722655  0.141716  1
  F  F28  1  0.046633  0.746223  0.177476  1
  F  F29  1  0.550419  0.255150  0.321971  1
  F  F30  1  0.966058  0.248316  0.824015  1
  F  F31  1  0.456489  0.745691  0.676063  1
  F  F32  1  0.421234  0.969954  0.237138  1
  F  F33  1  0.920954  0.025917  0.270119  1
  F  F34  1  0.578658  0.029881  0.763532  1
  F  F35  1  0.080662  0.971919  0.729861  1
