# generated using pymatgen
data_SrLi4Y3Si8
_symmetry_space_group_name_H-M   'P 1'
_cell_length_a   3.81112900
_cell_length_b   7.79689148
_cell_length_c   10.36499355
_cell_angle_alpha   89.44526528
_cell_angle_beta   90.00000000
_cell_angle_gamma   90.00000000
_symmetry_Int_Tables_number   1
_chemical_formula_structural   SrLi4Y3Si8
_chemical_formula_sum   'Sr1 Li4 Y3 Si8'
_cell_volume   307.98092534
_cell_formula_units_Z   1
loop_
 _symmetry_equiv_pos_site_id
 _symmetry_equiv_pos_as_xyz
  1  'x, y, z'
loop_
 _atom_site_type_symbol
 _atom_site_label
 _atom_site_symmetry_multiplicity
 _atom_site_fract_x
 _atom_site_fract_y
 _atom_site_fract_z
 _atom_site_occupancy
  Sr  Sr0  1  0.750000  0.360296  0.363760  1
  Li  Li1  1  0.250000  0.997875  0.393251  1
  Li  Li2  1  0.750000  0.010775  0.610359  1
  Li  Li3  1  0.250000  0.488441  0.107897  1
  Li  Li4  1  0.750000  0.509128  0.893872  1
  Y  Y5  1  0.250000  0.128092  0.863725  1
  Y  Y6  1  0.750000  0.865993  0.131663  1
  Y  Y7  1  0.250000  0.634619  0.636236  1
  Si  Si8  1  0.750000  0.257334  0.059140  1
  Si  Si9  1  0.250000  0.733476  0.932077  1
  Si  Si10  1  0.750000  0.777685  0.432560  1
  Si  Si11  1  0.250000  0.234307  0.579955  1
  Si  Si12  1  0.750000  0.837544  0.817623  1
  Si  Si13  1  0.250000  0.149889  0.168877  1
  Si  Si14  1  0.750000  0.341103  0.688242  1
  Si  Si15  1  0.250000  0.673445  0.320766  1
