# generated using pymatgen
data_TmFeP3Ir4
_symmetry_space_group_name_H-M   'P 1'
_cell_length_a   3.90308600
_cell_length_b   10.72091300
_cell_length_c   12.38819400
_cell_angle_alpha   90.00000000
_cell_angle_beta   90.00000000
_cell_angle_gamma   90.00000000
_symmetry_Int_Tables_number   1
_chemical_formula_structural   TmFeP3Ir4
_chemical_formula_sum   'Tm4 Fe4 P12 Ir16'
_cell_volume   518.37958554
_cell_formula_units_Z   4
loop_
 _symmetry_equiv_pos_site_id
 _symmetry_equiv_pos_as_xyz
  1  'x, y, z'
loop_
 _atom_site_type_symbol
 _atom_site_label
 _atom_site_symmetry_multiplicity
 _atom_site_fract_x
 _atom_site_fract_y
 _atom_site_fract_z
 _atom_site_occupancy
  Tm  Tm0  1  0.250000  0.581488  0.711167  1
  Tm  Tm1  1  0.250000  0.918512  0.211167  1
  Tm  Tm2  1  0.750000  0.418512  0.288833  1
  Tm  Tm3  1  0.750000  0.081488  0.788833  1
  Fe  Fe4  1  0.250000  0.457085  0.932851  1
  Fe  Fe5  1  0.250000  0.042915  0.432851  1
  Fe  Fe6  1  0.750000  0.542915  0.067149  1
  Fe  Fe7  1  0.750000  0.957085  0.567149  1
  P  P8  1  0.250000  0.432819  0.105707  1
  P  P9  1  0.250000  0.067181  0.605707  1
  P  P10  1  0.750000  0.567181  0.894293  1
  P  P11  1  0.750000  0.932819  0.394293  1
  P  P12  1  0.250000  0.267632  0.868417  1
  P  P13  1  0.250000  0.232368  0.368417  1
  P  P14  1  0.750000  0.732368  0.131583  1
  P  P15  1  0.750000  0.767632  0.631583  1
  P  P16  1  0.250000  0.597001  0.386337  1
  P  P17  1  0.250000  0.902999  0.886337  1
  P  P18  1  0.750000  0.402999  0.613663  1
  P  P19  1  0.750000  0.097001  0.113663  1
  Ir  Ir20  1  0.250000  0.721391  0.986959  1
  Ir  Ir21  1  0.250000  0.778609  0.486959  1
  Ir  Ir22  1  0.750000  0.278609  0.013041  1
  Ir  Ir23  1  0.750000  0.221391  0.513041  1
  Ir  Ir24  1  0.250000  0.408763  0.476884  1
  Ir  Ir25  1  0.250000  0.091238  0.976884  1
  Ir  Ir26  1  0.750000  0.591237  0.523116  1
  Ir  Ir27  1  0.750000  0.908763  0.023116  1
  Ir  Ir28  1  0.250000  0.237202  0.176936  1
  Ir  Ir29  1  0.250000  0.262798  0.676936  1
  Ir  Ir30  1  0.750000  0.762798  0.823064  1
  Ir  Ir31  1  0.750000  0.737202  0.323064  1
  Ir  Ir32  1  0.250000  0.882211  0.701617  1
  Ir  Ir33  1  0.250000  0.617789  0.201617  1
  Ir  Ir34  1  0.750000  0.117789  0.298383  1
  Ir  Ir35  1  0.750000  0.382211  0.798383  1
