# generated using pymatgen
data_Hg2PF6
_symmetry_space_group_name_H-M   'P 1'
_cell_length_a   11.60083200
_cell_length_b   5.50438088
_cell_length_c   10.08480898
_cell_angle_alpha   88.68927545
_cell_angle_beta   90.00000000
_cell_angle_gamma   90.00000000
_symmetry_Int_Tables_number   1
_chemical_formula_structural   Hg2PF6
_chemical_formula_sum   'Hg8 P4 F24'
_cell_volume   643.80099188
_cell_formula_units_Z   4
loop_
 _symmetry_equiv_pos_site_id
 _symmetry_equiv_pos_as_xyz
  1  'x, y, z'
loop_
 _atom_site_type_symbol
 _atom_site_label
 _atom_site_symmetry_multiplicity
 _atom_site_fract_x
 _atom_site_fract_y
 _atom_site_fract_z
 _atom_site_occupancy
  Hg  Hg0  1  0.918846  0.003013  0.605960  1
  Hg  Hg1  1  0.418846  0.996987  0.894040  1
  Hg  Hg2  1  0.081154  0.996987  0.394040  1
  Hg  Hg3  1  0.581154  0.003013  0.105960  1
  Hg  Hg4  1  0.973161  0.998398  0.869986  1
  Hg  Hg5  1  0.473161  0.001602  0.630014  1
  Hg  Hg6  1  0.026839  0.001602  0.130014  1
  Hg  Hg7  1  0.526839  0.998398  0.369986  1
  P  P8  1  0.705299  0.501015  0.827993  1
  P  P9  1  0.205299  0.498985  0.672007  1
  P  P10  1  0.294701  0.498985  0.172007  1
  P  P11  1  0.794701  0.501015  0.327993  1
  F  F12  1  0.687740  0.742875  0.732123  1
  F  F13  1  0.187740  0.257125  0.767877  1
  F  F14  1  0.312260  0.257125  0.267877  1
  F  F15  1  0.812260  0.742875  0.232123  1
  F  F16  1  0.724329  0.257667  0.924656  1
  F  F17  1  0.224329  0.742333  0.575344  1
  F  F18  1  0.275671  0.742333  0.075344  1
  F  F19  1  0.775671  0.257667  0.424656  1
  F  F20  1  0.730195  0.675368  0.954793  1
  F  F21  1  0.230195  0.324632  0.545207  1
  F  F22  1  0.269805  0.324632  0.045207  1
  F  F23  1  0.769805  0.675368  0.454793  1
  F  F24  1  0.681304  0.326178  0.702066  1
  F  F25  1  0.181304  0.673822  0.797934  1
  F  F26  1  0.318696  0.673822  0.297934  1
  F  F27  1  0.818696  0.326178  0.202066  1
  F  F28  1  0.843793  0.500977  0.793941  1
  F  F29  1  0.343793  0.499023  0.706059  1
  F  F30  1  0.156207  0.499023  0.206059  1
  F  F31  1  0.656207  0.500977  0.293941  1
  F  F32  1  0.567746  0.499475  0.863887  1
  F  F33  1  0.067746  0.500525  0.636113  1
  F  F34  1  0.432254  0.500525  0.136113  1
  F  F35  1  0.932254  0.499475  0.363887  1
