# generated using pymatgen
data_Tm3Sn3HgRuRh
_symmetry_space_group_name_H-M   'P 1'
_cell_length_a   7.70299400
_cell_length_b   7.70299444
_cell_length_c   3.83529800
_cell_angle_alpha   90.00000000
_cell_angle_beta   90.00000000
_cell_angle_gamma   119.99999810
_symmetry_Int_Tables_number   1
_chemical_formula_structural   Tm3Sn3HgRuRh
_chemical_formula_sum   'Tm3 Sn3 Hg1 Ru1 Rh1'
_cell_volume   197.08287911
_cell_formula_units_Z   1
loop_
 _symmetry_equiv_pos_site_id
 _symmetry_equiv_pos_as_xyz
  1  'x, y, z'
loop_
 _atom_site_type_symbol
 _atom_site_label
 _atom_site_symmetry_multiplicity
 _atom_site_fract_x
 _atom_site_fract_y
 _atom_site_fract_z
 _atom_site_occupancy
  Tm  Tm0  1  0.023794  0.411427  0.000000  1
  Tm  Tm1  1  0.588573  0.612368  0.000000  1
  Tm  Tm2  1  0.387632  0.976206  0.000000  1
  Sn  Sn3  1  0.253200  0.259574  0.500000  1
  Sn  Sn4  1  0.006374  0.746800  0.500000  1
  Sn  Sn5  1  0.740426  0.993626  0.500000  1
  Hg  Hg6  1  0.666667  0.333333  0.500000  1
  Ru  Ru7  1  0.000000  0.000000  0.000000  1
  Rh  Rh8  1  0.333333  0.666667  0.500000  1
