# generated using pymatgen
data_Y8Be3Si12Rh
_symmetry_space_group_name_H-M   'P 1'
_cell_length_a   7.93777100
_cell_length_b   7.93777183
_cell_length_c   8.11147300
_cell_angle_alpha   90.00000000
_cell_angle_beta   90.00000000
_cell_angle_gamma   120.00000073
_symmetry_Int_Tables_number   1
_chemical_formula_structural   Y8Be3Si12Rh
_chemical_formula_sum   'Y8 Be3 Si12 Rh1'
_cell_volume   442.61643087
_cell_formula_units_Z   1
loop_
 _symmetry_equiv_pos_site_id
 _symmetry_equiv_pos_as_xyz
  1  'x, y, z'
loop_
 _atom_site_type_symbol
 _atom_site_label
 _atom_site_symmetry_multiplicity
 _atom_site_fract_x
 _atom_site_fract_y
 _atom_site_fract_z
 _atom_site_occupancy
  Y  Y0  1  0.000000  0.000000  0.247964  1
  Y  Y1  1  0.000000  0.000000  0.751879  1
  Y  Y2  1  0.002236  0.501117  0.248194  1
  Y  Y3  1  0.498883  0.501117  0.248194  1
  Y  Y4  1  0.499569  0.999140  0.751774  1
  Y  Y5  1  0.498883  0.997764  0.248194  1
  Y  Y6  1  0.499569  0.500431  0.751774  1
  Y  Y7  1  0.000860  0.500431  0.751774  1
  Be  Be8  1  0.333333  0.666667  0.998666  1
  Be  Be9  1  0.333333  0.666667  0.500352  1
  Be  Be10  1  0.666667  0.333333  0.002789  1
  Si  Si11  1  0.172608  0.345216  0.999601  1
  Si  Si12  1  0.654784  0.827392  0.999601  1
  Si  Si13  1  0.170192  0.340385  0.500659  1
  Si  Si14  1  0.345145  0.172573  0.000052  1
  Si  Si15  1  0.172608  0.827392  0.999601  1
  Si  Si16  1  0.659615  0.829808  0.500659  1
  Si  Si17  1  0.827427  0.654855  0.000052  1
  Si  Si18  1  0.336978  0.168489  0.499418  1
  Si  Si19  1  0.170192  0.829808  0.500659  1
  Si  Si20  1  0.831511  0.663022  0.499418  1
  Si  Si21  1  0.827427  0.172573  0.000052  1
  Si  Si22  1  0.831511  0.168489  0.499418  1
  Rh  Rh23  1  0.666667  0.333333  0.499256  1
