# generated using pymatgen
data_Y2Lu(SnPd)3
_symmetry_space_group_name_H-M   'P 1'
_cell_length_a   7.67262908
_cell_length_b   7.71278137
_cell_length_c   3.84007500
_cell_angle_alpha   90.00000000
_cell_angle_beta   90.00000000
_cell_angle_gamma   120.17325658
_symmetry_Int_Tables_number   1
_chemical_formula_structural   Y2Lu(SnPd)3
_chemical_formula_sum   'Y2 Lu1 Sn3 Pd3'
_cell_volume   196.45572990
_cell_formula_units_Z   1
loop_
 _symmetry_equiv_pos_site_id
 _symmetry_equiv_pos_as_xyz
  1  'x, y, z'
loop_
 _atom_site_type_symbol
 _atom_site_label
 _atom_site_symmetry_multiplicity
 _atom_site_fract_x
 _atom_site_fract_y
 _atom_site_fract_z
 _atom_site_occupancy
  Y  Y0  1  0.400540  0.400378  0.500000  1
  Y  Y1  1  0.599460  0.999837  0.500000  1
  Lu  Lu2  1  0.000000  0.600003  0.500000  1
  Sn  Sn3  1  0.737076  0.735492  0.000000  1
  Sn  Sn4  1  0.262924  0.998417  0.000000  1
  Sn  Sn5  1  0.000000  0.264604  0.000000  1
  Pd  Pd6  1  0.671609  0.337458  0.000000  1
  Pd  Pd7  1  0.328391  0.665850  0.000000  1
  Pd  Pd8  1  0.000000  0.997961  0.500000  1
