# generated using pymatgen
data_CsTc(NiS2)2
_symmetry_space_group_name_H-M   'P 1'
_cell_length_a   9.96312907
_cell_length_b   9.96312760
_cell_length_c   7.32605900
_cell_angle_alpha   90.00000000
_cell_angle_beta   90.00000000
_cell_angle_gamma   149.10892914
_symmetry_Int_Tables_number   1
_chemical_formula_structural   CsTc(NiS2)2
_chemical_formula_sum   'Cs2 Tc2 Ni4 S8'
_cell_volume   373.35681985
_cell_formula_units_Z   2
loop_
 _symmetry_equiv_pos_site_id
 _symmetry_equiv_pos_as_xyz
  1  'x, y, z'
loop_
 _atom_site_type_symbol
 _atom_site_label
 _atom_site_symmetry_multiplicity
 _atom_site_fract_x
 _atom_site_fract_y
 _atom_site_fract_z
 _atom_site_occupancy
  Cs  Cs0  1  0.168451  0.535573  0.750000  1
  Cs  Cs1  1  0.535573  0.168451  0.250000  1
  Tc  Tc2  1  0.705017  0.507241  0.750000  1
  Tc  Tc3  1  0.507241  0.705017  0.250000  1
  Ni  Ni4  1  0.608980  0.608980  0.500000  1
  Ni  Ni5  1  0.009597  0.202654  0.250000  1
  Ni  Ni6  1  0.202654  0.009597  0.750000  1
  Ni  Ni7  1  0.608980  0.608980  0.000000  1
  S  S8  1  0.762131  0.950631  0.004702  1
  S  S9  1  0.360619  0.355601  0.750000  1
  S  S10  1  0.355601  0.360619  0.250000  1
  S  S11  1  0.950631  0.762131  0.504702  1
  S  S12  1  0.543304  0.160263  0.750000  1
  S  S13  1  0.950631  0.762131  0.995298  1
  S  S14  1  0.160263  0.543304  0.250000  1
  S  S15  1  0.762131  0.950631  0.495298  1
