# generated using pymatgen
data_Tb3InHg2PdPt2
_symmetry_space_group_name_H-M   'P 1'
_cell_length_a   7.85858002
_cell_length_b   7.78425540
_cell_length_c   3.73870300
_cell_angle_alpha   90.00000000
_cell_angle_beta   90.00000000
_cell_angle_gamma   119.68762988
_symmetry_Int_Tables_number   1
_chemical_formula_structural   Tb3InHg2PdPt2
_chemical_formula_sum   'Tb3 In1 Hg2 Pd1 Pt2'
_cell_volume   198.68778734
_cell_formula_units_Z   1
loop_
 _symmetry_equiv_pos_site_id
 _symmetry_equiv_pos_as_xyz
  1  'x, y, z'
loop_
 _atom_site_type_symbol
 _atom_site_label
 _atom_site_symmetry_multiplicity
 _atom_site_fract_x
 _atom_site_fract_y
 _atom_site_fract_z
 _atom_site_occupancy
  Tb  Tb0  1  0.590129  0.994002  0.500000  1
  Tb  Tb1  1  0.409871  0.403872  0.500000  1
  Tb  Tb2  1  0.000000  0.606762  0.500000  1
  In  In3  1  0.000000  0.262054  0.000000  1
  Hg  Hg4  1  0.731484  0.734862  0.000000  1
  Hg  Hg5  1  0.268516  0.003377  0.000000  1
  Pd  Pd6  1  0.000000  0.008437  0.500000  1
  Pt  Pt7  1  0.676755  0.331694  0.000000  1
  Pt  Pt8  1  0.323245  0.654940  0.000000  1
