# generated using pymatgen
data_Cs2LiVCl6
_symmetry_space_group_name_H-M   'P 1'
_cell_length_a   7.30918700
_cell_length_b   7.30918708
_cell_length_c   6.12476300
_cell_angle_alpha   90.00000000
_cell_angle_beta   90.00000000
_cell_angle_gamma   119.99999513
_symmetry_Int_Tables_number   1
_chemical_formula_structural   Cs2LiVCl6
_chemical_formula_sum   'Cs2 Li1 V1 Cl6'
_cell_volume   283.37275467
_cell_formula_units_Z   1
loop_
 _symmetry_equiv_pos_site_id
 _symmetry_equiv_pos_as_xyz
  1  'x, y, z'
loop_
 _atom_site_type_symbol
 _atom_site_label
 _atom_site_symmetry_multiplicity
 _atom_site_fract_x
 _atom_site_fract_y
 _atom_site_fract_z
 _atom_site_occupancy
  Cs  Cs0  1  0.333333  0.666667  0.244553  1
  Cs  Cs1  1  0.666667  0.333333  0.755447  1
  Li  Li2  1  0.000000  0.000000  0.000000  1
  V  V3  1  0.000000  0.000000  0.500000  1
  Cl  Cl4  1  0.847057  0.152943  0.269822  1
  Cl  Cl5  1  0.152943  0.847057  0.730178  1
  Cl  Cl6  1  0.847057  0.694115  0.269822  1
  Cl  Cl7  1  0.152943  0.305885  0.730178  1
  Cl  Cl8  1  0.305885  0.152943  0.269822  1
  Cl  Cl9  1  0.694115  0.847057  0.730178  1
