# generated using pymatgen
data_ErLu(PaH4)6
_symmetry_space_group_name_H-M   'P 1'
_cell_length_a   6.54672900
_cell_length_b   6.54672900
_cell_length_c   6.54672900
_cell_angle_alpha   90.00000000
_cell_angle_beta   90.00000000
_cell_angle_gamma   90.00000000
_symmetry_Int_Tables_number   1
_chemical_formula_structural   ErLu(PaH4)6
_chemical_formula_sum   'Er1 Lu1 Pa6 H24'
_cell_volume   280.59058298
_cell_formula_units_Z   1
loop_
 _symmetry_equiv_pos_site_id
 _symmetry_equiv_pos_as_xyz
  1  'x, y, z'
loop_
 _atom_site_type_symbol
 _atom_site_label
 _atom_site_symmetry_multiplicity
 _atom_site_fract_x
 _atom_site_fract_y
 _atom_site_fract_z
 _atom_site_occupancy
  Er  Er0  1  0.000000  0.000000  0.000000  1
  Lu  Lu1  1  0.500000  0.500000  0.500000  1
  Pa  Pa2  1  0.251048  0.000000  0.500000  1
  Pa  Pa3  1  0.748952  0.000000  0.500000  1
  Pa  Pa4  1  0.000000  0.500000  0.251048  1
  Pa  Pa5  1  0.000000  0.500000  0.748952  1
  Pa  Pa6  1  0.500000  0.748952  0.000000  1
  Pa  Pa7  1  0.500000  0.251048  0.000000  1
  H  H8  1  0.000000  0.154451  0.304547  1
  H  H9  1  0.500000  0.198057  0.653211  1
  H  H10  1  0.500000  0.801943  0.346789  1
  H  H11  1  0.801943  0.653211  0.500000  1
  H  H12  1  0.198057  0.653211  0.500000  1
  H  H13  1  0.346789  0.500000  0.801943  1
  H  H14  1  0.653211  0.500000  0.801943  1
  H  H15  1  0.304547  0.000000  0.154451  1
  H  H16  1  0.154451  0.304547  0.000000  1
  H  H17  1  0.845549  0.695453  0.000000  1
  H  H18  1  0.304547  0.000000  0.845549  1
  H  H19  1  0.845549  0.304547  0.000000  1
  H  H20  1  0.695453  0.000000  0.154451  1
  H  H21  1  0.695453  0.000000  0.845549  1
  H  H22  1  0.154451  0.695453  0.000000  1
  H  H23  1  0.000000  0.845549  0.695453  1
  H  H24  1  0.000000  0.154451  0.695453  1
  H  H25  1  0.000000  0.845549  0.304547  1
  H  H26  1  0.653211  0.500000  0.198057  1
  H  H27  1  0.346789  0.500000  0.198057  1
  H  H28  1  0.801943  0.346789  0.500000  1
  H  H29  1  0.198057  0.346789  0.500000  1
  H  H30  1  0.500000  0.801943  0.653211  1
  H  H31  1  0.500000  0.198057  0.346789  1
