# generated using pymatgen
data_YbU5Cu3Ni3Sb8
_symmetry_space_group_name_H-M   'P 1'
_cell_length_a   8.25754097
_cell_length_b   8.22446444
_cell_length_c   8.23880038
_cell_angle_alpha   109.41888524
_cell_angle_beta   109.80758140
_cell_angle_gamma   109.40770311
_symmetry_Int_Tables_number   1
_chemical_formula_structural   YbU5Cu3Ni3Sb8
_chemical_formula_sum   'Yb1 U5 Cu3 Ni3 Sb8'
_cell_volume   429.54412360
_cell_formula_units_Z   1
loop_
 _symmetry_equiv_pos_site_id
 _symmetry_equiv_pos_as_xyz
  1  'x, y, z'
loop_
 _atom_site_type_symbol
 _atom_site_label
 _atom_site_symmetry_multiplicity
 _atom_site_fract_x
 _atom_site_fract_y
 _atom_site_fract_z
 _atom_site_occupancy
  Yb  Yb0  1  0.871597  0.246740  0.121884  1
  U  U1  1  0.633427  0.756218  0.376559  1
  U  U2  1  0.251082  0.129598  0.884852  1
  U  U3  1  0.751848  0.365961  0.617475  1
  U  U4  1  0.110823  0.871637  0.241753  1
  U  U5  1  0.386838  0.636308  0.761011  1
  Cu  Cu6  1  0.375519  0.249334  0.626377  1
  Cu  Cu7  1  0.124838  0.749944  0.874470  1
  Cu  Cu8  1  0.246968  0.620420  0.371777  1
  Ni  Ni9  1  0.748530  0.868965  0.128314  1
  Ni  Ni10  1  0.621946  0.380239  0.253865  1
  Ni  Ni11  1  0.871528  0.121845  0.740242  1
  Sb  Sb12  1  0.664835  0.498755  0.001390  1
  Sb  Sb13  1  0.499456  0.997000  0.661901  1
  Sb  Sb14  1  0.996885  0.662297  0.495954  1
  Sb  Sb15  1  0.834183  0.840031  0.835835  1
  Sb  Sb16  1  0.506354  0.005167  0.167241  1
  Sb  Sb17  1  0.161606  0.496320  0.998668  1
  Sb  Sb18  1  0.001399  0.166691  0.501618  1
  Sb  Sb19  1  0.340335  0.336529  0.338816  1
