# generated using pymatgen
data_LiTb3YCo19P12
_symmetry_space_group_name_H-M   'P 1'
_cell_length_a   3.66650800
_cell_length_b   10.28105462
_cell_length_c   11.80051538
_cell_angle_alpha   90.09741249
_cell_angle_beta   90.00000000
_cell_angle_gamma   90.00000000
_symmetry_Int_Tables_number   1
_chemical_formula_structural   LiTb3YCo19P12
_chemical_formula_sum   'Li1 Tb3 Y1 Co19 P12'
_cell_volume   444.82649919
_cell_formula_units_Z   1
loop_
 _symmetry_equiv_pos_site_id
 _symmetry_equiv_pos_as_xyz
  1  'x, y, z'
loop_
 _atom_site_type_symbol
 _atom_site_label
 _atom_site_symmetry_multiplicity
 _atom_site_fract_x
 _atom_site_fract_y
 _atom_site_fract_z
 _atom_site_occupancy
  Li  Li0  1  0.250000  0.796533  0.490593  1
  Tb  Tb1  1  0.250000  0.918118  0.201357  1
  Tb  Tb2  1  0.750000  0.082322  0.798012  1
  Tb  Tb3  1  0.750000  0.418719  0.296958  1
  Y  Y4  1  0.250000  0.581155  0.703075  1
  Co  Co5  1  0.750000  0.210970  0.510385  1
  Co  Co6  1  0.750000  0.284330  0.007740  1
  Co  Co7  1  0.250000  0.715474  0.992093  1
  Co  Co8  1  0.250000  0.093983  0.988316  1
  Co  Co9  1  0.750000  0.906845  0.012992  1
  Co  Co10  1  0.750000  0.591250  0.512578  1
  Co  Co11  1  0.250000  0.403908  0.487766  1
  Co  Co12  1  0.250000  0.277045  0.675814  1
  Co  Co13  1  0.750000  0.720136  0.321590  1
  Co  Co14  1  0.750000  0.779323  0.827699  1
  Co  Co15  1  0.250000  0.221683  0.175433  1
  Co  Co16  1  0.250000  0.616321  0.196948  1
  Co  Co17  1  0.750000  0.381918  0.800661  1
  Co  Co18  1  0.750000  0.119709  0.301225  1
  Co  Co19  1  0.250000  0.880794  0.700056  1
  Co  Co20  1  0.250000  0.034934  0.432250  1
  Co  Co21  1  0.750000  0.966600  0.567135  1
  Co  Co22  1  0.750000  0.531619  0.066566  1
  Co  Co23  1  0.250000  0.467210  0.931410  1
  P  P24  1  0.250000  0.078581  0.612455  1
  P  P25  1  0.750000  0.921565  0.384585  1
  P  P26  1  0.750000  0.580701  0.887794  1
  P  P27  1  0.250000  0.418973  0.111151  1
  P  P28  1  0.250000  0.230193  0.368093  1
  P  P29  1  0.750000  0.770613  0.637378  1
  P  P30  1  0.750000  0.727920  0.130539  1
  P  P31  1  0.250000  0.270792  0.869136  1
  P  P32  1  0.250000  0.898143  0.893593  1
  P  P33  1  0.750000  0.103098  0.108145  1
  P  P34  1  0.750000  0.396591  0.607300  1
  P  P35  1  0.250000  0.601926  0.391178  1
