# generated using pymatgen
data_LaHoSn5IrRh2
_symmetry_space_group_name_H-M   'P 1'
_cell_length_a   13.55595448
_cell_length_b   13.55595450
_cell_length_c   7.28113300
_cell_angle_alpha   90.00000000
_cell_angle_beta   90.00000000
_cell_angle_gamma   160.84759143
_symmetry_Int_Tables_number   1
_chemical_formula_structural   LaHoSn5IrRh2
_chemical_formula_sum   'La2 Ho2 Sn10 Ir2 Rh4'
_cell_volume   438.97694951
_cell_formula_units_Z   2
loop_
 _symmetry_equiv_pos_site_id
 _symmetry_equiv_pos_as_xyz
  1  'x, y, z'
loop_
 _atom_site_type_symbol
 _atom_site_label
 _atom_site_symmetry_multiplicity
 _atom_site_fract_x
 _atom_site_fract_y
 _atom_site_fract_z
 _atom_site_occupancy
  La  La0  1  0.171590  0.828410  0.745918  1
  La  La1  1  0.828410  0.171590  0.245918  1
  Ho  Ho2  1  0.476878  0.523122  0.763139  1
  Ho  Ho3  1  0.523122  0.476878  0.263139  1
  Sn  Sn4  1  0.881343  0.118657  0.766338  1
  Sn  Sn5  1  0.118657  0.881343  0.266338  1
  Sn  Sn6  1  0.704500  0.295500  0.447184  1
  Sn  Sn7  1  0.295500  0.704500  0.947184  1
  Sn  Sn8  1  0.594372  0.405628  0.888543  1
  Sn  Sn9  1  0.405628  0.594372  0.388543  1
  Sn  Sn10  1  0.953171  0.046829  0.100999  1
  Sn  Sn11  1  0.046829  0.953171  0.600999  1
  Sn  Sn12  1  0.290201  0.709799  0.526705  1
  Sn  Sn13  1  0.709799  0.290201  0.026705  1
  Ir  Ir14  1  0.049075  0.950925  0.982548  1
  Ir  Ir15  1  0.950925  0.049075  0.482548  1
  Rh  Rh16  1  0.778119  0.221881  0.737500  1
  Rh  Rh17  1  0.221881  0.778119  0.237500  1
  Rh  Rh18  1  0.395812  0.604188  0.013127  1
  Rh  Rh19  1  0.604188  0.395812  0.513127  1
