# generated using pymatgen
data_Y2Er4Si6Ir11Rh
_symmetry_space_group_name_H-M   'P 1'
_cell_length_a   5.56215648
_cell_length_b   5.56215536
_cell_length_c   15.12125755
_cell_angle_alpha   89.97327653
_cell_angle_beta   90.02672247
_cell_angle_gamma   119.96084619
_symmetry_Int_Tables_number   1
_chemical_formula_structural   Y2Er4Si6Ir11Rh
_chemical_formula_sum   'Y2 Er4 Si6 Ir11 Rh1'
_cell_volume   405.29944388
_cell_formula_units_Z   1
loop_
 _symmetry_equiv_pos_site_id
 _symmetry_equiv_pos_as_xyz
  1  'x, y, z'
loop_
 _atom_site_type_symbol
 _atom_site_label
 _atom_site_symmetry_multiplicity
 _atom_site_fract_x
 _atom_site_fract_y
 _atom_site_fract_z
 _atom_site_occupancy
  Y  Y0  1  0.333426  0.666574  0.749989  1
  Y  Y1  1  0.666811  0.333189  0.249365  1
  Er  Er2  1  0.333945  0.666055  0.538883  1
  Er  Er3  1  0.666870  0.333130  0.461190  1
  Er  Er4  1  0.666826  0.333174  0.038942  1
  Er  Er5  1  0.333288  0.666712  0.961060  1
  Si  Si6  1  0.999978  0.000022  0.250230  1
  Si  Si7  1  0.000032  0.999968  0.749961  1
  Si  Si8  1  0.333112  0.666888  0.250475  1
  Si  Si9  1  0.666479  0.333521  0.749939  1
  Si  Si10  1  0.999765  0.000235  0.000150  1
  Si  Si11  1  0.998505  0.001495  0.499808  1
  Ir  Ir12  1  0.167726  0.335401  0.129540  1
  Ir  Ir13  1  0.832553  0.664745  0.870512  1
  Ir  Ir14  1  0.664599  0.832274  0.129540  1
  Ir  Ir15  1  0.832735  0.664852  0.629267  1
  Ir  Ir16  1  0.335255  0.167447  0.870512  1
  Ir  Ir17  1  0.168072  0.334904  0.370407  1
  Ir  Ir18  1  0.167524  0.832476  0.130180  1
  Ir  Ir19  1  0.335148  0.167265  0.629267  1
  Ir  Ir20  1  0.832395  0.167605  0.870462  1
  Ir  Ir21  1  0.665096  0.831928  0.370407  1
  Ir  Ir22  1  0.832367  0.167633  0.629470  1
  Rh  Rh23  1  0.167491  0.832509  0.370444  1
