# generated using pymatgen
data_Dy5Mo3P12(IrRh)8
_symmetry_space_group_name_H-M   'P 1'
_cell_length_a   12.69910807
_cell_length_b   12.69635848
_cell_length_c   3.95921200
_cell_angle_alpha   90.00000000
_cell_angle_beta   90.00000000
_cell_angle_gamma   119.99554692
_symmetry_Int_Tables_number   1
_chemical_formula_structural   Dy5Mo3P12(IrRh)8
_chemical_formula_sum   'Dy5 Mo3 P12 Ir8 Rh8'
_cell_volume   552.85503580
_cell_formula_units_Z   1
loop_
 _symmetry_equiv_pos_site_id
 _symmetry_equiv_pos_as_xyz
  1  'x, y, z'
loop_
 _atom_site_type_symbol
 _atom_site_label
 _atom_site_symmetry_multiplicity
 _atom_site_fract_x
 _atom_site_fract_y
 _atom_site_fract_z
 _atom_site_occupancy
  Dy  Dy0  1  0.333239  0.666418  0.500000  1
  Dy  Dy1  1  0.666542  0.333357  0.500000  1
  Dy  Dy2  1  0.000007  0.812646  0.000000  1
  Dy  Dy3  1  0.187354  0.187456  0.000000  1
  Dy  Dy4  1  0.812654  0.000033  0.000000  1
  Mo  Mo5  1  0.000425  0.452548  0.500000  1
  Mo  Mo6  1  0.547288  0.547262  0.500000  1
  Mo  Mo7  1  0.452175  0.999776  0.500000  1
  P  P8  1  0.999789  0.637510  0.500000  1
  P  P9  1  0.362340  0.362454  0.500000  1
  P  P10  1  0.637604  0.000057  0.500000  1
  P  P11  1  0.516644  0.683358  0.000000  1
  P  P12  1  0.317200  0.833580  0.000000  1
  P  P13  1  0.166596  0.483958  0.000000  1
  P  P14  1  0.483492  0.166439  0.000000  1
  P  P15  1  0.683470  0.516604  0.000000  1
  P  P16  1  0.833615  0.317009  0.000000  1
  P  P17  1  0.999930  0.176979  0.500000  1
  P  P18  1  0.822499  0.822785  0.500000  1
  P  P19  1  0.177048  0.999725  0.500000  1
  Ir  Ir20  1  0.356539  0.488458  0.000000  1
  Ir  Ir21  1  0.489070  0.356625  0.000000  1
  Ir  Ir22  1  0.868083  0.511443  0.000000  1
  Ir  Ir23  1  0.643602  0.132180  0.000000  1
  Ir  Ir24  1  0.000040  0.284190  0.000000  1
  Ir  Ir25  1  0.715760  0.715690  0.000000  1
  Ir  Ir26  1  0.284129  0.000144  0.000000  1
  Ir  Ir27  1  0.999916  0.999836  0.500000  1
  Rh  Rh28  1  0.512332  0.868857  0.000000  1
  Rh  Rh29  1  0.131190  0.643576  0.000000  1
  Rh  Rh30  1  0.624101  0.802734  0.500000  1
  Rh  Rh31  1  0.197225  0.821405  0.500000  1
  Rh  Rh32  1  0.178345  0.374625  0.500000  1
  Rh  Rh33  1  0.374547  0.178514  0.500000  1
  Rh  Rh34  1  0.803386  0.625131  0.500000  1
  Rh  Rh35  1  0.821824  0.196636  0.500000  1
