# generated using pymatgen
data_Ca8ScTaN8
_symmetry_space_group_name_H-M   'P 1'
_cell_length_a   6.09885041
_cell_length_b   6.10505957
_cell_length_c   9.24518768
_cell_angle_alpha   71.08763968
_cell_angle_beta   81.29870258
_cell_angle_gamma   68.60550148
_symmetry_Int_Tables_number   1
_chemical_formula_structural   Ca8ScTaN8
_chemical_formula_sum   'Ca8 Sc1 Ta1 N8'
_cell_volume   302.99678535
_cell_formula_units_Z   1
loop_
 _symmetry_equiv_pos_site_id
 _symmetry_equiv_pos_as_xyz
  1  'x, y, z'
loop_
 _atom_site_type_symbol
 _atom_site_label
 _atom_site_symmetry_multiplicity
 _atom_site_fract_x
 _atom_site_fract_y
 _atom_site_fract_z
 _atom_site_occupancy
  Ca  Ca0  1  0.246407  0.944523  0.602819  1
  Ca  Ca1  1  0.738628  0.611717  0.188235  1
  Ca  Ca2  1  0.752834  0.241863  0.988850  1
  Ca  Ca3  1  0.261653  0.524927  0.427201  1
  Ca  Ca4  1  0.754831  0.049599  0.410777  1
  Ca  Ca5  1  0.260898  0.390248  0.803805  1
  Ca  Ca6  1  0.731998  0.478913  0.579771  1
  Ca  Ca7  1  0.248359  0.757806  0.007058  1
  Sc  Sc8  1  0.719207  0.845642  0.765848  1
  Ta  Ta9  1  0.283560  0.155686  0.238708  1
  N  N10  1  0.984637  0.698241  0.608516  1
  N  N11  1  0.510308  0.189765  0.617070  1
  N  N12  1  0.025624  0.293770  0.377231  1
  N  N13  1  0.506433  0.621408  0.801602  1
  N  N14  1  0.157247  0.150922  0.057451  1
  N  N15  1  0.480330  0.829001  0.367822  1
  N  N16  1  0.482400  0.366232  0.197816  1
  N  N17  1  0.854647  0.849737  0.959418  1
