# generated using pymatgen
data_Tb4Si3Ir4
_symmetry_space_group_name_H-M   'P 1'
_cell_length_a   10.71823860
_cell_length_b   10.72446636
_cell_length_c   7.75632000
_cell_angle_alpha   71.73610282
_cell_angle_beta   71.78576374
_cell_angle_gamma   29.98691578
_symmetry_Int_Tables_number   1
_chemical_formula_structural   Tb4Si3Ir4
_chemical_formula_sum   'Tb8 Si6 Ir8'
_cell_volume   421.56798263
_cell_formula_units_Z   2
loop_
 _symmetry_equiv_pos_site_id
 _symmetry_equiv_pos_as_xyz
  1  'x, y, z'
loop_
 _atom_site_type_symbol
 _atom_site_label
 _atom_site_symmetry_multiplicity
 _atom_site_fract_x
 _atom_site_fract_y
 _atom_site_fract_z
 _atom_site_occupancy
  Tb  Tb0  1  0.790320  0.550744  0.597698  1
  Tb  Tb1  1  0.450586  0.209775  0.901612  1
  Tb  Tb2  1  0.209983  0.449745  0.402121  1
  Tb  Tb3  1  0.549831  0.791219  0.097854  1
  Tb  Tb4  1  0.790127  0.070807  0.172206  1
  Tb  Tb5  1  0.927843  0.210874  0.329088  1
  Tb  Tb6  1  0.209394  0.929060  0.828314  1
  Tb  Tb7  1  0.071848  0.788824  0.671531  1
  Si  Si8  1  0.958495  0.696601  0.059585  1
  Si  Si9  1  0.302711  0.042176  0.440556  1
  Si  Si10  1  0.041583  0.302640  0.940922  1
  Si  Si11  1  0.697373  0.957060  0.559981  1
  Si  Si12  1  0.606811  0.393402  0.749733  1
  Si  Si13  1  0.392870  0.606759  0.250322  1
  Ir  Ir14  1  0.589485  0.287253  0.525704  1
  Ir  Ir15  1  0.711903  0.410934  0.974601  1
  Ir  Ir16  1  0.411255  0.711963  0.473931  1
  Ir  Ir17  1  0.288233  0.589043  0.025411  1
  Ir  Ir18  1  0.632881  0.928368  0.309575  1
  Ir  Ir19  1  0.073487  0.365801  0.189434  1
  Ir  Ir20  1  0.364626  0.074362  0.689452  1
  Ir  Ir21  1  0.928357  0.632590  0.810369  1
