# generated using pymatgen
data_Nd8Zn2Si12PtRh
_symmetry_space_group_name_H-M   'P 1'
_cell_length_a   8.22232100
_cell_length_b   8.22232137
_cell_length_c   8.54763200
_cell_angle_alpha   90.00000000
_cell_angle_beta   90.00000000
_cell_angle_gamma   120.00000254
_symmetry_Int_Tables_number   1
_chemical_formula_structural   Nd8Zn2Si12PtRh
_chemical_formula_sum   'Nd8 Zn2 Si12 Pt1 Rh1'
_cell_volume   500.45532148
_cell_formula_units_Z   1
loop_
 _symmetry_equiv_pos_site_id
 _symmetry_equiv_pos_as_xyz
  1  'x, y, z'
loop_
 _atom_site_type_symbol
 _atom_site_label
 _atom_site_symmetry_multiplicity
 _atom_site_fract_x
 _atom_site_fract_y
 _atom_site_fract_z
 _atom_site_occupancy
  Nd  Nd0  1  0.000000  0.000000  0.751495  1
  Nd  Nd1  1  0.000000  0.000000  0.248738  1
  Nd  Nd2  1  0.498792  0.501208  0.752746  1
  Nd  Nd3  1  0.498792  0.997584  0.752746  1
  Nd  Nd4  1  0.002416  0.501208  0.752746  1
  Nd  Nd5  1  0.499910  0.500090  0.247110  1
  Nd  Nd6  1  0.000181  0.500090  0.247110  1
  Nd  Nd7  1  0.499910  0.999819  0.247110  1
  Zn  Zn8  1  0.666667  0.333333  0.504655  1
  Zn  Zn9  1  0.333333  0.666667  0.494427  1
  Si  Si10  1  0.834705  0.165295  0.999925  1
  Si  Si11  1  0.834705  0.669411  0.999925  1
  Si  Si12  1  0.330589  0.165295  0.999925  1
  Si  Si13  1  0.833647  0.166353  0.499059  1
  Si  Si14  1  0.833647  0.667295  0.499059  1
  Si  Si15  1  0.332705  0.166353  0.499059  1
  Si  Si16  1  0.166520  0.833480  0.501103  1
  Si  Si17  1  0.666961  0.833480  0.501103  1
  Si  Si18  1  0.166520  0.333039  0.501103  1
  Si  Si19  1  0.168338  0.831662  0.000189  1
  Si  Si20  1  0.663325  0.831662  0.000189  1
  Si  Si21  1  0.168338  0.336675  0.000189  1
  Pt  Pt22  1  0.666667  0.333333  0.998034  1
  Rh  Rh23  1  0.333333  0.666667  0.002255  1
