# generated using pymatgen
data_Zr2BeCu6
_symmetry_space_group_name_H-M   'P 1'
_cell_length_a   4.75633174
_cell_length_b   4.86581227
_cell_length_c   6.45126266
_cell_angle_alpha   81.65850324
_cell_angle_beta   82.67755749
_cell_angle_gamma   121.08267544
_symmetry_Int_Tables_number   1
_chemical_formula_structural   Zr2BeCu6
_chemical_formula_sum   'Zr2 Be1 Cu6'
_cell_volume   122.85468627
_cell_formula_units_Z   1
loop_
 _symmetry_equiv_pos_site_id
 _symmetry_equiv_pos_as_xyz
  1  'x, y, z'
loop_
 _atom_site_type_symbol
 _atom_site_label
 _atom_site_symmetry_multiplicity
 _atom_site_fract_x
 _atom_site_fract_y
 _atom_site_fract_z
 _atom_site_occupancy
  Zr  Zr0  1  0.602654  0.605958  0.234715  1
  Zr  Zr1  1  0.397346  0.394042  0.765285  1
  Be  Be2  1  0.500000  0.000000  0.500000  1
  Cu  Cu3  1  0.000000  0.000000  0.500000  1
  Cu  Cu4  1  0.302385  0.970985  0.158524  1
  Cu  Cu5  1  0.048364  0.711788  0.843213  1
  Cu  Cu6  1  0.697615  0.029015  0.841476  1
  Cu  Cu7  1  0.951636  0.288212  0.156787  1
  Cu  Cu8  1  0.000000  0.500000  0.500000  1
