# generated using pymatgen
data_Ag2SnPd5
_symmetry_space_group_name_H-M   'P 1'
_cell_length_a   8.23308133
_cell_length_b   8.23308120
_cell_length_c   8.23308255
_cell_angle_alpha   150.81649558
_cell_angle_beta   150.81649298
_cell_angle_gamma   41.74417918
_symmetry_Int_Tables_number   1
_chemical_formula_structural   Ag2SnPd5
_chemical_formula_sum   'Ag2 Sn1 Pd5'
_cell_volume   132.38230203
_cell_formula_units_Z   1
loop_
 _symmetry_equiv_pos_site_id
 _symmetry_equiv_pos_as_xyz
  1  'x, y, z'
loop_
 _atom_site_type_symbol
 _atom_site_label
 _atom_site_symmetry_multiplicity
 _atom_site_fract_x
 _atom_site_fract_y
 _atom_site_fract_z
 _atom_site_occupancy
  Ag  Ag0  1  0.749351  0.749351  0.000000  1
  Ag  Ag1  1  0.250649  0.250649  0.000000  1
  Sn  Sn2  1  0.000000  0.000000  0.000000  1
  Pd  Pd3  1  0.500000  0.500000  0.000000  1
  Pd  Pd4  1  0.877894  0.377894  0.500000  1
  Pd  Pd5  1  0.377894  0.877894  0.500000  1
  Pd  Pd6  1  0.122106  0.622106  0.500000  1
  Pd  Pd7  1  0.622106  0.122106  0.500000  1
