# generated using pymatgen
data_Ac2Sm(CdPd)3
_symmetry_space_group_name_H-M   'P 1'
_cell_length_a   7.96883794
_cell_length_b   7.89755986
_cell_length_c   4.13868400
_cell_angle_alpha   90.00000000
_cell_angle_beta   90.00000000
_cell_angle_gamma   119.70454748
_symmetry_Int_Tables_number   1
_chemical_formula_structural   Ac2Sm(CdPd)3
_chemical_formula_sum   'Ac2 Sm1 Cd3 Pd3'
_cell_volume   226.23828930
_cell_formula_units_Z   1
loop_
 _symmetry_equiv_pos_site_id
 _symmetry_equiv_pos_as_xyz
  1  'x, y, z'
loop_
 _atom_site_type_symbol
 _atom_site_label
 _atom_site_symmetry_multiplicity
 _atom_site_fract_x
 _atom_site_fract_y
 _atom_site_fract_z
 _atom_site_occupancy
  Ac  Ac0  1  0.411485  0.407342  0.500000  1
  Ac  Ac1  1  0.588515  0.995857  0.500000  1
  Sm  Sm2  1  0.000000  0.598310  0.500000  1
  Cd  Cd3  1  0.763517  0.750896  0.000000  1
  Cd  Cd4  1  0.236483  0.987380  0.000000  1
  Cd  Cd5  1  0.000000  0.257511  0.000000  1
  Pd  Pd6  1  0.675641  0.338745  0.000000  1
  Pd  Pd7  1  0.324359  0.663104  0.000000  1
  Pd  Pd8  1  0.000000  0.000855  0.500000  1
