# generated using pymatgen
data_CeHo3(ZnSi)4
_symmetry_space_group_name_H-M   'P 1'
_cell_length_a   4.17873800
_cell_length_b   4.17873691
_cell_length_c   15.81870400
_cell_angle_alpha   90.00000000
_cell_angle_beta   90.00000000
_cell_angle_gamma   120.00000866
_symmetry_Int_Tables_number   1
_chemical_formula_structural   CeHo3(ZnSi)4
_chemical_formula_sum   'Ce1 Ho3 Zn4 Si4'
_cell_volume   239.21679339
_cell_formula_units_Z   1
loop_
 _symmetry_equiv_pos_site_id
 _symmetry_equiv_pos_as_xyz
  1  'x, y, z'
loop_
 _atom_site_type_symbol
 _atom_site_label
 _atom_site_symmetry_multiplicity
 _atom_site_fract_x
 _atom_site_fract_y
 _atom_site_fract_z
 _atom_site_occupancy
  Ce  Ce0  1  0.000000  0.000000  0.000000  1
  Ho  Ho1  1  0.000000  0.000000  0.254055  1
  Ho  Ho2  1  0.000000  0.000000  0.500000  1
  Ho  Ho3  1  0.000000  0.000000  0.745945  1
  Zn  Zn4  1  0.666666  0.333335  0.142739  1
  Zn  Zn5  1  0.666666  0.333335  0.362436  1
  Zn  Zn6  1  0.333333  0.666666  0.637564  1
  Zn  Zn7  1  0.333333  0.666666  0.857261  1
  Si  Si8  1  0.333333  0.666666  0.121681  1
  Si  Si9  1  0.333333  0.666666  0.382766  1
  Si  Si10  1  0.666666  0.333335  0.617234  1
  Si  Si11  1  0.666666  0.333335  0.878319  1
