# generated using pymatgen
data_Yb2Ho2Ga20Pt11
_symmetry_space_group_name_H-M   'P 1'
_cell_length_a   4.22148616
_cell_length_b   10.89075174
_cell_length_c   13.75479600
_cell_angle_alpha   81.70619144
_cell_angle_beta   81.05799768
_cell_angle_gamma   78.44969789
_symmetry_Int_Tables_number   1
_chemical_formula_structural   Yb2Ho2Ga20Pt11
_chemical_formula_sum   'Yb2 Ho2 Ga20 Pt11'
_cell_volume   607.84729702
_cell_formula_units_Z   1
loop_
 _symmetry_equiv_pos_site_id
 _symmetry_equiv_pos_as_xyz
  1  'x, y, z'
loop_
 _atom_site_type_symbol
 _atom_site_label
 _atom_site_symmetry_multiplicity
 _atom_site_fract_x
 _atom_site_fract_y
 _atom_site_fract_z
 _atom_site_occupancy
  Yb  Yb0  1  0.772399  0.628913  0.823874  1
  Yb  Yb1  1  0.227601  0.371087  0.176126  1
  Ho  Ho2  1  0.124670  0.087404  0.664847  1
  Ho  Ho3  1  0.875330  0.912596  0.335153  1
  Ga  Ga4  1  0.011762  0.069344  0.910182  1
  Ga  Ga5  1  0.988238  0.930656  0.089818  1
  Ga  Ga6  1  0.064098  0.675801  0.194181  1
  Ga  Ga7  1  0.935902  0.324199  0.805819  1
  Ga  Ga8  1  0.105271  0.341695  0.453189  1
  Ga  Ga9  1  0.894729  0.658305  0.546811  1
  Ga  Ga10  1  0.200414  0.604063  0.992242  1
  Ga  Ga11  1  0.799586  0.395937  0.007758  1
  Ga  Ga12  1  0.257862  0.778926  0.699874  1
  Ga  Ga13  1  0.742138  0.221074  0.300126  1
  Ga  Ga14  1  0.301261  0.898862  0.495621  1
  Ga  Ga15  1  0.698739  0.101138  0.504379  1
  Ga  Ga16  1  0.383234  0.528111  0.700018  1
  Ga  Ga17  1  0.616766  0.471889  0.299982  1
  Ga  Ga18  1  0.395701  0.201663  0.002323  1
  Ga  Ga19  1  0.604299  0.798337  0.997677  1
  Ga  Ga20  1  0.543435  0.282901  0.629705  1
  Ga  Ga21  1  0.456565  0.717099  0.370295  1
  Ga  Ga22  1  0.642169  0.929918  0.791473  1
  Ga  Ga23  1  0.357831  0.070082  0.208527  1
  Pt  Pt24  1  0.500000  0.500000  0.500000  1
  Pt  Pt25  1  0.028679  0.577948  0.370726  1
  Pt  Pt26  1  0.971321  0.422052  0.629274  1
  Pt  Pt27  1  0.144701  0.831925  0.886642  1
  Pt  Pt28  1  0.855299  0.168075  0.113358  1
  Pt  Pt29  1  0.244485  0.124884  0.392391  1
  Pt  Pt30  1  0.755515  0.875116  0.607609  1
  Pt  Pt31  1  0.346966  0.417442  0.891254  1
  Pt  Pt32  1  0.653034  0.582558  0.108746  1
  Pt  Pt33  1  0.508945  0.165854  0.817013  1
  Pt  Pt34  1  0.491055  0.834146  0.182987  1
