# generated using pymatgen
data_Tb12In2Fe2Tc
_symmetry_space_group_name_H-M   'P 1'
_cell_length_a   8.40260747
_cell_length_b   8.40260828
_cell_length_c   8.40260800
_cell_angle_alpha   108.77930389
_cell_angle_beta   108.77929857
_cell_angle_gamma   110.86409124
_symmetry_Int_Tables_number   1
_chemical_formula_structural   Tb12In2Fe2Tc
_chemical_formula_sum   'Tb12 In2 Fe2 Tc1'
_cell_volume   456.48593016
_cell_formula_units_Z   1
loop_
 _symmetry_equiv_pos_site_id
 _symmetry_equiv_pos_as_xyz
  1  'x, y, z'
loop_
 _atom_site_type_symbol
 _atom_site_label
 _atom_site_symmetry_multiplicity
 _atom_site_fract_x
 _atom_site_fract_y
 _atom_site_fract_z
 _atom_site_occupancy
  Tb  Tb0  1  0.307224  0.307238  0.614475  1
  Tb  Tb1  1  0.692776  0.692762  0.385525  1
  Tb  Tb2  1  0.692764  0.307238  0.000014  1
  Tb  Tb3  1  0.307236  0.692762  0.999986  1
  Tb  Tb4  1  0.192940  0.432127  0.239187  1
  Tb  Tb5  1  0.807060  0.567873  0.760813  1
  Tb  Tb6  1  0.192937  0.953746  0.760810  1
  Tb  Tb7  1  0.953750  0.192937  0.760809  1
  Tb  Tb8  1  0.807063  0.046254  0.239190  1
  Tb  Tb9  1  0.046250  0.807063  0.239191  1
  Tb  Tb10  1  0.432128  0.192937  0.239186  1
  Tb  Tb11  1  0.567872  0.807063  0.760814  1
  In  In12  1  0.000000  0.500000  0.500000  1
  In  In13  1  0.500000  0.000000  0.500000  1
  Fe  Fe14  1  0.385503  0.385562  0.000059  1
  Fe  Fe15  1  0.614497  0.614438  0.999941  1
  Tc  Tc16  1  0.000000  0.000000  0.000000  1
