# generated using pymatgen
data_Nd2Fe2P7Ir3Ru7
_symmetry_space_group_name_H-M   'P 1'
_cell_length_a   9.39824707
_cell_length_b   9.43885701
_cell_length_c   3.92090400
_cell_angle_alpha   90.00000000
_cell_angle_beta   90.00000000
_cell_angle_gamma   120.21068001
_symmetry_Int_Tables_number   1
_chemical_formula_structural   Nd2Fe2P7Ir3Ru7
_chemical_formula_sum   'Nd2 Fe2 P7 Ir3 Ru7'
_cell_volume   300.57800641
_cell_formula_units_Z   1
loop_
 _symmetry_equiv_pos_site_id
 _symmetry_equiv_pos_as_xyz
  1  'x, y, z'
loop_
 _atom_site_type_symbol
 _atom_site_label
 _atom_site_symmetry_multiplicity
 _atom_site_fract_x
 _atom_site_fract_y
 _atom_site_fract_z
 _atom_site_occupancy
  Nd  Nd0  1  0.668066  0.332930  0.000000  1
  Nd  Nd1  1  0.333710  0.665260  0.500000  1
  Fe  Fe2  1  0.839560  0.730874  0.000000  1
  Fe  Fe3  1  0.889744  0.159048  0.000000  1
  P  P4  1  0.306993  0.888251  0.000000  1
  P  P5  1  0.591177  0.701516  0.000000  1
  P  P6  1  0.105949  0.407177  0.000000  1
  P  P7  1  0.395707  0.286621  0.500000  1
  P  P8  1  0.883349  0.600463  0.500000  1
  P  P9  1  0.723326  0.116633  0.500000  1
  P  P10  1  0.988399  0.995977  0.000000  1
  Ir  Ir11  1  0.061353  0.637224  0.000000  1
  Ir  Ir12  1  0.441239  0.052512  0.500000  1
  Ir  Ir13  1  0.616086  0.563058  0.500000  1
  Ru  Ru14  1  0.579077  0.940680  0.000000  1
  Ru  Ru15  1  0.364863  0.429659  0.000000  1
  Ru  Ru16  1  0.264913  0.107178  0.000000  1
  Ru  Ru17  1  0.948836  0.386694  0.500000  1
  Ru  Ru18  1  0.083503  0.871205  0.500000  1
  Ru  Ru19  1  0.792895  0.913728  0.500000  1
  Ru  Ru20  1  0.121256  0.213313  0.500000  1
