# generated using pymatgen
data_MnCr3B4(PbO4)4
_symmetry_space_group_name_H-M   'P 1'
_cell_length_a   7.10546415
_cell_length_b   6.08257198
_cell_length_c   8.33410100
_cell_angle_alpha   91.05607645
_cell_angle_beta   90.88923275
_cell_angle_gamma   88.77935183
_symmetry_Int_Tables_number   1
_chemical_formula_structural   MnCr3B4(PbO4)4
_chemical_formula_sum   'Mn1 Cr3 B4 Pb4 O16'
_cell_volume   360.01151623
_cell_formula_units_Z   1
loop_
 _symmetry_equiv_pos_site_id
 _symmetry_equiv_pos_as_xyz
  1  'x, y, z'
loop_
 _atom_site_type_symbol
 _atom_site_label
 _atom_site_symmetry_multiplicity
 _atom_site_fract_x
 _atom_site_fract_y
 _atom_site_fract_z
 _atom_site_occupancy
  Mn  Mn0  1  0.000000  0.000000  0.000000  1
  Cr  Cr1  1  0.000000  0.500001  0.000000  1
  Cr  Cr2  1  0.500001  0.000000  0.500000  1
  Cr  Cr3  1  0.500001  0.500001  0.500000  1
  B  B4  1  0.716892  0.738095  0.235135  1
  B  B5  1  0.220130  0.749133  0.266990  1
  B  B6  1  0.779870  0.250866  0.733011  1
  B  B7  1  0.283108  0.261904  0.764865  1
  Pb  Pb8  1  0.561157  0.244076  0.140877  1
  Pb  Pb9  1  0.064969  0.253564  0.360797  1
  Pb  Pb10  1  0.935031  0.746435  0.639204  1
  Pb  Pb11  1  0.438842  0.755923  0.859122  1
  O  O12  1  0.811473  0.731146  0.091470  1
  O  O13  1  0.898767  0.247068  0.114426  1
  O  O14  1  0.165073  0.550954  0.198685  1
  O  O15  1  0.167347  0.946642  0.196083  1
  O  O16  1  0.668087  0.543165  0.308733  1
  O  O17  1  0.666787  0.940623  0.305626  1
  O  O18  1  0.393568  0.249458  0.379329  1
  O  O19  1  0.326289  0.751975  0.409331  1
  O  O20  1  0.673711  0.248024  0.590669  1
  O  O21  1  0.606432  0.750541  0.620671  1
  O  O22  1  0.333213  0.059377  0.694374  1
  O  O23  1  0.331913  0.456835  0.691267  1
  O  O24  1  0.832653  0.053358  0.803916  1
  O  O25  1  0.834927  0.449046  0.801314  1
  O  O26  1  0.101232  0.752931  0.885574  1
  O  O27  1  0.188527  0.268853  0.908530  1
