# generated using pymatgen
data_LiLa3(GeRh3)2
_symmetry_space_group_name_H-M   'P 1'
_cell_length_a   5.68868700
_cell_length_b   5.68868635
_cell_length_c   15.38781800
_cell_angle_alpha   90.00000000
_cell_angle_beta   90.00000000
_cell_angle_gamma   119.99999794
_symmetry_Int_Tables_number   1
_chemical_formula_structural   LiLa3(GeRh3)2
_chemical_formula_sum   'Li2 La6 Ge4 Rh12'
_cell_volume   431.25258399
_cell_formula_units_Z   2
loop_
 _symmetry_equiv_pos_site_id
 _symmetry_equiv_pos_as_xyz
  1  'x, y, z'
loop_
 _atom_site_type_symbol
 _atom_site_label
 _atom_site_symmetry_multiplicity
 _atom_site_fract_x
 _atom_site_fract_y
 _atom_site_fract_z
 _atom_site_occupancy
  Li  Li0  1  0.000000  0.000000  0.250000  1
  Li  Li1  1  0.000000  0.000000  0.750000  1
  La  La2  1  0.333333  0.666667  0.536902  1
  La  La3  1  0.666667  0.333333  0.463098  1
  La  La4  1  0.666667  0.333333  0.036902  1
  La  La5  1  0.333333  0.666667  0.963098  1
  La  La6  1  0.333333  0.666667  0.750000  1
  La  La7  1  0.666667  0.333333  0.250000  1
  Ge  Ge8  1  0.333333  0.666667  0.250000  1
  Ge  Ge9  1  0.666667  0.333333  0.750000  1
  Ge  Ge10  1  0.000000  0.000000  0.000000  1
  Ge  Ge11  1  0.000000  0.000000  0.500000  1
  Rh  Rh12  1  0.165834  0.331669  0.127377  1
  Rh  Rh13  1  0.834166  0.668331  0.872623  1
  Rh  Rh14  1  0.668331  0.834166  0.127377  1
  Rh  Rh15  1  0.834166  0.668331  0.627377  1
  Rh  Rh16  1  0.331669  0.165834  0.872623  1
  Rh  Rh17  1  0.165834  0.331669  0.372623  1
  Rh  Rh18  1  0.165834  0.834166  0.127377  1
  Rh  Rh19  1  0.331669  0.165834  0.627377  1
  Rh  Rh20  1  0.834166  0.165834  0.872623  1
  Rh  Rh21  1  0.668331  0.834166  0.372623  1
  Rh  Rh22  1  0.834166  0.165834  0.627377  1
  Rh  Rh23  1  0.165834  0.834166  0.372623  1
