# generated using pymatgen
data_Dy4Zr3ScPt4
_symmetry_space_group_name_H-M   'P 1'
_cell_length_a   4.69140300
_cell_length_b   7.07841912
_cell_length_c   8.28755203
_cell_angle_alpha   91.07184442
_cell_angle_beta   90.00000000
_cell_angle_gamma   90.00000000
_symmetry_Int_Tables_number   1
_chemical_formula_structural   Dy4Zr3ScPt4
_chemical_formula_sum   'Dy4 Zr3 Sc1 Pt4'
_cell_volume   275.16252507
_cell_formula_units_Z   1
loop_
 _symmetry_equiv_pos_site_id
 _symmetry_equiv_pos_as_xyz
  1  'x, y, z'
loop_
 _atom_site_type_symbol
 _atom_site_label
 _atom_site_symmetry_multiplicity
 _atom_site_fract_x
 _atom_site_fract_y
 _atom_site_fract_z
 _atom_site_occupancy
  Dy  Dy0  1  0.250000  0.019051  0.324864  1
  Dy  Dy1  1  0.250000  0.513729  0.177259  1
  Dy  Dy2  1  0.750000  0.984712  0.677031  1
  Dy  Dy3  1  0.750000  0.484349  0.817669  1
  Zr  Zr4  1  0.250000  0.143649  0.921133  1
  Zr  Zr5  1  0.250000  0.644965  0.576072  1
  Zr  Zr6  1  0.750000  0.852972  0.081669  1
  Sc  Sc7  1  0.750000  0.355114  0.420683  1
  Pt  Pt8  1  0.250000  0.266118  0.598591  1
  Pt  Pt9  1  0.250000  0.767073  0.907880  1
  Pt  Pt10  1  0.750000  0.735623  0.406816  1
  Pt  Pt11  1  0.750000  0.232644  0.090333  1
