# generated using pymatgen
data_CaTb3Sb2(RhO7)2
_symmetry_space_group_name_H-M   'P 1'
_cell_length_a   7.35170182
_cell_length_b   7.22632210
_cell_length_c   7.35170208
_cell_angle_alpha   60.16144534
_cell_angle_beta   60.83645361
_cell_angle_gamma   60.16145081
_symmetry_Int_Tables_number   1
_chemical_formula_structural   CaTb3Sb2(RhO7)2
_chemical_formula_sum   'Ca1 Tb3 Sb2 Rh2 O14'
_cell_volume   278.55920832
_cell_formula_units_Z   1
loop_
 _symmetry_equiv_pos_site_id
 _symmetry_equiv_pos_as_xyz
  1  'x, y, z'
loop_
 _atom_site_type_symbol
 _atom_site_label
 _atom_site_symmetry_multiplicity
 _atom_site_fract_x
 _atom_site_fract_y
 _atom_site_fract_z
 _atom_site_occupancy
  Ca  Ca0  1  0.125000  0.625000  0.125000  1
  Tb  Tb1  1  0.125000  0.125000  0.625000  1
  Tb  Tb2  1  0.625000  0.125000  0.125000  1
  Tb  Tb3  1  0.125000  0.125000  0.125000  1
  Sb  Sb4  1  0.125000  0.625000  0.625000  1
  Sb  Sb5  1  0.625000  0.625000  0.125000  1
  Rh  Rh6  1  0.625000  0.625000  0.625000  1
  Rh  Rh7  1  0.625000  0.125000  0.625000  1
  O  O8  1  0.288252  0.711375  0.706260  1
  O  O9  1  0.535507  0.960132  0.961908  1
  O  O10  1  0.711048  0.288125  0.711048  1
  O  O11  1  0.288092  0.289868  0.714493  1
  O  O12  1  0.706260  0.711375  0.288252  1
  O  O13  1  0.996368  0.009917  0.996368  1
  O  O14  1  0.297270  0.707462  0.297270  1
  O  O15  1  0.952730  0.542538  0.952730  1
  O  O16  1  0.961908  0.960132  0.535507  1
  O  O17  1  0.543740  0.538625  0.961748  1
  O  O18  1  0.253632  0.240083  0.253632  1
  O  O19  1  0.538952  0.961875  0.538952  1
  O  O20  1  0.714493  0.289868  0.288092  1
  O  O21  1  0.961748  0.538625  0.543740  1
