# generated using pymatgen
data_Dy2HoIn3HgRh2
_symmetry_space_group_name_H-M   'P 1'
_cell_length_a   7.86692600
_cell_length_b   7.86469491
_cell_length_c   3.78856900
_cell_angle_alpha   90.00000000
_cell_angle_beta   90.00000000
_cell_angle_gamma   120.01283541
_symmetry_Int_Tables_number   1
_chemical_formula_structural   Dy2HoIn3HgRh2
_chemical_formula_sum   'Dy2 Ho1 In3 Hg1 Rh2'
_cell_volume   202.97221586
_cell_formula_units_Z   1
loop_
 _symmetry_equiv_pos_site_id
 _symmetry_equiv_pos_as_xyz
  1  'x, y, z'
loop_
 _atom_site_type_symbol
 _atom_site_label
 _atom_site_symmetry_multiplicity
 _atom_site_fract_x
 _atom_site_fract_y
 _atom_site_fract_z
 _atom_site_occupancy
  Dy  Dy0  1  0.971006  0.387427  0.500000  1
  Dy  Dy1  1  0.612504  0.583544  0.500000  1
  Ho  Ho2  1  0.416454  0.029247  0.500000  1
  In  In3  1  0.258214  0.255875  0.000000  1
  In  In4  1  0.998089  0.742042  0.000000  1
  In  In5  1  0.743783  0.002016  0.000000  1
  Hg  Hg6  1  0.333429  0.666964  0.000000  1
  Rh  Rh7  1  0.000166  0.000001  0.500000  1
  Rh  Rh8  1  0.666354  0.332883  0.000000  1
