# generated using pymatgen
data_DyHf2Sn3Ir2Rh
_symmetry_space_group_name_H-M   'P 1'
_cell_length_a   7.49937798
_cell_length_b   7.46688622
_cell_length_c   7.38405600
_cell_angle_alpha   90.00000000
_cell_angle_beta   90.00000000
_cell_angle_gamma   120.08963783
_symmetry_Int_Tables_number   1
_chemical_formula_structural   DyHf2Sn3Ir2Rh
_chemical_formula_sum   'Dy2 Hf4 Sn6 Ir4 Rh2'
_cell_volume   357.76463188
_cell_formula_units_Z   2
loop_
 _symmetry_equiv_pos_site_id
 _symmetry_equiv_pos_as_xyz
  1  'x, y, z'
loop_
 _atom_site_type_symbol
 _atom_site_label
 _atom_site_symmetry_multiplicity
 _atom_site_fract_x
 _atom_site_fract_y
 _atom_site_fract_z
 _atom_site_occupancy
  Dy  Dy0  1  0.001401  0.406980  0.250000  1
  Dy  Dy1  1  0.595393  0.592250  0.250000  1
  Hf  Hf2  1  0.995579  0.390844  0.750000  1
  Hf  Hf3  1  0.604269  0.609786  0.750000  1
  Hf  Hf4  1  0.394626  0.999503  0.750000  1
  Hf  Hf5  1  0.403281  0.997542  0.250000  1
  Sn  Sn6  1  0.267255  0.267066  0.507645  1
  Sn  Sn7  1  0.999130  0.732871  0.508136  1
  Sn  Sn8  1  0.999130  0.732871  0.991864  1
  Sn  Sn9  1  0.734356  0.000376  0.495261  1
  Sn  Sn10  1  0.734356  0.000376  0.004739  1
  Sn  Sn11  1  0.267255  0.267066  0.992355  1
  Ir  Ir12  1  0.334533  0.674247  0.529784  1
  Ir  Ir13  1  0.661373  0.326814  0.531865  1
  Ir  Ir14  1  0.334533  0.674247  0.970216  1
  Ir  Ir15  1  0.661373  0.326814  0.968135  1
  Rh  Rh16  1  0.995300  0.000580  0.750000  1
  Rh  Rh17  1  0.016858  0.999767  0.250000  1
