# generated using pymatgen
data_GdSc11Tc4
_symmetry_space_group_name_H-M   'P 1'
_cell_length_a   5.87086200
_cell_length_b   6.98597536
_cell_length_c   8.56308000
_cell_angle_alpha   89.96054237
_cell_angle_beta   89.58365283
_cell_angle_gamma   89.73298056
_symmetry_Int_Tables_number   1
_chemical_formula_structural   GdSc11Tc4
_chemical_formula_sum   'Gd1 Sc11 Tc4'
_cell_volume   351.19040954
_cell_formula_units_Z   1
loop_
 _symmetry_equiv_pos_site_id
 _symmetry_equiv_pos_as_xyz
  1  'x, y, z'
loop_
 _atom_site_type_symbol
 _atom_site_label
 _atom_site_symmetry_multiplicity
 _atom_site_fract_x
 _atom_site_fract_y
 _atom_site_fract_z
 _atom_site_occupancy
  Gd  Gd0  1  0.151676  0.183388  0.059761  1
  Sc  Sc1  1  0.347526  0.678361  0.060486  1
  Sc  Sc2  1  0.154015  0.177095  0.442172  1
  Sc  Sc3  1  0.649815  0.319541  0.560620  1
  Sc  Sc4  1  0.843015  0.816801  0.937793  1
  Sc  Sc5  1  0.654572  0.325901  0.936209  1
  Sc  Sc6  1  0.848415  0.823572  0.561030  1
  Sc  Sc7  1  0.350922  0.678802  0.438569  1
  Sc  Sc8  1  0.875114  0.543431  0.252891  1
  Sc  Sc9  1  0.623971  0.036256  0.253168  1
  Sc  Sc10  1  0.120366  0.463107  0.746220  1
  Sc  Sc11  1  0.379430  0.957838  0.745883  1
  Tc  Tc12  1  0.044178  0.879749  0.255688  1
  Tc  Tc13  1  0.461769  0.386427  0.254906  1
  Tc  Tc14  1  0.951241  0.114701  0.743976  1
  Tc  Tc15  1  0.543977  0.615029  0.750631  1
