# generated using pymatgen
data_LiY7Er9Hg3Pt4
_symmetry_space_group_name_H-M   'P 1'
_cell_length_a   9.60266431
_cell_length_b   9.60266465
_cell_length_c   9.60883943
_cell_angle_alpha   59.99388236
_cell_angle_beta   59.99388782
_cell_angle_gamma   60.09576262
_symmetry_Int_Tables_number   1
_chemical_formula_structural   LiY7Er9Hg3Pt4
_chemical_formula_sum   'Li1 Y7 Er9 Hg3 Pt4'
_cell_volume   626.92063930
_cell_formula_units_Z   1
loop_
 _symmetry_equiv_pos_site_id
 _symmetry_equiv_pos_as_xyz
  1  'x, y, z'
loop_
 _atom_site_type_symbol
 _atom_site_label
 _atom_site_symmetry_multiplicity
 _atom_site_fract_x
 _atom_site_fract_y
 _atom_site_fract_z
 _atom_site_occupancy
  Li  Li0  1  0.566700  0.566700  0.564879  1
  Y  Y1  1  0.813701  0.813701  0.187601  1
  Y  Y2  1  0.937790  0.563035  0.564770  1
  Y  Y3  1  0.561763  0.937684  0.937331  1
  Y  Y4  1  0.563035  0.937790  0.564770  1
  Y  Y5  1  0.937684  0.561763  0.937331  1
  Y  Y6  1  0.562809  0.562809  0.938589  1
  Y  Y7  1  0.937373  0.937373  0.562707  1
  Er  Er8  1  0.353363  0.353363  0.354675  1
  Er  Er9  1  0.353474  0.353474  0.939535  1
  Er  Er10  1  0.352635  0.941949  0.353296  1
  Er  Er11  1  0.941949  0.352635  0.353296  1
  Er  Er12  1  0.809871  0.192704  0.192480  1
  Er  Er13  1  0.188173  0.813341  0.813416  1
  Er  Er14  1  0.192704  0.809871  0.192480  1
  Er  Er15  1  0.813341  0.188173  0.813416  1
  Er  Er16  1  0.191650  0.191650  0.810868  1
  Hg  Hg17  1  0.587454  0.587454  0.242889  1
  Hg  Hg18  1  0.587482  0.243100  0.587214  1
  Hg  Hg19  1  0.243100  0.587482  0.587214  1
  Pt  Pt20  1  0.144634  0.144634  0.144710  1
  Pt  Pt21  1  0.143623  0.143623  0.570577  1
  Pt  Pt22  1  0.147263  0.568429  0.142978  1
  Pt  Pt23  1  0.568429  0.147263  0.142978  1
