# generated using pymatgen
data_Ho7Tm(InAu2)4
_symmetry_space_group_name_H-M   'P 1'
_cell_length_a   7.99448849
_cell_length_b   7.99448849
_cell_length_c   7.31077000
_cell_angle_alpha   90.00000000
_cell_angle_beta   90.00000000
_cell_angle_gamma   89.86574941
_symmetry_Int_Tables_number   1
_chemical_formula_structural   Ho7Tm(InAu2)4
_chemical_formula_sum   'Ho7 Tm1 In4 Au8'
_cell_volume   467.24352492
_cell_formula_units_Z   1
loop_
 _symmetry_equiv_pos_site_id
 _symmetry_equiv_pos_as_xyz
  1  'x, y, z'
loop_
 _atom_site_type_symbol
 _atom_site_label
 _atom_site_symmetry_multiplicity
 _atom_site_fract_x
 _atom_site_fract_y
 _atom_site_fract_z
 _atom_site_occupancy
  Ho  Ho0  1  0.841854  0.158146  0.500000  1
  Ho  Ho1  1  0.157922  0.842078  0.500000  1
  Ho  Ho2  1  0.342172  0.341765  0.000000  1
  Ho  Ho3  1  0.658235  0.657828  0.000000  1
  Ho  Ho4  1  0.681958  0.681762  0.500000  1
  Ho  Ho5  1  0.318238  0.318042  0.500000  1
  Ho  Ho6  1  0.181737  0.818263  0.000000  1
  Tm  Tm7  1  0.818431  0.181569  0.000000  1
  In  In8  1  0.499920  0.999963  0.249964  1
  In  In9  1  0.000037  0.500080  0.750036  1
  In  In10  1  0.499920  0.999963  0.750036  1
  In  In11  1  0.000037  0.500080  0.249964  1
  Au  Au12  1  0.629315  0.370685  0.273333  1
  Au  Au13  1  0.371293  0.628707  0.274474  1
  Au  Au14  1  0.128230  0.129069  0.774984  1
  Au  Au15  1  0.870931  0.871770  0.774984  1
  Au  Au16  1  0.371293  0.628707  0.725526  1
  Au  Au17  1  0.629315  0.370685  0.726667  1
  Au  Au18  1  0.870931  0.871770  0.225016  1
  Au  Au19  1  0.128230  0.129069  0.225016  1
