# generated using pymatgen
data_Li4HoEr3Si8
_symmetry_space_group_name_H-M   'P 1'
_cell_length_a   3.77887800
_cell_length_b   7.57377187
_cell_length_c   10.10287960
_cell_angle_alpha   90.03005148
_cell_angle_beta   90.00000000
_cell_angle_gamma   90.00000000
_symmetry_Int_Tables_number   1
_chemical_formula_structural   Li4HoEr3Si8
_chemical_formula_sum   'Li4 Ho1 Er3 Si8'
_cell_volume   289.14801040
_cell_formula_units_Z   1
loop_
 _symmetry_equiv_pos_site_id
 _symmetry_equiv_pos_as_xyz
  1  'x, y, z'
loop_
 _atom_site_type_symbol
 _atom_site_label
 _atom_site_symmetry_multiplicity
 _atom_site_fract_x
 _atom_site_fract_y
 _atom_site_fract_z
 _atom_site_occupancy
  Li  Li0  1  0.250000  0.990129  0.393071  1
  Li  Li1  1  0.250000  0.488564  0.105567  1
  Li  Li2  1  0.750000  0.011907  0.608801  1
  Li  Li3  1  0.750000  0.511521  0.894027  1
  Ho  Ho4  1  0.750000  0.359906  0.363042  1
  Er  Er5  1  0.250000  0.137684  0.863244  1
  Er  Er6  1  0.250000  0.638564  0.636405  1
  Er  Er7  1  0.750000  0.861657  0.136031  1
  Si  Si8  1  0.250000  0.234326  0.568015  1
  Si  Si9  1  0.250000  0.734053  0.932837  1
  Si  Si10  1  0.750000  0.767042  0.432690  1
  Si  Si11  1  0.750000  0.264959  0.066305  1
  Si  Si12  1  0.250000  0.655083  0.319258  1
  Si  Si13  1  0.250000  0.154141  0.180029  1
  Si  Si14  1  0.750000  0.345845  0.681543  1
  Si  Si15  1  0.750000  0.844621  0.819134  1
