# generated using pymatgen
data_Tb4Al24Pd2Pt5Au2
_symmetry_space_group_name_H-M   'P 1'
_cell_length_a   7.58001261
_cell_length_b   7.59012143
_cell_length_c   13.19611934
_cell_angle_alpha   84.48675437
_cell_angle_beta   78.96779191
_cell_angle_gamma   59.95346637
_symmetry_Int_Tables_number   1
_chemical_formula_structural   Tb4Al24Pd2Pt5Au2
_chemical_formula_sum   'Tb4 Al24 Pd2 Pt5 Au2'
_cell_volume   645.04604235
_cell_formula_units_Z   1
loop_
 _symmetry_equiv_pos_site_id
 _symmetry_equiv_pos_as_xyz
  1  'x, y, z'
loop_
 _atom_site_type_symbol
 _atom_site_label
 _atom_site_symmetry_multiplicity
 _atom_site_fract_x
 _atom_site_fract_y
 _atom_site_fract_z
 _atom_site_occupancy
  Tb  Tb0  1  0.392754  0.169039  0.809063  1
  Tb  Tb1  1  0.607246  0.830961  0.190937  1
  Tb  Tb2  1  0.733552  0.498772  0.809763  1
  Tb  Tb3  1  0.266448  0.501228  0.190237  1
  Al  Al4  1  0.683170  0.834555  0.945073  1
  Al  Al5  1  0.316830  0.165445  0.054927  1
  Al  Al6  1  0.145955  0.839047  0.562087  1
  Al  Al7  1  0.854045  0.160953  0.437913  1
  Al  Al8  1  0.487728  0.159728  0.559493  1
  Al  Al9  1  0.512272  0.840272  0.440507  1
  Al  Al10  1  0.222615  0.160336  0.327202  1
  Al  Al11  1  0.777385  0.839664  0.672798  1
  Al  Al12  1  0.440774  0.506651  0.672993  1
  Al  Al13  1  0.559226  0.493349  0.327007  1
  Al  Al14  1  0.109540  0.154415  0.671791  1
  Al  Al15  1  0.890460  0.845585  0.328209  1
  Al  Al16  1  0.352978  0.499301  0.944819  1
  Al  Al17  1  0.647022  0.500699  0.055181  1
  Al  Al18  1  0.015219  0.166743  0.953993  1
  Al  Al19  1  0.984781  0.833257  0.046007  1
  Al  Al20  1  0.195058  0.499287  0.437545  1
  Al  Al21  1  0.804942  0.500713  0.562455  1
  Al  Al22  1  0.732827  0.164554  0.183151  1
  Al  Al23  1  0.267173  0.835446  0.816849  1
  Al  Al24  1  0.060406  0.634361  0.817724  1
  Al  Al25  1  0.939594  0.365639  0.182276  1
  Al  Al26  1  0.854350  0.042264  0.816348  1
  Al  Al27  1  0.145650  0.957736  0.183653  1
  Pd  Pd28  1  0.657424  0.171498  0.999794  1
  Pd  Pd29  1  0.342576  0.828502  0.000206  1
  Pt  Pt30  1  0.537243  0.167000  0.362835  1
  Pt  Pt31  1  0.462757  0.833000  0.637165  1
  Pt  Pt32  1  0.780251  0.175031  0.636040  1
  Pt  Pt33  1  0.219749  0.824969  0.363960  1
  Pt  Pt34  1  0.000000  0.500000  0.000000  1
  Au  Au35  1  0.120235  0.491114  0.637654  1
  Au  Au36  1  0.879765  0.508886  0.362346  1
