# generated using pymatgen
data_Ta2TiNb5(GaC3)2
_symmetry_space_group_name_H-M   'P 1'
_cell_length_a   3.14270000
_cell_length_b   3.14270033
_cell_length_c   24.06936700
_cell_angle_alpha   90.00000206
_cell_angle_beta   90.00000000
_cell_angle_gamma   119.99997543
_symmetry_Int_Tables_number   1
_chemical_formula_structural   Ta2TiNb5(GaC3)2
_chemical_formula_sum   'Ta2 Ti1 Nb5 Ga2 C6'
_cell_volume   205.87390651
_cell_formula_units_Z   1
loop_
 _symmetry_equiv_pos_site_id
 _symmetry_equiv_pos_as_xyz
  1  'x, y, z'
loop_
 _atom_site_type_symbol
 _atom_site_label
 _atom_site_symmetry_multiplicity
 _atom_site_fract_x
 _atom_site_fract_y
 _atom_site_fract_z
 _atom_site_occupancy
  Ta  Ta0  1  0.666666  0.333333  0.556466  1
  Ta  Ta1  1  0.666667  0.333333  0.947280  1
  Ti  Ti2  1  0.333333  0.666667  0.053966  1
  Nb  Nb3  1  0.000000  0.000000  0.341035  1
  Nb  Nb4  1  0.000000  0.000000  0.659439  1
  Nb  Nb5  1  0.000000  0.000000  0.842341  1
  Nb  Nb6  1  0.000000  0.000000  0.156445  1
  Nb  Nb7  1  0.333333  0.666667  0.444061  1
  Ga  Ga8  1  0.333333  0.666667  0.247619  1
  Ga  Ga9  1  0.666667  0.333333  0.751381  1
  C  C10  1  0.000000  0.000000  0.501054  1
  C  C11  1  0.000000  0.000000  0.000811  1
  C  C12  1  0.666667  0.333333  0.390006  1
  C  C13  1  0.333333  0.666667  0.609013  1
  C  C14  1  0.333334  0.666666  0.893737  1
  C  C15  1  0.666667  0.333333  0.105348  1
