# generated using pymatgen
data_Zr5Pa5(Sn3C)2
_symmetry_space_group_name_H-M   'P 1'
_cell_length_a   8.80982650
_cell_length_b   8.80982706
_cell_length_c   5.98519700
_cell_angle_alpha   90.00000000
_cell_angle_beta   90.00000000
_cell_angle_gamma   119.70853801
_symmetry_Int_Tables_number   1
_chemical_formula_structural   Zr5Pa5(Sn3C)2
_chemical_formula_sum   'Zr5 Pa5 Sn6 C2'
_cell_volume   403.47055846
_cell_formula_units_Z   1
loop_
 _symmetry_equiv_pos_site_id
 _symmetry_equiv_pos_as_xyz
  1  'x, y, z'
loop_
 _atom_site_type_symbol
 _atom_site_label
 _atom_site_symmetry_multiplicity
 _atom_site_fract_x
 _atom_site_fract_y
 _atom_site_fract_z
 _atom_site_occupancy
  Zr  Zr0  1  0.334665  0.671533  0.500673  1
  Zr  Zr1  1  0.671533  0.334665  0.500673  1
  Zr  Zr2  1  0.671533  0.334665  0.999327  1
  Zr  Zr3  1  0.334665  0.671533  0.999327  1
  Zr  Zr4  1  0.215520  0.215520  0.250000  1
  Pa  Pa5  1  0.225290  0.001312  0.750000  1
  Pa  Pa6  1  0.771527  0.998251  0.250000  1
  Pa  Pa7  1  0.001312  0.225290  0.750000  1
  Pa  Pa8  1  0.998251  0.771527  0.250000  1
  Pa  Pa9  1  0.776327  0.776327  0.750000  1
  Sn  Sn10  1  0.593120  0.002044  0.750000  1
  Sn  Sn11  1  0.405021  0.006831  0.250000  1
  Sn  Sn12  1  0.002044  0.593120  0.750000  1
  Sn  Sn13  1  0.006831  0.405021  0.250000  1
  Sn  Sn14  1  0.409330  0.409330  0.750000  1
  Sn  Sn15  1  0.583567  0.583567  0.250000  1
  C  C16  1  0.999732  0.999732  0.497510  1
  C  C17  1  0.999732  0.999732  0.002490  1
