# generated using pymatgen
data_Ce2Mg3Tc2
_symmetry_space_group_name_H-M   'P 1'
_cell_length_a   5.71727044
_cell_length_b   6.98932249
_cell_length_c   8.48104035
_cell_angle_alpha   97.19284340
_cell_angle_beta   109.69797403
_cell_angle_gamma   89.99999497
_symmetry_Int_Tables_number   1
_chemical_formula_structural   Ce2Mg3Tc2
_chemical_formula_sum   'Ce4 Mg6 Tc4'
_cell_volume   316.23517588
_cell_formula_units_Z   2
loop_
 _symmetry_equiv_pos_site_id
 _symmetry_equiv_pos_as_xyz
  1  'x, y, z'
loop_
 _atom_site_type_symbol
 _atom_site_label
 _atom_site_symmetry_multiplicity
 _atom_site_fract_x
 _atom_site_fract_y
 _atom_site_fract_z
 _atom_site_occupancy
  Ce  Ce0  1  0.988764  0.914456  0.202535  1
  Ce  Ce1  1  0.786229  0.585544  0.797465  1
  Ce  Ce2  1  0.011236  0.085544  0.797465  1
  Ce  Ce3  1  0.213771  0.414456  0.202535  1
  Mg  Mg4  1  0.627808  0.817081  0.431624  1
  Mg  Mg5  1  0.196185  0.682919  0.568376  1
  Mg  Mg6  1  0.372192  0.182919  0.568376  1
  Mg  Mg7  1  0.803815  0.317081  0.431624  1
  Mg  Mg8  1  0.415588  0.750000  0.000000  1
  Mg  Mg9  1  0.584412  0.250000  0.000000  1
  Tc  Tc10  1  0.863614  0.593677  0.221349  1
  Tc  Tc11  1  0.642265  0.906323  0.778651  1
  Tc  Tc12  1  0.136386  0.406323  0.778651  1
  Tc  Tc13  1  0.357735  0.093677  0.221349  1
