# generated using pymatgen
data_CaTb3(ZnSi3)2
_symmetry_space_group_name_H-M   'P 1'
_cell_length_a   4.09812700
_cell_length_b   4.12579400
_cell_length_c   13.99655400
_cell_angle_alpha   90.00000000
_cell_angle_beta   90.00000000
_cell_angle_gamma   90.00000000
_symmetry_Int_Tables_number   1
_chemical_formula_structural   CaTb3(ZnSi3)2
_chemical_formula_sum   'Ca1 Tb3 Zn2 Si6'
_cell_volume   236.65412397
_cell_formula_units_Z   1
loop_
 _symmetry_equiv_pos_site_id
 _symmetry_equiv_pos_as_xyz
  1  'x, y, z'
loop_
 _atom_site_type_symbol
 _atom_site_label
 _atom_site_symmetry_multiplicity
 _atom_site_fract_x
 _atom_site_fract_y
 _atom_site_fract_z
 _atom_site_occupancy
  Ca  Ca0  1  0.500000  0.500000  0.003441  1
  Tb  Tb1  1  0.000000  0.000000  0.505085  1
  Tb  Tb2  1  0.500000  0.000000  0.744358  1
  Tb  Tb3  1  0.000000  0.500000  0.247751  1
  Zn  Zn4  1  0.000000  0.000000  0.914738  1
  Zn  Zn5  1  0.500000  0.500000  0.415675  1
  Si  Si6  1  0.000000  0.500000  0.831015  1
  Si  Si7  1  0.500000  0.000000  0.334566  1
  Si  Si8  1  0.000000  0.000000  0.085351  1
  Si  Si9  1  0.500000  0.500000  0.582406  1
  Si  Si10  1  0.500000  0.000000  0.169415  1
  Si  Si11  1  0.000000  0.500000  0.666198  1
