# generated using pymatgen
data_Ca3RuBr2O5
_symmetry_space_group_name_H-M   'P 1'
_cell_length_a   7.10890413
_cell_length_b   7.10890405
_cell_length_c   10.91837900
_cell_angle_alpha   90.00000000
_cell_angle_beta   90.00000000
_cell_angle_gamma   133.67127061
_symmetry_Int_Tables_number   1
_chemical_formula_structural   Ca3RuBr2O5
_chemical_formula_sum   'Ca6 Ru2 Br4 O10'
_cell_volume   399.10763304
_cell_formula_units_Z   2
loop_
 _symmetry_equiv_pos_site_id
 _symmetry_equiv_pos_as_xyz
  1  'x, y, z'
loop_
 _atom_site_type_symbol
 _atom_site_label
 _atom_site_symmetry_multiplicity
 _atom_site_fract_x
 _atom_site_fract_y
 _atom_site_fract_z
 _atom_site_occupancy
  Ca  Ca0  1  0.880297  0.119703  0.750000  1
  Ca  Ca1  1  0.667184  0.332816  0.533425  1
  Ca  Ca2  1  0.332816  0.667184  0.466575  1
  Ca  Ca3  1  0.667184  0.332816  0.966575  1
  Ca  Ca4  1  0.332816  0.667184  0.033425  1
  Ca  Ca5  1  0.119703  0.880297  0.250000  1
  Ru  Ru6  1  0.769153  0.230847  0.250000  1
  Ru  Ru7  1  0.230847  0.769153  0.750000  1
  Br  Br8  1  0.491199  0.508801  0.250000  1
  Br  Br9  1  0.508801  0.491199  0.750000  1
  Br  Br10  1  0.000000  0.000000  0.500000  1
  Br  Br11  1  0.000000  0.000000  0.000000  1
  O  O12  1  0.102305  0.897695  0.750000  1
  O  O13  1  0.046523  0.489003  0.631220  1
  O  O14  1  0.489003  0.046523  0.368780  1
  O  O15  1  0.510997  0.953477  0.631220  1
  O  O16  1  0.953477  0.510997  0.368780  1
  O  O17  1  0.897695  0.102305  0.250000  1
  O  O18  1  0.046523  0.489003  0.868780  1
  O  O19  1  0.510997  0.953477  0.868780  1
  O  O20  1  0.953477  0.510997  0.131220  1
  O  O21  1  0.489003  0.046523  0.131220  1
