# generated using pymatgen
data_La12Y2IrRh5
_symmetry_space_group_name_H-M   'P 1'
_cell_length_a   10.26973600
_cell_length_b   10.27256787
_cell_length_c   6.44148389
_cell_angle_alpha   90.14510278
_cell_angle_beta   90.00000000
_cell_angle_gamma   119.99088766
_symmetry_Int_Tables_number   1
_chemical_formula_structural   La12Y2IrRh5
_chemical_formula_sum   'La12 Y2 Ir1 Rh5'
_cell_volume   588.56288153
_cell_formula_units_Z   1
loop_
 _symmetry_equiv_pos_site_id
 _symmetry_equiv_pos_as_xyz
  1  'x, y, z'
loop_
 _atom_site_type_symbol
 _atom_site_label
 _atom_site_symmetry_multiplicity
 _atom_site_fract_x
 _atom_site_fract_y
 _atom_site_fract_z
 _atom_site_occupancy
  La  La0  1  0.873031  0.746062  0.767115  1
  La  La1  1  0.253564  0.127390  0.767427  1
  La  La2  1  0.873827  0.127390  0.767427  1
  La  La3  1  0.127049  0.254100  0.266691  1
  La  La4  1  0.746232  0.873187  0.266976  1
  La  La5  1  0.126955  0.873187  0.266976  1
  La  La6  1  0.457623  0.915247  0.595261  1
  La  La7  1  0.084624  0.542008  0.595658  1
  La  La8  1  0.457382  0.542008  0.595658  1
  La  La9  1  0.542531  0.085060  0.095295  1
  La  La10  1  0.915314  0.457254  0.094959  1
  La  La11  1  0.541943  0.457254  0.094959  1
  Y  Y12  1  0.666672  0.333343  0.569323  1
  Y  Y13  1  0.332802  0.665606  0.068184  1
  Ir  Ir14  1  0.189788  0.379575  0.851220  1
  Rh  Rh15  1  0.620949  0.810752  0.850742  1
  Rh  Rh16  1  0.189804  0.810752  0.850742  1
  Rh  Rh17  1  0.810311  0.620624  0.350247  1
  Rh  Rh18  1  0.379887  0.189600  0.350092  1
  Rh  Rh19  1  0.809712  0.189600  0.350092  1
