# generated using pymatgen
data_Rb2NaLuSb2
_symmetry_space_group_name_H-M   'P 1'
_cell_length_a   11.28890362
_cell_length_b   11.28890300
_cell_length_c   7.42505100
_cell_angle_alpha   90.00000000
_cell_angle_beta   90.00000000
_cell_angle_gamma   99.02222038
_symmetry_Int_Tables_number   1
_chemical_formula_structural   Rb2NaLuSb2
_chemical_formula_sum   'Rb8 Na4 Lu4 Sb8'
_cell_volume   934.53627792
_cell_formula_units_Z   4
loop_
 _symmetry_equiv_pos_site_id
 _symmetry_equiv_pos_as_xyz
  1  'x, y, z'
loop_
 _atom_site_type_symbol
 _atom_site_label
 _atom_site_symmetry_multiplicity
 _atom_site_fract_x
 _atom_site_fract_y
 _atom_site_fract_z
 _atom_site_occupancy
  Rb  Rb0  1  0.072895  0.427105  0.250000  1
  Rb  Rb1  1  0.427105  0.072895  0.750000  1
  Rb  Rb2  1  0.927105  0.572895  0.750000  1
  Rb  Rb3  1  0.572895  0.927105  0.250000  1
  Rb  Rb4  1  0.674829  0.325171  0.217181  1
  Rb  Rb5  1  0.825171  0.174829  0.717181  1
  Rb  Rb6  1  0.325171  0.674829  0.782819  1
  Rb  Rb7  1  0.174829  0.825171  0.282819  1
  Na  Na8  1  0.381839  0.381839  0.000000  1
  Na  Na9  1  0.118161  0.118161  0.500000  1
  Na  Na10  1  0.618161  0.618161  0.000000  1
  Na  Na11  1  0.881839  0.881839  0.500000  1
  Lu  Lu12  1  0.130456  0.130456  0.000000  1
  Lu  Lu13  1  0.369544  0.369544  0.500000  1
  Lu  Lu14  1  0.869544  0.869544  0.000000  1
  Lu  Lu15  1  0.630456  0.630456  0.500000  1
  Sb  Sb16  1  0.846114  0.653885  0.250000  1
  Sb  Sb17  1  0.653885  0.846114  0.750000  1
  Sb  Sb18  1  0.153885  0.346114  0.750000  1
  Sb  Sb19  1  0.346114  0.153885  0.250000  1
  Sb  Sb20  1  0.899879  0.100121  0.207624  1
  Sb  Sb21  1  0.600121  0.399879  0.707624  1
  Sb  Sb22  1  0.100121  0.899879  0.792376  1
  Sb  Sb23  1  0.399879  0.600121  0.292376  1
