# generated using pymatgen
data_Lu3P4Ir7
_symmetry_space_group_name_H-M   'P 1'
_cell_length_a   7.64930266
_cell_length_b   7.64930252
_cell_length_c   9.12504780
_cell_angle_alpha   57.27063625
_cell_angle_beta   57.27063575
_cell_angle_gamma   29.81158617
_symmetry_Int_Tables_number   1
_chemical_formula_structural   Lu3P4Ir7
_chemical_formula_sum   'Lu3 P4 Ir7'
_cell_volume   220.00467628
_cell_formula_units_Z   1
loop_
 _symmetry_equiv_pos_site_id
 _symmetry_equiv_pos_as_xyz
  1  'x, y, z'
loop_
 _atom_site_type_symbol
 _atom_site_label
 _atom_site_symmetry_multiplicity
 _atom_site_fract_x
 _atom_site_fract_y
 _atom_site_fract_z
 _atom_site_occupancy
  Lu  Lu0  1  0.500000  0.500000  0.500000  1
  Lu  Lu1  1  0.827482  0.827482  0.169201  1
  Lu  Lu2  1  0.172518  0.172518  0.830799  1
  P  P3  1  0.389611  0.389611  0.327149  1
  P  P4  1  0.610389  0.610389  0.672851  1
  P  P5  1  0.832685  0.832685  0.772716  1
  P  P6  1  0.167315  0.167315  0.227284  1
  Ir  Ir7  1  0.665299  0.665299  0.080648  1
  Ir  Ir8  1  0.006622  0.006622  0.225026  1
  Ir  Ir9  1  0.993378  0.993378  0.774974  1
  Ir  Ir10  1  0.500000  0.500000  0.000000  1
  Ir  Ir11  1  0.200218  0.200218  0.446304  1
  Ir  Ir12  1  0.799782  0.799782  0.553696  1
  Ir  Ir13  1  0.334701  0.334701  0.919352  1
