# generated using pymatgen
data_NaH6
_symmetry_space_group_name_H-M   'P 1'
_cell_length_a   3.95085880
_cell_length_b   3.51073706
_cell_length_c   12.54212325
_cell_angle_alpha   101.62560225
_cell_angle_beta   73.32833095
_cell_angle_gamma   123.03277693
_symmetry_Int_Tables_number   1
_chemical_formula_structural   NaH6
_chemical_formula_sum   'Na1 H6'
_cell_volume   139.49335502
_cell_formula_units_Z   1
loop_
 _symmetry_equiv_pos_site_id
 _symmetry_equiv_pos_as_xyz
  1  'x, y, z'
loop_
 _atom_site_type_symbol
 _atom_site_label
 _atom_site_symmetry_multiplicity
 _atom_site_fract_x
 _atom_site_fract_y
 _atom_site_fract_z
 _atom_site_occupancy
  Na  Na0  1  0.728241  0.680371  0.302932  1
  H  H1  1  0.701482  0.749662  0.944126  1
  H  H2  1  0.383385  0.759039  0.786256  1
  H  H3  1  0.584827  0.752565  0.002873  1
  H  H4  1  0.821744  0.434989  0.625786  1
  H  H5  1  0.923747  0.485428  0.565576  1
  H  H6  1  0.311221  0.741223  0.735389  1
