# generated using pymatgen
data_Sc24Fe3Co3Tc2
_symmetry_space_group_name_H-M   'P 1'
_cell_length_a   5.81859229
_cell_length_b   8.51932000
_cell_length_c   13.14336616
_cell_angle_alpha   90.00000000
_cell_angle_beta   90.10160187
_cell_angle_gamma   90.00000000
_symmetry_Int_Tables_number   1
_chemical_formula_structural   Sc24Fe3Co3Tc2
_chemical_formula_sum   'Sc24 Fe3 Co3 Tc2'
_cell_volume   651.52154632
_cell_formula_units_Z   1
loop_
 _symmetry_equiv_pos_site_id
 _symmetry_equiv_pos_as_xyz
  1  'x, y, z'
loop_
 _atom_site_type_symbol
 _atom_site_label
 _atom_site_symmetry_multiplicity
 _atom_site_fract_x
 _atom_site_fract_y
 _atom_site_fract_z
 _atom_site_occupancy
  Sc  Sc0  1  0.529191  0.750000  0.353708  1
  Sc  Sc1  1  0.029850  0.250000  0.146677  1
  Sc  Sc2  1  0.456958  0.250000  0.648120  1
  Sc  Sc3  1  0.957611  0.750000  0.851088  1
  Sc  Sc4  1  0.779994  0.750000  0.105276  1
  Sc  Sc5  1  0.279030  0.250000  0.393738  1
  Sc  Sc6  1  0.207975  0.250000  0.885148  1
  Sc  Sc7  1  0.706906  0.750000  0.615300  1
  Sc  Sc8  1  0.410071  0.933833  0.791026  1
  Sc  Sc9  1  0.909510  0.066469  0.709174  1
  Sc  Sc10  1  0.581391  0.437554  0.216601  1
  Sc  Sc11  1  0.084572  0.566357  0.283239  1
  Sc  Sc12  1  0.581391  0.062446  0.216601  1
  Sc  Sc13  1  0.084572  0.933643  0.283239  1
  Sc  Sc14  1  0.410071  0.566167  0.791026  1
  Sc  Sc15  1  0.909510  0.433531  0.709174  1
  Sc  Sc16  1  0.252839  0.940125  0.539057  1
  Sc  Sc17  1  0.752921  0.059684  0.961135  1
  Sc  Sc18  1  0.765115  0.438108  0.464905  1
  Sc  Sc19  1  0.265404  0.563309  0.035270  1
  Sc  Sc20  1  0.765115  0.061892  0.464905  1
  Sc  Sc21  1  0.265404  0.936691  0.035270  1
  Sc  Sc22  1  0.252839  0.559875  0.539057  1
  Sc  Sc23  1  0.752921  0.440316  0.961135  1
  Fe  Fe24  1  0.065178  0.250000  0.561056  1
  Fe  Fe25  1  0.567055  0.750000  0.937239  1
  Fe  Fe26  1  0.372650  0.750000  0.182163  1
  Co  Co27  1  0.870124  0.250000  0.318913  1
  Co  Co28  1  0.631892  0.250000  0.819509  1
  Co  Co29  1  0.132155  0.750000  0.680356  1
  Tc  Tc30  1  0.933888  0.750000  0.443574  1
  Tc  Tc31  1  0.435899  0.250000  0.057317  1
