# generated using pymatgen
data_LuHf(GaNi)2
_symmetry_space_group_name_H-M   'P 1'
_cell_length_a   7.03750700
_cell_length_b   7.03750739
_cell_length_c   6.84043100
_cell_angle_alpha   90.00000000
_cell_angle_beta   90.00000000
_cell_angle_gamma   120.00000288
_symmetry_Int_Tables_number   1
_chemical_formula_structural   LuHf(GaNi)2
_chemical_formula_sum   'Lu3 Hf3 Ga6 Ni6'
_cell_volume   293.39437901
_cell_formula_units_Z   3
loop_
 _symmetry_equiv_pos_site_id
 _symmetry_equiv_pos_as_xyz
  1  'x, y, z'
loop_
 _atom_site_type_symbol
 _atom_site_label
 _atom_site_symmetry_multiplicity
 _atom_site_fract_x
 _atom_site_fract_y
 _atom_site_fract_z
 _atom_site_occupancy
  Lu  Lu0  1  0.000082  0.405998  0.750000  1
  Lu  Lu1  1  0.405915  0.999918  0.750000  1
  Lu  Lu2  1  0.594002  0.594085  0.750000  1
  Hf  Hf3  1  0.598974  0.599117  0.250000  1
  Hf  Hf4  1  0.400883  0.999856  0.250000  1
  Hf  Hf5  1  0.000144  0.401026  0.250000  1
  Ga  Ga6  1  0.261980  0.262179  0.492420  1
  Ga  Ga7  1  0.737821  0.999801  0.492420  1
  Ga  Ga8  1  0.000199  0.738020  0.492420  1
  Ga  Ga9  1  0.737821  0.999801  0.007580  1
  Ga  Ga10  1  0.261980  0.262179  0.007580  1
  Ga  Ga11  1  0.000199  0.738020  0.007580  1
  Ni  Ni12  1  0.333333  0.666667  0.473585  1
  Ni  Ni13  1  0.000000  0.000000  0.750000  1
  Ni  Ni14  1  0.000000  0.000000  0.250000  1
  Ni  Ni15  1  0.333333  0.666667  0.026415  1
  Ni  Ni16  1  0.666667  0.333333  0.473722  1
  Ni  Ni17  1  0.666667  0.333333  0.026278  1
