# generated using pymatgen
data_Y14Ho5ErPb16
_symmetry_space_group_name_H-M   'P 1'
_cell_length_a   8.22099701
_cell_length_b   8.28377902
_cell_length_c   15.66102200
_cell_angle_alpha   90.00055103
_cell_angle_beta   90.00058907
_cell_angle_gamma   90.00118796
_symmetry_Int_Tables_number   1
_chemical_formula_structural   Y14Ho5ErPb16
_chemical_formula_sum   'Y14 Ho5 Er1 Pb16'
_cell_volume   1066.53004642
_cell_formula_units_Z   1
loop_
 _symmetry_equiv_pos_site_id
 _symmetry_equiv_pos_as_xyz
  1  'x, y, z'
loop_
 _atom_site_type_symbol
 _atom_site_label
 _atom_site_symmetry_multiplicity
 _atom_site_fract_x
 _atom_site_fract_y
 _atom_site_fract_z
 _atom_site_occupancy
  Y  Y0  1  0.622525  0.157971  0.378776  1
  Y  Y1  1  0.122751  0.341842  0.121202  1
  Y  Y2  1  0.622533  0.157989  0.121306  1
  Y  Y3  1  0.122753  0.341817  0.378713  1
  Y  Y4  1  0.377298  0.841896  0.620879  1
  Y  Y5  1  0.877296  0.658173  0.878925  1
  Y  Y6  1  0.536064  0.324660  0.899886  1
  Y  Y7  1  0.036132  0.175330  0.599961  1
  Y  Y8  1  0.463746  0.675579  0.399804  1
  Y  Y9  1  0.964030  0.824759  0.100183  1
  Y  Y10  1  0.463820  0.675662  0.100030  1
  Y  Y11  1  0.964105  0.824682  0.399971  1
  Y  Y12  1  0.536094  0.324750  0.600145  1
  Y  Y13  1  0.036158  0.175242  0.900017  1
  Ho  Ho14  1  0.377339  0.841832  0.879045  1
  Ho  Ho15  1  0.877332  0.658226  0.621136  1
  Ho  Ho16  1  0.209605  0.504228  0.749945  1
  Ho  Ho17  1  0.709591  0.995811  0.750008  1
  Ho  Ho18  1  0.790382  0.496108  0.250029  1
  Er  Er19  1  0.290317  0.004224  0.250024  1
  Pb  Pb20  1  0.281702  0.032904  0.042983  1
  Pb  Pb21  1  0.781674  0.466701  0.457388  1
  Pb  Pb22  1  0.718995  0.965559  0.543041  1
  Pb  Pb23  1  0.218897  0.534316  0.956907  1
  Pb  Pb24  1  0.717870  0.966209  0.956957  1
  Pb  Pb25  1  0.217766  0.533693  0.543033  1
  Pb  Pb26  1  0.281457  0.033242  0.456691  1
  Pb  Pb27  1  0.781422  0.466377  0.043058  1
  Pb  Pb28  1  0.572583  0.626158  0.750102  1
  Pb  Pb29  1  0.072710  0.873975  0.749885  1
  Pb  Pb30  1  0.427359  0.374263  0.250007  1
  Pb  Pb31  1  0.927651  0.125315  0.249980  1
  Pb  Pb32  1  0.348647  0.153516  0.750188  1
  Pb  Pb33  1  0.848751  0.346276  0.749796  1
  Pb  Pb34  1  0.651020  0.846128  0.249987  1
  Pb  Pb35  1  0.151623  0.654585  0.250013  1
