# generated using pymatgen
data_Tb6ThSn23Os6
_symmetry_space_group_name_H-M   'P 1'
_cell_length_a   9.89024000
_cell_length_b   9.89023956
_cell_length_c   10.13935700
_cell_angle_alpha   90.00000000
_cell_angle_beta   90.00000000
_cell_angle_gamma   120.00000817
_symmetry_Int_Tables_number   1
_chemical_formula_structural   Tb6ThSn23Os6
_chemical_formula_sum   'Tb6 Th1 Sn23 Os6'
_cell_volume   858.92382989
_cell_formula_units_Z   1
loop_
 _symmetry_equiv_pos_site_id
 _symmetry_equiv_pos_as_xyz
  1  'x, y, z'
loop_
 _atom_site_type_symbol
 _atom_site_label
 _atom_site_symmetry_multiplicity
 _atom_site_fract_x
 _atom_site_fract_y
 _atom_site_fract_z
 _atom_site_occupancy
  Tb  Tb0  1  0.484536  0.515464  0.302467  1
  Tb  Tb1  1  0.515464  0.484536  0.697533  1
  Tb  Tb2  1  0.484536  0.969071  0.302467  1
  Tb  Tb3  1  0.515464  0.030929  0.697533  1
  Tb  Tb4  1  0.030929  0.515464  0.302467  1
  Tb  Tb5  1  0.969071  0.484536  0.697533  1
  Th  Th6  1  0.000000  0.000000  0.000000  1
  Sn  Sn7  1  0.351561  0.000000  0.000000  1
  Sn  Sn8  1  0.648439  0.000000  0.000000  1
  Sn  Sn9  1  0.000000  0.351561  0.000000  1
  Sn  Sn10  1  0.000000  0.648439  0.000000  1
  Sn  Sn11  1  0.648439  0.648439  0.000000  1
  Sn  Sn12  1  0.351561  0.351561  0.000000  1
  Sn  Sn13  1  0.333333  0.666667  0.824765  1
  Sn  Sn14  1  0.666667  0.333333  0.175235  1
  Sn  Sn15  1  0.000000  0.000000  0.500000  1
  Sn  Sn16  1  0.780494  0.219506  0.461174  1
  Sn  Sn17  1  0.219506  0.780494  0.538826  1
  Sn  Sn18  1  0.780494  0.560988  0.461174  1
  Sn  Sn19  1  0.219506  0.439012  0.538826  1
  Sn  Sn20  1  0.439012  0.219506  0.461174  1
  Sn  Sn21  1  0.560988  0.780494  0.538826  1
  Sn  Sn22  1  0.333333  0.666667  0.126801  1
  Sn  Sn23  1  0.666667  0.333333  0.873199  1
  Sn  Sn24  1  0.117883  0.882117  0.278382  1
  Sn  Sn25  1  0.882117  0.117883  0.721618  1
  Sn  Sn26  1  0.117883  0.235767  0.278382  1
  Sn  Sn27  1  0.882117  0.764233  0.721618  1
  Sn  Sn28  1  0.764233  0.882117  0.278382  1
  Sn  Sn29  1  0.235767  0.117883  0.721618  1
  Os  Os30  1  0.830854  0.169146  0.200130  1
  Os  Os31  1  0.169146  0.830854  0.799870  1
  Os  Os32  1  0.830854  0.661708  0.200130  1
  Os  Os33  1  0.169146  0.338292  0.799870  1
  Os  Os34  1  0.338292  0.169146  0.200130  1
  Os  Os35  1  0.661708  0.830854  0.799870  1
