# generated using pymatgen
data_Na2GePdPt2
_symmetry_space_group_name_H-M   'P 1'
_cell_length_a   7.54601916
_cell_length_b   7.52554553
_cell_length_c   7.53551900
_cell_angle_alpha   90.01478543
_cell_angle_beta   89.42110380
_cell_angle_gamma   89.64415015
_symmetry_Int_Tables_number   1
_chemical_formula_structural   Na2GePdPt2
_chemical_formula_sum   'Na8 Ge4 Pd4 Pt8'
_cell_volume   427.89626362
_cell_formula_units_Z   4
loop_
 _symmetry_equiv_pos_site_id
 _symmetry_equiv_pos_as_xyz
  1  'x, y, z'
loop_
 _atom_site_type_symbol
 _atom_site_label
 _atom_site_symmetry_multiplicity
 _atom_site_fract_x
 _atom_site_fract_y
 _atom_site_fract_z
 _atom_site_occupancy
  Na  Na0  1  0.270564  0.270153  0.269989  1
  Na  Na1  1  0.020162  0.480147  0.520661  1
  Na  Na2  1  0.521768  0.019755  0.480884  1
  Na  Na3  1  0.479093  0.520931  0.019658  1
  Na  Na4  1  0.230934  0.729498  0.771209  1
  Na  Na5  1  0.979504  0.980187  0.979814  1
  Na  Na6  1  0.769898  0.230318  0.728605  1
  Na  Na7  1  0.729134  0.769531  0.229229  1
  Ge  Ge8  1  0.868868  0.374945  0.118792  1
  Ge  Ge9  1  0.372410  0.125623  0.880123  1
  Ge  Ge10  1  0.627313  0.627098  0.621245  1
  Ge  Ge11  1  0.127510  0.872742  0.378607  1
  Pd  Pd12  1  0.150059  0.100888  0.625921  1
  Pd  Pd13  1  0.399445  0.374205  0.649531  1
  Pd  Pd14  1  0.099467  0.624178  0.149829  1
  Pd  Pd15  1  0.901037  0.124608  0.349098  1
  Pt  Pt16  1  0.349751  0.899414  0.127445  1
  Pt  Pt17  1  0.649160  0.399177  0.373651  1
  Pt  Pt18  1  0.601334  0.875891  0.850978  1
  Pt  Pt19  1  0.624351  0.148845  0.101228  1
  Pt  Pt20  1  0.375944  0.648664  0.400071  1
  Pt  Pt21  1  0.877229  0.851349  0.600035  1
  Pt  Pt22  1  0.124117  0.350121  0.899640  1
  Pt  Pt23  1  0.850949  0.601730  0.873753  1
