# generated using pymatgen
data_Dy3ErZn4(IrRh)2
_symmetry_space_group_name_H-M   'P 1'
_cell_length_a   4.03294600
_cell_length_b   6.99352785
_cell_length_c   8.11633801
_cell_angle_alpha   89.89672501
_cell_angle_beta   90.00000000
_cell_angle_gamma   90.00000000
_symmetry_Int_Tables_number   1
_chemical_formula_structural   Dy3ErZn4(IrRh)2
_chemical_formula_sum   'Dy3 Er1 Zn4 Ir2 Rh2'
_cell_volume   228.91704697
_cell_formula_units_Z   1
loop_
 _symmetry_equiv_pos_site_id
 _symmetry_equiv_pos_as_xyz
  1  'x, y, z'
loop_
 _atom_site_type_symbol
 _atom_site_label
 _atom_site_symmetry_multiplicity
 _atom_site_fract_x
 _atom_site_fract_y
 _atom_site_fract_z
 _atom_site_occupancy
  Dy  Dy0  1  0.250000  0.536257  0.182231  1
  Dy  Dy1  1  0.750000  0.463815  0.817909  1
  Dy  Dy2  1  0.750000  0.960610  0.683293  1
  Er  Er3  1  0.250000  0.039639  0.316302  1
  Zn  Zn4  1  0.250000  0.635271  0.564215  1
  Zn  Zn5  1  0.750000  0.364581  0.435433  1
  Zn  Zn6  1  0.750000  0.863143  0.065880  1
  Zn  Zn7  1  0.250000  0.137155  0.934684  1
  Ir  Ir8  1  0.250000  0.757125  0.875993  1
  Ir  Ir9  1  0.750000  0.241925  0.124815  1
  Rh  Rh10  1  0.750000  0.745534  0.377893  1
  Rh  Rh11  1  0.250000  0.254945  0.621352  1
