# generated using pymatgen
data_Ba6YFe(BO3)6
_symmetry_space_group_name_H-M   'P 1'
_cell_length_a   8.13016239
_cell_length_b   8.13001560
_cell_length_c   8.13004961
_cell_angle_alpha   105.86865638
_cell_angle_beta   105.86861347
_cell_angle_gamma   105.86814480
_symmetry_Int_Tables_number   1
_chemical_formula_structural   Ba6YFe(BO3)6
_chemical_formula_sum   'Ba6 Y1 Fe1 B6 O18'
_cell_volume   460.65426815
_cell_formula_units_Z   1
loop_
 _symmetry_equiv_pos_site_id
 _symmetry_equiv_pos_as_xyz
  1  'x, y, z'
loop_
 _atom_site_type_symbol
 _atom_site_label
 _atom_site_symmetry_multiplicity
 _atom_site_fract_x
 _atom_site_fract_y
 _atom_site_fract_z
 _atom_site_occupancy
  Ba  Ba0  1  0.343998  0.731810  0.831902  1
  Ba  Ba1  1  0.831898  0.344000  0.731814  1
  Ba  Ba2  1  0.731812  0.831901  0.344002  1
  Ba  Ba3  1  0.656002  0.268190  0.168098  1
  Ba  Ba4  1  0.168102  0.656000  0.268186  1
  Ba  Ba5  1  0.268188  0.168099  0.655998  1
  Y  Y6  1  0.000000  0.000000  0.000000  1
  Fe  Fe7  1  0.500000  0.500000  0.500000  1
  B  B8  1  0.374372  0.056334  0.295788  1
  B  B9  1  0.295789  0.374378  0.056335  1
  B  B10  1  0.056335  0.295787  0.374372  1
  B  B11  1  0.704211  0.625622  0.943665  1
  B  B12  1  0.943665  0.704213  0.625628  1
  B  B13  1  0.625628  0.943666  0.704212  1
  O  O14  1  0.427343  0.492056  0.232974  1
  O  O15  1  0.232976  0.427337  0.492048  1
  O  O16  1  0.813485  0.006531  0.733854  1
  O  O17  1  0.006534  0.733856  0.813493  1
  O  O18  1  0.733857  0.813492  0.006535  1
  O  O19  1  0.266143  0.186508  0.993465  1
  O  O20  1  0.186515  0.993469  0.266146  1
  O  O21  1  0.993466  0.266144  0.186507  1
  O  O22  1  0.553128  0.058465  0.793539  1
  O  O23  1  0.058456  0.793534  0.553127  1
  O  O24  1  0.793536  0.553124  0.058457  1
  O  O25  1  0.446872  0.941535  0.206461  1
  O  O26  1  0.941544  0.206466  0.446873  1
  O  O27  1  0.206464  0.446876  0.941543  1
  O  O28  1  0.507946  0.767024  0.572657  1
  O  O29  1  0.767024  0.572663  0.507952  1
  O  O30  1  0.572657  0.507944  0.767026  1
  O  O31  1  0.492054  0.232976  0.427343  1
