# generated using pymatgen
data_Pr5NdAl24(OsPt)4
_symmetry_space_group_name_H-M   'P 1'
_cell_length_a   8.96962347
_cell_length_b   8.92354841
_cell_length_c   9.68741400
_cell_angle_alpha   90.00000000
_cell_angle_beta   90.00000000
_cell_angle_gamma   119.86247925
_symmetry_Int_Tables_number   1
_chemical_formula_structural   Pr5NdAl24(OsPt)4
_chemical_formula_sum   'Pr5 Nd1 Al24 Os4 Pt4'
_cell_volume   672.43520968
_cell_formula_units_Z   1
loop_
 _symmetry_equiv_pos_site_id
 _symmetry_equiv_pos_as_xyz
  1  'x, y, z'
loop_
 _atom_site_type_symbol
 _atom_site_label
 _atom_site_symmetry_multiplicity
 _atom_site_fract_x
 _atom_site_fract_y
 _atom_site_fract_z
 _atom_site_occupancy
  Pr  Pr0  1  0.187184  0.379960  0.250000  1
  Pr  Pr1  1  0.812761  0.619739  0.750000  1
  Pr  Pr2  1  0.621110  0.810193  0.250000  1
  Pr  Pr3  1  0.379072  0.189850  0.750000  1
  Pr  Pr4  1  0.187036  0.805935  0.250000  1
  Nd  Nd5  1  0.812944  0.194590  0.750000  1
  Al  Al6  1  0.328670  0.664066  0.025233  1
  Al  Al7  1  0.671466  0.335702  0.974349  1
  Al  Al8  1  0.671466  0.335702  0.525651  1
  Al  Al9  1  0.328670  0.664066  0.474767  1
  Al  Al10  1  0.158491  0.327019  0.575095  1
  Al  Al11  1  0.841155  0.672820  0.425132  1
  Al  Al12  1  0.675847  0.838004  0.574394  1
  Al  Al13  1  0.841155  0.672820  0.074868  1
  Al  Al14  1  0.324265  0.162327  0.425801  1
  Al  Al15  1  0.158491  0.327019  0.924905  1
  Al  Al16  1  0.158715  0.831822  0.575900  1
  Al  Al17  1  0.324265  0.162327  0.074199  1
  Al  Al18  1  0.841259  0.168176  0.424495  1
  Al  Al19  1  0.675847  0.838004  0.925606  1
  Al  Al20  1  0.841259  0.168176  0.075505  1
  Al  Al21  1  0.158715  0.831822  0.924100  1
  Al  Al22  1  0.564946  0.128566  0.250000  1
  Al  Al23  1  0.435543  0.871753  0.750000  1
  Al  Al24  1  0.873525  0.436318  0.250000  1
  Al  Al25  1  0.126147  0.563180  0.750000  1
  Al  Al26  1  0.564287  0.436152  0.250000  1
  Al  Al27  1  0.435679  0.563863  0.750000  1
  Al  Al28  1  0.995754  0.998000  0.250000  1
  Al  Al29  1  0.003937  0.002277  0.750000  1
  Os  Os30  1  0.999879  0.499774  0.999814  1
  Os  Os31  1  0.999879  0.499774  0.500186  1
  Os  Os32  1  0.999943  0.000036  0.000009  1
  Os  Os33  1  0.999943  0.000036  0.499991  1
  Pt  Pt34  1  0.500260  0.000121  0.999834  1
  Pt  Pt35  1  0.500260  0.000121  0.500166  1
  Pt  Pt36  1  0.500088  0.499945  0.999977  1
  Pt  Pt37  1  0.500088  0.499945  0.500023  1
