# generated using pymatgen
data_NdEuGaRh2
_symmetry_space_group_name_H-M   'P 1'
_cell_length_a   5.70510856
_cell_length_b   5.70510895
_cell_length_c   5.70510793
_cell_angle_alpha   137.03119845
_cell_angle_beta   117.33943096
_cell_angle_gamma   78.98967610
_symmetry_Int_Tables_number   1
_chemical_formula_structural   NdEuGaRh2
_chemical_formula_sum   'Nd1 Eu1 Ga1 Rh2'
_cell_volume   109.15509525
_cell_formula_units_Z   1
loop_
 _symmetry_equiv_pos_site_id
 _symmetry_equiv_pos_as_xyz
  1  'x, y, z'
loop_
 _atom_site_type_symbol
 _atom_site_label
 _atom_site_symmetry_multiplicity
 _atom_site_fract_x
 _atom_site_fract_y
 _atom_site_fract_z
 _atom_site_occupancy
  Nd  Nd0  1  0.300477  0.800476  0.499999  1
  Eu  Eu1  1  0.700802  0.200802  0.500000  1
  Ga  Ga2  1  0.000394  0.000394  0.000000  1
  Rh  Rh3  1  0.743110  0.499162  0.243947  1
  Rh  Rh4  1  0.255217  0.499162  0.756052  1
