# generated using pymatgen
data_Tb6Dy13TmSn16
_symmetry_space_group_name_H-M   'P 1'
_cell_length_a   8.03625901
_cell_length_b   8.18523710
_cell_length_c   15.46765903
_cell_angle_alpha   90.00515221
_cell_angle_beta   90.00416360
_cell_angle_gamma   89.95114352
_symmetry_Int_Tables_number   1
_chemical_formula_structural   Tb6Dy13TmSn16
_chemical_formula_sum   'Tb6 Dy13 Tm1 Sn16'
_cell_volume   1017.44189944
_cell_formula_units_Z   1
loop_
 _symmetry_equiv_pos_site_id
 _symmetry_equiv_pos_as_xyz
  1  'x, y, z'
loop_
 _atom_site_type_symbol
 _atom_site_label
 _atom_site_symmetry_multiplicity
 _atom_site_fract_x
 _atom_site_fract_y
 _atom_site_fract_z
 _atom_site_occupancy
  Tb  Tb0  1  0.480002  0.679784  0.402401  1
  Tb  Tb1  1  0.979887  0.820165  0.097791  1
  Tb  Tb2  1  0.480002  0.679779  0.097592  1
  Tb  Tb3  1  0.979879  0.820165  0.402221  1
  Tb  Tb4  1  0.519879  0.320563  0.598018  1
  Tb  Tb5  1  0.020304  0.180019  0.901974  1
  Dy  Dy6  1  0.367169  0.836071  0.877880  1
  Dy  Dy7  1  0.867867  0.663423  0.622083  1
  Dy  Dy8  1  0.632568  0.163835  0.378255  1
  Dy  Dy9  1  0.132571  0.336176  0.121408  1
  Dy  Dy10  1  0.632562  0.163847  0.121729  1
  Dy  Dy11  1  0.132553  0.336174  0.378614  1
  Dy  Dy12  1  0.367151  0.836089  0.622124  1
  Dy  Dy13  1  0.867842  0.663417  0.877908  1
  Dy  Dy14  1  0.519893  0.320579  0.901930  1
  Dy  Dy15  1  0.020327  0.180012  0.598071  1
  Dy  Dy16  1  0.698598  0.997938  0.749989  1
  Dy  Dy17  1  0.801037  0.497570  0.250011  1
  Dy  Dy18  1  0.301017  0.002380  0.249996  1
  Tm  Tm19  1  0.199296  0.502548  0.750003  1
  Sn  Sn20  1  0.292553  0.035311  0.041712  1
  Sn  Sn21  1  0.792404  0.464300  0.458282  1
  Sn  Sn22  1  0.707568  0.964547  0.542195  1
  Sn  Sn23  1  0.207610  0.535185  0.957188  1
  Sn  Sn24  1  0.707423  0.964531  0.957819  1
  Sn  Sn25  1  0.207436  0.535210  0.542801  1
  Sn  Sn26  1  0.292484  0.035337  0.458326  1
  Sn  Sn27  1  0.792312  0.464263  0.041676  1
  Sn  Sn28  1  0.564295  0.618335  0.750013  1
  Sn  Sn29  1  0.065544  0.880481  0.750000  1
  Sn  Sn30  1  0.434412  0.381336  0.249989  1
  Sn  Sn31  1  0.934609  0.118758  0.250001  1
  Sn  Sn32  1  0.328069  0.148287  0.750042  1
  Sn  Sn33  1  0.829268  0.354020  0.749969  1
  Sn  Sn34  1  0.671651  0.853929  0.249992  1
  Sn  Sn35  1  0.171956  0.645635  0.249997  1
