# generated using pymatgen
data_Tb5Sm(CoSn6)2
_symmetry_space_group_name_H-M   'P 1'
_cell_length_a   8.51328866
_cell_length_b   8.51328945
_cell_length_c   13.18617365
_cell_angle_alpha   89.98389650
_cell_angle_beta   90.01610275
_cell_angle_gamma   148.85870204
_symmetry_Int_Tables_number   1
_chemical_formula_structural   Tb5Sm(CoSn6)2
_chemical_formula_sum   'Tb5 Sm1 Co2 Sn12'
_cell_volume   494.23145057
_cell_formula_units_Z   1
loop_
 _symmetry_equiv_pos_site_id
 _symmetry_equiv_pos_as_xyz
  1  'x, y, z'
loop_
 _atom_site_type_symbol
 _atom_site_label
 _atom_site_symmetry_multiplicity
 _atom_site_fract_x
 _atom_site_fract_y
 _atom_site_fract_z
 _atom_site_occupancy
  Tb  Tb0  1  0.899219  0.100781  0.092563  1
  Tb  Tb1  1  0.100867  0.899133  0.593667  1
  Tb  Tb2  1  0.899875  0.100125  0.750818  1
  Tb  Tb3  1  0.100378  0.899622  0.906986  1
  Tb  Tb4  1  0.100282  0.899718  0.249353  1
  Sm  Sm5  1  0.900145  0.099855  0.406869  1
  Co  Co6  1  0.299049  0.700951  0.249579  1
  Co  Co7  1  0.700575  0.299425  0.750287  1
  Sn  Sn8  1  0.754848  0.245152  0.571859  1
  Sn  Sn9  1  0.428724  0.571276  0.577870  1
  Sn  Sn10  1  0.572559  0.427441  0.423399  1
  Sn  Sn11  1  0.734259  0.265741  0.249378  1
  Sn  Sn12  1  0.265368  0.734632  0.750251  1
  Sn  Sn13  1  0.244710  0.755290  0.071078  1
  Sn  Sn14  1  0.244382  0.755618  0.428492  1
  Sn  Sn15  1  0.572069  0.427931  0.075921  1
  Sn  Sn16  1  0.453589  0.546411  0.248369  1
  Sn  Sn17  1  0.546564  0.453436  0.750602  1
  Sn  Sn18  1  0.754950  0.245050  0.928770  1
  Sn  Sn19  1  0.427589  0.572411  0.923893  1
