# generated using pymatgen
data_Gd2Zn11Cu6
_symmetry_space_group_name_H-M   'P 1'
_cell_length_a   6.63971254
_cell_length_b   6.62989735
_cell_length_c   6.63549800
_cell_angle_alpha   82.96628761
_cell_angle_beta   82.80961660
_cell_angle_gamma   82.94213032
_symmetry_Int_Tables_number   1
_chemical_formula_structural   Gd2Zn11Cu6
_chemical_formula_sum   'Gd2 Zn11 Cu6'
_cell_volume   285.89994166
_cell_formula_units_Z   1
loop_
 _symmetry_equiv_pos_site_id
 _symmetry_equiv_pos_as_xyz
  1  'x, y, z'
loop_
 _atom_site_type_symbol
 _atom_site_label
 _atom_site_symmetry_multiplicity
 _atom_site_fract_x
 _atom_site_fract_y
 _atom_site_fract_z
 _atom_site_occupancy
  Gd  Gd0  1  0.655150  0.652492  0.651784  1
  Gd  Gd1  1  0.345853  0.338776  0.340057  1
  Zn  Zn2  1  0.098020  0.108111  0.107745  1
  Zn  Zn3  1  0.890992  0.895031  0.897470  1
  Zn  Zn4  1  0.303373  0.693744  0.999290  1
  Zn  Zn5  1  0.001041  0.302080  0.696935  1
  Zn  Zn6  1  0.699502  0.297341  0.003813  1
  Zn  Zn7  1  0.297379  0.004718  0.705047  1
  Zn  Zn8  1  0.998395  0.698884  0.300855  1
  Zn  Zn9  1  0.160462  0.649885  0.652891  1
  Zn  Zn10  1  0.655490  0.653652  0.161392  1
  Zn  Zn11  1  0.650248  0.159987  0.645662  1
  Zn  Zn12  1  0.350889  0.850509  0.347645  1
  Cu  Cu13  1  0.349386  0.347336  0.843296  1
  Cu  Cu14  1  0.842415  0.346971  0.347401  1
  Cu  Cu15  1  0.998187  0.999813  0.500986  1
  Cu  Cu16  1  0.000225  0.498090  0.000513  1
  Cu  Cu17  1  0.499807  0.999925  0.999098  1
  Cu  Cu18  1  0.703186  0.002654  0.298118  1
