# generated using pymatgen
data_VMoRh6
_symmetry_space_group_name_H-M   'P 1'
_cell_length_a   5.49402900
_cell_length_b   5.49403002
_cell_length_c   4.34971300
_cell_angle_alpha   90.00000000
_cell_angle_beta   90.00000000
_cell_angle_gamma   120.00001190
_symmetry_Int_Tables_number   1
_chemical_formula_structural   VMoRh6
_chemical_formula_sum   'V1 Mo1 Rh6'
_cell_volume   113.70332325
_cell_formula_units_Z   1
loop_
 _symmetry_equiv_pos_site_id
 _symmetry_equiv_pos_as_xyz
  1  'x, y, z'
loop_
 _atom_site_type_symbol
 _atom_site_label
 _atom_site_symmetry_multiplicity
 _atom_site_fract_x
 _atom_site_fract_y
 _atom_site_fract_z
 _atom_site_occupancy
  V  V0  1  0.666667  0.333333  0.250000  1
  Mo  Mo1  1  0.333333  0.666667  0.750000  1
  Rh  Rh2  1  0.166485  0.332970  0.250000  1
  Rh  Rh3  1  0.667030  0.833515  0.250000  1
  Rh  Rh4  1  0.166485  0.833515  0.250000  1
  Rh  Rh5  1  0.832176  0.664353  0.750000  1
  Rh  Rh6  1  0.335647  0.167824  0.750000  1
  Rh  Rh7  1  0.832176  0.167824  0.750000  1
