# generated using pymatgen
data_Tm3Lu7(Sn3Se)2
_symmetry_space_group_name_H-M   'P 1'
_cell_length_a   8.94464000
_cell_length_b   8.94464046
_cell_length_c   6.57582700
_cell_angle_alpha   90.00000000
_cell_angle_beta   90.00000000
_cell_angle_gamma   119.99999830
_symmetry_Int_Tables_number   1
_chemical_formula_structural   Tm3Lu7(Sn3Se)2
_chemical_formula_sum   'Tm3 Lu7 Sn6 Se2'
_cell_volume   455.62418888
_cell_formula_units_Z   1
loop_
 _symmetry_equiv_pos_site_id
 _symmetry_equiv_pos_as_xyz
  1  'x, y, z'
loop_
 _atom_site_type_symbol
 _atom_site_label
 _atom_site_symmetry_multiplicity
 _atom_site_fract_x
 _atom_site_fract_y
 _atom_site_fract_z
 _atom_site_occupancy
  Tm  Tm0  1  0.746196  0.746196  0.750000  1
  Tm  Tm1  1  0.253804  0.000000  0.750000  1
  Tm  Tm2  1  0.000000  0.253804  0.750000  1
  Lu  Lu3  1  0.666667  0.333333  0.000098  1
  Lu  Lu4  1  0.333333  0.666667  0.000098  1
  Lu  Lu5  1  0.333333  0.666667  0.499902  1
  Lu  Lu6  1  0.666667  0.333333  0.499902  1
  Lu  Lu7  1  0.253764  0.253764  0.250000  1
  Lu  Lu8  1  0.746236  0.000000  0.250000  1
  Lu  Lu9  1  0.000000  0.746236  0.250000  1
  Sn  Sn10  1  0.396915  0.396915  0.750000  1
  Sn  Sn11  1  0.603085  0.000000  0.750000  1
  Sn  Sn12  1  0.000000  0.603085  0.750000  1
  Sn  Sn13  1  0.603188  0.603188  0.250000  1
  Sn  Sn14  1  0.396812  0.000000  0.250000  1
  Sn  Sn15  1  0.000000  0.396812  0.250000  1
  Se  Se16  1  0.000000  0.000000  0.001094  1
  Se  Se17  1  0.000000  0.000000  0.498906  1
