# generated using pymatgen
data_Lu2Mn11CrP7
_symmetry_space_group_name_H-M   'P 1'
_cell_length_a   9.22675437
_cell_length_b   9.24216074
_cell_length_c   3.59190600
_cell_angle_alpha   90.00000000
_cell_angle_beta   90.00000000
_cell_angle_gamma   120.17978902
_symmetry_Int_Tables_number   1
_chemical_formula_structural   Lu2Mn11CrP7
_chemical_formula_sum   'Lu2 Mn11 Cr1 P7'
_cell_volume   264.78197494
_cell_formula_units_Z   1
loop_
 _symmetry_equiv_pos_site_id
 _symmetry_equiv_pos_as_xyz
  1  'x, y, z'
loop_
 _atom_site_type_symbol
 _atom_site_label
 _atom_site_symmetry_multiplicity
 _atom_site_fract_x
 _atom_site_fract_y
 _atom_site_fract_z
 _atom_site_occupancy
  Lu  Lu0  1  0.334114  0.668136  0.000000  1
  Lu  Lu1  1  0.664876  0.332515  0.500000  1
  Mn  Mn2  1  0.426023  0.048521  0.000000  1
  Mn  Mn3  1  0.156854  0.278532  0.000000  1
  Mn  Mn4  1  0.951953  0.376336  0.000000  1
  Mn  Mn5  1  0.623142  0.574706  0.000000  1
  Mn  Mn6  1  0.118033  0.839034  0.000000  1
  Mn  Mn7  1  0.723510  0.880630  0.000000  1
  Mn  Mn8  1  0.901072  0.122769  0.500000  1
  Mn  Mn9  1  0.393269  0.438386  0.500000  1
  Mn  Mn10  1  0.044041  0.606796  0.500000  1
  Mn  Mn11  1  0.879010  0.776365  0.500000  1
  Mn  Mn12  1  0.563716  0.956378  0.500000  1
  Cr  Cr13  1  0.220327  0.099517  0.500000  1
  P  P14  1  0.001486  0.999976  0.000000  1
  P  P15  1  0.709942  0.122446  0.000000  1
  P  P16  1  0.410471  0.288961  0.000000  1
  P  P17  1  0.876436  0.584968  0.000000  1
  P  P18  1  0.130195  0.412370  0.500000  1
  P  P19  1  0.590215  0.719876  0.500000  1
  P  P20  1  0.281310  0.872782  0.500000  1
