# generated using pymatgen
data_YIn3B4AsIr9
_symmetry_space_group_name_H-M   'P 1'
_cell_length_a   5.58662800
_cell_length_b   5.58662770
_cell_length_c   10.47371700
_cell_angle_alpha   90.00000000
_cell_angle_beta   90.00000000
_cell_angle_gamma   119.99998994
_symmetry_Int_Tables_number   1
_chemical_formula_structural   YIn3B4AsIr9
_chemical_formula_sum   'Y1 In3 B4 As1 Ir9'
_cell_volume   283.09421512
_cell_formula_units_Z   1
loop_
 _symmetry_equiv_pos_site_id
 _symmetry_equiv_pos_as_xyz
  1  'x, y, z'
loop_
 _atom_site_type_symbol
 _atom_site_label
 _atom_site_symmetry_multiplicity
 _atom_site_fract_x
 _atom_site_fract_y
 _atom_site_fract_z
 _atom_site_occupancy
  Y  Y0  1  0.000000  0.000000  0.915712  1
  In  In1  1  0.666667  0.333333  0.506604  1
  In  In2  1  0.000000  0.000000  0.333090  1
  In  In3  1  0.333333  0.666667  0.506604  1
  B  B4  1  0.666667  0.333333  0.154776  1
  B  B5  1  0.333333  0.666667  0.862624  1
  B  B6  1  0.666667  0.333333  0.862624  1
  B  B7  1  0.333333  0.666667  0.154776  1
  As  As8  1  0.000000  0.000000  0.639069  1
  Ir  Ir9  1  0.000000  0.501585  0.283235  1
  Ir  Ir10  1  0.434418  0.000000  0.728459  1
  Ir  Ir11  1  0.501585  0.000000  0.283235  1
  Ir  Ir12  1  0.000000  0.492067  0.009680  1
  Ir  Ir13  1  0.565582  0.565582  0.728459  1
  Ir  Ir14  1  0.000000  0.434418  0.728459  1
  Ir  Ir15  1  0.507933  0.507933  0.009680  1
  Ir  Ir16  1  0.492067  0.000000  0.009680  1
  Ir  Ir17  1  0.498415  0.498415  0.283235  1
