# generated using pymatgen
data_LiEuThZn21
_symmetry_space_group_name_H-M   'P 1'
_cell_length_a   8.33889188
_cell_length_b   8.33889213
_cell_length_c   8.33889205
_cell_angle_alpha   99.81896077
_cell_angle_beta   99.81896256
_cell_angle_gamma   131.21822237
_symmetry_Int_Tables_number   1
_chemical_formula_structural   LiEuThZn21
_chemical_formula_sum   'Li1 Eu1 Th1 Zn21'
_cell_volume   397.24676518
_cell_formula_units_Z   1
loop_
 _symmetry_equiv_pos_site_id
 _symmetry_equiv_pos_as_xyz
  1  'x, y, z'
loop_
 _atom_site_type_symbol
 _atom_site_label
 _atom_site_symmetry_multiplicity
 _atom_site_fract_x
 _atom_site_fract_y
 _atom_site_fract_z
 _atom_site_occupancy
  Li  Li0  1  0.750000  0.250000  0.500000  1
  Eu  Eu1  1  0.250000  0.750000  0.500000  1
  Th  Th2  1  0.000000  0.000000  0.000000  1
  Zn  Zn3  1  0.500000  0.500000  0.000000  1
  Zn  Zn4  1  0.119870  0.371913  0.747957  1
  Zn  Zn5  1  0.628087  0.880130  0.252043  1
  Zn  Zn6  1  0.628087  0.376044  0.747957  1
  Zn  Zn7  1  0.623956  0.371913  0.252043  1
  Zn  Zn8  1  0.181226  0.507649  0.084884  1
  Zn  Zn9  1  0.181226  0.096343  0.673577  1
  Zn  Zn10  1  0.758206  0.930608  0.584935  1
  Zn  Zn11  1  0.758206  0.173271  0.827598  1
  Zn  Zn12  1  0.422766  0.507649  0.326423  1
  Zn  Zn13  1  0.422766  0.096343  0.915116  1
  Zn  Zn14  1  0.345673  0.930608  0.172402  1
  Zn  Zn15  1  0.345673  0.173271  0.415065  1
  Zn  Zn16  1  0.069392  0.241794  0.415065  1
  Zn  Zn17  1  0.069392  0.654327  0.827598  1
  Zn  Zn18  1  0.492351  0.818774  0.915116  1
  Zn  Zn19  1  0.492351  0.577234  0.673577  1
  Zn  Zn20  1  0.826729  0.241794  0.172402  1
  Zn  Zn21  1  0.826729  0.654327  0.584935  1
  Zn  Zn22  1  0.903657  0.818774  0.326423  1
  Zn  Zn23  1  0.903657  0.577234  0.084884  1
