# generated using pymatgen
data_SmGdNCl2
_symmetry_space_group_name_H-M   'P 1'
_cell_length_a   3.68377500
_cell_length_b   3.68377548
_cell_length_c   9.96336300
_cell_angle_alpha   90.00000000
_cell_angle_beta   90.00000000
_cell_angle_gamma   120.00000465
_symmetry_Int_Tables_number   1
_chemical_formula_structural   SmGdNCl2
_chemical_formula_sum   'Sm1 Gd1 N1 Cl2'
_cell_volume   117.09081102
_cell_formula_units_Z   1
loop_
 _symmetry_equiv_pos_site_id
 _symmetry_equiv_pos_as_xyz
  1  'x, y, z'
loop_
 _atom_site_type_symbol
 _atom_site_label
 _atom_site_symmetry_multiplicity
 _atom_site_fract_x
 _atom_site_fract_y
 _atom_site_fract_z
 _atom_site_occupancy
  Sm  Sm0  1  0.333334  0.666668  0.365324  1
  Gd  Gd1  1  0.666667  0.333334  0.634382  1
  N  N2  1  0.000000  0.000000  0.504425  1
  Cl  Cl3  1  0.666667  0.333334  0.182537  1
  Cl  Cl4  1  0.333334  0.666668  0.813333  1
