# generated using pymatgen
data_V11Si3PRh
_symmetry_space_group_name_H-M   'P 1'
_cell_length_a   4.71908600
_cell_length_b   4.66796700
_cell_length_c   9.35124000
_cell_angle_alpha   90.00000000
_cell_angle_beta   90.00000000
_cell_angle_gamma   90.00000000
_symmetry_Int_Tables_number   1
_chemical_formula_structural   V11Si3PRh
_chemical_formula_sum   'V11 Si3 P1 Rh1'
_cell_volume   205.99414305
_cell_formula_units_Z   1
loop_
 _symmetry_equiv_pos_site_id
 _symmetry_equiv_pos_as_xyz
  1  'x, y, z'
loop_
 _atom_site_type_symbol
 _atom_site_label
 _atom_site_symmetry_multiplicity
 _atom_site_fract_x
 _atom_site_fract_y
 _atom_site_fract_z
 _atom_site_occupancy
  V  V0  1  0.002895  0.500000  0.126571  1
  V  V1  1  0.001026  0.500000  0.624687  1
  V  V2  1  0.498610  0.252288  0.752287  1
  V  V3  1  0.498610  0.252288  0.247713  1
  V  V4  1  0.751680  0.000000  0.000000  1
  V  V5  1  0.002895  0.500000  0.873429  1
  V  V6  1  0.001026  0.500000  0.375313  1
  V  V7  1  0.498610  0.747712  0.752287  1
  V  V8  1  0.498610  0.747712  0.247713  1
  V  V9  1  0.252908  0.000000  0.000000  1
  V  V10  1  0.244551  0.000000  0.500000  1
  Si  Si11  1  0.492180  0.500000  0.500000  1
  Si  Si12  1  0.006378  0.000000  0.754763  1
  Si  Si13  1  0.006378  0.000000  0.245237  1
  P  P14  1  0.498256  0.500000  0.000000  1
  Rh  Rh15  1  0.745389  0.000000  0.500000  1
