# generated using pymatgen
data_Ca4TlPt4Pb
_symmetry_space_group_name_H-M   'P 1'
_cell_length_a   5.89920713
_cell_length_b   5.89920834
_cell_length_c   8.32789500
_cell_angle_alpha   76.81938623
_cell_angle_beta   76.81938346
_cell_angle_gamma   58.20655271
_symmetry_Int_Tables_number   1
_chemical_formula_structural   Ca4TlPt4Pb
_chemical_formula_sum   'Ca4 Tl1 Pt4 Pb1'
_cell_volume   237.79398491
_cell_formula_units_Z   1
loop_
 _symmetry_equiv_pos_site_id
 _symmetry_equiv_pos_as_xyz
  1  'x, y, z'
loop_
 _atom_site_type_symbol
 _atom_site_label
 _atom_site_symmetry_multiplicity
 _atom_site_fract_x
 _atom_site_fract_y
 _atom_site_fract_z
 _atom_site_occupancy
  Ca  Ca0  1  0.496895  0.801816  0.349322  1
  Ca  Ca1  1  0.198184  0.503105  0.150678  1
  Ca  Ca2  1  0.502387  0.196764  0.649967  1
  Ca  Ca3  1  0.803236  0.497613  0.850033  1
  Tl  Tl4  1  0.170686  0.829314  0.750000  1
  Pt  Pt5  1  0.721522  0.001279  0.998760  1
  Pt  Pt6  1  0.998721  0.278478  0.501240  1
  Pt  Pt7  1  0.276195  0.998036  0.999350  1
  Pt  Pt8  1  0.001964  0.723805  0.500650  1
  Pb  Pb9  1  0.830215  0.169785  0.250000  1
