# generated using pymatgen
data_Sc2Mn2Fe4Co6P7
_symmetry_space_group_name_H-M   'P 1'
_cell_length_a   8.90892242
_cell_length_b   8.93640531
_cell_length_c   3.55236800
_cell_angle_alpha   90.00000000
_cell_angle_beta   90.00000000
_cell_angle_gamma   120.03453205
_symmetry_Int_Tables_number   1
_chemical_formula_structural   Sc2Mn2Fe4Co6P7
_chemical_formula_sum   'Sc2 Mn2 Fe4 Co6 P7'
_cell_volume   244.84170231
_cell_formula_units_Z   1
loop_
 _symmetry_equiv_pos_site_id
 _symmetry_equiv_pos_as_xyz
  1  'x, y, z'
loop_
 _atom_site_type_symbol
 _atom_site_label
 _atom_site_symmetry_multiplicity
 _atom_site_fract_x
 _atom_site_fract_y
 _atom_site_fract_z
 _atom_site_occupancy
  Sc  Sc0  1  0.002541  0.000944  0.000000  1
  Sc  Sc1  1  0.666554  0.333946  0.500000  1
  Mn  Mn2  1  0.101137  0.562923  0.500000  1
  Mn  Mn3  1  0.459426  0.895430  0.500000  1
  Fe  Fe4  1  0.611507  0.786881  0.000000  1
  Fe  Fe5  1  0.176057  0.389369  0.000000  1
  Fe  Fe6  1  0.214824  0.824893  0.000000  1
  Fe  Fe7  1  0.434496  0.536737  0.500000  1
  Co  Co8  1  0.395039  0.296291  0.000000  1
  Co  Co9  1  0.897625  0.603097  0.000000  1
  Co  Co10  1  0.704066  0.100901  0.000000  1
  Co  Co11  1  0.772588  0.718281  0.500000  1
  Co  Co12  1  0.946651  0.226261  0.500000  1
  Co  Co13  1  0.281240  0.055345  0.500000  1
  P  P14  1  0.627993  0.550791  0.000000  1
  P  P15  1  0.919980  0.369412  0.000000  1
  P  P16  1  0.449315  0.082425  0.000000  1
  P  P17  1  0.745352  0.954348  0.500000  1
  P  P18  1  0.214898  0.261767  0.500000  1
  P  P19  1  0.045795  0.785491  0.500000  1
  P  P20  1  0.332919  0.664467  0.000000  1
