# generated using pymatgen
data_Tm2Si(Ni2As)6
_symmetry_space_group_name_H-M   'P 1'
_cell_length_a   9.29525300
_cell_length_b   9.29525218
_cell_length_c   3.79841500
_cell_angle_alpha   90.00000000
_cell_angle_beta   90.00000000
_cell_angle_gamma   120.00000647
_symmetry_Int_Tables_number   1
_chemical_formula_structural   Tm2Si(Ni2As)6
_chemical_formula_sum   'Tm2 Si1 Ni12 As6'
_cell_volume   284.22050546
_cell_formula_units_Z   1
loop_
 _symmetry_equiv_pos_site_id
 _symmetry_equiv_pos_as_xyz
  1  'x, y, z'
loop_
 _atom_site_type_symbol
 _atom_site_label
 _atom_site_symmetry_multiplicity
 _atom_site_fract_x
 _atom_site_fract_y
 _atom_site_fract_z
 _atom_site_occupancy
  Tm  Tm0  1  0.000000  0.000000  0.000000  1
  Tm  Tm1  1  0.333333  0.666667  0.500000  1
  Si  Si2  1  0.666667  0.333333  0.000000  1
  Ni  Ni3  1  0.815788  0.609168  0.000000  1
  Ni  Ni4  1  0.390832  0.206620  0.000000  1
  Ni  Ni5  1  0.793380  0.184212  0.000000  1
  Ni  Ni6  1  0.043110  0.758067  0.500000  1
  Ni  Ni7  1  0.241933  0.285043  0.500000  1
  Ni  Ni8  1  0.714957  0.956890  0.500000  1
  Ni  Ni9  1  0.106865  0.389040  0.000000  1
  Ni  Ni10  1  0.610960  0.717826  0.000000  1
  Ni  Ni11  1  0.282174  0.893135  0.000000  1
  Ni  Ni12  1  0.860197  0.420351  0.500000  1
  Ni  Ni13  1  0.579649  0.439846  0.500000  1
  Ni  Ni14  1  0.560154  0.139803  0.500000  1
  As  As15  1  0.776124  0.739446  0.500000  1
  As  As16  1  0.260554  0.036677  0.500000  1
  As  As17  1  0.963323  0.223876  0.500000  1
  As  As18  1  0.068512  0.615939  0.000000  1
  As  As19  1  0.384061  0.452573  0.000000  1
  As  As20  1  0.547427  0.931488  0.000000  1
