# generated using pymatgen
data_Nd3In3Rh2Pb
_symmetry_space_group_name_H-M   'P 1'
_cell_length_a   7.95245700
_cell_length_b   7.95245657
_cell_length_c   4.06379800
_cell_angle_alpha   90.00000000
_cell_angle_beta   90.00000000
_cell_angle_gamma   120.00000595
_symmetry_Int_Tables_number   1
_chemical_formula_structural   Nd3In3Rh2Pb
_chemical_formula_sum   'Nd3 In3 Rh2 Pb1'
_cell_volume   222.56934795
_cell_formula_units_Z   1
loop_
 _symmetry_equiv_pos_site_id
 _symmetry_equiv_pos_as_xyz
  1  'x, y, z'
loop_
 _atom_site_type_symbol
 _atom_site_label
 _atom_site_symmetry_multiplicity
 _atom_site_fract_x
 _atom_site_fract_y
 _atom_site_fract_z
 _atom_site_occupancy
  Nd  Nd0  1  0.606914  0.028674  0.500000  1
  Nd  Nd1  1  0.421759  0.393086  0.500000  1
  Nd  Nd2  1  0.971326  0.578241  0.500000  1
  In  In3  1  0.251114  0.016036  0.000000  1
  In  In4  1  0.764923  0.748886  0.000000  1
  In  In5  1  0.983964  0.235077  0.000000  1
  Rh  Rh6  1  0.000000  0.000000  0.500000  1
  Rh  Rh7  1  0.666667  0.333333  0.000000  1
  Pb  Pb8  1  0.333333  0.666667  0.000000  1
