# generated using pymatgen
data_Cs4V2HgSe8
_symmetry_space_group_name_H-M   'P 1'
_cell_length_a   13.75765000
_cell_length_b   8.03986388
_cell_length_c   10.67323869
_cell_angle_alpha   86.07254283
_cell_angle_beta   90.00000000
_cell_angle_gamma   90.00000000
_symmetry_Int_Tables_number   1
_chemical_formula_structural   Cs4V2HgSe8
_chemical_formula_sum   'Cs8 V4 Hg2 Se16'
_cell_volume   1177.79054829
_cell_formula_units_Z   2
loop_
 _symmetry_equiv_pos_site_id
 _symmetry_equiv_pos_as_xyz
  1  'x, y, z'
loop_
 _atom_site_type_symbol
 _atom_site_label
 _atom_site_symmetry_multiplicity
 _atom_site_fract_x
 _atom_site_fract_y
 _atom_site_fract_z
 _atom_site_occupancy
  Cs  Cs0  1  0.142396  0.830384  0.685669  1
  Cs  Cs1  1  0.642396  0.169616  0.814331  1
  Cs  Cs2  1  0.857604  0.169616  0.314331  1
  Cs  Cs3  1  0.357604  0.830384  0.185669  1
  Cs  Cs4  1  0.347716  0.284501  0.558139  1
  Cs  Cs5  1  0.847716  0.715499  0.941861  1
  Cs  Cs6  1  0.652284  0.715499  0.441861  1
  Cs  Cs7  1  0.152284  0.284501  0.058139  1
  V  V8  1  0.439194  0.758923  0.750917  1
  V  V9  1  0.939194  0.241077  0.749083  1
  V  V10  1  0.560806  0.241077  0.249083  1
  V  V11  1  0.060806  0.758923  0.250917  1
  Hg  Hg12  1  0.000000  0.500000  0.500000  1
  Hg  Hg13  1  0.500000  0.500000  0.000000  1
  Se  Se14  1  0.103488  0.270859  0.730224  1
  Se  Se15  1  0.603488  0.729141  0.769776  1
  Se  Se16  1  0.896512  0.729141  0.269776  1
  Se  Se17  1  0.396512  0.270859  0.230224  1
  Se  Se18  1  0.391589  0.762193  0.547759  1
  Se  Se19  1  0.891589  0.237807  0.952241  1
  Se  Se20  1  0.608411  0.237807  0.452241  1
  Se  Se21  1  0.108411  0.762193  0.047759  1
  Se  Se22  1  0.144857  0.525270  0.358283  1
  Se  Se23  1  0.644857  0.474730  0.141717  1
  Se  Se24  1  0.855143  0.474730  0.641717  1
  Se  Se25  1  0.355143  0.525270  0.858283  1
  Se  Se26  1  0.387029  0.993726  0.834924  1
  Se  Se27  1  0.887029  0.006274  0.665076  1
  Se  Se28  1  0.612971  0.006274  0.165076  1
  Se  Se29  1  0.112971  0.993726  0.334924  1
