# generated using pymatgen
data_Ta12VMo5Os6
_symmetry_space_group_name_H-M   'P 1'
_cell_length_a   4.51263600
_cell_length_b   6.40279300
_cell_length_c   13.63180400
_cell_angle_alpha   90.00000000
_cell_angle_beta   90.00013485
_cell_angle_gamma   90.00000000
_symmetry_Int_Tables_number   1
_chemical_formula_structural   Ta12VMo5Os6
_chemical_formula_sum   'Ta12 V1 Mo5 Os6'
_cell_volume   393.87017707
_cell_formula_units_Z   1
loop_
 _symmetry_equiv_pos_site_id
 _symmetry_equiv_pos_as_xyz
  1  'x, y, z'
loop_
 _atom_site_type_symbol
 _atom_site_label
 _atom_site_symmetry_multiplicity
 _atom_site_fract_x
 _atom_site_fract_y
 _atom_site_fract_z
 _atom_site_occupancy
  Ta  Ta0  1  0.500000  0.251129  0.998346  1
  Ta  Ta1  1  0.500000  0.748870  0.998346  1
  Ta  Ta2  1  0.999977  0.249737  0.166341  1
  Ta  Ta3  1  0.999977  0.750264  0.166341  1
  Ta  Ta4  1  0.499979  0.250364  0.333333  1
  Ta  Ta5  1  0.499979  0.749636  0.333333  1
  Ta  Ta6  1  0.000000  0.249737  0.500326  1
  Ta  Ta7  1  0.000000  0.750263  0.500326  1
  Ta  Ta8  1  0.500022  0.251130  0.668320  1
  Ta  Ta9  1  0.500022  0.748870  0.668320  1
  Ta  Ta10  1  0.000028  0.251893  0.833333  1
  Ta  Ta11  1  0.000028  0.748108  0.833333  1
  V  V12  1  0.500003  0.499999  0.833339  1
  Mo  Mo13  1  0.000000  0.000000  0.000028  1
  Mo  Mo14  1  0.499980  0.499999  0.166676  1
  Mo  Mo15  1  0.999979  0.000000  0.333334  1
  Mo  Mo16  1  0.500000  0.499999  0.499989  1
  Mo  Mo17  1  0.000023  0.000000  0.666637  1
  Os  Os18  1  0.999999  0.499999  0.999371  1
  Os  Os19  1  0.499977  0.000000  0.166483  1
  Os  Os20  1  0.999980  0.499999  0.333331  1
  Os  Os21  1  0.500000  0.000000  0.500185  1
  Os  Os22  1  0.000023  0.499999  0.667297  1
  Os  Os23  1  0.500022  0.000000  0.833330  1
