# generated using pymatgen
data_BiF7
_symmetry_space_group_name_H-M   'P 1'
_cell_length_a   4.35431895
_cell_length_b   5.24018653
_cell_length_c   7.16398705
_cell_angle_alpha   97.84675616
_cell_angle_beta   86.75680713
_cell_angle_gamma   66.67328665
_symmetry_Int_Tables_number   1
_chemical_formula_structural   BiF7
_chemical_formula_sum   'Bi1 F7'
_cell_volume   147.59335702
_cell_formula_units_Z   1
loop_
 _symmetry_equiv_pos_site_id
 _symmetry_equiv_pos_as_xyz
  1  'x, y, z'
loop_
 _atom_site_type_symbol
 _atom_site_label
 _atom_site_symmetry_multiplicity
 _atom_site_fract_x
 _atom_site_fract_y
 _atom_site_fract_z
 _atom_site_occupancy
  Bi  Bi0  1  0.754163  0.879169  0.559985  1
  F  F1  1  0.254597  0.876732  0.560342  1
  F  F2  1  0.893698  0.544119  0.693737  1
  F  F3  1  0.595793  0.213861  0.425595  1
  F  F4  1  0.417922  0.822548  0.105638  1
  F  F5  1  0.610633  0.139455  0.812020  1
  F  F6  1  0.915246  0.617270  0.308241  1
  F  F7  1  0.113848  0.001630  0.042016  1
