# generated using pymatgen
data_Dy2YTh(CoB10)2
_symmetry_space_group_name_H-M   'P 1'
_cell_length_a   4.15642000
_cell_length_b   5.57231263
_cell_length_c   11.12125405
_cell_angle_alpha   90.12716099
_cell_angle_beta   90.00000000
_cell_angle_gamma   90.00000000
_symmetry_Int_Tables_number   1
_chemical_formula_structural   Dy2YTh(CoB10)2
_chemical_formula_sum   'Dy2 Y1 Th1 Co2 B20'
_cell_volume   257.57730310
_cell_formula_units_Z   1
loop_
 _symmetry_equiv_pos_site_id
 _symmetry_equiv_pos_as_xyz
  1  'x, y, z'
loop_
 _atom_site_type_symbol
 _atom_site_label
 _atom_site_symmetry_multiplicity
 _atom_site_fract_x
 _atom_site_fract_y
 _atom_site_fract_z
 _atom_site_occupancy
  Dy  Dy0  1  0.500000  0.700255  0.129845  1
  Dy  Dy1  1  0.500000  0.802461  0.637149  1
  Y  Y2  1  0.500000  0.301404  0.866412  1
  Th  Th3  1  0.500000  0.197196  0.366161  1
  Co  Co4  1  0.000000  0.498344  0.500060  1
  Co  Co5  1  0.000000  0.999161  0.000030  1
  B  B6  1  0.000000  0.125676  0.542008  1
  B  B7  1  0.000000  0.870341  0.461419  1
  B  B8  1  0.000000  0.627501  0.959368  1
  B  B9  1  0.000000  0.372703  0.038886  1
  B  B10  1  0.000000  0.158075  0.699763  1
  B  B11  1  0.000000  0.845060  0.302534  1
  B  B12  1  0.299803  0.201542  0.111646  1
  B  B13  1  0.300155  0.798227  0.886761  1
  B  B14  1  0.700120  0.699731  0.386221  1
  B  B15  1  0.699743  0.297494  0.614765  1
  B  B16  1  0.699845  0.798227  0.886761  1
  B  B17  1  0.700197  0.201542  0.111646  1
  B  B18  1  0.300257  0.297494  0.614765  1
  B  B19  1  0.299880  0.699731  0.386221  1
  B  B20  1  0.000000  0.031965  0.186128  1
  B  B21  1  0.000000  0.969903  0.814592  1
  B  B22  1  0.000000  0.533004  0.312546  1
  B  B23  1  0.000000  0.470350  0.686290  1
  B  B24  1  0.000000  0.344431  0.196264  1
  B  B25  1  0.000000  0.658184  0.801760  1
