# generated using pymatgen
data_K4Li2HoInBi4
_symmetry_space_group_name_H-M   'P 1'
_cell_length_a   11.07237523
_cell_length_b   11.07217831
_cell_length_c   7.14340400
_cell_angle_alpha   90.00000000
_cell_angle_beta   90.00000000
_cell_angle_gamma   99.86548188
_symmetry_Int_Tables_number   1
_chemical_formula_structural   K4Li2HoInBi4
_chemical_formula_sum   'K8 Li4 Ho2 In2 Bi8'
_cell_volume   862.79792525
_cell_formula_units_Z   2
loop_
 _symmetry_equiv_pos_site_id
 _symmetry_equiv_pos_as_xyz
  1  'x, y, z'
loop_
 _atom_site_type_symbol
 _atom_site_label
 _atom_site_symmetry_multiplicity
 _atom_site_fract_x
 _atom_site_fract_y
 _atom_site_fract_z
 _atom_site_occupancy
  K  K0  1  0.572844  0.927159  0.749996  1
  K  K1  1  0.927156  0.572841  0.249996  1
  K  K2  1  0.422740  0.077265  0.250014  1
  K  K3  1  0.077260  0.422735  0.750014  1
  K  K4  1  0.670017  0.323225  0.774257  1
  K  K5  1  0.829983  0.176775  0.274257  1
  K  K6  1  0.323225  0.670015  0.225754  1
  K  K7  1  0.176775  0.829985  0.725754  1
  Li  Li8  1  0.618757  0.618758  0.999994  1
  Li  Li9  1  0.881243  0.881242  0.499994  1
  Li  Li10  1  0.374972  0.374973  0.999997  1
  Li  Li11  1  0.125028  0.125027  0.499997  1
  Ho  Ho12  1  0.874227  0.874225  0.999999  1
  Ho  Ho13  1  0.625773  0.625775  0.499999  1
  In  In14  1  0.130111  0.130098  0.000009  1
  In  In15  1  0.369889  0.369902  0.500009  1
  Bi  Bi16  1  0.353441  0.146560  0.750000  1
  Bi  Bi17  1  0.146559  0.353440  0.250000  1
  Bi  Bi18  1  0.646639  0.853361  0.249994  1
  Bi  Bi19  1  0.853361  0.646639  0.749994  1
  Bi  Bi20  1  0.899897  0.106706  0.760857  1
  Bi  Bi21  1  0.600103  0.393294  0.260857  1
  Bi  Bi22  1  0.106703  0.899900  0.239130  1
  Bi  Bi23  1  0.393297  0.600100  0.739130  1
