# generated using pymatgen
data_CaEu9(CdRh2)2
_symmetry_space_group_name_H-M   'P 1'
_cell_length_a   9.13252178
_cell_length_b   9.13252042
_cell_length_c   9.13252100
_cell_angle_alpha   128.43389670
_cell_angle_beta   128.43388994
_cell_angle_gamma   75.92317892
_symmetry_Int_Tables_number   1
_chemical_formula_structural   CaEu9(CdRh2)2
_chemical_formula_sum   'Ca1 Eu9 Cd2 Rh4'
_cell_volume   454.46422126
_cell_formula_units_Z   1
loop_
 _symmetry_equiv_pos_site_id
 _symmetry_equiv_pos_as_xyz
  1  'x, y, z'
loop_
 _atom_site_type_symbol
 _atom_site_label
 _atom_site_symmetry_multiplicity
 _atom_site_fract_x
 _atom_site_fract_y
 _atom_site_fract_z
 _atom_site_occupancy
  Ca  Ca0  1  0.000000  0.000000  0.000000  1
  Eu  Eu1  1  0.531720  0.030601  0.825808  1
  Eu  Eu2  1  0.204794  0.705913  0.174192  1
  Eu  Eu3  1  0.030601  0.204794  0.498881  1
  Eu  Eu4  1  0.705913  0.531720  0.501119  1
  Eu  Eu5  1  0.468280  0.969399  0.174192  1
  Eu  Eu6  1  0.795206  0.294087  0.825808  1
  Eu  Eu7  1  0.969399  0.795206  0.501119  1
  Eu  Eu8  1  0.294087  0.468280  0.498881  1
  Eu  Eu9  1  0.500000  0.500000  0.000000  1
  Cd  Cd10  1  0.250737  0.250737  0.000000  1
  Cd  Cd11  1  0.749263  0.749263  0.000000  1
  Rh  Rh12  1  0.633349  0.863923  0.497271  1
  Rh  Rh13  1  0.366651  0.136077  0.502729  1
  Rh  Rh14  1  0.136077  0.633349  0.769427  1
  Rh  Rh15  1  0.863923  0.366651  0.230573  1
