# generated using pymatgen
data_YbU2Ni13B2
_symmetry_space_group_name_H-M   'P 1'
_cell_length_a   4.84710600
_cell_length_b   4.84710606
_cell_length_c   10.87659000
_cell_angle_alpha   90.00000000
_cell_angle_beta   90.00000000
_cell_angle_gamma   119.99999959
_symmetry_Int_Tables_number   1
_chemical_formula_structural   YbU2Ni13B2
_chemical_formula_sum   'Yb1 U2 Ni13 B2'
_cell_volume   221.30357580
_cell_formula_units_Z   1
loop_
 _symmetry_equiv_pos_site_id
 _symmetry_equiv_pos_as_xyz
  1  'x, y, z'
loop_
 _atom_site_type_symbol
 _atom_site_label
 _atom_site_symmetry_multiplicity
 _atom_site_fract_x
 _atom_site_fract_y
 _atom_site_fract_z
 _atom_site_occupancy
  Yb  Yb0  1  0.000000  0.000000  0.000000  1
  U  U1  1  0.000000  0.000000  0.328469  1
  U  U2  1  0.000000  0.000000  0.671531  1
  Ni  Ni3  1  0.500000  0.500000  0.132163  1
  Ni  Ni4  1  0.000000  0.500000  0.132163  1
  Ni  Ni5  1  0.500000  0.000000  0.132163  1
  Ni  Ni6  1  0.666667  0.333333  0.317194  1
  Ni  Ni7  1  0.333333  0.666667  0.317194  1
  Ni  Ni8  1  0.000000  0.500000  0.500000  1
  Ni  Ni9  1  0.500000  0.000000  0.500000  1
  Ni  Ni10  1  0.500000  0.500000  0.500000  1
  Ni  Ni11  1  0.333333  0.666667  0.682806  1
  Ni  Ni12  1  0.666667  0.333333  0.682806  1
  Ni  Ni13  1  0.500000  0.000000  0.867837  1
  Ni  Ni14  1  0.000000  0.500000  0.867837  1
  Ni  Ni15  1  0.500000  0.500000  0.867837  1
  B  B16  1  0.333333  0.666667  0.000000  1
  B  B17  1  0.666667  0.333333  0.000000  1
