# generated using pymatgen
data_Er4Ga18NiRh5
_symmetry_space_group_name_H-M   'P 1'
_cell_length_a   7.54456772
_cell_length_b   7.54456792
_cell_length_c   9.46165125
_cell_angle_alpha   90.14722597
_cell_angle_beta   90.14723057
_cell_angle_gamma   119.93230500
_symmetry_Int_Tables_number   1
_chemical_formula_structural   Er4Ga18NiRh5
_chemical_formula_sum   'Er4 Ga18 Ni1 Rh5'
_cell_volume   466.72001245
_cell_formula_units_Z   1
loop_
 _symmetry_equiv_pos_site_id
 _symmetry_equiv_pos_as_xyz
  1  'x, y, z'
loop_
 _atom_site_type_symbol
 _atom_site_label
 _atom_site_symmetry_multiplicity
 _atom_site_fract_x
 _atom_site_fract_y
 _atom_site_fract_z
 _atom_site_occupancy
  Er  Er0  1  0.996609  0.668160  0.249968  1
  Er  Er1  1  0.003391  0.331840  0.750032  1
  Er  Er2  1  0.668160  0.996609  0.249968  1
  Er  Er3  1  0.331840  0.003391  0.750032  1
  Ga  Ga4  1  0.123184  0.123184  0.247058  1
  Ga  Ga5  1  0.876816  0.876816  0.752942  1
  Ga  Ga6  1  0.999530  0.331244  0.079061  1
  Ga  Ga7  1  0.000470  0.668756  0.920939  1
  Ga  Ga8  1  0.000406  0.665969  0.579513  1
  Ga  Ga9  1  0.334031  0.999594  0.420487  1
  Ga  Ga10  1  0.999594  0.334031  0.420487  1
  Ga  Ga11  1  0.665969  0.000406  0.579513  1
  Ga  Ga12  1  0.668756  0.000470  0.920939  1
  Ga  Ga13  1  0.331244  0.999530  0.079061  1
  Ga  Ga14  1  0.332602  0.332602  0.564643  1
  Ga  Ga15  1  0.667398  0.667398  0.435357  1
  Ga  Ga16  1  0.670168  0.670168  0.064180  1
  Ga  Ga17  1  0.329832  0.329832  0.935820  1
  Ga  Ga18  1  0.338230  0.547241  0.249919  1
  Ga  Ga19  1  0.661770  0.452759  0.750081  1
  Ga  Ga20  1  0.547241  0.338230  0.249919  1
  Ga  Ga21  1  0.452759  0.661770  0.750081  1
  Ni  Ni22  1  0.000000  0.000000  0.000000  1
  Rh  Rh23  1  0.671839  0.328161  0.000000  1
  Rh  Rh24  1  0.328161  0.671839  0.000000  1
  Rh  Rh25  1  0.328206  0.671794  0.500000  1
  Rh  Rh26  1  0.671794  0.328206  0.500000  1
  Rh  Rh27  1  0.000000  0.000000  0.500000  1
