# generated using pymatgen
data_Hf4Zr6Zn2SnBi5
_symmetry_space_group_name_H-M   'P 1'
_cell_length_a   8.81052295
_cell_length_b   8.78599892
_cell_length_c   5.93037700
_cell_angle_alpha   90.00000000
_cell_angle_beta   90.00000000
_cell_angle_gamma   119.90796197
_symmetry_Int_Tables_number   1
_chemical_formula_structural   Hf4Zr6Zn2SnBi5
_chemical_formula_sum   'Hf4 Zr6 Zn2 Sn1 Bi5'
_cell_volume   397.93102504
_cell_formula_units_Z   1
loop_
 _symmetry_equiv_pos_site_id
 _symmetry_equiv_pos_as_xyz
  1  'x, y, z'
loop_
 _atom_site_type_symbol
 _atom_site_label
 _atom_site_symmetry_multiplicity
 _atom_site_fract_x
 _atom_site_fract_y
 _atom_site_fract_z
 _atom_site_occupancy
  Hf  Hf0  1  0.670336  0.334046  0.001733  1
  Hf  Hf1  1  0.329664  0.663711  0.001733  1
  Hf  Hf2  1  0.329664  0.663711  0.498267  1
  Hf  Hf3  1  0.670336  0.334046  0.498267  1
  Zr  Zr4  1  0.734615  0.734257  0.750000  1
  Zr  Zr5  1  0.265385  0.999642  0.750000  1
  Zr  Zr6  1  0.000000  0.266217  0.750000  1
  Zr  Zr7  1  0.263674  0.268713  0.250000  1
  Zr  Zr8  1  0.736326  0.005039  0.250000  1
  Zr  Zr9  1  0.000000  0.730681  0.250000  1
  Zn  Zn10  1  0.000000  0.000015  0.001808  1
  Zn  Zn11  1  0.000000  0.000015  0.498192  1
  Sn  Sn12  1  0.000000  0.385382  0.250000  1
  Bi  Bi13  1  0.386078  0.385315  0.750000  1
  Bi  Bi14  1  0.613922  0.999237  0.750000  1
  Bi  Bi15  1  0.000000  0.613272  0.750000  1
  Bi  Bi16  1  0.615390  0.616048  0.250000  1
  Bi  Bi17  1  0.384610  0.000658  0.250000  1
