# generated using pymatgen
data_Zr10In3Ga2Sb3
_symmetry_space_group_name_H-M   'P 1'
_cell_length_a   8.74193900
_cell_length_b   8.74193940
_cell_length_c   5.89332800
_cell_angle_alpha   90.00000000
_cell_angle_beta   90.00000000
_cell_angle_gamma   119.99999471
_symmetry_Int_Tables_number   1
_chemical_formula_structural   Zr10In3Ga2Sb3
_chemical_formula_sum   'Zr10 In3 Ga2 Sb3'
_cell_volume   390.03791928
_cell_formula_units_Z   1
loop_
 _symmetry_equiv_pos_site_id
 _symmetry_equiv_pos_as_xyz
  1  'x, y, z'
loop_
 _atom_site_type_symbol
 _atom_site_label
 _atom_site_symmetry_multiplicity
 _atom_site_fract_x
 _atom_site_fract_y
 _atom_site_fract_z
 _atom_site_occupancy
  Zr  Zr0  1  0.666667  0.333333  0.997718  1
  Zr  Zr1  1  0.333333  0.666667  0.997718  1
  Zr  Zr2  1  0.333333  0.666667  0.502282  1
  Zr  Zr3  1  0.666667  0.333333  0.502282  1
  Zr  Zr4  1  0.725965  0.725965  0.750000  1
  Zr  Zr5  1  0.274035  0.000000  0.750000  1
  Zr  Zr6  1  0.000000  0.274035  0.750000  1
  Zr  Zr7  1  0.261844  0.261844  0.250000  1
  Zr  Zr8  1  0.738156  0.000000  0.250000  1
  Zr  Zr9  1  0.000000  0.738156  0.250000  1
  In  In10  1  0.381648  0.381648  0.750000  1
  In  In11  1  0.618352  0.000000  0.750000  1
  In  In12  1  0.000000  0.618352  0.750000  1
  Ga  Ga13  1  0.000000  0.000000  0.515905  1
  Ga  Ga14  1  0.000000  0.000000  0.984095  1
  Sb  Sb15  1  0.608182  0.608182  0.250000  1
  Sb  Sb16  1  0.391818  0.000000  0.250000  1
  Sb  Sb17  1  0.000000  0.391818  0.250000  1
