# generated using pymatgen
data_La7Yb13Pd16
_symmetry_space_group_name_H-M   'P 1'
_cell_length_a   7.63131423
_cell_length_b   7.80776597
_cell_length_c   14.85019970
_cell_angle_alpha   90.06694659
_cell_angle_beta   89.99297845
_cell_angle_gamma   90.18684726
_symmetry_Int_Tables_number   1
_chemical_formula_structural   La7Yb13Pd16
_chemical_formula_sum   'La7 Yb13 Pd16'
_cell_volume   884.82179015
_cell_formula_units_Z   1
loop_
 _symmetry_equiv_pos_site_id
 _symmetry_equiv_pos_as_xyz
  1  'x, y, z'
loop_
 _atom_site_type_symbol
 _atom_site_label
 _atom_site_symmetry_multiplicity
 _atom_site_fract_x
 _atom_site_fract_y
 _atom_site_fract_z
 _atom_site_occupancy
  La  La0  1  0.493521  0.320768  0.400266  1
  La  La1  1  0.506143  0.679022  0.904350  1
  La  La2  1  0.007294  0.821303  0.597726  1
  La  La3  1  0.006111  0.826061  0.904114  1
  La  La4  1  0.506682  0.677763  0.597307  1
  La  La5  1  0.493933  0.319980  0.097912  1
  La  La6  1  0.992671  0.177038  0.401934  1
  Yb  Yb7  1  0.830830  0.665633  0.123478  1
  Yb  Yb8  1  0.330928  0.834045  0.375450  1
  Yb  Yb9  1  0.668143  0.166850  0.877254  1
  Yb  Yb10  1  0.168589  0.334152  0.623640  1
  Yb  Yb11  1  0.166972  0.332021  0.878264  1
  Yb  Yb12  1  0.668492  0.166303  0.623345  1
  Yb  Yb13  1  0.328203  0.835440  0.123301  1
  Yb  Yb14  1  0.831293  0.665580  0.375779  1
  Yb  Yb15  1  0.993679  0.179539  0.098162  1
  Yb  Yb16  1  0.671910  0.999108  0.247853  1
  Yb  Yb17  1  0.166867  0.500431  0.248233  1
  Yb  Yb18  1  0.830998  0.498828  0.750898  1
  Yb  Yb19  1  0.330946  0.002238  0.750516  1
  Pd  Pd20  1  0.034692  0.887274  0.250027  1
  Pd  Pd21  1  0.535403  0.611589  0.248922  1
  Pd  Pd22  1  0.463443  0.386773  0.750492  1
  Pd  Pd23  1  0.963974  0.114041  0.750192  1
  Pd  Pd24  1  0.796585  0.355317  0.251418  1
  Pd  Pd25  1  0.292296  0.143691  0.248776  1
  Pd  Pd26  1  0.705194  0.857166  0.749884  1
  Pd  Pd27  1  0.204628  0.643805  0.750644  1
  Pd  Pd28  1  0.824901  0.468372  0.961801  1
  Pd  Pd29  1  0.323816  0.031482  0.539533  1
  Pd  Pd30  1  0.675863  0.966554  0.039976  1
  Pd  Pd31  1  0.177088  0.531747  0.460702  1
  Pd  Pd32  1  0.174712  0.531892  0.039076  1
  Pd  Pd33  1  0.676037  0.967331  0.460496  1
  Pd  Pd34  1  0.331326  0.031961  0.958556  1
  Pd  Pd35  1  0.825837  0.468902  0.539723  1
