# generated using pymatgen
data_Pa2Al20CrOs3
_symmetry_space_group_name_H-M   'P 1'
_cell_length_a   6.84341137
_cell_length_b   6.84929544
_cell_length_c   9.12326615
_cell_angle_alpha   89.82500578
_cell_angle_beta   89.83510044
_cell_angle_gamma   97.52008339
_symmetry_Int_Tables_number   1
_chemical_formula_structural   Pa2Al20CrOs3
_chemical_formula_sum   'Pa2 Al20 Cr1 Os3'
_cell_volume   423.94838960
_cell_formula_units_Z   1
loop_
 _symmetry_equiv_pos_site_id
 _symmetry_equiv_pos_as_xyz
  1  'x, y, z'
loop_
 _atom_site_type_symbol
 _atom_site_label
 _atom_site_symmetry_multiplicity
 _atom_site_fract_x
 _atom_site_fract_y
 _atom_site_fract_z
 _atom_site_occupancy
  Pa  Pa0  1  0.865413  0.124326  0.754120  1
  Pa  Pa1  1  0.134587  0.875674  0.245880  1
  Al  Al2  1  0.516941  0.782179  0.752818  1
  Al  Al3  1  0.782728  0.519826  0.250346  1
  Al  Al4  1  0.483059  0.217821  0.247182  1
  Al  Al5  1  0.217272  0.480174  0.749654  1
  Al  Al6  1  0.621265  0.372802  0.955236  1
  Al  Al7  1  0.378735  0.627198  0.044764  1
  Al  Al8  1  0.623086  0.376710  0.546407  1
  Al  Al9  1  0.376914  0.623290  0.453593  1
  Al  Al10  1  0.410702  0.143519  0.753036  1
  Al  Al11  1  0.145006  0.409043  0.249869  1
  Al  Al12  1  0.589298  0.856481  0.246964  1
  Al  Al13  1  0.854994  0.590957  0.750131  1
  Al  Al14  1  0.845810  0.155210  0.397543  1
  Al  Al15  1  0.154190  0.844790  0.602457  1
  Al  Al16  1  0.841342  0.154345  0.101482  1
  Al  Al17  1  0.158658  0.845655  0.898518  1
  Al  Al18  1  0.774500  0.779258  0.998177  1
  Al  Al19  1  0.778945  0.779175  0.498957  1
  Al  Al20  1  0.225500  0.220742  0.001823  1
  Al  Al21  1  0.221055  0.220825  0.501043  1
  Cr  Cr22  1  0.500000  0.000000  0.000000  1
  Os  Os23  1  0.000000  0.500000  0.000000  1
  Os  Os24  1  0.500000  0.000000  0.500000  1
  Os  Os25  1  0.000000  0.500000  0.500000  1
