# generated using pymatgen
data_Rb6Ti2S6O
_symmetry_space_group_name_H-M   'P 1'
_cell_length_a   10.80375800
_cell_length_b   8.05237622
_cell_length_c   13.22762900
_cell_angle_alpha   54.49378275
_cell_angle_beta   90.00000000
_cell_angle_gamma   90.00000000
_symmetry_Int_Tables_number   1
_chemical_formula_structural   Rb6Ti2S6O
_chemical_formula_sum   'Rb12 Ti4 S12 O2'
_cell_volume   936.77075850
_cell_formula_units_Z   2
loop_
 _symmetry_equiv_pos_site_id
 _symmetry_equiv_pos_as_xyz
  1  'x, y, z'
loop_
 _atom_site_type_symbol
 _atom_site_label
 _atom_site_symmetry_multiplicity
 _atom_site_fract_x
 _atom_site_fract_y
 _atom_site_fract_z
 _atom_site_occupancy
  Rb  Rb0  1  0.784018  0.573825  0.290576  1
  Rb  Rb1  1  0.660983  0.973656  0.909365  1
  Rb  Rb2  1  0.532710  0.178616  0.577874  1
  Rb  Rb3  1  0.032710  0.821384  0.922126  1
  Rb  Rb4  1  0.284018  0.426175  0.209424  1
  Rb  Rb5  1  0.160983  0.026344  0.590635  1
  Rb  Rb6  1  0.839017  0.973656  0.409365  1
  Rb  Rb7  1  0.715982  0.573825  0.790576  1
  Rb  Rb8  1  0.967290  0.178616  0.077874  1
  Rb  Rb9  1  0.467290  0.821384  0.422126  1
  Rb  Rb10  1  0.339017  0.026344  0.090635  1
  Rb  Rb11  1  0.215982  0.426175  0.709424  1
  Ti  Ti12  1  0.879161  0.343051  0.617975  1
  Ti  Ti13  1  0.379161  0.656949  0.882025  1
  Ti  Ti14  1  0.620839  0.343051  0.117975  1
  Ti  Ti15  1  0.120839  0.656949  0.382025  1
  S  S16  1  0.070102  0.727076  0.195799  1
  S  S17  1  0.297611  0.475237  0.442508  1
  S  S18  1  0.349264  0.954959  0.862335  1
  S  S19  1  0.849264  0.045041  0.637665  1
  S  S20  1  0.797611  0.524763  0.057492  1
  S  S21  1  0.570102  0.272924  0.304201  1
  S  S22  1  0.429898  0.727076  0.695799  1
  S  S23  1  0.202389  0.475237  0.942508  1
  S  S24  1  0.150736  0.954959  0.362335  1
  S  S25  1  0.650736  0.045041  0.137665  1
  S  S26  1  0.702389  0.524763  0.557492  1
  S  S27  1  0.929898  0.272924  0.804201  1
  O  O28  1  0.000000  0.500000  0.500000  1
  O  O29  1  0.500000  0.500000  0.000000  1
