# generated using pymatgen
data_Be2AlSiRh4
_symmetry_space_group_name_H-M   'P 1'
_cell_length_a   4.08490400
_cell_length_b   5.79197800
_cell_length_c   12.24415400
_cell_angle_alpha   90.00000000
_cell_angle_beta   90.00202065
_cell_angle_gamma   90.00000000
_symmetry_Int_Tables_number   1
_chemical_formula_structural   Be2AlSiRh4
_chemical_formula_sum   'Be6 Al3 Si3 Rh12'
_cell_volume   289.69269318
_cell_formula_units_Z   3
loop_
 _symmetry_equiv_pos_site_id
 _symmetry_equiv_pos_as_xyz
  1  'x, y, z'
loop_
 _atom_site_type_symbol
 _atom_site_label
 _atom_site_symmetry_multiplicity
 _atom_site_fract_x
 _atom_site_fract_y
 _atom_site_fract_z
 _atom_site_occupancy
  Be  Be0  1  0.999990  0.500000  0.004989  1
  Be  Be1  1  0.499618  0.000000  0.166669  1
  Be  Be2  1  0.999659  0.500000  0.328341  1
  Be  Be3  1  0.499988  0.000000  0.496095  1
  Be  Be4  1  0.000400  0.500000  0.666668  1
  Be  Be5  1  0.500327  0.000000  0.837233  1
  Al  Al6  1  0.000016  0.000000  0.999072  1
  Al  Al7  1  0.499760  0.500000  0.166668  1
  Al  Al8  1  0.999764  0.000000  0.334261  1
  Si  Si9  1  0.500011  0.500000  0.500213  1
  Si  Si10  1  0.000254  0.000000  0.666667  1
  Si  Si11  1  0.500273  0.500000  0.833121  1
  Rh  Rh12  1  0.500017  0.254010  0.994377  1
  Rh  Rh13  1  0.500017  0.745990  0.994377  1
  Rh  Rh14  1  0.999785  0.249032  0.166667  1
  Rh  Rh15  1  0.999785  0.750969  0.166667  1
  Rh  Rh16  1  0.499800  0.254013  0.338957  1
  Rh  Rh17  1  0.499800  0.745988  0.338957  1
  Rh  Rh18  1  0.000012  0.253076  0.505672  1
  Rh  Rh19  1  0.000012  0.746925  0.505672  1
  Rh  Rh20  1  0.500165  0.249640  0.666668  1
  Rh  Rh21  1  0.500165  0.750361  0.666668  1
  Rh  Rh22  1  0.000190  0.253077  0.827660  1
  Rh  Rh23  1  0.000190  0.746924  0.827660  1
