# generated using pymatgen
data_Tm2MoRuC3
_symmetry_space_group_name_H-M   'P 1'
_cell_length_a   5.95835403
_cell_length_b   5.95835373
_cell_length_c   5.62544089
_cell_angle_alpha   68.58682131
_cell_angle_beta   68.58682396
_cell_angle_gamma   32.51791022
_symmetry_Int_Tables_number   1
_chemical_formula_structural   Tm2MoRuC3
_chemical_formula_sum   'Tm2 Mo1 Ru1 C3'
_cell_volume   99.29241492
_cell_formula_units_Z   1
loop_
 _symmetry_equiv_pos_site_id
 _symmetry_equiv_pos_as_xyz
  1  'x, y, z'
loop_
 _atom_site_type_symbol
 _atom_site_label
 _atom_site_symmetry_multiplicity
 _atom_site_fract_x
 _atom_site_fract_y
 _atom_site_fract_z
 _atom_site_occupancy
  Tm  Tm0  1  0.610470  0.610470  0.176911  1
  Tm  Tm1  1  0.390814  0.390814  0.832543  1
  Mo  Mo2  1  0.156841  0.156841  0.675362  1
  Ru  Ru3  1  0.841951  0.841951  0.320550  1
  C  C4  1  0.754723  0.754723  0.730966  1
  C  C5  1  0.246873  0.246873  0.266386  1
  C  C6  1  0.998328  0.998328  0.997281  1
