# generated using pymatgen
data_HfU7Nb11Si16Ru
_symmetry_space_group_name_H-M   'P 1'
_cell_length_a   7.01643532
_cell_length_b   7.01171053
_cell_length_c   12.91470180
_cell_angle_alpha   90.10685140
_cell_angle_beta   90.25715649
_cell_angle_gamma   89.70300492
_symmetry_Int_Tables_number   1
_chemical_formula_structural   HfU7Nb11Si16Ru
_chemical_formula_sum   'Hf1 U7 Nb11 Si16 Ru1'
_cell_volume   635.35132700
_cell_formula_units_Z   1
loop_
 _symmetry_equiv_pos_site_id
 _symmetry_equiv_pos_as_xyz
  1  'x, y, z'
loop_
 _atom_site_type_symbol
 _atom_site_label
 _atom_site_symmetry_multiplicity
 _atom_site_fract_x
 _atom_site_fract_y
 _atom_site_fract_z
 _atom_site_occupancy
  Hf  Hf0  1  0.002950  0.339532  0.217796  1
  U  U1  1  0.007897  0.670010  0.721133  1
  U  U2  1  0.168275  0.493519  0.470524  1
  U  U3  1  0.509304  0.832083  0.032499  1
  U  U4  1  0.830792  0.508349  0.967869  1
  U  U5  1  0.493686  0.169373  0.529397  1
  U  U6  1  0.329673  0.992357  0.782108  1
  U  U7  1  0.661575  0.000461  0.278244  1
  Nb  Nb8  1  0.831672  0.830654  0.498477  1
  Nb  Nb9  1  0.330965  0.668837  0.248273  1
  Nb  Nb10  1  0.668985  0.331406  0.751775  1
  Nb  Nb11  1  0.154071  0.998163  0.371766  1
  Nb  Nb12  1  0.840644  0.000597  0.875866  1
  Nb  Nb13  1  0.500893  0.654287  0.624941  1
  Nb  Nb14  1  0.345529  0.503363  0.876176  1
  Nb  Nb15  1  0.501687  0.343181  0.125795  1
  Nb  Nb16  1  0.653704  0.497646  0.373975  1
  Nb  Nb17  1  0.999218  0.156225  0.625918  1
  Nb  Nb18  1  0.997906  0.840612  0.126590  1
  Si  Si19  1  0.289094  0.046926  0.180310  1
  Si  Si20  1  0.702656  0.960985  0.684368  1
  Si  Si21  1  0.458880  0.795724  0.434520  1
  Si  Si22  1  0.202946  0.534162  0.063726  1
  Si  Si23  1  0.537903  0.205092  0.937757  1
  Si  Si24  1  0.797086  0.459594  0.565010  1
  Si  Si25  1  0.043262  0.294908  0.819177  1
  Si  Si26  1  0.960018  0.697552  0.314711  1
  Si  Si27  1  0.364116  0.292033  0.314694  1
  Si  Si28  1  0.628805  0.708905  0.815043  1
  Si  Si29  1  0.206862  0.870726  0.565715  1
  Si  Si30  1  0.129143  0.797556  0.937366  1
  Si  Si31  1  0.805382  0.136356  0.068168  1
  Si  Si32  1  0.870079  0.206598  0.429113  1
  Si  Si33  1  0.293174  0.369347  0.685589  1
  Si  Si34  1  0.711898  0.623221  0.184346  1
  Ru  Ru35  1  0.169268  0.169659  0.001263  1
