# generated using pymatgen
data_CdInGaTe4
_symmetry_space_group_name_H-M   'P 1'
_cell_length_a   7.65474390
_cell_length_b   7.65474258
_cell_length_c   7.65474277
_cell_angle_alpha   131.41876846
_cell_angle_beta   131.41877360
_cell_angle_gamma   71.14858266
_symmetry_Int_Tables_number   1
_chemical_formula_structural   CdInGaTe4
_chemical_formula_sum   'Cd1 In1 Ga1 Te4'
_cell_volume   246.93944090
_cell_formula_units_Z   1
loop_
 _symmetry_equiv_pos_site_id
 _symmetry_equiv_pos_as_xyz
  1  'x, y, z'
loop_
 _atom_site_type_symbol
 _atom_site_label
 _atom_site_symmetry_multiplicity
 _atom_site_fract_x
 _atom_site_fract_y
 _atom_site_fract_z
 _atom_site_occupancy
  Cd  Cd0  1  0.000000  0.000000  0.000000  1
  In  In1  1  0.250000  0.750000  0.500000  1
  Ga  Ga2  1  0.500000  0.500000  0.000000  1
  Te  Te3  1  0.626582  0.156039  0.047564  1
  Te  Te4  1  0.420981  0.373418  0.529456  1
  Te  Te5  1  0.843961  0.891525  0.470544  1
  Te  Te6  1  0.108475  0.579019  0.952436  1
