# generated using pymatgen
data_Pr3Nd5Cd2RuPt
_symmetry_space_group_name_H-M   'P 1'
_cell_length_a   10.00545239
_cell_length_b   10.00545271
_cell_length_c   10.05550100
_cell_angle_alpha   59.83438348
_cell_angle_beta   59.83438240
_cell_angle_gamma   59.89053815
_symmetry_Int_Tables_number   1
_chemical_formula_structural   Pr3Nd5Cd2RuPt
_chemical_formula_sum   'Pr6 Nd10 Cd4 Ru2 Pt2'
_cell_volume   709.43353930
_cell_formula_units_Z   2
loop_
 _symmetry_equiv_pos_site_id
 _symmetry_equiv_pos_as_xyz
  1  'x, y, z'
loop_
 _atom_site_type_symbol
 _atom_site_label
 _atom_site_symmetry_multiplicity
 _atom_site_fract_x
 _atom_site_fract_y
 _atom_site_fract_z
 _atom_site_occupancy
  Pr  Pr0  1  0.938144  0.558699  0.564111  1
  Pr  Pr1  1  0.558699  0.938144  0.939046  1
  Pr  Pr2  1  0.558699  0.938144  0.564111  1
  Pr  Pr3  1  0.938144  0.558699  0.939046  1
  Pr  Pr4  1  0.562154  0.562154  0.937846  1
  Pr  Pr5  1  0.938447  0.938447  0.561553  1
  Nd  Nd6  1  0.347277  0.347277  0.353854  1
  Nd  Nd7  1  0.347277  0.347277  0.951591  1
  Nd  Nd8  1  0.343938  0.956649  0.349707  1
  Nd  Nd9  1  0.956649  0.343938  0.349707  1
  Nd  Nd10  1  0.815306  0.189835  0.190318  1
  Nd  Nd11  1  0.189835  0.815306  0.804540  1
  Nd  Nd12  1  0.189835  0.815306  0.190318  1
  Nd  Nd13  1  0.815306  0.189835  0.804540  1
  Nd  Nd14  1  0.189132  0.189132  0.810868  1
  Nd  Nd15  1  0.806907  0.806907  0.193093  1
  Cd  Cd16  1  0.579683  0.579683  0.579890  1
  Cd  Cd17  1  0.579683  0.579683  0.260741  1
  Cd  Cd18  1  0.580392  0.259365  0.580121  1
  Cd  Cd19  1  0.259365  0.580392  0.580121  1
  Ru  Ru20  1  0.142890  0.142890  0.137430  1
  Ru  Ru21  1  0.142890  0.142890  0.576790  1
  Pt  Pt22  1  0.145289  0.574055  0.140328  1
  Pt  Pt23  1  0.574055  0.145289  0.140328  1
