# generated using pymatgen
data_CaNd3Sc6(Si5Ir2)4
_symmetry_space_group_name_H-M   'P 1'
_cell_length_a   12.56240949
_cell_length_b   12.56240948
_cell_length_c   4.18869900
_cell_angle_alpha   90.00000000
_cell_angle_beta   90.00000000
_cell_angle_gamma   90.02314656
_symmetry_Int_Tables_number   1
_chemical_formula_structural   CaNd3Sc6(Si5Ir2)4
_chemical_formula_sum   'Ca1 Nd3 Sc6 Si20 Ir8'
_cell_volume   661.03584336
_cell_formula_units_Z   1
loop_
 _symmetry_equiv_pos_site_id
 _symmetry_equiv_pos_as_xyz
  1  'x, y, z'
loop_
 _atom_site_type_symbol
 _atom_site_label
 _atom_site_symmetry_multiplicity
 _atom_site_fract_x
 _atom_site_fract_y
 _atom_site_fract_z
 _atom_site_occupancy
  Ca  Ca0  1  0.385068  0.114932  0.500000  1
  Nd  Nd1  1  0.115641  0.615768  0.500000  1
  Nd  Nd2  1  0.884232  0.384359  0.500000  1
  Nd  Nd3  1  0.615856  0.884144  0.500000  1
  Sc  Sc4  1  0.673598  0.175697  0.500000  1
  Sc  Sc5  1  0.324303  0.826402  0.500000  1
  Sc  Sc6  1  0.174448  0.325552  0.500000  1
  Sc  Sc7  1  0.825255  0.674745  0.500000  1
  Sc  Sc8  1  0.000581  0.000191  0.000000  1
  Sc  Sc9  1  0.499809  0.499419  0.000000  1
  Si  Si10  1  0.568588  0.068847  0.000000  1
  Si  Si11  1  0.431153  0.931412  0.000000  1
  Si  Si12  1  0.069085  0.430915  0.000000  1
  Si  Si13  1  0.931039  0.568961  0.000000  1
  Si  Si14  1  0.201381  0.164956  0.000000  1
  Si  Si15  1  0.799858  0.834957  0.000000  1
  Si  Si16  1  0.165013  0.799971  0.000000  1
  Si  Si17  1  0.700029  0.334987  0.000000  1
  Si  Si18  1  0.835171  0.200198  0.000000  1
  Si  Si19  1  0.299802  0.664829  0.000000  1
  Si  Si20  1  0.665043  0.700142  0.000000  1
  Si  Si21  1  0.335044  0.298619  0.000000  1
  Si  Si22  1  0.008967  0.150124  0.500000  1
  Si  Si23  1  0.992037  0.850391  0.500000  1
  Si  Si24  1  0.150431  0.992132  0.500000  1
  Si  Si25  1  0.507868  0.349569  0.500000  1
  Si  Si26  1  0.850799  0.009999  0.500000  1
  Si  Si27  1  0.490001  0.649201  0.500000  1
  Si  Si28  1  0.649609  0.507963  0.500000  1
  Si  Si29  1  0.349876  0.491033  0.500000  1
  Ir  Ir30  1  0.023248  0.241620  0.000000  1
  Ir  Ir31  1  0.976996  0.758495  0.000000  1
  Ir  Ir32  1  0.242598  0.977716  0.000000  1
  Ir  Ir33  1  0.522284  0.257402  0.000000  1
  Ir  Ir34  1  0.758141  0.022742  0.000000  1
  Ir  Ir35  1  0.477258  0.741859  0.000000  1
  Ir  Ir36  1  0.741505  0.523004  0.000000  1
  Ir  Ir37  1  0.258380  0.476752  0.000000  1
