# generated using pymatgen
data_Hf6Al6Pd3PtRh2
_symmetry_space_group_name_H-M   'P 1'
_cell_length_a   7.27876800
_cell_length_b   7.27876664
_cell_length_c   6.82690500
_cell_angle_alpha   90.00000000
_cell_angle_beta   90.00000000
_cell_angle_gamma   119.99999710
_symmetry_Int_Tables_number   1
_chemical_formula_structural   Hf6Al6Pd3PtRh2
_chemical_formula_sum   'Hf6 Al6 Pd3 Pt1 Rh2'
_cell_volume   313.23492339
_cell_formula_units_Z   1
loop_
 _symmetry_equiv_pos_site_id
 _symmetry_equiv_pos_as_xyz
  1  'x, y, z'
loop_
 _atom_site_type_symbol
 _atom_site_label
 _atom_site_symmetry_multiplicity
 _atom_site_fract_x
 _atom_site_fract_y
 _atom_site_fract_z
 _atom_site_occupancy
  Hf  Hf0  1  0.744554  0.057531  0.999575  1
  Hf  Hf1  1  0.312976  0.255446  0.999575  1
  Hf  Hf2  1  0.942469  0.687024  0.999575  1
  Hf  Hf3  1  0.333641  0.264534  0.500541  1
  Hf  Hf4  1  0.735466  0.069107  0.500541  1
  Hf  Hf5  1  0.930893  0.666359  0.500541  1
  Al  Al6  1  0.595818  0.663026  0.750022  1
  Al  Al7  1  0.067207  0.404182  0.750022  1
  Al  Al8  1  0.336974  0.932793  0.750022  1
  Al  Al9  1  0.595308  0.662796  0.250455  1
  Al  Al10  1  0.067488  0.404692  0.250455  1
  Al  Al11  1  0.337204  0.932512  0.250455  1
  Pd  Pd12  1  0.333333  0.666667  0.999334  1
  Pd  Pd13  1  0.333333  0.666667  0.500978  1
  Pd  Pd14  1  0.666667  0.333333  0.230802  1
  Pt  Pt15  1  0.666667  0.333333  0.767098  1
  Rh  Rh16  1  0.000000  0.000000  0.262710  1
  Rh  Rh17  1  0.000000  0.000000  0.737298  1
