# generated using pymatgen
data_Nd3Cd3Ag2Au
_symmetry_space_group_name_H-M   'P 1'
_cell_length_a   8.06388400
_cell_length_b   8.06388316
_cell_length_c   3.98854500
_cell_angle_alpha   90.00000000
_cell_angle_beta   90.00000000
_cell_angle_gamma   119.99999526
_symmetry_Int_Tables_number   1
_chemical_formula_structural   Nd3Cd3Ag2Au
_chemical_formula_sum   'Nd3 Cd3 Ag2 Au1'
_cell_volume   224.61235782
_cell_formula_units_Z   1
loop_
 _symmetry_equiv_pos_site_id
 _symmetry_equiv_pos_as_xyz
  1  'x, y, z'
loop_
 _atom_site_type_symbol
 _atom_site_label
 _atom_site_symmetry_multiplicity
 _atom_site_fract_x
 _atom_site_fract_y
 _atom_site_fract_z
 _atom_site_occupancy
  Nd  Nd0  1  0.595115  0.008045  0.000000  1
  Nd  Nd1  1  0.991955  0.587070  0.000000  1
  Nd  Nd2  1  0.412930  0.404885  0.000000  1
  Cd  Cd3  1  0.258125  0.996603  0.500000  1
  Cd  Cd4  1  0.003397  0.261522  0.500000  1
  Cd  Cd5  1  0.738478  0.741875  0.500000  1
  Ag  Ag6  1  0.333333  0.666667  0.500000  1
  Ag  Ag7  1  0.000000  0.000000  0.000000  1
  Au  Au8  1  0.666667  0.333333  0.500000  1
