# generated using pymatgen
data_LaCeSiPdI2
_symmetry_space_group_name_H-M   'P 1'
_cell_length_a   4.36151400
_cell_length_b   4.36151407
_cell_length_c   11.94059900
_cell_angle_alpha   90.00000000
_cell_angle_beta   90.00000000
_cell_angle_gamma   119.99999949
_symmetry_Int_Tables_number   1
_chemical_formula_structural   LaCeSiPdI2
_chemical_formula_sum   'La1 Ce1 Si1 Pd1 I2'
_cell_volume   196.71220022
_cell_formula_units_Z   1
loop_
 _symmetry_equiv_pos_site_id
 _symmetry_equiv_pos_as_xyz
  1  'x, y, z'
loop_
 _atom_site_type_symbol
 _atom_site_label
 _atom_site_symmetry_multiplicity
 _atom_site_fract_x
 _atom_site_fract_y
 _atom_site_fract_z
 _atom_site_occupancy
  La  La0  1  0.000000  0.000000  0.841503  1
  Ce  Ce1  1  0.000000  0.000000  0.158931  1
  Si  Si2  1  0.666667  0.333333  0.012463  1
  Pd  Pd3  1  0.333333  0.666667  0.996117  1
  I  I4  1  0.333333  0.666667  0.332647  1
  I  I5  1  0.666667  0.333333  0.658340  1
