# generated using pymatgen
data_Pr5MnPtO12
_symmetry_space_group_name_H-M   'P 1'
_cell_length_a   7.13089353
_cell_length_b   7.13089200
_cell_length_c   7.62773507
_cell_angle_alpha   74.55544580
_cell_angle_beta   74.55545699
_cell_angle_gamma   50.28316682
_symmetry_Int_Tables_number   1
_chemical_formula_structural   Pr5MnPtO12
_chemical_formula_sum   'Pr5 Mn1 Pt1 O12'
_cell_volume   285.15061522
_cell_formula_units_Z   1
loop_
 _symmetry_equiv_pos_site_id
 _symmetry_equiv_pos_as_xyz
  1  'x, y, z'
loop_
 _atom_site_type_symbol
 _atom_site_label
 _atom_site_symmetry_multiplicity
 _atom_site_fract_x
 _atom_site_fract_y
 _atom_site_fract_z
 _atom_site_occupancy
  Pr  Pr0  1  0.310451  0.300200  0.357142  1
  Pr  Pr1  1  0.699800  0.689549  0.642858  1
  Pr  Pr2  1  0.694359  0.694647  0.164144  1
  Pr  Pr3  1  0.305353  0.305641  0.835856  1
  Pr  Pr4  1  0.999158  0.000842  0.500000  1
  Mn  Mn5  1  0.752928  0.247072  0.000000  1
  Pt  Pt6  1  0.243101  0.756899  0.000000  1
  O  O7  1  0.097888  0.596254  0.576424  1
  O  O8  1  0.988172  0.010494  0.171801  1
  O  O9  1  0.403746  0.902112  0.423576  1
  O  O10  1  0.506585  0.494149  0.171134  1
  O  O11  1  0.097534  0.580618  0.079096  1
  O  O12  1  0.906554  0.401727  0.422384  1
  O  O13  1  0.989506  0.011828  0.828199  1
  O  O14  1  0.598273  0.093445  0.577616  1
  O  O15  1  0.505851  0.493415  0.828866  1
  O  O16  1  0.584499  0.103141  0.077242  1
  O  O17  1  0.419382  0.902466  0.920904  1
  O  O18  1  0.896859  0.415501  0.922758  1
