# generated using pymatgen
data_Th3TcPd3
_symmetry_space_group_name_H-M   'P 1'
_cell_length_a   8.00832355
_cell_length_b   8.00832418
_cell_length_c   8.00832348
_cell_angle_alpha   113.73589351
_cell_angle_beta   113.73590485
_cell_angle_gamma   113.73589649
_symmetry_Int_Tables_number   1
_chemical_formula_structural   Th3TcPd3
_chemical_formula_sum   'Th6 Tc2 Pd6'
_cell_volume   318.05629804
_cell_formula_units_Z   2
loop_
 _symmetry_equiv_pos_site_id
 _symmetry_equiv_pos_as_xyz
  1  'x, y, z'
loop_
 _atom_site_type_symbol
 _atom_site_label
 _atom_site_symmetry_multiplicity
 _atom_site_fract_x
 _atom_site_fract_y
 _atom_site_fract_z
 _atom_site_occupancy
  Th  Th0  1  0.400578  0.043639  0.282567  1
  Th  Th1  1  0.043639  0.282567  0.400578  1
  Th  Th2  1  0.282567  0.400578  0.043639  1
  Th  Th3  1  0.599422  0.956361  0.717433  1
  Th  Th4  1  0.956361  0.717433  0.599422  1
  Th  Th5  1  0.717433  0.599422  0.956361  1
  Tc  Tc6  1  0.000000  0.000000  0.000000  1
  Tc  Tc7  1  0.500000  0.500000  0.500000  1
  Pd  Pd8  1  0.228170  0.062061  0.561968  1
  Pd  Pd9  1  0.062061  0.561968  0.228170  1
  Pd  Pd10  1  0.561968  0.228170  0.062061  1
  Pd  Pd11  1  0.771830  0.937939  0.438032  1
  Pd  Pd12  1  0.937939  0.438032  0.771830  1
  Pd  Pd13  1  0.438032  0.771830  0.937939  1
