# generated using pymatgen
data_Mg3In9(IrRh)2
_symmetry_space_group_name_H-M   'P 1'
_cell_length_a   7.07543583
_cell_length_b   7.14395626
_cell_length_c   7.13044600
_cell_angle_alpha   90.00000000
_cell_angle_beta   90.00000000
_cell_angle_gamma   89.84051654
_symmetry_Int_Tables_number   1
_chemical_formula_structural   Mg3In9(IrRh)2
_chemical_formula_sum   'Mg3 In9 Ir2 Rh2'
_cell_volume   360.41843442
_cell_formula_units_Z   1
loop_
 _symmetry_equiv_pos_site_id
 _symmetry_equiv_pos_as_xyz
  1  'x, y, z'
loop_
 _atom_site_type_symbol
 _atom_site_label
 _atom_site_symmetry_multiplicity
 _atom_site_fract_x
 _atom_site_fract_y
 _atom_site_fract_z
 _atom_site_occupancy
  Mg  Mg0  1  0.000000  0.500000  0.500000  1
  Mg  Mg1  1  0.500000  0.000000  0.000000  1
  Mg  Mg2  1  0.500000  0.000000  0.500000  1
  In  In3  1  0.000000  0.500000  0.000000  1
  In  In4  1  0.345789  0.660943  0.240229  1
  In  In5  1  0.654211  0.339057  0.240229  1
  In  In6  1  0.162869  0.157584  0.735071  1
  In  In7  1  0.837131  0.842416  0.735071  1
  In  In8  1  0.654211  0.339057  0.759771  1
  In  In9  1  0.345789  0.660943  0.759771  1
  In  In10  1  0.837131  0.842416  0.264929  1
  In  In11  1  0.162869  0.157584  0.264929  1
  Ir  Ir12  1  0.150439  0.847680  0.500000  1
  Ir  Ir13  1  0.849561  0.152320  0.500000  1
  Rh  Rh14  1  0.348368  0.348438  0.000000  1
  Rh  Rh15  1  0.651632  0.651562  0.000000  1
