# generated using pymatgen
data_La2ZrPaBi5
_symmetry_space_group_name_H-M   'P 1'
_cell_length_a   9.69028200
_cell_length_b   9.74340075
_cell_length_c   6.56616800
_cell_angle_alpha   90.00000000
_cell_angle_beta   90.00000000
_cell_angle_gamma   119.81982027
_symmetry_Int_Tables_number   1
_chemical_formula_structural   La2ZrPaBi5
_chemical_formula_sum   'La4 Zr2 Pa2 Bi10'
_cell_volume   537.86743782
_cell_formula_units_Z   2
loop_
 _symmetry_equiv_pos_site_id
 _symmetry_equiv_pos_as_xyz
  1  'x, y, z'
loop_
 _atom_site_type_symbol
 _atom_site_label
 _atom_site_symmetry_multiplicity
 _atom_site_fract_x
 _atom_site_fract_y
 _atom_site_fract_z
 _atom_site_occupancy
  La  La0  1  0.996644  0.617387  0.750000  1
  La  La1  1  0.003356  0.382613  0.250000  1
  La  La2  1  0.379256  0.382613  0.750000  1
  La  La3  1  0.620744  0.617387  0.250000  1
  Zr  Zr4  1  0.000000  0.000000  0.500000  1
  Zr  Zr5  1  0.000000  0.000000  0.000000  1
  Pa  Pa6  1  0.608995  0.000000  0.750000  1
  Pa  Pa7  1  0.391005  0.000000  0.250000  1
  Bi  Bi8  1  0.270664  0.000000  0.750000  1
  Bi  Bi9  1  0.729336  0.000000  0.250000  1
  Bi  Bi10  1  0.991458  0.259704  0.750000  1
  Bi  Bi11  1  0.008542  0.740296  0.250000  1
  Bi  Bi12  1  0.731754  0.740296  0.750000  1
  Bi  Bi13  1  0.268246  0.259704  0.250000  1
  Bi  Bi14  1  0.337678  0.675358  0.500000  1
  Bi  Bi15  1  0.662322  0.324642  0.500000  1
  Bi  Bi16  1  0.662322  0.324642  0.000000  1
  Bi  Bi17  1  0.337678  0.675358  0.000000  1
