# generated using pymatgen
data_Tm3Lu5Hg4
_symmetry_space_group_name_H-M   'P 1'
_cell_length_a   6.91176437
_cell_length_b   5.03072700
_cell_length_c   9.06684924
_cell_angle_alpha   90.00000000
_cell_angle_beta   90.00568006
_cell_angle_gamma   90.00000000
_symmetry_Int_Tables_number   1
_chemical_formula_structural   Tm3Lu5Hg4
_chemical_formula_sum   'Tm3 Lu5 Hg4'
_cell_volume   315.26522342
_cell_formula_units_Z   1
loop_
 _symmetry_equiv_pos_site_id
 _symmetry_equiv_pos_as_xyz
  1  'x, y, z'
loop_
 _atom_site_type_symbol
 _atom_site_label
 _atom_site_symmetry_multiplicity
 _atom_site_fract_x
 _atom_site_fract_y
 _atom_site_fract_z
 _atom_site_occupancy
  Tm  Tm0  1  0.483292  0.250000  0.694343  1
  Tm  Tm1  1  0.984176  0.250000  0.805179  1
  Tm  Tm2  1  0.669208  0.750000  0.926724  1
  Lu  Lu3  1  0.330555  0.250000  0.074840  1
  Lu  Lu4  1  0.016848  0.750000  0.194651  1
  Lu  Lu5  1  0.516545  0.750000  0.305566  1
  Lu  Lu6  1  0.831333  0.250000  0.425431  1
  Lu  Lu7  1  0.168744  0.750000  0.573315  1
  Hg  Hg8  1  0.763414  0.250000  0.102931  1
  Hg  Hg9  1  0.263290  0.250000  0.398205  1
  Hg  Hg10  1  0.737203  0.750000  0.600534  1
  Hg  Hg11  1  0.235390  0.750000  0.898280  1
