# generated using pymatgen
data_Pr2SmDySn10(PdRh2)2
_symmetry_space_group_name_H-M   'P 1'
_cell_length_a   13.58989465
_cell_length_b   13.58989489
_cell_length_c   7.24301900
_cell_angle_alpha   89.91305643
_cell_angle_beta   90.08694357
_cell_angle_gamma   160.83470699
_symmetry_Int_Tables_number   1
_chemical_formula_structural   Pr2SmDySn10(PdRh2)2
_chemical_formula_sum   'Pr2 Sm1 Dy1 Sn10 Pd2 Rh4'
_cell_volume   439.15207950
_cell_formula_units_Z   1
loop_
 _symmetry_equiv_pos_site_id
 _symmetry_equiv_pos_as_xyz
  1  'x, y, z'
loop_
 _atom_site_type_symbol
 _atom_site_label
 _atom_site_symmetry_multiplicity
 _atom_site_fract_x
 _atom_site_fract_y
 _atom_site_fract_z
 _atom_site_occupancy
  Pr  Pr0  1  0.173087  0.826913  0.751456  1
  Pr  Pr1  1  0.826841  0.173159  0.251744  1
  Sm  Sm2  1  0.476496  0.523504  0.738536  1
  Dy  Dy3  1  0.524172  0.475828  0.238462  1
  Sn  Sn4  1  0.879071  0.120929  0.729027  1
  Sn  Sn5  1  0.120795  0.879205  0.229524  1
  Sn  Sn6  1  0.703860  0.296140  0.048298  1
  Sn  Sn7  1  0.295788  0.704212  0.548669  1
  Sn  Sn8  1  0.596538  0.403462  0.614822  1
  Sn  Sn9  1  0.403766  0.596234  0.115491  1
  Sn  Sn10  1  0.952225  0.047775  0.401619  1
  Sn  Sn11  1  0.048234  0.951766  0.902953  1
  Sn  Sn12  1  0.289782  0.710218  0.974175  1
  Sn  Sn13  1  0.710093  0.289907  0.473754  1
  Pd  Pd14  1  0.050312  0.949688  0.514472  1
  Pd  Pd15  1  0.950052  0.049948  0.018429  1
  Rh  Rh16  1  0.777493  0.222507  0.764686  1
  Rh  Rh17  1  0.222283  0.777717  0.264396  1
  Rh  Rh18  1  0.395492  0.604508  0.486546  1
  Rh  Rh19  1  0.603619  0.396381  0.988938  1
