# generated using pymatgen
data_NdY4Si12Ir19
_symmetry_space_group_name_H-M   'P 1'
_cell_length_a   12.86043900
_cell_length_b   12.86044072
_cell_length_c   3.99819500
_cell_angle_alpha   90.00000000
_cell_angle_beta   90.00000000
_cell_angle_gamma   120.00000329
_symmetry_Int_Tables_number   1
_chemical_formula_structural   NdY4Si12Ir19
_chemical_formula_sum   'Nd1 Y4 Si12 Ir19'
_cell_volume   572.67237624
_cell_formula_units_Z   1
loop_
 _symmetry_equiv_pos_site_id
 _symmetry_equiv_pos_as_xyz
  1  'x, y, z'
loop_
 _atom_site_type_symbol
 _atom_site_label
 _atom_site_symmetry_multiplicity
 _atom_site_fract_x
 _atom_site_fract_y
 _atom_site_fract_z
 _atom_site_occupancy
  Nd  Nd0  1  0.666667  0.333333  0.000000  1
  Y  Y1  1  0.999973  0.814528  0.500000  1
  Y  Y2  1  0.185472  0.185445  0.500000  1
  Y  Y3  1  0.814555  0.000027  0.500000  1
  Y  Y4  1  0.333333  0.666667  0.000000  1
  Si  Si5  1  0.000501  0.181700  0.000000  1
  Si  Si6  1  0.818300  0.818801  0.000000  1
  Si  Si7  1  0.181199  0.999499  0.000000  1
  Si  Si8  1  0.519119  0.688328  0.500000  1
  Si  Si9  1  0.311672  0.830791  0.500000  1
  Si  Si10  1  0.169209  0.480881  0.500000  1
  Si  Si11  1  0.479050  0.167232  0.500000  1
  Si  Si12  1  0.688181  0.520950  0.500000  1
  Si  Si13  1  0.832768  0.311819  0.500000  1
  Si  Si14  1  0.000104  0.631596  0.000000  1
  Si  Si15  1  0.368404  0.368507  0.000000  1
  Si  Si16  1  0.631493  0.999896  0.000000  1
  Ir  Ir17  1  0.000813  0.283135  0.500000  1
  Ir  Ir18  1  0.716865  0.717678  0.500000  1
  Ir  Ir19  1  0.282322  0.999187  0.500000  1
  Ir  Ir20  1  0.622790  0.805691  0.000000  1
  Ir  Ir21  1  0.194309  0.817100  0.000000  1
  Ir  Ir22  1  0.182900  0.377210  0.000000  1
  Ir  Ir23  1  0.375562  0.181925  0.000000  1
  Ir  Ir24  1  0.806363  0.624438  0.000000  1
  Ir  Ir25  1  0.818075  0.193637  0.000000  1
  Ir  Ir26  1  0.511727  0.873491  0.500000  1
  Ir  Ir27  1  0.126509  0.638237  0.500000  1
  Ir  Ir28  1  0.361763  0.488273  0.500000  1
  Ir  Ir29  1  0.486193  0.361649  0.500000  1
  Ir  Ir30  1  0.875456  0.513807  0.500000  1
  Ir  Ir31  1  0.638351  0.124544  0.500000  1
  Ir  Ir32  1  0.000000  0.000000  0.000000  1
  Ir  Ir33  1  0.999908  0.446947  0.000000  1
  Ir  Ir34  1  0.553053  0.552961  0.000000  1
  Ir  Ir35  1  0.447039  0.000092  0.000000  1
