# generated using pymatgen
data_Sc6Co2Ir3Ru
_symmetry_space_group_name_H-M   'P 1'
_cell_length_a   4.54084100
_cell_length_b   6.37845900
_cell_length_c   13.58567300
_cell_angle_alpha   90.00005647
_cell_angle_beta   89.99729611
_cell_angle_gamma   89.99968690
_symmetry_Int_Tables_number   1
_chemical_formula_structural   Sc6Co2Ir3Ru
_chemical_formula_sum   'Sc12 Co4 Ir6 Ru2'
_cell_volume   393.48956550
_cell_formula_units_Z   2
loop_
 _symmetry_equiv_pos_site_id
 _symmetry_equiv_pos_as_xyz
  1  'x, y, z'
loop_
 _atom_site_type_symbol
 _atom_site_label
 _atom_site_symmetry_multiplicity
 _atom_site_fract_x
 _atom_site_fract_y
 _atom_site_fract_z
 _atom_site_occupancy
  Sc  Sc0  1  0.499992  0.250229  0.999142  1
  Sc  Sc1  1  0.499997  0.749774  0.999141  1
  Sc  Sc2  1  0.999789  0.249788  0.167482  1
  Sc  Sc3  1  0.999781  0.750211  0.167481  1
  Sc  Sc4  1  0.499786  0.249302  0.334614  1
  Sc  Sc5  1  0.499759  0.750697  0.334613  1
  Sc  Sc6  1  0.999993  0.249830  0.500370  1
  Sc  Sc7  1  0.999993  0.750172  0.500370  1
  Sc  Sc8  1  0.500215  0.250183  0.666332  1
  Sc  Sc9  1  0.500225  0.749818  0.666331  1
  Sc  Sc10  1  0.000202  0.250674  0.832070  1
  Sc  Sc11  1  0.000237  0.749323  0.832071  1
  Co  Co12  1  0.999697  0.000000  0.334332  1
  Co  Co13  1  0.499995  0.500001  0.500292  1
  Co  Co14  1  0.000299  0.000000  0.666411  1
  Co  Co15  1  0.500295  0.500000  0.832284  1
  Ir  Ir16  1  0.999983  0.500000  0.998633  1
  Ir  Ir17  1  0.499768  0.000000  0.167997  1
  Ir  Ir18  1  0.999741  0.499999  0.335698  1
  Ir  Ir19  1  0.499993  0.000001  0.500970  1
  Ir  Ir20  1  0.000251  0.500001  0.665727  1
  Ir  Ir21  1  0.500233  0.000000  0.830987  1
  Ru  Ru22  1  0.999992  0.000001  0.999111  1
  Ru  Ru23  1  0.499783  0.500000  0.167540  1
