# generated using pymatgen
data_TbDy5Al24(Ir3Ru)2
_symmetry_space_group_name_H-M   'P 1'
_cell_length_a   8.82205109
_cell_length_b   8.82205096
_cell_length_c   9.48742800
_cell_angle_alpha   90.00000000
_cell_angle_beta   90.00000000
_cell_angle_gamma   119.98329794
_symmetry_Int_Tables_number   1
_chemical_formula_structural   TbDy5Al24(Ir3Ru)2
_chemical_formula_sum   'Tb1 Dy5 Al24 Ir6 Ru2'
_cell_volume   639.57476948
_cell_formula_units_Z   1
loop_
 _symmetry_equiv_pos_site_id
 _symmetry_equiv_pos_as_xyz
  1  'x, y, z'
loop_
 _atom_site_type_symbol
 _atom_site_label
 _atom_site_symmetry_multiplicity
 _atom_site_fract_x
 _atom_site_fract_y
 _atom_site_fract_z
 _atom_site_occupancy
  Tb  Tb0  1  0.192535  0.807465  0.250000  1
  Dy  Dy1  1  0.192637  0.385293  0.250000  1
  Dy  Dy2  1  0.614707  0.807363  0.250000  1
  Dy  Dy3  1  0.807339  0.192661  0.750000  1
  Dy  Dy4  1  0.807315  0.614681  0.750000  1
  Dy  Dy5  1  0.385319  0.192685  0.750000  1
  Al  Al6  1  0.562227  0.437773  0.250000  1
  Al  Al7  1  0.562381  0.124555  0.250000  1
  Al  Al8  1  0.875445  0.437619  0.250000  1
  Al  Al9  1  0.437771  0.562229  0.750000  1
  Al  Al10  1  0.437797  0.875586  0.750000  1
  Al  Al11  1  0.124414  0.562203  0.750000  1
  Al  Al12  1  0.325918  0.163014  0.424022  1
  Al  Al13  1  0.837038  0.162962  0.423997  1
  Al  Al14  1  0.836986  0.674082  0.424022  1
  Al  Al15  1  0.674111  0.837064  0.576054  1
  Al  Al16  1  0.162952  0.837048  0.576161  1
  Al  Al17  1  0.162936  0.325889  0.576054  1
  Al  Al18  1  0.674111  0.837064  0.923946  1
  Al  Al19  1  0.162952  0.837048  0.923839  1
  Al  Al20  1  0.162936  0.325889  0.923946  1
  Al  Al21  1  0.325918  0.163014  0.075978  1
  Al  Al22  1  0.837038  0.162962  0.076003  1
  Al  Al23  1  0.836986  0.674082  0.075978  1
  Al  Al24  1  0.666686  0.333314  0.528746  1
  Al  Al25  1  0.333396  0.666604  0.471241  1
  Al  Al26  1  0.333396  0.666604  0.028759  1
  Al  Al27  1  0.666686  0.333314  0.971254  1
  Al  Al28  1  0.999939  0.000061  0.250000  1
  Al  Al29  1  0.000022  0.999978  0.750000  1
  Ir  Ir30  1  0.500041  0.499959  0.500040  1
  Ir  Ir31  1  0.500126  0.000077  0.500090  1
  Ir  Ir32  1  0.999923  0.499874  0.500090  1
  Ir  Ir33  1  0.500041  0.499959  0.999960  1
  Ir  Ir34  1  0.500126  0.000077  0.999910  1
  Ir  Ir35  1  0.999923  0.499874  0.999910  1
  Ru  Ru36  1  0.999961  0.000039  0.500090  1
  Ru  Ru37  1  0.999961  0.000039  0.999910  1
