# generated using pymatgen
data_HoEr3Bi3Sb
_symmetry_space_group_name_H-M   'P 1'
_cell_length_a   7.67004277
_cell_length_b   7.67004318
_cell_length_c   7.67004201
_cell_angle_alpha   131.83221074
_cell_angle_beta   131.83514059
_cell_angle_gamma   70.49184011
_symmetry_Int_Tables_number   1
_chemical_formula_structural   HoEr3Bi3Sb
_chemical_formula_sum   'Ho1 Er3 Bi3 Sb1'
_cell_volume   245.44791936
_cell_formula_units_Z   1
loop_
 _symmetry_equiv_pos_site_id
 _symmetry_equiv_pos_as_xyz
  1  'x, y, z'
loop_
 _atom_site_type_symbol
 _atom_site_label
 _atom_site_symmetry_multiplicity
 _atom_site_fract_x
 _atom_site_fract_y
 _atom_site_fract_z
 _atom_site_occupancy
  Ho  Ho0  1  0.500000  0.000000  0.500000  1
  Er  Er1  1  0.245853  0.245853  0.000000  1
  Er  Er2  1  0.754147  0.754147  0.000000  1
  Er  Er3  1  0.000000  0.500000  0.500000  1
  Bi  Bi4  1  0.500000  0.500000  0.000000  1
  Bi  Bi5  1  0.750083  0.250083  0.500000  1
  Bi  Bi6  1  0.249917  0.749917  0.500000  1
  Sb  Sb7  1  0.000000  0.000000  0.000000  1
