# generated using pymatgen
data_Mn9Nb12Cr3N4
_symmetry_space_group_name_H-M   'P 1'
_cell_length_a   8.08898454
_cell_length_b   8.07821779
_cell_length_c   8.07821800
_cell_angle_alpha   59.99999913
_cell_angle_beta   60.04401978
_cell_angle_gamma   60.04401683
_symmetry_Int_Tables_number   1
_chemical_formula_structural   Mn9Nb12Cr3N4
_chemical_formula_sum   'Mn9 Nb12 Cr3 N4'
_cell_volume   373.50701496
_cell_formula_units_Z   1
loop_
 _symmetry_equiv_pos_site_id
 _symmetry_equiv_pos_as_xyz
  1  'x, y, z'
loop_
 _atom_site_type_symbol
 _atom_site_label
 _atom_site_symmetry_multiplicity
 _atom_site_fract_x
 _atom_site_fract_y
 _atom_site_fract_z
 _atom_site_occupancy
  Mn  Mn0  1  0.125000  0.625000  0.625000  1
  Mn  Mn1  1  0.733221  0.422260  0.422260  1
  Mn  Mn2  1  0.422745  0.731720  0.422768  1
  Mn  Mn3  1  0.422745  0.422768  0.731720  1
  Mn  Mn4  1  0.422745  0.422768  0.422768  1
  Mn  Mn5  1  0.516779  0.827740  0.827740  1
  Mn  Mn6  1  0.827255  0.518280  0.827232  1
  Mn  Mn7  1  0.827255  0.827232  0.518280  1
  Mn  Mn8  1  0.827255  0.827232  0.827232  1
  Nb  Nb9  1  0.806050  0.805594  0.194178  1
  Nb  Nb10  1  0.194436  0.196139  0.804713  1
  Nb  Nb11  1  0.806050  0.194178  0.805594  1
  Nb  Nb12  1  0.194436  0.804713  0.196139  1
  Nb  Nb13  1  0.194436  0.804713  0.804713  1
  Nb  Nb14  1  0.806050  0.194178  0.194178  1
  Nb  Nb15  1  0.443950  0.444406  0.055822  1
  Nb  Nb16  1  0.055564  0.053861  0.445287  1
  Nb  Nb17  1  0.443950  0.055822  0.444406  1
  Nb  Nb18  1  0.055564  0.445287  0.053861  1
  Nb  Nb19  1  0.055564  0.445287  0.445287  1
  Nb  Nb20  1  0.443950  0.055822  0.055822  1
  Cr  Cr21  1  0.625000  0.125000  0.625000  1
  Cr  Cr22  1  0.625000  0.625000  0.125000  1
  Cr  Cr23  1  0.625000  0.625000  0.625000  1
  N  N24  1  0.625000  0.125000  0.125000  1
  N  N25  1  0.125000  0.625000  0.125000  1
  N  N26  1  0.125000  0.125000  0.625000  1
  N  N27  1  0.125000  0.125000  0.125000  1
