# generated using pymatgen
data_Sm4Al24Pd(Pt3Au)2
_symmetry_space_group_name_H-M   'P 1'
_cell_length_a   7.59772535
_cell_length_b   7.61439564
_cell_length_c   13.25265221
_cell_angle_alpha   84.53624570
_cell_angle_beta   79.01414054
_cell_angle_gamma   59.90478557
_symmetry_Int_Tables_number   1
_chemical_formula_structural   Sm4Al24Pd(Pt3Au)2
_chemical_formula_sum   'Sm4 Al24 Pd1 Pt6 Au2'
_cell_volume   651.18193245
_cell_formula_units_Z   1
loop_
 _symmetry_equiv_pos_site_id
 _symmetry_equiv_pos_as_xyz
  1  'x, y, z'
loop_
 _atom_site_type_symbol
 _atom_site_label
 _atom_site_symmetry_multiplicity
 _atom_site_fract_x
 _atom_site_fract_y
 _atom_site_fract_z
 _atom_site_occupancy
  Sm  Sm0  1  0.392738  0.169146  0.809212  1
  Sm  Sm1  1  0.607262  0.830854  0.190788  1
  Sm  Sm2  1  0.733778  0.498766  0.809974  1
  Sm  Sm3  1  0.266222  0.501234  0.190026  1
  Al  Al4  1  0.684206  0.834221  0.945505  1
  Al  Al5  1  0.315794  0.165779  0.054495  1
  Al  Al6  1  0.145978  0.839100  0.561950  1
  Al  Al7  1  0.854022  0.160900  0.438050  1
  Al  Al8  1  0.488180  0.159477  0.559189  1
  Al  Al9  1  0.511820  0.840523  0.440811  1
  Al  Al10  1  0.221987  0.160118  0.327786  1
  Al  Al11  1  0.778013  0.839882  0.672214  1
  Al  Al12  1  0.440395  0.507418  0.672419  1
  Al  Al13  1  0.559605  0.492582  0.327581  1
  Al  Al14  1  0.109734  0.153712  0.671149  1
  Al  Al15  1  0.890266  0.846288  0.328851  1
  Al  Al16  1  0.351698  0.500104  0.945321  1
  Al  Al17  1  0.648302  0.499896  0.054679  1
  Al  Al18  1  0.014956  0.166764  0.954940  1
  Al  Al19  1  0.985044  0.833236  0.045060  1
  Al  Al20  1  0.195183  0.499440  0.437808  1
  Al  Al21  1  0.804817  0.500560  0.562192  1
  Al  Al22  1  0.733920  0.164717  0.183557  1
  Al  Al23  1  0.266080  0.835283  0.816443  1
  Al  Al24  1  0.060269  0.634445  0.818038  1
  Al  Al25  1  0.939731  0.365555  0.181962  1
  Al  Al26  1  0.855763  0.040907  0.815995  1
  Al  Al27  1  0.144237  0.959093  0.184006  1
  Pd  Pd28  1  0.000000  0.500000  0.000000  1
  Pt  Pt29  1  0.657802  0.171317  0.999783  1
  Pt  Pt30  1  0.342198  0.828683  0.000217  1
  Pt  Pt31  1  0.537909  0.166869  0.363195  1
  Pt  Pt32  1  0.462091  0.833131  0.636805  1
  Pt  Pt33  1  0.780983  0.174503  0.635885  1
  Pt  Pt34  1  0.219017  0.825497  0.364115  1
  Au  Au35  1  0.120351  0.492028  0.637102  1
  Au  Au36  1  0.879649  0.507972  0.362898  1
