# generated using pymatgen
data_Dy3Ho3SbO12
_symmetry_space_group_name_H-M   'P 1'
_cell_length_a   6.48134558
_cell_length_b   6.48134601
_cell_length_c   6.48134615
_cell_angle_alpha   98.90459468
_cell_angle_beta   98.90460349
_cell_angle_gamma   98.90461394
_symmetry_Int_Tables_number   1
_chemical_formula_structural   Dy3Ho3SbO12
_chemical_formula_sum   'Dy3 Ho3 Sb1 O12'
_cell_volume   261.24943207
_cell_formula_units_Z   1
loop_
 _symmetry_equiv_pos_site_id
 _symmetry_equiv_pos_as_xyz
  1  'x, y, z'
loop_
 _atom_site_type_symbol
 _atom_site_label
 _atom_site_symmetry_multiplicity
 _atom_site_fract_x
 _atom_site_fract_y
 _atom_site_fract_z
 _atom_site_occupancy
  Dy  Dy0  1  0.303448  0.139853  0.609587  1
  Dy  Dy1  1  0.609587  0.303448  0.139853  1
  Dy  Dy2  1  0.139853  0.609587  0.303448  1
  Ho  Ho3  1  0.696239  0.860069  0.390894  1
  Ho  Ho4  1  0.390894  0.696239  0.860069  1
  Ho  Ho5  1  0.860069  0.390894  0.696239  1
  Sb  Sb6  1  0.999157  0.999157  0.999157  1
  O  O7  1  0.436747  0.589125  0.177523  1
  O  O8  1  0.177523  0.436747  0.589125  1
  O  O9  1  0.589125  0.177523  0.436747  1
  O  O10  1  0.564553  0.413486  0.821443  1
  O  O11  1  0.821443  0.564553  0.413486  1
  O  O12  1  0.413486  0.821443  0.564553  1
  O  O13  1  0.928707  0.042560  0.695008  1
  O  O14  1  0.957417  0.304330  0.069855  1
  O  O15  1  0.304330  0.069855  0.957417  1
  O  O16  1  0.069855  0.957417  0.304330  1
  O  O17  1  0.042560  0.695008  0.928707  1
  O  O18  1  0.695008  0.928707  0.042560  1
