# generated using pymatgen
data_Ta16Nb8As7P
_symmetry_space_group_name_H-M   'P 1'
_cell_length_a   10.41913330
_cell_length_b   10.37712700
_cell_length_c   5.14762257
_cell_angle_alpha   90.00000000
_cell_angle_beta   89.84711389
_cell_angle_gamma   90.00000000
_symmetry_Int_Tables_number   1
_chemical_formula_structural   Ta16Nb8As7P
_chemical_formula_sum   'Ta16 Nb8 As7 P1'
_cell_volume   556.56241692
_cell_formula_units_Z   1
loop_
 _symmetry_equiv_pos_site_id
 _symmetry_equiv_pos_as_xyz
  1  'x, y, z'
loop_
 _atom_site_type_symbol
 _atom_site_label
 _atom_site_symmetry_multiplicity
 _atom_site_fract_x
 _atom_site_fract_y
 _atom_site_fract_z
 _atom_site_occupancy
  Ta  Ta0  1  0.908452  0.590963  0.500397  1
  Ta  Ta1  1  0.909009  0.409922  0.000163  1
  Ta  Ta2  1  0.590396  0.090131  0.500441  1
  Ta  Ta3  1  0.797373  0.299029  0.500781  1
  Ta  Ta4  1  0.090991  0.409922  0.499837  1
  Ta  Ta5  1  0.091548  0.590963  0.999603  1
  Ta  Ta6  1  0.202627  0.299029  0.999219  1
  Ta  Ta7  1  0.303187  0.796855  0.996100  1
  Ta  Ta8  1  0.298601  0.201250  0.500095  1
  Ta  Ta9  1  0.701399  0.201250  0.999905  1
  Ta  Ta10  1  0.588798  0.905174  0.995544  1
  Ta  Ta11  1  0.696813  0.796855  0.503900  1
  Ta  Ta12  1  0.201146  0.702019  0.497686  1
  Ta  Ta13  1  0.409604  0.090131  0.999559  1
  Ta  Ta14  1  0.411202  0.905174  0.504456  1
  Ta  Ta15  1  0.798854  0.702019  0.002314  1
  Nb  Nb16  1  0.500000  0.651597  0.250000  1
  Nb  Nb17  1  0.849938  0.999277  0.749732  1
  Nb  Nb18  1  0.646641  0.506281  0.749378  1
  Nb  Nb19  1  0.000000  0.850021  0.250000  1
  Nb  Nb20  1  0.353359  0.506281  0.750622  1
  Nb  Nb21  1  0.000000  0.147987  0.250000  1
  Nb  Nb22  1  0.500000  0.351667  0.250000  1
  Nb  Nb23  1  0.150062  0.999277  0.750268  1
  As  As24  1  0.000000  0.793232  0.750000  1
  As  As25  1  0.500000  0.294734  0.750000  1
  As  As26  1  0.208247  0.997301  0.251496  1
  As  As27  1  0.791753  0.997301  0.248504  1
  As  As28  1  0.000000  0.206386  0.750000  1
  As  As29  1  0.705720  0.500535  0.250496  1
  As  As30  1  0.294280  0.500535  0.249504  1
  P  P31  1  0.500000  0.706900  0.750000  1
