# generated using pymatgen
data_Pr12(TcC3)5
_symmetry_space_group_name_H-M   'P 1'
_cell_length_a   11.11404300
_cell_length_b   11.11404225
_cell_length_c   5.39540100
_cell_angle_alpha   90.00000000
_cell_angle_beta   90.00000000
_cell_angle_gamma   119.99999925
_symmetry_Int_Tables_number   1
_chemical_formula_structural   Pr12(TcC3)5
_chemical_formula_sum   'Pr12 Tc5 C15'
_cell_volume   577.16299613
_cell_formula_units_Z   1
loop_
 _symmetry_equiv_pos_site_id
 _symmetry_equiv_pos_as_xyz
  1  'x, y, z'
loop_
 _atom_site_type_symbol
 _atom_site_label
 _atom_site_symmetry_multiplicity
 _atom_site_fract_x
 _atom_site_fract_y
 _atom_site_fract_z
 _atom_site_occupancy
  Pr  Pr0  1  0.728482  0.186340  0.000000  1
  Pr  Pr1  1  0.813660  0.542142  0.000000  1
  Pr  Pr2  1  0.457858  0.271518  0.000000  1
  Pr  Pr3  1  0.186340  0.728482  0.000000  1
  Pr  Pr4  1  0.542142  0.813660  0.000000  1
  Pr  Pr5  1  0.271518  0.457858  0.000000  1
  Pr  Pr6  1  0.574989  0.574989  0.500000  1
  Pr  Pr7  1  0.425011  0.000000  0.500000  1
  Pr  Pr8  1  0.000000  0.425011  0.500000  1
  Pr  Pr9  1  0.206152  0.206152  0.500000  1
  Pr  Pr10  1  0.793848  0.000000  0.500000  1
  Pr  Pr11  1  0.000000  0.793848  0.500000  1
  Tc  Tc12  1  0.843557  0.843557  0.000000  1
  Tc  Tc13  1  0.156443  0.000000  0.000000  1
  Tc  Tc14  1  0.000000  0.156443  0.000000  1
  Tc  Tc15  1  0.666667  0.333333  0.500000  1
  Tc  Tc16  1  0.333333  0.666667  0.500000  1
  C  C17  1  0.711968  0.189274  0.500000  1
  C  C18  1  0.810726  0.522694  0.500000  1
  C  C19  1  0.477306  0.288032  0.500000  1
  C  C20  1  0.189274  0.711968  0.500000  1
  C  C21  1  0.522694  0.810726  0.500000  1
  C  C22  1  0.288032  0.477306  0.500000  1
  C  C23  1  0.669795  0.669795  0.000000  1
  C  C24  1  0.330205  0.000000  0.000000  1
  C  C25  1  0.000000  0.330205  0.000000  1
  C  C26  1  0.548684  0.548684  0.000000  1
  C  C27  1  0.451316  0.000000  0.000000  1
  C  C28  1  0.000000  0.451316  0.000000  1
  C  C29  1  0.202900  0.202900  0.000000  1
  C  C30  1  0.797100  0.000000  0.000000  1
  C  C31  1  0.000000  0.797100  0.000000  1
