# generated using pymatgen
data_SrYb9(Tc2N7)2
_symmetry_space_group_name_H-M   'P 1'
_cell_length_a   6.04491426
_cell_length_b   8.89110210
_cell_length_c   8.80890295
_cell_angle_alpha   115.30585994
_cell_angle_beta   99.06973609
_cell_angle_gamma   89.57624240
_symmetry_Int_Tables_number   1
_chemical_formula_structural   SrYb9(Tc2N7)2
_chemical_formula_sum   'Sr1 Yb9 Tc4 N14'
_cell_volume   421.70418006
_cell_formula_units_Z   1
loop_
 _symmetry_equiv_pos_site_id
 _symmetry_equiv_pos_as_xyz
  1  'x, y, z'
loop_
 _atom_site_type_symbol
 _atom_site_label
 _atom_site_symmetry_multiplicity
 _atom_site_fract_x
 _atom_site_fract_y
 _atom_site_fract_z
 _atom_site_occupancy
  Sr  Sr0  1  0.715114  0.997049  0.411107  1
  Yb  Yb1  1  0.839210  0.588011  0.324200  1
  Yb  Yb2  1  0.266864  0.991621  0.569535  1
  Yb  Yb3  1  0.703616  0.418518  0.861808  1
  Yb  Yb4  1  0.298991  0.579495  0.140163  1
  Yb  Yb5  1  0.405189  0.789035  0.922526  1
  Yb  Yb6  1  0.603405  0.209060  0.087056  1
  Yb  Yb7  1  0.152154  0.390317  0.672640  1
  Yb  Yb8  1  0.892095  0.857418  0.760915  1
  Yb  Yb9  1  0.112271  0.142672  0.241071  1
  Tc  Tc10  1  0.578634  0.361756  0.479516  1
  Tc  Tc11  1  0.406183  0.645591  0.526270  1
  Tc  Tc12  1  0.120668  0.218505  0.922397  1
  Tc  Tc13  1  0.895953  0.777997  0.076115  1
  N  N14  1  0.515207  0.553898  0.688407  1
  N  N15  1  0.466919  0.451208  0.316884  1
  N  N16  1  0.129368  0.726803  0.562065  1
  N  N17  1  0.851981  0.284884  0.420373  1
  N  N18  1  0.399704  0.193665  0.484951  1
  N  N19  1  0.585571  0.817417  0.537842  1
  N  N20  1  0.948774  0.140521  0.709303  1
  N  N21  1  0.090191  0.866370  0.279748  1
  N  N22  1  0.236797  0.046876  0.970856  1
  N  N23  1  0.770770  0.951159  0.032240  1
  N  N24  1  0.371965  0.329088  0.907694  1
  N  N25  1  0.963498  0.363667  0.086255  1
  N  N26  1  0.037340  0.632574  0.904193  1
  N  N27  1  0.641567  0.674826  0.103870  1
