# generated using pymatgen
data_GdIO4
_symmetry_space_group_name_H-M   'P 1'
_cell_length_a   5.07055542
_cell_length_b   5.07055527
_cell_length_c   7.32812100
_cell_angle_alpha   90.00000000
_cell_angle_beta   90.00000000
_cell_angle_gamma   94.60424166
_symmetry_Int_Tables_number   1
_chemical_formula_structural   GdIO4
_chemical_formula_sum   'Gd2 I2 O8'
_cell_volume   187.80187584
_cell_formula_units_Z   2
loop_
 _symmetry_equiv_pos_site_id
 _symmetry_equiv_pos_as_xyz
  1  'x, y, z'
loop_
 _atom_site_type_symbol
 _atom_site_label
 _atom_site_symmetry_multiplicity
 _atom_site_fract_x
 _atom_site_fract_y
 _atom_site_fract_z
 _atom_site_occupancy
  Gd  Gd0  1  0.000000  0.000000  0.000000  1
  Gd  Gd1  1  0.000000  0.000000  0.500000  1
  I  I2  1  0.468653  0.531347  0.750000  1
  I  I3  1  0.531347  0.468653  0.250000  1
  O  O4  1  0.310437  0.689563  0.946092  1
  O  O5  1  0.310437  0.689563  0.553908  1
  O  O6  1  0.689563  0.310437  0.053908  1
  O  O7  1  0.689563  0.310437  0.446092  1
  O  O8  1  0.829079  0.761485  0.250000  1
  O  O9  1  0.238515  0.170921  0.250000  1
  O  O10  1  0.761485  0.829079  0.750000  1
  O  O11  1  0.170921  0.238515  0.750000  1
