# generated using pymatgen
data_La2Pr3Er3(CdIr)2
_symmetry_space_group_name_H-M   'P 1'
_cell_length_a   9.86728161
_cell_length_b   9.86728068
_cell_length_c   9.86728000
_cell_angle_alpha   60.00000229
_cell_angle_beta   60.00000538
_cell_angle_gamma   60.00000049
_symmetry_Int_Tables_number   1
_chemical_formula_structural   La2Pr3Er3(CdIr)2
_chemical_formula_sum   'La4 Pr6 Er6 Cd4 Ir4'
_cell_volume   679.32482595
_cell_formula_units_Z   2
loop_
 _symmetry_equiv_pos_site_id
 _symmetry_equiv_pos_as_xyz
  1  'x, y, z'
loop_
 _atom_site_type_symbol
 _atom_site_label
 _atom_site_symmetry_multiplicity
 _atom_site_fract_x
 _atom_site_fract_y
 _atom_site_fract_z
 _atom_site_occupancy
  La  La0  1  0.349551  0.349551  0.349551  1
  La  La1  1  0.349551  0.349551  0.951345  1
  La  La2  1  0.349551  0.951345  0.349551  1
  La  La3  1  0.951345  0.349551  0.349551  1
  Pr  Pr4  1  0.939016  0.560984  0.560984  1
  Pr  Pr5  1  0.560984  0.939016  0.939016  1
  Pr  Pr6  1  0.560984  0.939016  0.560984  1
  Pr  Pr7  1  0.939016  0.560984  0.939016  1
  Pr  Pr8  1  0.560984  0.560984  0.939016  1
  Pr  Pr9  1  0.939016  0.939016  0.560984  1
  Er  Er10  1  0.815103  0.184897  0.184897  1
  Er  Er11  1  0.184897  0.815103  0.815103  1
  Er  Er12  1  0.184897  0.815103  0.184897  1
  Er  Er13  1  0.815103  0.184897  0.815103  1
  Er  Er14  1  0.184897  0.184897  0.815103  1
  Er  Er15  1  0.815103  0.815103  0.184897  1
  Cd  Cd16  1  0.579766  0.579766  0.579766  1
  Cd  Cd17  1  0.579766  0.579766  0.260699  1
  Cd  Cd18  1  0.579766  0.260699  0.579766  1
  Cd  Cd19  1  0.260699  0.579766  0.579766  1
  Ir  Ir20  1  0.139022  0.139022  0.139022  1
  Ir  Ir21  1  0.139022  0.139022  0.582934  1
  Ir  Ir22  1  0.139022  0.582934  0.139022  1
  Ir  Ir23  1  0.582934  0.139022  0.139022  1
