# generated using pymatgen
data_Ac3Yb(PPd)4
_symmetry_space_group_name_H-M   'P 1'
_cell_length_a   4.30939700
_cell_length_b   8.28803077
_cell_length_c   7.43832115
_cell_angle_alpha   90.06158816
_cell_angle_beta   90.00000000
_cell_angle_gamma   90.00000000
_symmetry_Int_Tables_number   1
_chemical_formula_structural   Ac3Yb(PPd)4
_chemical_formula_sum   'Ac3 Yb1 P4 Pd4'
_cell_volume   265.67001144
_cell_formula_units_Z   1
loop_
 _symmetry_equiv_pos_site_id
 _symmetry_equiv_pos_as_xyz
  1  'x, y, z'
loop_
 _atom_site_type_symbol
 _atom_site_label
 _atom_site_symmetry_multiplicity
 _atom_site_fract_x
 _atom_site_fract_y
 _atom_site_fract_z
 _atom_site_occupancy
  Ac  Ac0  1  0.250000  0.499689  0.249957  1
  Ac  Ac1  1  0.750000  0.500249  0.750373  1
  Ac  Ac2  1  0.750000  0.999988  0.749423  1
  Yb  Yb3  1  0.250000  0.999318  0.249724  1
  P  P4  1  0.250000  0.749351  0.920790  1
  P  P5  1  0.750000  0.245525  0.086692  1
  P  P6  1  0.750000  0.751175  0.413570  1
  P  P7  1  0.250000  0.250872  0.579279  1
  Pd  Pd8  1  0.250000  0.758590  0.579639  1
  Pd  Pd9  1  0.750000  0.238112  0.414642  1
  Pd  Pd10  1  0.750000  0.763062  0.085660  1
  Pd  Pd11  1  0.250000  0.244069  0.920252  1
