# generated using pymatgen
data_LaSm2Y3OsI10
_symmetry_space_group_name_H-M   'P 1'
_cell_length_a   7.85051471
_cell_length_b   9.98001908
_cell_length_c   9.84118985
_cell_angle_alpha   107.13362579
_cell_angle_beta   96.31042613
_cell_angle_gamma   104.94981097
_symmetry_Int_Tables_number   1
_chemical_formula_structural   LaSm2Y3OsI10
_chemical_formula_sum   'La1 Sm2 Y3 Os1 I10'
_cell_volume   697.30014146
_cell_formula_units_Z   1
loop_
 _symmetry_equiv_pos_site_id
 _symmetry_equiv_pos_as_xyz
  1  'x, y, z'
loop_
 _atom_site_type_symbol
 _atom_site_label
 _atom_site_symmetry_multiplicity
 _atom_site_fract_x
 _atom_site_fract_y
 _atom_site_fract_z
 _atom_site_occupancy
  La  La0  1  0.612211  0.040483  0.266779  1
  Sm  Sm1  1  0.470329  0.292744  0.592599  1
  Sm  Sm2  1  0.530672  0.709125  0.412897  1
  Y  Y3  1  0.853074  0.127024  0.670065  1
  Y  Y4  1  0.146127  0.871603  0.329346  1
  Y  Y5  1  0.389133  0.959370  0.725353  1
  Os  Os6  1  0.504043  0.002680  0.492804  1
  I  I7  1  0.412005  0.638606  0.684515  1
  I  I8  1  0.583349  0.375978  0.324589  1
  I  I9  1  0.279867  0.249359  0.849195  1
  I  I10  1  0.724938  0.734655  0.153036  1
  I  I11  1  0.859046  0.448919  0.772584  1
  I  I12  1  0.144352  0.550670  0.229439  1
  I  I13  1  0.049836  0.180185  0.413875  1
  I  I14  1  0.228046  0.909077  0.038800  1
  I  I15  1  0.749456  0.084006  0.950379  1
  I  I16  1  0.963518  0.825517  0.593745  1
