# generated using pymatgen
data_Zr3Nb3Fe16Si7
_symmetry_space_group_name_H-M   'P 1'
_cell_length_a   8.01042216
_cell_length_b   8.03974362
_cell_length_c   8.02413224
_cell_angle_alpha   59.81401296
_cell_angle_beta   60.17770701
_cell_angle_gamma   59.98308140
_symmetry_Int_Tables_number   1
_chemical_formula_structural   Zr3Nb3Fe16Si7
_chemical_formula_sum   'Zr3 Nb3 Fe16 Si7'
_cell_volume   365.33324689
_cell_formula_units_Z   1
loop_
 _symmetry_equiv_pos_site_id
 _symmetry_equiv_pos_as_xyz
  1  'x, y, z'
loop_
 _atom_site_type_symbol
 _atom_site_label
 _atom_site_symmetry_multiplicity
 _atom_site_fract_x
 _atom_site_fract_y
 _atom_site_fract_z
 _atom_site_occupancy
  Zr  Zr0  1  0.798257  0.202876  0.797024  1
  Zr  Zr1  1  0.793025  0.793034  0.206882  1
  Zr  Zr2  1  0.202949  0.798258  0.201767  1
  Nb  Nb3  1  0.206212  0.206245  0.793777  1
  Nb  Nb4  1  0.211156  0.790547  0.788758  1
  Nb  Nb5  1  0.790562  0.211198  0.209447  1
  Fe  Fe6  1  0.864358  0.374852  0.377289  1
  Fe  Fe7  1  0.622779  0.616564  0.135418  1
  Fe  Fe8  1  0.374808  0.381229  0.860543  1
  Fe  Fe9  1  0.826617  0.524262  0.825245  1
  Fe  Fe10  1  0.826002  0.824515  0.823413  1
  Fe  Fe11  1  0.824511  0.825880  0.526332  1
  Fe  Fe12  1  0.381284  0.374863  0.383431  1
  Fe  Fe13  1  0.139389  0.616639  0.625180  1
  Fe  Fe14  1  0.616570  0.622784  0.625203  1
  Fe  Fe15  1  0.174721  0.175966  0.173423  1
  Fe  Fe16  1  0.176575  0.473859  0.174057  1
  Fe  Fe17  1  0.524223  0.826585  0.823982  1
  Fe  Fe18  1  0.616637  0.139360  0.618756  1
  Fe  Fe19  1  0.176004  0.174658  0.475890  1
  Fe  Fe20  1  0.374829  0.864408  0.383458  1
  Fe  Fe21  1  0.473890  0.176540  0.175486  1
  Si  Si22  1  0.499839  0.000853  0.999035  1
  Si  Si23  1  0.000162  0.500328  0.999566  1
  Si  Si24  1  0.500251  0.500244  0.999722  1
  Si  Si25  1  0.503285  0.503322  0.496718  1
  Si  Si26  1  0.000852  0.499777  0.500357  1
  Si  Si27  1  0.000135  0.000101  0.499952  1
  Si  Si28  1  0.500118  0.000249  0.499893  1
