# generated using pymatgen
data_Dy16GaHg5Pt2
_symmetry_space_group_name_H-M   'P 1'
_cell_length_a   10.19770800
_cell_length_b   10.20955680
_cell_length_c   7.15477560
_cell_angle_alpha   90.10529291
_cell_angle_beta   90.00000000
_cell_angle_gamma   119.96161642
_symmetry_Int_Tables_number   1
_chemical_formula_structural   Dy16GaHg5Pt2
_chemical_formula_sum   'Dy16 Ga1 Hg5 Pt2'
_cell_volume   645.36139087
_cell_formula_units_Z   1
loop_
 _symmetry_equiv_pos_site_id
 _symmetry_equiv_pos_as_xyz
  1  'x, y, z'
loop_
 _atom_site_type_symbol
 _atom_site_label
 _atom_site_symmetry_multiplicity
 _atom_site_fract_x
 _atom_site_fract_y
 _atom_site_fract_z
 _atom_site_occupancy
  Dy  Dy0  1  0.169263  0.827987  0.513860  1
  Dy  Dy1  1  0.658724  0.827987  0.513860  1
  Dy  Dy2  1  0.169792  0.339583  0.514166  1
  Dy  Dy3  1  0.831658  0.172071  0.015119  1
  Dy  Dy4  1  0.340413  0.172071  0.015119  1
  Dy  Dy5  1  0.829171  0.658341  0.016892  1
  Dy  Dy6  1  0.332868  0.665737  0.832347  1
  Dy  Dy7  1  0.668430  0.336860  0.335318  1
  Dy  Dy8  1  0.466468  0.535852  0.206045  1
  Dy  Dy9  1  0.069383  0.535852  0.206045  1
  Dy  Dy10  1  0.465366  0.930732  0.206057  1
  Dy  Dy11  1  0.537821  0.466651  0.704627  1
  Dy  Dy12  1  0.928832  0.466651  0.704627  1
  Dy  Dy13  1  0.535910  0.071818  0.706420  1
  Dy  Dy14  1  0.995760  0.991519  0.233555  1
  Dy  Dy15  1  0.997105  0.994211  0.731336  1
  Ga  Ga16  1  0.836430  0.672860  0.456455  1
  Hg  Hg17  1  0.165708  0.833974  0.954360  1
  Hg  Hg18  1  0.668266  0.833974  0.954360  1
  Hg  Hg19  1  0.166583  0.333168  0.952948  1
  Hg  Hg20  1  0.832378  0.165420  0.454151  1
  Hg  Hg21  1  0.333042  0.165420  0.454151  1
  Pt  Pt22  1  0.333172  0.666345  0.445575  1
  Pt  Pt23  1  0.667459  0.334917  0.947442  1
