# generated using pymatgen
data_Er3Mn4Ni5P6
_symmetry_space_group_name_H-M   'P 1'
_cell_length_a   3.78035500
_cell_length_b   10.44145600
_cell_length_c   12.49545300
_cell_angle_alpha   90.00000000
_cell_angle_beta   90.00000000
_cell_angle_gamma   90.00000000
_symmetry_Int_Tables_number   1
_chemical_formula_structural   Er3Mn4Ni5P6
_chemical_formula_sum   'Er6 Mn8 Ni10 P12'
_cell_volume   493.22564891
_cell_formula_units_Z   2
loop_
 _symmetry_equiv_pos_site_id
 _symmetry_equiv_pos_as_xyz
  1  'x, y, z'
loop_
 _atom_site_type_symbol
 _atom_site_label
 _atom_site_symmetry_multiplicity
 _atom_site_fract_x
 _atom_site_fract_y
 _atom_site_fract_z
 _atom_site_occupancy
  Er  Er0  1  0.000000  0.500000  0.521981  1
  Er  Er1  1  0.500000  0.000000  0.478019  1
  Er  Er2  1  0.500000  0.818163  0.212871  1
  Er  Er3  1  0.500000  0.181837  0.212871  1
  Er  Er4  1  0.000000  0.681837  0.787129  1
  Er  Er5  1  0.000000  0.318163  0.787129  1
  Mn  Mn6  1  0.500000  0.500000  0.163223  1
  Mn  Mn7  1  0.000000  0.000000  0.836777  1
  Mn  Mn8  1  0.000000  0.500000  0.985100  1
  Mn  Mn9  1  0.500000  0.000000  0.014900  1
  Mn  Mn10  1  0.500000  0.334773  0.997764  1
  Mn  Mn11  1  0.500000  0.665227  0.997764  1
  Mn  Mn12  1  0.000000  0.165227  0.002236  1
  Mn  Mn13  1  0.000000  0.834773  0.002236  1
  Ni  Ni14  1  0.500000  0.500000  0.699158  1
  Ni  Ni15  1  0.000000  0.000000  0.300842  1
  Ni  Ni16  1  0.500000  0.300823  0.430484  1
  Ni  Ni17  1  0.500000  0.699177  0.430484  1
  Ni  Ni18  1  0.000000  0.199177  0.569516  1
  Ni  Ni19  1  0.000000  0.800823  0.569516  1
  Ni  Ni20  1  0.500000  0.878557  0.707336  1
  Ni  Ni21  1  0.500000  0.121443  0.707336  1
  Ni  Ni22  1  0.000000  0.621443  0.292664  1
  Ni  Ni23  1  0.000000  0.378557  0.292664  1
  P  P24  1  0.500000  0.500000  0.874989  1
  P  P25  1  0.000000  0.000000  0.125011  1
  P  P26  1  0.500000  0.500000  0.350818  1
  P  P27  1  0.000000  0.000000  0.649182  1
  P  P28  1  0.500000  0.313581  0.613466  1
  P  P29  1  0.500000  0.686419  0.613466  1
  P  P30  1  0.000000  0.186419  0.386534  1
  P  P31  1  0.000000  0.813581  0.386534  1
  P  P32  1  0.500000  0.843926  0.887729  1
  P  P33  1  0.500000  0.156074  0.887729  1
  P  P34  1  0.000000  0.656074  0.112271  1
  P  P35  1  0.000000  0.343926  0.112271  1
