# generated using pymatgen
data_TbEr7(Hf3Ge4)4
_symmetry_space_group_name_H-M   'P 1'
_cell_length_a   7.37166826
_cell_length_b   7.37029073
_cell_length_c   13.50114026
_cell_angle_alpha   89.99191075
_cell_angle_beta   89.99342523
_cell_angle_gamma   90.07143376
_symmetry_Int_Tables_number   1
_chemical_formula_structural   TbEr7(Hf3Ge4)4
_chemical_formula_sum   'Tb1 Er7 Hf12 Ge16'
_cell_volume   733.53443553
_cell_formula_units_Z   1
loop_
 _symmetry_equiv_pos_site_id
 _symmetry_equiv_pos_as_xyz
  1  'x, y, z'
loop_
 _atom_site_type_symbol
 _atom_site_label
 _atom_site_symmetry_multiplicity
 _atom_site_fract_x
 _atom_site_fract_y
 _atom_site_fract_z
 _atom_site_occupancy
  Tb  Tb0  1  0.659683  0.002196  0.281894  1
  Er  Er1  1  0.999290  0.340681  0.218158  1
  Er  Er2  1  0.001397  0.659572  0.718518  1
  Er  Er3  1  0.159597  0.499080  0.468881  1
  Er  Er4  1  0.500993  0.840062  0.031131  1
  Er  Er5  1  0.840682  0.500902  0.968304  1
  Er  Er6  1  0.498728  0.159431  0.531697  1
  Er  Er7  1  0.340490  0.998376  0.781489  1
  Hf  Hf8  1  0.171589  0.171540  0.999661  1
  Hf  Hf9  1  0.828426  0.828552  0.500259  1
  Hf  Hf10  1  0.328291  0.671087  0.249955  1
  Hf  Hf11  1  0.671531  0.328626  0.750003  1
  Hf  Hf12  1  0.158357  0.997088  0.375777  1
  Hf  Hf13  1  0.842385  0.002913  0.875766  1
  Hf  Hf14  1  0.503044  0.657847  0.626539  1
  Hf  Hf15  1  0.342234  0.496896  0.873823  1
  Hf  Hf16  1  0.496023  0.341838  0.125357  1
  Hf  Hf17  1  0.658057  0.503550  0.374318  1
  Hf  Hf18  1  0.996980  0.157790  0.624541  1
  Hf  Hf19  1  0.002581  0.841556  0.123794  1
  Ge  Ge20  1  0.366455  0.301787  0.323828  1
  Ge  Ge21  1  0.633061  0.699637  0.824024  1
  Ge  Ge22  1  0.199678  0.867439  0.573980  1
  Ge  Ge23  1  0.132921  0.800128  0.926072  1
  Ge  Ge24  1  0.800762  0.132908  0.073363  1
  Ge  Ge25  1  0.868747  0.200882  0.426999  1
  Ge  Ge26  1  0.300603  0.367014  0.676154  1
  Ge  Ge27  1  0.699420  0.631718  0.175746  1
  Ge  Ge28  1  0.296570  0.034961  0.180707  1
  Ge  Ge29  1  0.702323  0.964942  0.681325  1
  Ge  Ge30  1  0.463496  0.796707  0.432008  1
  Ge  Ge31  1  0.202102  0.535497  0.068405  1
  Ge  Ge32  1  0.535582  0.202013  0.930985  1
  Ge  Ge33  1  0.797757  0.464856  0.568927  1
  Ge  Ge34  1  0.035226  0.297632  0.818740  1
  Ge  Ge35  1  0.964942  0.702296  0.318874  1
