# generated using pymatgen
data_TbHo2U5(SnPt2)4
_symmetry_space_group_name_H-M   'P 1'
_cell_length_a   7.76458141
_cell_length_b   7.76458074
_cell_length_c   7.30504800
_cell_angle_alpha   90.00000000
_cell_angle_beta   90.00000000
_cell_angle_gamma   88.37860633
_symmetry_Int_Tables_number   1
_chemical_formula_structural   TbHo2U5(SnPt2)4
_chemical_formula_sum   'Tb1 Ho2 U5 Sn4 Pt8'
_cell_volume   440.23565609
_cell_formula_units_Z   1
loop_
 _symmetry_equiv_pos_site_id
 _symmetry_equiv_pos_as_xyz
  1  'x, y, z'
loop_
 _atom_site_type_symbol
 _atom_site_label
 _atom_site_symmetry_multiplicity
 _atom_site_fract_x
 _atom_site_fract_y
 _atom_site_fract_z
 _atom_site_occupancy
  Tb  Tb0  1  0.182740  0.182740  0.000000  1
  Ho  Ho1  1  0.843318  0.843318  0.500000  1
  Ho  Ho2  1  0.158071  0.158071  0.500000  1
  U  U3  1  0.686415  0.318250  0.500000  1
  U  U4  1  0.318250  0.686415  0.500000  1
  U  U5  1  0.815523  0.815523  0.000000  1
  U  U6  1  0.345621  0.654169  0.000000  1
  U  U7  1  0.654169  0.345621  0.000000  1
  Sn  Sn8  1  0.497587  0.002351  0.252932  1
  Sn  Sn9  1  0.002351  0.497587  0.747068  1
  Sn  Sn10  1  0.497587  0.002351  0.747068  1
  Sn  Sn11  1  0.002351  0.497587  0.252932  1
  Pt  Pt12  1  0.862627  0.128773  0.221973  1
  Pt  Pt13  1  0.128773  0.862627  0.221973  1
  Pt  Pt14  1  0.375001  0.375001  0.718172  1
  Pt  Pt15  1  0.631608  0.631608  0.725485  1
  Pt  Pt16  1  0.128773  0.862627  0.778027  1
  Pt  Pt17  1  0.862627  0.128773  0.778027  1
  Pt  Pt18  1  0.631608  0.631608  0.274515  1
  Pt  Pt19  1  0.375001  0.375001  0.281828  1
