# generated using pymatgen
data_Dy4Ho8Os3Ru
_symmetry_space_group_name_H-M   'P 1'
_cell_length_a   6.31265307
_cell_length_b   7.36395854
_cell_length_c   9.06852200
_cell_angle_alpha   90.00000000
_cell_angle_beta   90.00000000
_cell_angle_gamma   89.95208894
_symmetry_Int_Tables_number   1
_chemical_formula_structural   Dy4Ho8Os3Ru
_chemical_formula_sum   'Dy4 Ho8 Os3 Ru1'
_cell_volume   421.56021352
_cell_formula_units_Z   1
loop_
 _symmetry_equiv_pos_site_id
 _symmetry_equiv_pos_as_xyz
  1  'x, y, z'
loop_
 _atom_site_type_symbol
 _atom_site_label
 _atom_site_symmetry_multiplicity
 _atom_site_fract_x
 _atom_site_fract_y
 _atom_site_fract_z
 _atom_site_occupancy
  Dy  Dy0  1  0.868707  0.538510  0.250000  1
  Dy  Dy1  1  0.630981  0.038968  0.250000  1
  Dy  Dy2  1  0.132945  0.460701  0.750000  1
  Dy  Dy3  1  0.368970  0.959262  0.750000  1
  Ho  Ho4  1  0.329846  0.675916  0.064443  1
  Ho  Ho5  1  0.169220  0.175485  0.437084  1
  Ho  Ho6  1  0.668483  0.324290  0.563300  1
  Ho  Ho7  1  0.832397  0.825317  0.937451  1
  Ho  Ho8  1  0.668483  0.324290  0.936700  1
  Ho  Ho9  1  0.832397  0.825317  0.562549  1
  Ho  Ho10  1  0.329846  0.675916  0.435557  1
  Ho  Ho11  1  0.169220  0.175485  0.062916  1
  Os  Os12  1  0.039608  0.883825  0.250000  1
  Os  Os13  1  0.460245  0.384149  0.250000  1
  Os  Os14  1  0.960407  0.116426  0.750000  1
  Ru  Ru15  1  0.538241  0.616142  0.750000  1
