# generated using pymatgen
data_Dy3Tm2Lu(Al3Ru)8
_symmetry_space_group_name_H-M   'P 1'
_cell_length_a   8.76504303
_cell_length_b   8.76861531
_cell_length_c   9.58072100
_cell_angle_alpha   89.99994933
_cell_angle_beta   89.99950044
_cell_angle_gamma   120.01898195
_symmetry_Int_Tables_number   1
_chemical_formula_structural   Dy3Tm2Lu(Al3Ru)8
_chemical_formula_sum   'Dy3 Tm2 Lu1 Al24 Ru8'
_cell_volume   637.57428623
_cell_formula_units_Z   1
loop_
 _symmetry_equiv_pos_site_id
 _symmetry_equiv_pos_as_xyz
  1  'x, y, z'
loop_
 _atom_site_type_symbol
 _atom_site_label
 _atom_site_symmetry_multiplicity
 _atom_site_fract_x
 _atom_site_fract_y
 _atom_site_fract_z
 _atom_site_occupancy
  Dy  Dy0  1  0.193470  0.806262  0.250003  1
  Dy  Dy1  1  0.387083  0.193544  0.750000  1
  Dy  Dy2  1  0.613039  0.806343  0.249997  1
  Tm  Tm3  1  0.806124  0.611986  0.750003  1
  Tm  Tm4  1  0.193997  0.387905  0.249999  1
  Lu  Lu5  1  0.805115  0.195117  0.750001  1
  Al  Al6  1  0.667090  0.333481  0.980123  1
  Al  Al7  1  0.333176  0.666253  0.019076  1
  Al  Al8  1  0.333180  0.666258  0.480925  1
  Al  Al9  1  0.667088  0.333479  0.519878  1
  Al  Al10  1  0.837404  0.163058  0.423048  1
  Al  Al11  1  0.162667  0.836853  0.577813  1
  Al  Al12  1  0.325852  0.163080  0.422505  1
  Al  Al13  1  0.162662  0.836851  0.922188  1
  Al  Al14  1  0.674581  0.837470  0.577953  1
  Al  Al15  1  0.837409  0.163061  0.076951  1
  Al  Al16  1  0.837085  0.674012  0.422831  1
  Al  Al17  1  0.674584  0.837468  0.922048  1
  Al  Al18  1  0.162357  0.325554  0.577629  1
  Al  Al19  1  0.325851  0.163082  0.077495  1
  Al  Al20  1  0.162353  0.325552  0.922372  1
  Al  Al21  1  0.837084  0.674012  0.077168  1
  Al  Al22  1  0.438765  0.561832  0.750001  1
  Al  Al23  1  0.561289  0.438139  0.249999  1
  Al  Al24  1  0.122153  0.560840  0.750003  1
  Al  Al25  1  0.877089  0.438074  0.249999  1
  Al  Al26  1  0.439152  0.877255  0.749997  1
  Al  Al27  1  0.561926  0.123518  0.250003  1
  Al  Al28  1  0.998736  0.000441  0.750001  1
  Al  Al29  1  0.000390  0.000458  0.249999  1
  Ru  Ru30  1  0.500131  0.499873  0.999899  1
  Ru  Ru31  1  0.999670  0.499278  0.999506  1
  Ru  Ru32  1  0.500133  0.499875  0.500098  1
  Ru  Ru33  1  0.500727  0.000320  0.999513  1
  Ru  Ru34  1  0.999667  0.499276  0.500491  1
  Ru  Ru35  1  0.500720  0.000322  0.500484  1
  Ru  Ru36  1  0.000101  0.999913  0.999974  1
  Ru  Ru37  1  0.000098  0.999910  0.500027  1
