# generated using pymatgen
data_Dy15Sc5Bi12
_symmetry_space_group_name_H-M   'P 1'
_cell_length_a   8.09541661
_cell_length_b   9.39836490
_cell_length_c   11.95675009
_cell_angle_alpha   89.94418266
_cell_angle_beta   90.12234876
_cell_angle_gamma   89.96470314
_symmetry_Int_Tables_number   1
_chemical_formula_structural   Dy15Sc5Bi12
_chemical_formula_sum   'Dy15 Sc5 Bi12'
_cell_volume   909.71085985
_cell_formula_units_Z   1
loop_
 _symmetry_equiv_pos_site_id
 _symmetry_equiv_pos_as_xyz
  1  'x, y, z'
loop_
 _atom_site_type_symbol
 _atom_site_label
 _atom_site_symmetry_multiplicity
 _atom_site_fract_x
 _atom_site_fract_y
 _atom_site_fract_z
 _atom_site_occupancy
  Dy  Dy0  1  0.352656  0.247057  0.282654  1
  Dy  Dy1  1  0.643951  0.749557  0.716056  1
  Dy  Dy2  1  0.144435  0.748758  0.784786  1
  Dy  Dy3  1  0.856120  0.248854  0.214710  1
  Dy  Dy4  1  0.184160  0.248930  0.780954  1
  Dy  Dy5  1  0.814907  0.749546  0.219331  1
  Dy  Dy6  1  0.315820  0.750595  0.280265  1
  Dy  Dy7  1  0.683745  0.249357  0.720668  1
  Dy  Dy8  1  0.804841  0.936198  0.941114  1
  Dy  Dy9  1  0.304147  0.935580  0.558767  1
  Dy  Dy10  1  0.807061  0.564582  0.942381  1
  Dy  Dy11  1  0.695289  0.064362  0.440997  1
  Dy  Dy12  1  0.195040  0.436865  0.058535  1
  Dy  Dy13  1  0.695362  0.435146  0.441073  1
  Dy  Dy14  1  0.304755  0.564806  0.559052  1
  Sc  Sc15  1  0.025045  0.249942  0.512240  1
  Sc  Sc16  1  0.975365  0.749475  0.486413  1
  Sc  Sc17  1  0.475141  0.750035  0.012855  1
  Sc  Sc18  1  0.522019  0.247817  0.988496  1
  Sc  Sc19  1  0.196561  0.069191  0.057497  1
  Bi  Bi20  1  0.401973  0.250319  0.542044  1
  Bi  Bi21  1  0.598205  0.749737  0.457450  1
  Bi  Bi22  1  0.101545  0.759936  0.044061  1
  Bi  Bi23  1  0.906019  0.247596  0.958845  1
  Bi  Bi24  1  0.066164  0.003847  0.330000  1
  Bi  Bi25  1  0.934233  0.995708  0.668132  1
  Bi  Bi26  1  0.432515  0.995648  0.833559  1
  Bi  Bi27  1  0.934011  0.503254  0.668350  1
  Bi  Bi28  1  0.562833  0.003736  0.166882  1
  Bi  Bi29  1  0.066139  0.495663  0.331043  1
  Bi  Bi30  1  0.565679  0.494990  0.168221  1
  Bi  Bi31  1  0.434265  0.502915  0.832572  1
