# generated using pymatgen
data_DyLu6Hf3(Si5Ir2)4
_symmetry_space_group_name_H-M   'P 1'
_cell_length_a   12.47771395
_cell_length_b   12.47771332
_cell_length_c   4.18216800
_cell_angle_alpha   90.00000000
_cell_angle_beta   90.00000000
_cell_angle_gamma   89.94132535
_symmetry_Int_Tables_number   1
_chemical_formula_structural   DyLu6Hf3(Si5Ir2)4
_chemical_formula_sum   'Dy1 Lu6 Hf3 Si20 Ir8'
_cell_volume   651.13535310
_cell_formula_units_Z   1
loop_
 _symmetry_equiv_pos_site_id
 _symmetry_equiv_pos_as_xyz
  1  'x, y, z'
loop_
 _atom_site_type_symbol
 _atom_site_label
 _atom_site_symmetry_multiplicity
 _atom_site_fract_x
 _atom_site_fract_y
 _atom_site_fract_z
 _atom_site_occupancy
  Dy  Dy0  1  0.611920  0.888080  0.500000  1
  Lu  Lu1  1  0.499846  0.500796  0.000000  1
  Lu  Lu2  1  0.999204  0.000154  0.000000  1
  Lu  Lu3  1  0.825388  0.674612  0.500000  1
  Lu  Lu4  1  0.884430  0.382219  0.500000  1
  Lu  Lu5  1  0.117781  0.615570  0.500000  1
  Lu  Lu6  1  0.383536  0.116464  0.500000  1
  Hf  Hf7  1  0.673912  0.175115  0.500000  1
  Hf  Hf8  1  0.324885  0.826088  0.500000  1
  Hf  Hf9  1  0.174793  0.325207  0.500000  1
  Si  Si10  1  0.566173  0.067666  0.000000  1
  Si  Si11  1  0.432334  0.933827  0.000000  1
  Si  Si12  1  0.067042  0.432958  0.000000  1
  Si  Si13  1  0.934318  0.565682  0.000000  1
  Si  Si14  1  0.662859  0.701055  0.000000  1
  Si  Si15  1  0.334329  0.300194  0.000000  1
  Si  Si16  1  0.166044  0.800604  0.000000  1
  Si  Si17  1  0.835074  0.200810  0.000000  1
  Si  Si18  1  0.299190  0.664926  0.000000  1
  Si  Si19  1  0.699396  0.333956  0.000000  1
  Si  Si20  1  0.199806  0.165671  0.000000  1
  Si  Si21  1  0.798945  0.837141  0.000000  1
  Si  Si22  1  0.655772  0.498356  0.500000  1
  Si  Si23  1  0.344405  0.489755  0.500000  1
  Si  Si24  1  0.154683  0.991527  0.500000  1
  Si  Si25  1  0.843009  0.005347  0.500000  1
  Si  Si26  1  0.494653  0.656991  0.500000  1
  Si  Si27  1  0.508473  0.345317  0.500000  1
  Si  Si28  1  0.010245  0.155595  0.500000  1
  Si  Si29  1  0.001644  0.844228  0.500000  1
  Ir  Ir30  1  0.744775  0.519015  0.000000  1
  Ir  Ir31  1  0.253845  0.479326  0.000000  1
  Ir  Ir32  1  0.245765  0.980259  0.000000  1
  Ir  Ir33  1  0.754136  0.024012  0.000000  1
  Ir  Ir34  1  0.475988  0.745864  0.000000  1
  Ir  Ir35  1  0.519741  0.254235  0.000000  1
  Ir  Ir36  1  0.020674  0.246155  0.000000  1
  Ir  Ir37  1  0.980985  0.755225  0.000000  1
