# generated using pymatgen
data_KHf8(In2Co)7
_symmetry_space_group_name_H-M   'P 1'
_cell_length_a   9.46051497
_cell_length_b   9.46050900
_cell_length_c   9.46051600
_cell_angle_alpha   59.99997551
_cell_angle_beta   59.99999640
_cell_angle_gamma   59.99999620
_symmetry_Int_Tables_number   1
_chemical_formula_structural   KHf8(In2Co)7
_chemical_formula_sum   'K1 Hf8 In14 Co7'
_cell_volume   598.72721906
_cell_formula_units_Z   1
loop_
 _symmetry_equiv_pos_site_id
 _symmetry_equiv_pos_as_xyz
  1  'x, y, z'
loop_
 _atom_site_type_symbol
 _atom_site_label
 _atom_site_symmetry_multiplicity
 _atom_site_fract_x
 _atom_site_fract_y
 _atom_site_fract_z
 _atom_site_occupancy
  K  K0  1  0.500000  0.500000  0.500000  1
  Hf  Hf1  1  0.119441  0.641668  0.119445  1
  Hf  Hf2  1  0.358332  0.880559  0.880555  1
  Hf  Hf3  1  0.880555  0.880555  0.880559  1
  Hf  Hf4  1  0.641668  0.119441  0.119445  1
  Hf  Hf5  1  0.880555  0.880555  0.358332  1
  Hf  Hf6  1  0.119445  0.119445  0.119441  1
  Hf  Hf7  1  0.880559  0.358332  0.880555  1
  Hf  Hf8  1  0.119445  0.119445  0.641668  1
  In  In9  1  0.499993  0.845833  0.154167  1
  In  In10  1  0.499993  0.845833  0.500006  1
  In  In11  1  0.500007  0.154167  0.499994  1
  In  In12  1  0.500000  0.500000  0.845830  1
  In  In13  1  0.154165  0.500006  0.499994  1
  In  In14  1  0.845831  0.154170  0.500000  1
  In  In15  1  0.154169  0.845830  0.500000  1
  In  In16  1  0.500007  0.154167  0.845833  1
  In  In17  1  0.154165  0.500006  0.845835  1
  In  In18  1  0.500000  0.500000  0.154170  1
  In  In19  1  0.845835  0.499994  0.500006  1
  In  In20  1  0.845835  0.499994  0.154165  1
  In  In21  1  0.250000  0.250000  0.250000  1
  In  In22  1  0.750000  0.750000  0.750000  1
  Co  Co23  1  0.784400  0.784401  0.215599  1
  Co  Co24  1  0.000000  0.000000  0.000000  1
  Co  Co25  1  0.215608  0.784392  0.215608  1
  Co  Co26  1  0.215608  0.784392  0.784392  1
  Co  Co27  1  0.215600  0.215599  0.784401  1
  Co  Co28  1  0.784392  0.215608  0.784392  1
  Co  Co29  1  0.784392  0.215608  0.215608  1
