# generated using pymatgen
data_Zr4ZnAsRh10
_symmetry_space_group_name_H-M   'P 1'
_cell_length_a   5.60934134
_cell_length_b   5.60933998
_cell_length_c   8.10470700
_cell_angle_alpha   90.00000000
_cell_angle_beta   90.00000000
_cell_angle_gamma   97.11626667
_symmetry_Int_Tables_number   1
_chemical_formula_structural   Zr4ZnAsRh10
_chemical_formula_sum   'Zr4 Zn1 As1 Rh10'
_cell_volume   253.04778750
_cell_formula_units_Z   1
loop_
 _symmetry_equiv_pos_site_id
 _symmetry_equiv_pos_as_xyz
  1  'x, y, z'
loop_
 _atom_site_type_symbol
 _atom_site_label
 _atom_site_symmetry_multiplicity
 _atom_site_fract_x
 _atom_site_fract_y
 _atom_site_fract_z
 _atom_site_occupancy
  Zr  Zr0  1  0.777952  0.222450  0.504199  1
  Zr  Zr1  1  0.222450  0.777952  0.995801  1
  Zr  Zr2  1  0.222450  0.777952  0.504199  1
  Zr  Zr3  1  0.777952  0.222450  0.995801  1
  Zn  Zn4  1  0.502815  0.502815  0.750000  1
  As  As5  1  0.495807  0.495807  0.250000  1
  Rh  Rh6  1  0.719252  0.719252  0.007514  1
  Rh  Rh7  1  0.719252  0.719252  0.492486  1
  Rh  Rh8  1  0.279772  0.279772  0.003787  1
  Rh  Rh9  1  0.279772  0.279772  0.496213  1
  Rh  Rh10  1  0.500036  0.000675  0.750000  1
  Rh  Rh11  1  0.500071  0.002613  0.250000  1
  Rh  Rh12  1  0.000074  0.000074  0.250000  1
  Rh  Rh13  1  0.999058  0.999058  0.750000  1
  Rh  Rh14  1  0.000675  0.500036  0.750000  1
  Rh  Rh15  1  0.002613  0.500071  0.250000  1
