# generated using pymatgen
data_Eu4Ga3NiI2
_symmetry_space_group_name_H-M   'P 1'
_cell_length_a   4.30924700
_cell_length_b   4.30924816
_cell_length_c   17.79940700
_cell_angle_alpha   90.00000000
_cell_angle_beta   90.00000000
_cell_angle_gamma   119.99998343
_symmetry_Int_Tables_number   1
_chemical_formula_structural   Eu4Ga3NiI2
_chemical_formula_sum   'Eu4 Ga3 Ni1 I2'
_cell_volume   286.24580495
_cell_formula_units_Z   1
loop_
 _symmetry_equiv_pos_site_id
 _symmetry_equiv_pos_as_xyz
  1  'x, y, z'
loop_
 _atom_site_type_symbol
 _atom_site_label
 _atom_site_symmetry_multiplicity
 _atom_site_fract_x
 _atom_site_fract_y
 _atom_site_fract_z
 _atom_site_occupancy
  Eu  Eu0  1  0.000000  0.000000  0.609342  1
  Eu  Eu1  1  0.000000  0.000000  0.392205  1
  Eu  Eu2  1  0.000000  0.000000  0.119420  1
  Eu  Eu3  1  0.000000  0.000000  0.880035  1
  Ga  Ga4  1  0.666667  0.333333  0.501640  1
  Ga  Ga5  1  0.333333  0.666667  0.008894  1
  Ga  Ga6  1  0.666667  0.333333  0.990267  1
  Ni  Ni7  1  0.333333  0.666667  0.498947  1
  I  I8  1  0.666667  0.333333  0.251135  1
  I  I9  1  0.333333  0.666667  0.748115  1
