# generated using pymatgen
data_Ti2NbV9Si10
_symmetry_space_group_name_H-M   'P 1'
_cell_length_a   4.88849294
_cell_length_b   7.57890470
_cell_length_c   9.20616467
_cell_angle_alpha   65.76161441
_cell_angle_beta   74.60328901
_cell_angle_gamma   90.00000922
_symmetry_Int_Tables_number   1
_chemical_formula_structural   Ti2NbV9Si10
_chemical_formula_sum   'Ti2 Nb1 V9 Si10'
_cell_volume   297.53925120
_cell_formula_units_Z   1
loop_
 _symmetry_equiv_pos_site_id
 _symmetry_equiv_pos_as_xyz
  1  'x, y, z'
loop_
 _atom_site_type_symbol
 _atom_site_label
 _atom_site_symmetry_multiplicity
 _atom_site_fract_x
 _atom_site_fract_y
 _atom_site_fract_z
 _atom_site_occupancy
  Ti  Ti0  1  0.641942  0.028666  0.716116  1
  Ti  Ti1  1  0.357770  0.974031  0.284457  1
  Nb  Nb2  1  0.858162  0.742282  0.283676  1
  V  V3  1  0.437804  0.690712  0.621857  1
  V  V4  1  0.059744  0.310279  0.379244  1
  V  V5  1  0.561012  0.310279  0.379244  1
  V  V6  1  0.940340  0.690712  0.621857  1
  V  V7  1  0.435258  0.681528  0.129484  1
  V  V8  1  0.564927  0.318249  0.870148  1
  V  V9  1  0.935669  0.189463  0.128664  1
  V  V10  1  0.063989  0.809414  0.872021  1
  V  V11  1  0.142413  0.257659  0.715173  1
  Si  Si12  1  0.064691  0.474175  0.870618  1
  Si  Si13  1  0.937645  0.519678  0.124710  1
  Si  Si14  1  0.563161  0.649384  0.873677  1
  Si  Si15  1  0.436529  0.350106  0.126943  1
  Si  Si16  1  0.751451  0.002424  0.996460  1
  Si  Si17  1  0.252090  0.002424  0.996460  1
  Si  Si18  1  0.284263  0.578393  0.431476  1
  Si  Si19  1  0.712827  0.416023  0.574347  1
  Si  Si20  1  0.785875  0.991696  0.428250  1
  Si  Si21  1  0.212440  0.012426  0.575121  1
