# generated using pymatgen
data_Ca2Si3Pd6Pt
_symmetry_space_group_name_H-M   'P 1'
_cell_length_a   6.77025332
_cell_length_b   6.73028971
_cell_length_c   6.77025400
_cell_angle_alpha   130.11435136
_cell_angle_beta   114.28020987
_cell_angle_gamma   87.01821486
_symmetry_Int_Tables_number   1
_chemical_formula_structural   Ca2Si3Pd6Pt
_chemical_formula_sum   'Ca2 Si3 Pd6 Pt1'
_cell_volume   204.77692674
_cell_formula_units_Z   1
loop_
 _symmetry_equiv_pos_site_id
 _symmetry_equiv_pos_as_xyz
  1  'x, y, z'
loop_
 _atom_site_type_symbol
 _atom_site_label
 _atom_site_symmetry_multiplicity
 _atom_site_fract_x
 _atom_site_fract_y
 _atom_site_fract_z
 _atom_site_occupancy
  Ca  Ca0  1  0.008801  0.974283  0.965482  1
  Ca  Ca1  1  0.495178  0.063940  0.568762  1
  Si  Si2  1  0.805114  0.238400  0.433286  1
  Si  Si3  1  0.628428  0.689833  0.061406  1
  Si  Si4  1  0.204606  0.618892  0.414287  1
  Pd  Pd5  1  0.935121  0.505142  0.949070  1
  Pd  Pd6  1  0.556072  0.505142  0.570020  1
  Pd  Pd7  1  0.024098  0.987255  0.524019  1
  Pd  Pd8  1  0.813003  0.473626  0.279765  1
  Pd  Pd9  1  0.193861  0.473626  0.660622  1
  Pd  Pd10  1  0.463235  0.987255  0.963156  1
  Pt  Pt11  1  0.372483  0.467609  0.095125  1
