# generated using pymatgen
data_Nd2Er7Tm(In2Pt)4
_symmetry_space_group_name_H-M   'P 1'
_cell_length_a   3.61170800
_cell_length_b   8.19037500
_cell_length_c   18.33207200
_cell_angle_alpha   90.00012234
_cell_angle_beta   90.00000000
_cell_angle_gamma   90.00000000
_symmetry_Int_Tables_number   1
_chemical_formula_structural   Nd2Er7Tm(In2Pt)4
_chemical_formula_sum   'Nd2 Er7 Tm1 In8 Pt4'
_cell_volume   542.28547488
_cell_formula_units_Z   1
loop_
 _symmetry_equiv_pos_site_id
 _symmetry_equiv_pos_as_xyz
  1  'x, y, z'
loop_
 _atom_site_type_symbol
 _atom_site_label
 _atom_site_symmetry_multiplicity
 _atom_site_fract_x
 _atom_site_fract_y
 _atom_site_fract_z
 _atom_site_occupancy
  Nd  Nd0  1  0.000000  0.999998  0.999998  1
  Nd  Nd1  1  0.000000  0.499988  0.500004  1
  Er  Er2  1  0.000000  0.879414  0.586298  1
  Er  Er3  1  0.000000  0.379434  0.913682  1
  Er  Er4  1  0.000000  0.620559  0.086321  1
  Er  Er5  1  0.000000  0.242333  0.219462  1
  Er  Er6  1  0.000000  0.757633  0.780564  1
  Er  Er7  1  0.000000  0.257631  0.719442  1
  Er  Er8  1  0.000000  0.742419  0.280581  1
  Tm  Tm9  1  0.000000  0.120411  0.413510  1
  In  In10  1  0.500000  0.421528  0.348066  1
  In  In11  1  0.500000  0.578310  0.651983  1
  In  In12  1  0.500000  0.078289  0.848022  1
  In  In13  1  0.500000  0.921722  0.151989  1
  In  In14  1  0.500000  0.300929  0.067537  1
  In  In15  1  0.500000  0.699067  0.932458  1
  In  In16  1  0.500000  0.199059  0.567470  1
  In  In17  1  0.500000  0.801144  0.432450  1
  Pt  Pt18  1  0.500000  0.026088  0.303766  1
  Pt  Pt19  1  0.500000  0.974061  0.696410  1
  Pt  Pt20  1  0.500000  0.474043  0.803574  1
  Pt  Pt21  1  0.500000  0.525941  0.196412  1
