# generated using pymatgen
data_La12Nd3YCd4Ru3Au
_symmetry_space_group_name_H-M   'P 1'
_cell_length_a   10.09759224
_cell_length_b   10.07677148
_cell_length_c   10.08474006
_cell_angle_alpha   59.86441120
_cell_angle_beta   60.25257543
_cell_angle_gamma   59.75005756
_symmetry_Int_Tables_number   1
_chemical_formula_structural   La12Nd3YCd4Ru3Au
_chemical_formula_sum   'La12 Nd3 Y1 Cd4 Ru3 Au1'
_cell_volume   724.82605550
_cell_formula_units_Z   1
loop_
 _symmetry_equiv_pos_site_id
 _symmetry_equiv_pos_as_xyz
  1  'x, y, z'
loop_
 _atom_site_type_symbol
 _atom_site_label
 _atom_site_symmetry_multiplicity
 _atom_site_fract_x
 _atom_site_fract_y
 _atom_site_fract_z
 _atom_site_occupancy
  La  La0  1  0.853546  0.841174  0.853434  1
  La  La1  1  0.693907  0.321557  0.294407  1
  La  La2  1  0.059672  0.435032  0.440663  1
  La  La3  1  0.316234  0.686165  0.688284  1
  La  La4  1  0.294675  0.322192  0.694632  1
  La  La5  1  0.855999  0.840485  0.452329  1
  La  La6  1  0.687920  0.685868  0.316290  1
  La  La7  1  0.452386  0.838631  0.856413  1
  La  La8  1  0.061660  0.437838  0.061206  1
  La  La9  1  0.839301  0.464358  0.840996  1
  La  La10  1  0.441062  0.056604  0.439212  1
  La  La11  1  0.311390  0.689389  0.310061  1
  Nd  Nd12  1  0.440346  0.432140  0.059459  1
  Nd  Nd13  1  0.063754  0.060587  0.441415  1
  Nd  Nd14  1  0.441274  0.060884  0.063847  1
  Y  Y15  1  0.691446  0.314885  0.693769  1
  Cd  Cd16  1  0.081901  0.757889  0.079882  1
  Cd  Cd17  1  0.074968  0.081474  0.760687  1
  Cd  Cd18  1  0.759318  0.083408  0.074731  1
  Cd  Cd19  1  0.079227  0.078614  0.079473  1
  Ru  Ru20  1  0.635521  0.649807  0.633498  1
  Ru  Ru21  1  0.638702  0.641821  0.083176  1
  Ru  Ru22  1  0.083591  0.640480  0.638986  1
  Au  Au23  1  0.642200  0.078716  0.643148  1
