# generated using pymatgen
data_Yb5Ti(Si3Ru)8
_symmetry_space_group_name_H-M   'P 1'
_cell_length_a   10.09068604
_cell_length_b   10.09068552
_cell_length_c   8.12117107
_cell_angle_alpha   89.99381673
_cell_angle_beta   89.99382102
_cell_angle_gamma   132.51357178
_symmetry_Int_Tables_number   1
_chemical_formula_structural   Yb5Ti(Si3Ru)8
_chemical_formula_sum   'Yb5 Ti1 Si24 Ru8'
_cell_volume   609.53213320
_cell_formula_units_Z   1
loop_
 _symmetry_equiv_pos_site_id
 _symmetry_equiv_pos_as_xyz
  1  'x, y, z'
loop_
 _atom_site_type_symbol
 _atom_site_label
 _atom_site_symmetry_multiplicity
 _atom_site_fract_x
 _atom_site_fract_y
 _atom_site_fract_z
 _atom_site_occupancy
  Yb  Yb0  1  0.500000  0.500000  0.500000  1
  Yb  Yb1  1  0.002477  0.502732  0.249814  1
  Yb  Yb2  1  0.997523  0.497268  0.750186  1
  Yb  Yb3  1  0.497268  0.997523  0.750186  1
  Yb  Yb4  1  0.502732  0.002477  0.249814  1
  Ti  Ti5  1  0.000000  0.000000  0.000000  1
  Si  Si6  1  0.705759  0.294241  0.000000  1
  Si  Si7  1  0.294241  0.705759  0.000000  1
  Si  Si8  1  0.794613  0.205387  0.500000  1
  Si  Si9  1  0.205387  0.794613  0.500000  1
  Si  Si10  1  0.331002  0.331002  0.166904  1
  Si  Si11  1  0.668998  0.668998  0.833096  1
  Si  Si12  1  0.165138  0.165138  0.670604  1
  Si  Si13  1  0.834862  0.834862  0.329396  1
  Si  Si14  1  0.845951  0.614784  0.004536  1
  Si  Si15  1  0.154049  0.385216  0.995464  1
  Si  Si16  1  0.653524  0.886593  0.505988  1
  Si  Si17  1  0.113407  0.346476  0.494012  1
  Si  Si18  1  0.346476  0.113407  0.494012  1
  Si  Si19  1  0.886593  0.653524  0.505988  1
  Si  Si20  1  0.385216  0.154049  0.995464  1
  Si  Si21  1  0.614784  0.845951  0.004536  1
  Si  Si22  1  0.892651  0.121835  0.267365  1
  Si  Si23  1  0.107349  0.878165  0.732635  1
  Si  Si24  1  0.609868  0.376505  0.770852  1
  Si  Si25  1  0.623495  0.390132  0.229148  1
  Si  Si26  1  0.390132  0.623495  0.229148  1
  Si  Si27  1  0.376505  0.609868  0.770852  1
  Si  Si28  1  0.878165  0.107349  0.732635  1
  Si  Si29  1  0.121835  0.892651  0.267365  1
  Ru  Ru30  1  0.832644  0.167356  0.000000  1
  Ru  Ru31  1  0.167356  0.832644  0.000000  1
  Ru  Ru32  1  0.669439  0.330561  0.500000  1
  Ru  Ru33  1  0.330561  0.669439  0.500000  1
  Ru  Ru34  1  0.126429  0.126429  0.373246  1
  Ru  Ru35  1  0.873571  0.873571  0.626754  1
  Ru  Ru36  1  0.370951  0.370951  0.875692  1
  Ru  Ru37  1  0.629049  0.629049  0.124308  1
