# generated using pymatgen
data_Er8Si13Ni3
_symmetry_space_group_name_H-M   'P 1'
_cell_length_a   7.93485700
_cell_length_b   7.93485648
_cell_length_c   7.95717300
_cell_angle_alpha   90.00000000
_cell_angle_beta   90.00000000
_cell_angle_gamma   119.99998967
_symmetry_Int_Tables_number   1
_chemical_formula_structural   Er8Si13Ni3
_chemical_formula_sum   'Er8 Si13 Ni3'
_cell_volume   433.87802786
_cell_formula_units_Z   1
loop_
 _symmetry_equiv_pos_site_id
 _symmetry_equiv_pos_as_xyz
  1  'x, y, z'
loop_
 _atom_site_type_symbol
 _atom_site_label
 _atom_site_symmetry_multiplicity
 _atom_site_fract_x
 _atom_site_fract_y
 _atom_site_fract_z
 _atom_site_occupancy
  Er  Er0  1  0.500527  0.001057  0.249929  1
  Er  Er1  1  0.500574  0.001146  0.750153  1
  Er  Er2  1  0.998943  0.499473  0.249929  1
  Er  Er3  1  0.998854  0.499426  0.750153  1
  Er  Er4  1  0.500527  0.499473  0.249929  1
  Er  Er5  1  0.500574  0.499426  0.750153  1
  Er  Er6  1  0.000000  0.000000  0.248473  1
  Er  Er7  1  0.000000  0.000000  0.751529  1
  Si  Si8  1  0.171368  0.342736  0.000021  1
  Si  Si9  1  0.828825  0.657651  0.000104  1
  Si  Si10  1  0.657264  0.828632  0.000021  1
  Si  Si11  1  0.825954  0.651908  0.500035  1
  Si  Si12  1  0.342349  0.171175  0.000104  1
  Si  Si13  1  0.163326  0.326651  0.499831  1
  Si  Si14  1  0.171368  0.828632  0.000021  1
  Si  Si15  1  0.348092  0.174046  0.500035  1
  Si  Si16  1  0.828825  0.171175  0.000104  1
  Si  Si17  1  0.673349  0.836674  0.499831  1
  Si  Si18  1  0.825954  0.174046  0.500035  1
  Si  Si19  1  0.163326  0.836674  0.499831  1
  Si  Si20  1  0.333333  0.666667  0.500376  1
  Ni  Ni21  1  0.333333  0.666667  0.999549  1
  Ni  Ni22  1  0.666667  0.333333  0.999809  1
  Ni  Ni23  1  0.666667  0.333333  0.500047  1
