# generated using pymatgen
data_Dy3Y3(AuO7)2
_symmetry_space_group_name_H-M   'P 1'
_cell_length_a   6.50267101
_cell_length_b   6.50438417
_cell_length_c   7.45784900
_cell_angle_alpha   90.00000000
_cell_angle_beta   90.00000000
_cell_angle_gamma   108.90319444
_symmetry_Int_Tables_number   1
_chemical_formula_structural   Dy3Y3(AuO7)2
_chemical_formula_sum   'Dy3 Y3 Au2 O14'
_cell_volume   298.42388734
_cell_formula_units_Z   1
loop_
 _symmetry_equiv_pos_site_id
 _symmetry_equiv_pos_as_xyz
  1  'x, y, z'
loop_
 _atom_site_type_symbol
 _atom_site_label
 _atom_site_symmetry_multiplicity
 _atom_site_fract_x
 _atom_site_fract_y
 _atom_site_fract_z
 _atom_site_occupancy
  Dy  Dy0  1  0.528873  0.997850  0.750000  1
  Dy  Dy1  1  0.997802  0.528832  0.250000  1
  Dy  Dy2  1  0.471177  0.002180  0.250000  1
  Y  Y3  1  0.500009  0.500000  0.499933  1
  Y  Y4  1  0.500009  0.500000  0.000067  1
  Y  Y5  1  0.002432  0.471632  0.750000  1
  Au  Au6  1  0.000029  0.000015  0.499968  1
  Au  Au7  1  0.000029  0.000015  0.000032  1
  O  O8  1  0.670186  0.918454  0.475313  1
  O  O9  1  0.918222  0.670372  0.524241  1
  O  O10  1  0.670186  0.918454  0.024687  1
  O  O11  1  0.918222  0.670372  0.975759  1
  O  O12  1  0.329825  0.081524  0.524704  1
  O  O13  1  0.081655  0.329625  0.475024  1
  O  O14  1  0.329825  0.081524  0.975296  1
  O  O15  1  0.081655  0.329625  0.024976  1
  O  O16  1  0.920532  0.078875  0.750000  1
  O  O17  1  0.079386  0.920668  0.250000  1
  O  O18  1  0.368103  0.632394  0.750000  1
  O  O19  1  0.632263  0.367718  0.250000  1
  O  O20  1  0.638446  0.360985  0.750000  1
  O  O21  1  0.361133  0.638889  0.250000  1
