# generated using pymatgen
data_Cs3Rb5Zr2(PaTe6)2
_symmetry_space_group_name_H-M   'P 1'
_cell_length_a   15.11439286
_cell_length_b   7.20516842
_cell_length_c   9.98567903
_cell_angle_alpha   71.24403577
_cell_angle_beta   89.49419037
_cell_angle_gamma   89.22626044
_symmetry_Int_Tables_number   1
_chemical_formula_structural   Cs3Rb5Zr2(PaTe6)2
_chemical_formula_sum   'Cs3 Rb5 Zr2 Pa2 Te12'
_cell_volume   1029.60479472
_cell_formula_units_Z   1
loop_
 _symmetry_equiv_pos_site_id
 _symmetry_equiv_pos_as_xyz
  1  'x, y, z'
loop_
 _atom_site_type_symbol
 _atom_site_label
 _atom_site_symmetry_multiplicity
 _atom_site_fract_x
 _atom_site_fract_y
 _atom_site_fract_z
 _atom_site_occupancy
  Cs  Cs0  1  0.952271  0.668641  0.669469  1
  Cs  Cs1  1  0.451147  0.833326  0.329494  1
  Cs  Cs2  1  0.047435  0.333903  0.332452  1
  Rb  Rb3  1  0.540403  0.169923  0.654359  1
  Rb  Rb4  1  0.868457  0.082071  0.900233  1
  Rb  Rb5  1  0.370845  0.415521  0.099913  1
  Rb  Rb6  1  0.132668  0.928241  0.101842  1
  Rb  Rb7  1  0.629512  0.573408  0.899380  1
  Zr  Zr8  1  0.251829  0.347678  0.710655  1
  Zr  Zr9  1  0.749221  0.151362  0.291650  1
  Pa  Pa10  1  0.748524  0.651552  0.292038  1
  Pa  Pa11  1  0.252215  0.847954  0.710019  1
  Te  Te12  1  0.908713  0.909974  0.276650  1
  Te  Te13  1  0.411511  0.578877  0.723245  1
  Te  Te14  1  0.092438  0.104299  0.726248  1
  Te  Te15  1  0.589670  0.401487  0.277740  1
  Te  Te16  1  0.816246  0.290320  0.519287  1
  Te  Te17  1  0.318895  0.206819  0.481646  1
  Te  Te18  1  0.184433  0.693271  0.482751  1
  Te  Te19  1  0.680213  0.811879  0.519363  1
  Te  Te20  1  0.839600  0.489403  0.077374  1
  Te  Te21  1  0.343825  0.006247  0.922218  1
  Te  Te22  1  0.161038  0.496864  0.924032  1
  Te  Te23  1  0.658891  0.006978  0.077943  1
