# generated using pymatgen
data_TbYbTiIr3
_symmetry_space_group_name_H-M   'P 1'
_cell_length_a   5.61938511
_cell_length_b   5.16460672
_cell_length_c   5.61938500
_cell_angle_alpha   57.04170357
_cell_angle_beta   59.99999475
_cell_angle_gamma   57.04170172
_symmetry_Int_Tables_number   1
_chemical_formula_structural   TbYbTiIr3
_chemical_formula_sum   'Tb1 Yb1 Ti1 Ir3'
_cell_volume   109.89009478
_cell_formula_units_Z   1
loop_
 _symmetry_equiv_pos_site_id
 _symmetry_equiv_pos_as_xyz
  1  'x, y, z'
loop_
 _atom_site_type_symbol
 _atom_site_label
 _atom_site_symmetry_multiplicity
 _atom_site_fract_x
 _atom_site_fract_y
 _atom_site_fract_z
 _atom_site_occupancy
  Tb  Tb0  1  0.500706  0.497883  0.500706  1
  Yb  Yb1  1  0.750535  0.748394  0.750535  1
  Ti  Ti2  1  0.125727  0.622818  0.125727  1
  Ir  Ir3  1  0.626066  0.126968  0.123483  1
  Ir  Ir4  1  0.123483  0.126968  0.123483  1
  Ir  Ir5  1  0.123483  0.126968  0.626066  1
