# generated using pymatgen
data_Dy6AlCuOs
_symmetry_space_group_name_H-M   'P 1'
_cell_length_a   8.43532666
_cell_length_b   8.43440009
_cell_length_c   8.43532618
_cell_angle_alpha   113.00391644
_cell_angle_beta   110.72393646
_cell_angle_gamma   104.79794683
_symmetry_Int_Tables_number   1
_chemical_formula_structural   Dy6AlCuOs
_chemical_formula_sum   'Dy12 Al2 Cu2 Os2'
_cell_volume   459.48861120
_cell_formula_units_Z   2
loop_
 _symmetry_equiv_pos_site_id
 _symmetry_equiv_pos_as_xyz
  1  'x, y, z'
loop_
 _atom_site_type_symbol
 _atom_site_label
 _atom_site_symmetry_multiplicity
 _atom_site_fract_x
 _atom_site_fract_y
 _atom_site_fract_z
 _atom_site_occupancy
  Dy  Dy0  1  0.047803  0.740688  0.307620  1
  Dy  Dy1  1  0.952197  0.259312  0.692380  1
  Dy  Dy2  1  0.566931  0.259312  0.307114  1
  Dy  Dy3  1  0.433069  0.740688  0.692886  1
  Dy  Dy4  1  0.666681  0.855964  0.189284  1
  Dy  Dy5  1  0.333340  0.522586  0.189246  1
  Dy  Dy6  1  0.333320  0.144036  0.810716  1
  Dy  Dy7  1  0.666661  0.477414  0.810754  1
  Dy  Dy8  1  0.184494  0.225255  0.409187  1
  Dy  Dy9  1  0.816068  0.225255  0.040761  1
  Dy  Dy10  1  0.183932  0.774745  0.959239  1
  Dy  Dy11  1  0.815506  0.774745  0.590813  1
  Al  Al12  1  0.000000  0.500000  0.500000  1
  Al  Al13  1  0.500000  0.000000  0.500000  1
  Cu  Cu14  1  0.880485  0.880670  0.000185  1
  Cu  Cu15  1  0.119515  0.119330  0.999815  1
  Os  Os16  1  0.672541  0.500000  0.172541  1
  Os  Os17  1  0.327459  0.500000  0.827459  1
