# generated using pymatgen
data_Lu8MnB24Ru2W
_symmetry_space_group_name_H-M   'P 1'
_cell_length_a   3.55428700
_cell_length_b   9.05684521
_cell_length_c   11.42919409
_cell_angle_alpha   89.87361835
_cell_angle_beta   90.00000000
_cell_angle_gamma   90.00000000
_symmetry_Int_Tables_number   1
_chemical_formula_structural   Lu8MnB24Ru2W
_chemical_formula_sum   'Lu8 Mn1 B24 Ru2 W1'
_cell_volume   367.91203112
_cell_formula_units_Z   1
loop_
 _symmetry_equiv_pos_site_id
 _symmetry_equiv_pos_as_xyz
  1  'x, y, z'
loop_
 _atom_site_type_symbol
 _atom_site_label
 _atom_site_symmetry_multiplicity
 _atom_site_fract_x
 _atom_site_fract_y
 _atom_site_fract_z
 _atom_site_occupancy
  Lu  Lu0  1  0.000000  0.321917  0.418018  1
  Lu  Lu1  1  0.000000  0.673900  0.587053  1
  Lu  Lu2  1  0.000000  0.820583  0.085971  1
  Lu  Lu3  1  0.000000  0.180376  0.911851  1
  Lu  Lu4  1  0.000000  0.946311  0.372669  1
  Lu  Lu5  1  0.000000  0.060859  0.630106  1
  Lu  Lu6  1  0.000000  0.441785  0.126515  1
  Lu  Lu7  1  0.000000  0.554617  0.868032  1
  Mn  Mn8  1  0.000000  0.361195  0.680581  1
  B  B9  1  0.500000  0.549667  0.437589  1
  B  B10  1  0.500000  0.445092  0.569280  1
  B  B11  1  0.500000  0.053526  0.065976  1
  B  B12  1  0.500000  0.946507  0.933513  1
  B  B13  1  0.500000  0.752834  0.423531  1
  B  B14  1  0.500000  0.253189  0.582483  1
  B  B15  1  0.500000  0.249043  0.079742  1
  B  B16  1  0.500000  0.749954  0.918925  1
  B  B17  1  0.500000  0.796908  0.263030  1
  B  B18  1  0.500000  0.209945  0.734551  1
  B  B19  1  0.500000  0.290877  0.234332  1
  B  B20  1  0.500000  0.707691  0.764161  1
  B  B21  1  0.500000  0.631063  0.180922  1
  B  B22  1  0.500000  0.368610  0.813662  1
  B  B23  1  0.500000  0.131235  0.315338  1
  B  B24  1  0.500000  0.869859  0.684874  1
  B  B25  1  0.500000  0.982587  0.212145  1
  B  B26  1  0.500000  0.019190  0.787624  1
  B  B27  1  0.500000  0.475185  0.287179  1
  B  B28  1  0.500000  0.515371  0.711689  1
  B  B29  1  0.500000  0.602379  0.026235  1
  B  B30  1  0.500000  0.396294  0.970191  1
  B  B31  1  0.500000  0.104709  0.472335  1
  B  B32  1  0.500000  0.898971  0.530003  1
  Ru  Ru33  1  0.000000  0.137913  0.178444  1
  Ru  Ru34  1  0.000000  0.862039  0.820795  1
  W  W35  1  0.000000  0.637818  0.320652  1
