# generated using pymatgen
data_Ho2In(GaAu)3
_symmetry_space_group_name_H-M   'P 1'
_cell_length_a   6.99390609
_cell_length_b   6.99390742
_cell_length_c   4.17374900
_cell_angle_alpha   90.00000000
_cell_angle_beta   90.00000000
_cell_angle_gamma   115.30043043
_symmetry_Int_Tables_number   1
_chemical_formula_structural   Ho2In(GaAu)3
_chemical_formula_sum   'Ho2 In1 Ga3 Au3'
_cell_volume   184.57486014
_cell_formula_units_Z   1
loop_
 _symmetry_equiv_pos_site_id
 _symmetry_equiv_pos_as_xyz
  1  'x, y, z'
loop_
 _atom_site_type_symbol
 _atom_site_label
 _atom_site_symmetry_multiplicity
 _atom_site_fract_x
 _atom_site_fract_y
 _atom_site_fract_z
 _atom_site_occupancy
  Ho  Ho0  1  0.573955  0.997183  0.500000  1
  Ho  Ho1  1  0.997183  0.573955  0.500000  1
  In  In2  1  0.407141  0.407141  0.500000  1
  Ga  Ga3  1  0.769062  0.769062  0.000000  1
  Ga  Ga4  1  0.246899  0.993331  0.000000  1
  Ga  Ga5  1  0.993331  0.246899  0.000000  1
  Au  Au6  1  0.658381  0.343091  0.000000  1
  Au  Au7  1  0.343091  0.658381  0.000000  1
  Au  Au8  1  0.010957  0.010957  0.500000  1
