# generated using pymatgen
data_HoZn4Rh
_symmetry_space_group_name_H-M   'P 1'
_cell_length_a   5.09655000
_cell_length_b   5.09655020
_cell_length_c   8.47327600
_cell_angle_alpha   90.00000000
_cell_angle_beta   90.00000000
_cell_angle_gamma   119.99999872
_symmetry_Int_Tables_number   1
_chemical_formula_structural   HoZn4Rh
_chemical_formula_sum   'Ho2 Zn8 Rh2'
_cell_volume   190.60513016
_cell_formula_units_Z   2
loop_
 _symmetry_equiv_pos_site_id
 _symmetry_equiv_pos_as_xyz
  1  'x, y, z'
loop_
 _atom_site_type_symbol
 _atom_site_label
 _atom_site_symmetry_multiplicity
 _atom_site_fract_x
 _atom_site_fract_y
 _atom_site_fract_z
 _atom_site_occupancy
  Ho  Ho0  1  0.666667  0.333333  0.435899  1
  Ho  Ho1  1  0.333333  0.666667  0.935899  1
  Zn  Zn2  1  0.000000  0.000000  0.000484  1
  Zn  Zn3  1  0.000000  0.000000  0.500484  1
  Zn  Zn4  1  0.169723  0.339446  0.245606  1
  Zn  Zn5  1  0.830277  0.169723  0.745606  1
  Zn  Zn6  1  0.339446  0.169723  0.745606  1
  Zn  Zn7  1  0.660554  0.830277  0.245606  1
  Zn  Zn8  1  0.169723  0.830277  0.245606  1
  Zn  Zn9  1  0.830277  0.660554  0.745606  1
  Rh  Rh10  1  0.333333  0.666667  0.576799  1
  Rh  Rh11  1  0.666667  0.333333  0.076799  1
