# generated using pymatgen
data_Sm10C4Cl17
_symmetry_space_group_name_H-M   'P 1'
_cell_length_a   8.72379599
_cell_length_b   9.39391339
_cell_length_c   11.76366527
_cell_angle_alpha   104.71993205
_cell_angle_beta   96.10768541
_cell_angle_gamma   110.57959838
_symmetry_Int_Tables_number   1
_chemical_formula_structural   Sm10C4Cl17
_chemical_formula_sum   'Sm10 C4 Cl17'
_cell_volume   852.26273474
_cell_formula_units_Z   1
loop_
 _symmetry_equiv_pos_site_id
 _symmetry_equiv_pos_as_xyz
  1  'x, y, z'
loop_
 _atom_site_type_symbol
 _atom_site_label
 _atom_site_symmetry_multiplicity
 _atom_site_fract_x
 _atom_site_fract_y
 _atom_site_fract_z
 _atom_site_occupancy
  Sm  Sm0  1  0.652579  0.487875  0.438063  1
  Sm  Sm1  1  0.347421  0.512125  0.561937  1
  Sm  Sm2  1  0.080473  0.424334  0.269853  1
  Sm  Sm3  1  0.919526  0.575666  0.730148  1
  Sm  Sm4  1  0.409290  0.368421  0.136780  1
  Sm  Sm5  1  0.590709  0.631580  0.863220  1
  Sm  Sm6  1  0.491062  0.781667  0.341633  1
  Sm  Sm7  1  0.508938  0.218333  0.658366  1
  Sm  Sm8  1  0.207432  0.097699  0.307909  1
  Sm  Sm9  1  0.792569  0.902301  0.692091  1
  C  C10  1  0.396782  0.527597  0.343227  1
  C  C11  1  0.603217  0.472403  0.656773  1
  C  C12  1  0.326909  0.363808  0.338122  1
  C  C13  1  0.673091  0.636191  0.661878  1
  Cl  Cl14  1  0.103342  0.349227  0.039714  1
  Cl  Cl15  1  0.896659  0.650775  0.960286  1
  Cl  Cl16  1  0.811231  0.820677  0.444217  1
  Cl  Cl17  1  0.188768  0.179322  0.555782  1
  Cl  Cl18  1  0.000000  0.500000  0.500000  1
  Cl  Cl19  1  0.297780  0.043826  0.094236  1
  Cl  Cl20  1  0.702220  0.956175  0.905763  1
  Cl  Cl21  1  0.904717  0.104783  0.248014  1
  Cl  Cl22  1  0.095283  0.895216  0.751986  1
  Cl  Cl23  1  0.544696  0.131933  0.411384  1
  Cl  Cl24  1  0.455306  0.868068  0.588617  1
  Cl  Cl25  1  0.739529  0.414154  0.211221  1
  Cl  Cl26  1  0.260472  0.585847  0.788779  1
  Cl  Cl27  1  0.164475  0.755750  0.286129  1
  Cl  Cl28  1  0.835526  0.244251  0.713872  1
  Cl  Cl29  1  0.534906  0.684227  0.111231  1
  Cl  Cl30  1  0.465094  0.315775  0.888768  1
