# generated using pymatgen
data_LiZn21Pd3Rh
_symmetry_space_group_name_H-M   'P 1'
_cell_length_a   7.93471123
_cell_length_b   7.93612373
_cell_length_c   7.93471121
_cell_angle_alpha   109.49025867
_cell_angle_beta   109.38083028
_cell_angle_gamma   109.49024018
_symmetry_Int_Tables_number   1
_chemical_formula_structural   LiZn21Pd3Rh
_chemical_formula_sum   'Li1 Zn21 Pd3 Rh1'
_cell_volume   384.88285868
_cell_formula_units_Z   1
loop_
 _symmetry_equiv_pos_site_id
 _symmetry_equiv_pos_as_xyz
  1  'x, y, z'
loop_
 _atom_site_type_symbol
 _atom_site_label
 _atom_site_symmetry_multiplicity
 _atom_site_fract_x
 _atom_site_fract_y
 _atom_site_fract_z
 _atom_site_occupancy
  Li  Li0  1  0.998177  0.784049  0.998177  1
  Zn  Zn1  1  0.785393  0.993721  0.997009  1
  Zn  Zn2  1  0.997009  0.993721  0.785393  1
  Zn  Zn3  1  0.217136  0.213963  0.217136  1
  Zn  Zn4  1  0.350654  0.618774  0.350654  1
  Zn  Zn5  1  0.272073  0.002335  0.650957  1
  Zn  Zn6  1  0.650957  0.002335  0.272073  1
  Zn  Zn7  1  0.269982  0.651266  0.001318  1
  Zn  Zn8  1  0.728503  0.729483  0.379477  1
  Zn  Zn9  1  0.379477  0.729483  0.728503  1
  Zn  Zn10  1  0.001318  0.651266  0.269982  1
  Zn  Zn11  1  0.001150  0.271617  0.651728  1
  Zn  Zn12  1  0.651728  0.271617  0.001150  1
  Zn  Zn13  1  0.351874  0.353185  0.620363  1
  Zn  Zn14  1  0.620363  0.353185  0.351874  1
  Zn  Zn15  1  0.731970  0.384741  0.731970  1
  Zn  Zn16  1  0.354800  0.354930  0.995169  1
  Zn  Zn17  1  0.999569  0.644713  0.647281  1
  Zn  Zn18  1  0.995169  0.354930  0.354800  1
  Zn  Zn19  1  0.351367  0.993860  0.351367  1
  Zn  Zn20  1  0.642246  0.999925  0.642246  1
  Zn  Zn21  1  0.647281  0.644713  0.999569  1
  Pd  Pd22  1  0.000868  0.347839  0.000868  1
  Pd  Pd23  1  0.347986  0.000612  0.001075  1
  Pd  Pd24  1  0.001075  0.000612  0.347986  1
  Rh  Rh25  1  0.651874  0.653127  0.651874  1
