# generated using pymatgen
data_Ho8Tm4Co4RuPb
_symmetry_space_group_name_H-M   'P 1'
_cell_length_a   8.25115119
_cell_length_b   8.25112770
_cell_length_c   8.25115169
_cell_angle_alpha   111.30304292
_cell_angle_beta   110.62966024
_cell_angle_gamma   106.52148465
_symmetry_Int_Tables_number   1
_chemical_formula_structural   Ho8Tm4Co4RuPb
_chemical_formula_sum   'Ho8 Tm4 Co4 Ru1 Pb1'
_cell_volume   431.56436131
_cell_formula_units_Z   1
loop_
 _symmetry_equiv_pos_site_id
 _symmetry_equiv_pos_as_xyz
  1  'x, y, z'
loop_
 _atom_site_type_symbol
 _atom_site_label
 _atom_site_symmetry_multiplicity
 _atom_site_fract_x
 _atom_site_fract_y
 _atom_site_fract_z
 _atom_site_occupancy
  Ho  Ho0  1  0.182947  0.283919  0.466866  1
  Ho  Ho1  1  0.817053  0.716081  0.533134  1
  Ho  Ho2  1  0.182948  0.716081  0.899028  1
  Ho  Ho3  1  0.817052  0.283919  0.100972  1
  Ho  Ho4  1  0.411249  0.216650  0.194598  1
  Ho  Ho5  1  0.588751  0.783350  0.805402  1
  Ho  Ho6  1  0.022051  0.216650  0.805400  1
  Ho  Ho7  1  0.977949  0.783350  0.194600  1
  Tm  Tm8  1  0.313589  0.622180  0.308590  1
  Tm  Tm9  1  0.686411  0.377820  0.691410  1
  Tm  Tm10  1  0.313592  0.005005  0.691415  1
  Tm  Tm11  1  0.686408  0.994995  0.308585  1
  Co  Co12  1  0.111968  0.611968  0.500000  1
  Co  Co13  1  0.888032  0.388032  0.500000  1
  Co  Co14  1  0.377718  0.000000  0.377718  1
  Co  Co15  1  0.622282  0.000000  0.622282  1
  Ru  Ru16  1  0.000000  0.000000  0.000000  1
  Pb  Pb17  1  0.500000  0.500000  0.000000  1
