# generated using pymatgen
data_Ga3Pd20Se
_symmetry_space_group_name_H-M   'P 1'
_cell_length_a   4.04006300
_cell_length_b   8.30822715
_cell_length_c   11.05357663
_cell_angle_alpha   89.57465863
_cell_angle_beta   90.00000000
_cell_angle_gamma   90.00000000
_symmetry_Int_Tables_number   1
_chemical_formula_structural   Ga3Pd20Se
_chemical_formula_sum   'Ga3 Pd20 Se1'
_cell_volume   371.01148894
_cell_formula_units_Z   1
loop_
 _symmetry_equiv_pos_site_id
 _symmetry_equiv_pos_as_xyz
  1  'x, y, z'
loop_
 _atom_site_type_symbol
 _atom_site_label
 _atom_site_symmetry_multiplicity
 _atom_site_fract_x
 _atom_site_fract_y
 _atom_site_fract_z
 _atom_site_occupancy
  Ga  Ga0  1  0.750000  0.117787  0.917121  1
  Ga  Ga1  1  0.250000  0.622686  0.586153  1
  Ga  Ga2  1  0.250000  0.880162  0.081891  1
  Pd  Pd3  1  0.250000  0.220307  0.040367  1
  Pd  Pd4  1  0.750000  0.713634  0.207062  1
  Pd  Pd5  1  0.250000  0.548017  0.344227  1
  Pd  Pd6  1  0.750000  0.459323  0.672152  1
  Pd  Pd7  1  0.250000  0.956587  0.836613  1
  Pd  Pd8  1  0.250000  0.286598  0.795970  1
  Pd  Pd9  1  0.750000  0.730441  0.459617  1
  Pd  Pd10  1  0.250000  0.571106  0.071103  1
  Pd  Pd11  1  0.250000  0.932558  0.572584  1
  Pd  Pd12  1  0.750000  0.787638  0.706208  1
  Pd  Pd13  1  0.750000  0.385923  0.175762  1
  Pd  Pd14  1  0.750000  0.062292  0.430974  1
  Pd  Pd15  1  0.250000  0.288945  0.544117  1
  Pd  Pd16  1  0.750000  0.779697  0.958367  1
  Pd  Pd17  1  0.250000  0.209405  0.290595  1
  Pd  Pd18  1  0.750000  0.042143  0.160452  1
  Pd  Pd19  1  0.250000  0.616088  0.820192  1
  Pd  Pd20  1  0.750000  0.431224  0.930071  1
  Pd  Pd21  1  0.250000  0.884866  0.316018  1
  Pd  Pd22  1  0.750000  0.117648  0.683072  1
  Se  Se23  1  0.750000  0.354923  0.399313  1
