# generated using pymatgen
data_Ba5Os3O15F
_symmetry_space_group_name_H-M   'P 1'
_cell_length_a   10.79036600
_cell_length_b   10.79036585
_cell_length_c   7.83292700
_cell_angle_alpha   90.00000000
_cell_angle_beta   90.00000000
_cell_angle_gamma   120.00078527
_symmetry_Int_Tables_number   1
_chemical_formula_structural   Ba5Os3O15F
_chemical_formula_sum   'Ba10 Os6 O30 F2'
_cell_volume   789.81180369
_cell_formula_units_Z   2
loop_
 _symmetry_equiv_pos_site_id
 _symmetry_equiv_pos_as_xyz
  1  'x, y, z'
loop_
 _atom_site_type_symbol
 _atom_site_label
 _atom_site_symmetry_multiplicity
 _atom_site_fract_x
 _atom_site_fract_y
 _atom_site_fract_z
 _atom_site_occupancy
  Ba  Ba0  1  0.666664  0.333331  0.003320  1
  Ba  Ba1  1  0.333331  0.666664  0.003320  1
  Ba  Ba2  1  0.746421  0.000002  0.239912  1
  Ba  Ba3  1  0.000002  0.746422  0.239912  1
  Ba  Ba4  1  0.253577  0.253577  0.239912  1
  Ba  Ba5  1  0.666669  0.333336  0.503320  1
  Ba  Ba6  1  0.333336  0.666669  0.503320  1
  Ba  Ba7  1  0.253579  0.999998  0.739913  1
  Ba  Ba8  1  0.999998  0.253579  0.739913  1
  Ba  Ba9  1  0.746423  0.746423  0.739913  1
  Os  Os10  1  0.385888  0.000001  0.288657  1
  Os  Os11  1  0.000001  0.385887  0.288657  1
  Os  Os12  1  0.614116  0.614116  0.288656  1
  Os  Os13  1  0.614112  0.999999  0.788656  1
  Os  Os14  1  0.999999  0.614112  0.788656  1
  Os  Os15  1  0.385884  0.385884  0.788656  1
  O  O16  1  0.286446  0.000001  0.112387  1
  O  O17  1  0.000001  0.286447  0.112387  1
  O  O18  1  0.713560  0.713560  0.112390  1
  O  O19  1  0.867702  0.446255  0.256057  1
  O  O20  1  0.446255  0.867703  0.256057  1
  O  O21  1  0.553747  0.421450  0.256061  1
  O  O22  1  0.421449  0.553746  0.256061  1
  O  O23  1  0.578553  0.132297  0.256062  1
  O  O24  1  0.132298  0.578554  0.256062  1
  O  O25  1  0.385204  0.133772  0.438344  1
  O  O26  1  0.866230  0.251433  0.438345  1
  O  O27  1  0.133772  0.385203  0.438344  1
  O  O28  1  0.748570  0.614802  0.438346  1
  O  O29  1  0.614802  0.748571  0.438346  1
  O  O30  1  0.251433  0.866230  0.438345  1
  O  O31  1  0.713554  0.999999  0.612387  1
  O  O32  1  0.999999  0.713554  0.612387  1
  O  O33  1  0.286440  0.286440  0.612390  1
  O  O34  1  0.553745  0.132297  0.756058  1
  O  O35  1  0.132298  0.553745  0.756058  1
  O  O36  1  0.578551  0.446254  0.756060  1
  O  O37  1  0.446253  0.578550  0.756060  1
  O  O38  1  0.867702  0.421446  0.756063  1
  O  O39  1  0.421446  0.867702  0.756063  1
  O  O40  1  0.385198  0.251429  0.938346  1
  O  O41  1  0.251430  0.385198  0.938346  1
  O  O42  1  0.866228  0.614797  0.938344  1
  O  O43  1  0.614796  0.866228  0.938344  1
  O  O44  1  0.748567  0.133770  0.938346  1
  O  O45  1  0.133770  0.748567  0.938346  1
  F  F46  1  0.000000  0.000000  0.267257  1
  F  F47  1  0.000000  0.000000  0.767258  1
