# generated using pymatgen
data_Gd2YIn5
_symmetry_space_group_name_H-M   'P 1'
_cell_length_a   6.43588800
_cell_length_b   6.43588724
_cell_length_c   10.41818400
_cell_angle_alpha   90.00000000
_cell_angle_beta   90.00000000
_cell_angle_gamma   102.01979455
_symmetry_Int_Tables_number   1
_chemical_formula_structural   Gd2YIn5
_chemical_formula_sum   'Gd4 Y2 In10'
_cell_volume   422.06700481
_cell_formula_units_Z   2
loop_
 _symmetry_equiv_pos_site_id
 _symmetry_equiv_pos_as_xyz
  1  'x, y, z'
loop_
 _atom_site_type_symbol
 _atom_site_label
 _atom_site_symmetry_multiplicity
 _atom_site_fract_x
 _atom_site_fract_y
 _atom_site_fract_z
 _atom_site_occupancy
  Gd  Gd0  1  0.204229  0.795771  0.500000  1
  Gd  Gd1  1  0.204229  0.795771  0.000000  1
  Gd  Gd2  1  0.795771  0.204229  0.500000  1
  Gd  Gd3  1  0.795771  0.204229  0.000000  1
  Y  Y4  1  0.622978  0.622978  0.250000  1
  Y  Y5  1  0.377022  0.377022  0.750000  1
  In  In6  1  0.008253  0.008253  0.250000  1
  In  In7  1  0.991747  0.991747  0.750000  1
  In  In8  1  0.307818  0.307818  0.046474  1
  In  In9  1  0.692182  0.692182  0.953526  1
  In  In10  1  0.307818  0.307818  0.453526  1
  In  In11  1  0.692182  0.692182  0.546474  1
  In  In12  1  0.507416  0.073754  0.250000  1
  In  In13  1  0.926246  0.492584  0.750000  1
  In  In14  1  0.492584  0.926246  0.750000  1
  In  In15  1  0.073754  0.507416  0.250000  1
