# generated using pymatgen
data_Dy5Ho5(PPb3)2
_symmetry_space_group_name_H-M   'P 1'
_cell_length_a   9.13524902
_cell_length_b   9.13408878
_cell_length_c   6.77641900
_cell_angle_alpha   90.00000000
_cell_angle_beta   90.00000000
_cell_angle_gamma   119.99580944
_symmetry_Int_Tables_number   1
_chemical_formula_structural   Dy5Ho5(PPb3)2
_chemical_formula_sum   'Dy5 Ho5 P2 Pb6'
_cell_volume   489.70534002
_cell_formula_units_Z   1
loop_
 _symmetry_equiv_pos_site_id
 _symmetry_equiv_pos_as_xyz
  1  'x, y, z'
loop_
 _atom_site_type_symbol
 _atom_site_label
 _atom_site_symmetry_multiplicity
 _atom_site_fract_x
 _atom_site_fract_y
 _atom_site_fract_z
 _atom_site_occupancy
  Dy  Dy0  1  0.762104  0.762090  0.750000  1
  Dy  Dy1  1  0.237896  0.999986  0.750000  1
  Dy  Dy2  1  0.000000  0.237889  0.750000  1
  Dy  Dy3  1  0.237897  0.237883  0.250000  1
  Dy  Dy4  1  0.762103  0.999986  0.250000  1
  Ho  Ho5  1  0.000000  0.762290  0.250000  1
  Ho  Ho6  1  0.666669  0.333347  0.000004  1
  Ho  Ho7  1  0.333331  0.666679  0.000004  1
  Ho  Ho8  1  0.333331  0.666679  0.499996  1
  Ho  Ho9  1  0.666669  0.333347  0.499996  1
  P  P10  1  0.000000  0.999895  0.000104  1
  P  P11  1  0.000000  0.999895  0.499896  1
  Pb  Pb12  1  0.399998  0.399973  0.750000  1
  Pb  Pb13  1  0.600002  0.999974  0.750000  1
  Pb  Pb14  1  0.000000  0.600038  0.750000  1
  Pb  Pb15  1  0.600079  0.600062  0.250000  1
  Pb  Pb16  1  0.399921  0.999983  0.250000  1
  Pb  Pb17  1  0.000000  0.400004  0.250000  1
