# generated using pymatgen
data_Zr10In4CuSb2As
_symmetry_space_group_name_H-M   'P 1'
_cell_length_a   8.69433045
_cell_length_b   8.72407834
_cell_length_c   5.92321423
_cell_angle_alpha   90.07430362
_cell_angle_beta   89.96271882
_cell_angle_gamma   120.11323979
_symmetry_Int_Tables_number   1
_chemical_formula_structural   Zr10In4CuSb2As
_chemical_formula_sum   'Zr10 In4 Cu1 Sb2 As1'
_cell_volume   388.63929528
_cell_formula_units_Z   1
loop_
 _symmetry_equiv_pos_site_id
 _symmetry_equiv_pos_as_xyz
  1  'x, y, z'
loop_
 _atom_site_type_symbol
 _atom_site_label
 _atom_site_symmetry_multiplicity
 _atom_site_fract_x
 _atom_site_fract_y
 _atom_site_fract_z
 _atom_site_occupancy
  Zr  Zr0  1  0.739924  0.744284  0.250576  1
  Zr  Zr1  1  0.260076  0.004360  0.250576  1
  Zr  Zr2  1  0.000000  0.252637  0.248131  1
  Zr  Zr3  1  0.265067  0.266608  0.752224  1
  Zr  Zr4  1  0.734933  0.001541  0.752224  1
  Zr  Zr5  1  0.000000  0.732445  0.747997  1
  Zr  Zr6  1  0.664670  0.332430  0.502412  1
  Zr  Zr7  1  0.335330  0.667761  0.502412  1
  Zr  Zr8  1  0.334631  0.666757  0.998851  1
  Zr  Zr9  1  0.665369  0.332125  0.998851  1
  In  In10  1  0.000000  0.609331  0.248392  1
  In  In11  1  0.615032  0.615168  0.752657  1
  In  In12  1  0.384968  0.000136  0.752657  1
  In  In13  1  0.000000  0.388101  0.752601  1
  Cu  Cu14  1  0.000000  0.993598  0.979870  1
  Sb  Sb15  1  0.392511  0.393636  0.248984  1
  Sb  Sb16  1  0.607489  0.001125  0.248984  1
  As  As17  1  0.000000  0.997959  0.511602  1
