# generated using pymatgen
data_GaCu2SiRh4
_symmetry_space_group_name_H-M   'P 1'
_cell_length_a   7.29090982
_cell_length_b   7.29091042
_cell_length_c   7.29091169
_cell_angle_alpha   33.61081320
_cell_angle_beta   33.61080213
_cell_angle_gamma   33.61082005
_symmetry_Int_Tables_number   1
_chemical_formula_structural   GaCu2SiRh4
_chemical_formula_sum   'Ga1 Cu2 Si1 Rh4'
_cell_volume   105.78843372
_cell_formula_units_Z   1
loop_
 _symmetry_equiv_pos_site_id
 _symmetry_equiv_pos_as_xyz
  1  'x, y, z'
loop_
 _atom_site_type_symbol
 _atom_site_label
 _atom_site_symmetry_multiplicity
 _atom_site_fract_x
 _atom_site_fract_y
 _atom_site_fract_z
 _atom_site_occupancy
  Ga  Ga0  1  0.000000  0.000000  0.000000  1
  Cu  Cu1  1  0.253094  0.253094  0.253094  1
  Cu  Cu2  1  0.746906  0.746906  0.746906  1
  Si  Si3  1  0.500000  0.500000  0.500000  1
  Rh  Rh4  1  0.379846  0.379846  0.379846  1
  Rh  Rh5  1  0.871294  0.871294  0.871294  1
  Rh  Rh6  1  0.620154  0.620154  0.620154  1
  Rh  Rh7  1  0.128706  0.128706  0.128706  1
