# generated using pymatgen
data_SrWSeO6
_symmetry_space_group_name_H-M   'P 1'
_cell_length_a   6.96298516
_cell_length_b   7.35107099
_cell_length_c   11.05412304
_cell_angle_alpha   99.09249743
_cell_angle_beta   101.92051690
_cell_angle_gamma   89.29707425
_symmetry_Int_Tables_number   1
_chemical_formula_structural   SrWSeO6
_chemical_formula_sum   'Sr4 W4 Se4 O24'
_cell_volume   546.53013598
_cell_formula_units_Z   4
loop_
 _symmetry_equiv_pos_site_id
 _symmetry_equiv_pos_as_xyz
  1  'x, y, z'
loop_
 _atom_site_type_symbol
 _atom_site_label
 _atom_site_symmetry_multiplicity
 _atom_site_fract_x
 _atom_site_fract_y
 _atom_site_fract_z
 _atom_site_occupancy
  Sr  Sr0  1  0.761260  0.858714  0.516420  1
  Sr  Sr1  1  0.238740  0.141286  0.483580  1
  Sr  Sr2  1  0.677410  0.710099  0.849564  1
  Sr  Sr3  1  0.322590  0.289901  0.150436  1
  W  W4  1  0.174999  0.957320  0.796784  1
  W  W5  1  0.825001  0.042680  0.203216  1
  W  W6  1  0.177786  0.453401  0.793447  1
  W  W7  1  0.822214  0.546599  0.206553  1
  Se  Se8  1  0.286403  0.643888  0.529458  1
  Se  Se9  1  0.713597  0.356112  0.470542  1
  Se  Se10  1  0.623095  0.189786  0.780485  1
  Se  Se11  1  0.376905  0.810214  0.219515  1
  O  O12  1  0.189023  0.050900  0.955947  1
  O  O13  1  0.810977  0.949100  0.044053  1
  O  O14  1  0.914567  0.892359  0.751355  1
  O  O15  1  0.085433  0.107641  0.248645  1
  O  O16  1  0.143798  0.186699  0.723298  1
  O  O17  1  0.856202  0.813301  0.276702  1
  O  O18  1  0.276225  0.712171  0.820970  1
  O  O19  1  0.723775  0.287829  0.179030  1
  O  O20  1  0.169575  0.846794  0.589317  1
  O  O21  1  0.830425  0.153206  0.410683  1
  O  O22  1  0.481457  0.015364  0.815512  1
  O  O23  1  0.518543  0.984636  0.184488  1
  O  O24  1  0.215355  0.434240  0.954866  1
  O  O25  1  0.784645  0.565760  0.045134  1
  O  O26  1  0.921049  0.501101  0.759805  1
  O  O27  1  0.078951  0.498899  0.240195  1
  O  O28  1  0.199727  0.469665  0.599875  1
  O  O29  1  0.800273  0.530335  0.400125  1
  O  O30  1  0.489267  0.389654  0.801993  1
  O  O31  1  0.510733  0.610346  0.198007  1
  O  O32  1  0.522983  0.679157  0.608633  1
  O  O33  1  0.477017  0.320843  0.391367  1
  O  O34  1  0.580648  0.132776  0.621017  1
  O  O35  1  0.419352  0.867224  0.378983  1
