# generated using pymatgen
data_K3Rb6GaSb4
_symmetry_space_group_name_H-M   'P 1'
_cell_length_a   10.92132400
_cell_length_b   10.92132484
_cell_length_c   11.37182500
_cell_angle_alpha   90.00000000
_cell_angle_beta   90.00000000
_cell_angle_gamma   119.99999745
_symmetry_Int_Tables_number   1
_chemical_formula_structural   K3Rb6GaSb4
_chemical_formula_sum   'K6 Rb12 Ga2 Sb8'
_cell_volume   1174.65796246
_cell_formula_units_Z   2
loop_
 _symmetry_equiv_pos_site_id
 _symmetry_equiv_pos_as_xyz
  1  'x, y, z'
loop_
 _atom_site_type_symbol
 _atom_site_label
 _atom_site_symmetry_multiplicity
 _atom_site_fract_x
 _atom_site_fract_y
 _atom_site_fract_z
 _atom_site_occupancy
  K  K0  1  0.237770  0.118885  0.750000  1
  K  K1  1  0.881115  0.118885  0.750000  1
  K  K2  1  0.762230  0.881115  0.250000  1
  K  K3  1  0.118885  0.237770  0.250000  1
  K  K4  1  0.118885  0.881115  0.250000  1
  K  K5  1  0.881115  0.762230  0.750000  1
  Rb  Rb6  1  0.208261  0.791739  0.957128  1
  Rb  Rb7  1  0.208261  0.416521  0.957128  1
  Rb  Rb8  1  0.583479  0.791739  0.957128  1
  Rb  Rb9  1  0.416521  0.208261  0.457128  1
  Rb  Rb10  1  0.791739  0.583479  0.042872  1
  Rb  Rb11  1  0.791739  0.208261  0.457128  1
  Rb  Rb12  1  0.791739  0.583479  0.457128  1
  Rb  Rb13  1  0.208261  0.791739  0.542872  1
  Rb  Rb14  1  0.583479  0.791739  0.542872  1
  Rb  Rb15  1  0.416521  0.208261  0.042872  1
  Rb  Rb16  1  0.791739  0.208261  0.042872  1
  Rb  Rb17  1  0.208261  0.416521  0.542872  1
  Ga  Ga18  1  0.333333  0.666667  0.250000  1
  Ga  Ga19  1  0.666667  0.333333  0.750000  1
  Sb  Sb20  1  0.000000  0.000000  0.000000  1
  Sb  Sb21  1  0.048299  0.524149  0.250000  1
  Sb  Sb22  1  0.475851  0.951701  0.250000  1
  Sb  Sb23  1  0.524149  0.048299  0.750000  1
  Sb  Sb24  1  0.524149  0.475851  0.750000  1
  Sb  Sb25  1  0.000000  0.000000  0.500000  1
  Sb  Sb26  1  0.475851  0.524149  0.250000  1
  Sb  Sb27  1  0.951701  0.475851  0.750000  1
