# generated using pymatgen
data_Lu2PS
_symmetry_space_group_name_H-M   'P 1'
_cell_length_a   6.70102421
_cell_length_b   6.70102421
_cell_length_c   6.70102400
_cell_angle_alpha   33.54031257
_cell_angle_beta   33.54030823
_cell_angle_gamma   33.54031641
_symmetry_Int_Tables_number   1
_chemical_formula_structural   Lu2PS
_chemical_formula_sum   'Lu2 P1 S1'
_cell_volume   81.81933425
_cell_formula_units_Z   1
loop_
 _symmetry_equiv_pos_site_id
 _symmetry_equiv_pos_as_xyz
  1  'x, y, z'
loop_
 _atom_site_type_symbol
 _atom_site_label
 _atom_site_symmetry_multiplicity
 _atom_site_fract_x
 _atom_site_fract_y
 _atom_site_fract_z
 _atom_site_occupancy
  Lu  Lu0  1  0.246683  0.246683  0.246683  1
  Lu  Lu1  1  0.753317  0.753317  0.753317  1
  P  P2  1  0.500000  0.500000  0.500000  1
  S  S3  1  0.000000  0.000000  0.000000  1
