# generated using pymatgen
data_SmHoTc3Os
_symmetry_space_group_name_H-M   'P 1'
_cell_length_a   5.31100400
_cell_length_b   5.31100417
_cell_length_c   9.15248900
_cell_angle_alpha   90.00000000
_cell_angle_beta   90.00000000
_cell_angle_gamma   120.00001141
_symmetry_Int_Tables_number   1
_chemical_formula_structural   SmHoTc3Os
_chemical_formula_sum   'Sm2 Ho2 Tc6 Os2'
_cell_volume   223.57491180
_cell_formula_units_Z   2
loop_
 _symmetry_equiv_pos_site_id
 _symmetry_equiv_pos_as_xyz
  1  'x, y, z'
loop_
 _atom_site_type_symbol
 _atom_site_label
 _atom_site_symmetry_multiplicity
 _atom_site_fract_x
 _atom_site_fract_y
 _atom_site_fract_z
 _atom_site_occupancy
  Sm  Sm0  1  0.333333  0.666667  0.437531  1
  Sm  Sm1  1  0.666667  0.333333  0.562469  1
  Ho  Ho2  1  0.666667  0.333333  0.937156  1
  Ho  Ho3  1  0.333333  0.666667  0.062844  1
  Tc  Tc4  1  0.829720  0.170280  0.246333  1
  Tc  Tc5  1  0.829720  0.659440  0.246333  1
  Tc  Tc6  1  0.340560  0.170280  0.246333  1
  Tc  Tc7  1  0.170280  0.829720  0.753667  1
  Tc  Tc8  1  0.170280  0.340560  0.753667  1
  Tc  Tc9  1  0.659440  0.829720  0.753667  1
  Os  Os10  1  0.000000  0.000000  0.500000  1
  Os  Os11  1  0.000000  0.000000  0.000000  1
