# generated using pymatgen
data_Nd5MoRhO12
_symmetry_space_group_name_H-M   'P 1'
_cell_length_a   7.08183472
_cell_length_b   7.08183588
_cell_length_c   7.77170053
_cell_angle_alpha   73.91098133
_cell_angle_beta   73.91097942
_cell_angle_gamma   49.52516505
_symmetry_Int_Tables_number   1
_chemical_formula_structural   Nd5MoRhO12
_chemical_formula_sum   'Nd5 Mo1 Rh1 O12'
_cell_volume   282.34855908
_cell_formula_units_Z   1
loop_
 _symmetry_equiv_pos_site_id
 _symmetry_equiv_pos_as_xyz
  1  'x, y, z'
loop_
 _atom_site_type_symbol
 _atom_site_label
 _atom_site_symmetry_multiplicity
 _atom_site_fract_x
 _atom_site_fract_y
 _atom_site_fract_z
 _atom_site_occupancy
  Nd  Nd0  1  0.321235  0.289669  0.356268  1
  Nd  Nd1  1  0.710331  0.678765  0.643732  1
  Nd  Nd2  1  0.317381  0.304775  0.831274  1
  Nd  Nd3  1  0.695225  0.682619  0.168726  1
  Nd  Nd4  1  0.008521  0.991479  0.500000  1
  Mo  Mo5  1  0.203506  0.796494  0.000000  1
  Rh  Rh6  1  0.752758  0.247242  0.000000  1
  O  O7  1  0.909560  0.429512  0.917627  1
  O  O8  1  0.404721  0.903443  0.920070  1
  O  O9  1  0.096557  0.595279  0.079930  1
  O  O10  1  0.570488  0.090440  0.082373  1
  O  O11  1  0.108334  0.590076  0.571237  1
  O  O12  1  0.600983  0.085261  0.579098  1
  O  O13  1  0.914739  0.399017  0.420902  1
  O  O14  1  0.409924  0.891666  0.428763  1
  O  O15  1  0.000933  0.997276  0.809003  1
  O  O16  1  0.002724  0.999067  0.190997  1
  O  O17  1  0.486136  0.514054  0.831545  1
  O  O18  1  0.485946  0.513864  0.168455  1
