# generated using pymatgen
data_La7Pr3Ru4
_symmetry_space_group_name_H-M   'P 1'
_cell_length_a   9.14140841
_cell_length_b   9.13488841
_cell_length_c   7.35473242
_cell_angle_alpha   85.52469400
_cell_angle_beta   85.61252400
_cell_angle_gamma   43.13610835
_symmetry_Int_Tables_number   1
_chemical_formula_structural   La7Pr3Ru4
_chemical_formula_sum   'La7 Pr3 Ru4'
_cell_volume   418.47087204
_cell_formula_units_Z   1
loop_
 _symmetry_equiv_pos_site_id
 _symmetry_equiv_pos_as_xyz
  1  'x, y, z'
loop_
 _atom_site_type_symbol
 _atom_site_label
 _atom_site_symmetry_multiplicity
 _atom_site_fract_x
 _atom_site_fract_y
 _atom_site_fract_z
 _atom_site_occupancy
  La  La0  1  0.017368  0.797718  0.905013  1
  La  La1  1  0.199166  0.985118  0.594333  1
  La  La2  1  0.984052  0.199857  0.094385  1
  La  La3  1  0.799354  0.015569  0.404081  1
  La  La4  1  0.362035  0.211888  0.817052  1
  La  La5  1  0.790448  0.636232  0.681120  1
  La  La6  1  0.637670  0.789765  0.181566  1
  Pr  Pr7  1  0.208523  0.361308  0.315525  1
  Pr  Pr8  1  0.573930  0.426572  0.750872  1
  Pr  Pr9  1  0.423967  0.574260  0.250647  1
  Ru  Ru10  1  0.167227  0.608410  0.588639  1
  Ru  Ru11  1  0.396524  0.831671  0.917831  1
  Ru  Ru12  1  0.831654  0.395253  0.418141  1
  Ru  Ru13  1  0.608082  0.166379  0.080796  1
