# generated using pymatgen
data_Ce4Cr3B16W
_symmetry_space_group_name_H-M   'P 1'
_cell_length_a   3.58602900
_cell_length_b   6.00367889
_cell_length_c   11.60154973
_cell_angle_alpha   89.93749682
_cell_angle_beta   90.00000000
_cell_angle_gamma   90.00000000
_symmetry_Int_Tables_number   1
_chemical_formula_structural   Ce4Cr3B16W
_chemical_formula_sum   'Ce4 Cr3 B16 W1'
_cell_volume   249.77386875
_cell_formula_units_Z   1
loop_
 _symmetry_equiv_pos_site_id
 _symmetry_equiv_pos_as_xyz
  1  'x, y, z'
loop_
 _atom_site_type_symbol
 _atom_site_label
 _atom_site_symmetry_multiplicity
 _atom_site_fract_x
 _atom_site_fract_y
 _atom_site_fract_z
 _atom_site_occupancy
  Ce  Ce0  1  0.000000  0.623136  0.351922  1
  Ce  Ce1  1  0.000000  0.376021  0.650360  1
  Ce  Ce2  1  0.000000  0.124614  0.152847  1
  Ce  Ce3  1  0.000000  0.877515  0.846582  1
  Cr  Cr4  1  0.000000  0.372869  0.915655  1
  Cr  Cr5  1  0.000000  0.123785  0.419037  1
  Cr  Cr6  1  0.000000  0.876309  0.581718  1
  B  B7  1  0.500000  0.785181  0.187186  1
  B  B8  1  0.500000  0.220949  0.816322  1
  B  B9  1  0.500000  0.278810  0.318125  1
  B  B10  1  0.500000  0.720613  0.682401  1
  B  B11  1  0.500000  0.865070  0.030781  1
  B  B12  1  0.500000  0.138504  0.965794  1
  B  B13  1  0.500000  0.359762  0.467587  1
  B  B14  1  0.500000  0.640022  0.532954  1
  B  B15  1  0.500000  0.887821  0.454540  1
  B  B16  1  0.500000  0.112580  0.546201  1
  B  B17  1  0.500000  0.382985  0.043980  1
  B  B18  1  0.500000  0.610806  0.950881  1
  B  B19  1  0.500000  0.975805  0.311244  1
  B  B20  1  0.500000  0.024941  0.689322  1
  B  B21  1  0.500000  0.469934  0.192588  1
  B  B22  1  0.500000  0.524938  0.808210  1
  W  W23  1  0.000000  0.627031  0.083764  1
