# generated using pymatgen
data_Nd2Al2IrPd
_symmetry_space_group_name_H-M   'P 1'
_cell_length_a   4.44773100
_cell_length_b   7.06922663
_cell_length_c   8.02286782
_cell_angle_alpha   90.56147856
_cell_angle_beta   90.00000000
_cell_angle_gamma   90.00000000
_symmetry_Int_Tables_number   1
_chemical_formula_structural   Nd2Al2IrPd
_chemical_formula_sum   'Nd4 Al4 Ir2 Pd2'
_cell_volume   252.24304542
_cell_formula_units_Z   2
loop_
 _symmetry_equiv_pos_site_id
 _symmetry_equiv_pos_as_xyz
  1  'x, y, z'
loop_
 _atom_site_type_symbol
 _atom_site_label
 _atom_site_symmetry_multiplicity
 _atom_site_fract_x
 _atom_site_fract_y
 _atom_site_fract_z
 _atom_site_occupancy
  Nd  Nd0  1  0.250000  0.532468  0.177318  1
  Nd  Nd1  1  0.750000  0.467532  0.822682  1
  Nd  Nd2  1  0.750000  0.962455  0.682476  1
  Nd  Nd3  1  0.250000  0.037545  0.317524  1
  Al  Al4  1  0.250000  0.642231  0.566807  1
  Al  Al5  1  0.750000  0.357769  0.433193  1
  Al  Al6  1  0.750000  0.865498  0.059052  1
  Al  Al7  1  0.250000  0.134502  0.940948  1
  Ir  Ir8  1  0.250000  0.771846  0.881516  1
  Ir  Ir9  1  0.750000  0.228154  0.118484  1
  Pd  Pd10  1  0.750000  0.721716  0.381691  1
  Pd  Pd11  1  0.250000  0.278284  0.618309  1
