# generated using pymatgen
data_Hf4Ti3ReP4
_symmetry_space_group_name_H-M   'P 1'
_cell_length_a   3.51783700
_cell_length_b   6.72243133
_cell_length_c   8.08176775
_cell_angle_alpha   90.01911798
_cell_angle_beta   90.00000000
_cell_angle_gamma   90.00000000
_symmetry_Int_Tables_number   1
_chemical_formula_structural   Hf4Ti3ReP4
_chemical_formula_sum   'Hf4 Ti3 Re1 P4'
_cell_volume   191.12100851
_cell_formula_units_Z   1
loop_
 _symmetry_equiv_pos_site_id
 _symmetry_equiv_pos_as_xyz
  1  'x, y, z'
loop_
 _atom_site_type_symbol
 _atom_site_label
 _atom_site_symmetry_multiplicity
 _atom_site_fract_x
 _atom_site_fract_y
 _atom_site_fract_z
 _atom_site_occupancy
  Hf  Hf0  1  0.250000  0.533667  0.167009  1
  Hf  Hf1  1  0.750000  0.461533  0.831774  1
  Hf  Hf2  1  0.750000  0.965761  0.670708  1
  Hf  Hf3  1  0.250000  0.036002  0.327594  1
  Ti  Ti4  1  0.250000  0.635384  0.562255  1
  Ti  Ti5  1  0.750000  0.361412  0.440489  1
  Ti  Ti6  1  0.750000  0.867772  0.057780  1
  Re  Re7  1  0.250000  0.137846  0.940066  1
  P  P8  1  0.250000  0.761209  0.858338  1
  P  P9  1  0.750000  0.240282  0.144058  1
  P  P10  1  0.750000  0.737715  0.360745  1
  P  P11  1  0.250000  0.261417  0.639182  1
