# generated using pymatgen
data_Ho3Tm13MgNi4Hg3
_symmetry_space_group_name_H-M   'P 1'
_cell_length_a   9.43738062
_cell_length_b   9.40944794
_cell_length_c   9.40944700
_cell_angle_alpha   59.99999978
_cell_angle_beta   60.09786070
_cell_angle_gamma   60.09786171
_symmetry_Int_Tables_number   1
_chemical_formula_structural   Ho3Tm13MgNi4Hg3
_chemical_formula_sum   'Ho3 Tm13 Mg1 Ni4 Hg3'
_cell_volume   591.70539806
_cell_formula_units_Z   1
loop_
 _symmetry_equiv_pos_site_id
 _symmetry_equiv_pos_as_xyz
  1  'x, y, z'
loop_
 _atom_site_type_symbol
 _atom_site_label
 _atom_site_symmetry_multiplicity
 _atom_site_fract_x
 _atom_site_fract_y
 _atom_site_fract_z
 _atom_site_occupancy
  Ho  Ho0  1  0.598938  0.598091  0.598091  1
  Ho  Ho1  1  0.598938  0.598091  0.204880  1
  Ho  Ho2  1  0.598938  0.204880  0.598091  1
  Tm  Tm3  1  0.194559  0.601814  0.601814  1
  Tm  Tm4  1  0.059746  0.439154  0.439154  1
  Tm  Tm5  1  0.435019  0.064156  0.064156  1
  Tm  Tm6  1  0.435019  0.064156  0.436670  1
  Tm  Tm7  1  0.059746  0.439154  0.061945  1
  Tm  Tm8  1  0.435019  0.436670  0.064156  1
  Tm  Tm9  1  0.059746  0.061945  0.439154  1
  Tm  Tm10  1  0.184996  0.814592  0.814592  1
  Tm  Tm11  1  0.814193  0.185573  0.185573  1
  Tm  Tm12  1  0.814193  0.185573  0.814662  1
  Tm  Tm13  1  0.184996  0.814592  0.185821  1
  Tm  Tm14  1  0.814193  0.814662  0.185573  1
  Tm  Tm15  1  0.184996  0.185821  0.814592  1
  Mg  Mg16  1  0.534062  0.821979  0.821979  1
  Ni  Ni17  1  0.387982  0.394169  0.394169  1
  Ni  Ni18  1  0.387982  0.394169  0.823680  1
  Ni  Ni19  1  0.387982  0.823680  0.394169  1
  Ni  Ni20  1  0.823849  0.392051  0.392051  1
  Hg  Hg21  1  0.834970  0.836769  0.836769  1
  Hg  Hg22  1  0.834970  0.836769  0.491491  1
  Hg  Hg23  1  0.834970  0.491491  0.836769  1
