# generated using pymatgen
data_Ho19MgIrRh11
_symmetry_space_group_name_H-M   'P 1'
_cell_length_a   10.82750934
_cell_length_b   10.82650207
_cell_length_c   6.28608516
_cell_angle_alpha   90.00193317
_cell_angle_beta   90.02541347
_cell_angle_gamma   90.01308144
_symmetry_Int_Tables_number   1
_chemical_formula_structural   Ho19MgIrRh11
_chemical_formula_sum   'Ho19 Mg1 Ir1 Rh11'
_cell_volume   736.88028273
_cell_formula_units_Z   1
loop_
 _symmetry_equiv_pos_site_id
 _symmetry_equiv_pos_as_xyz
  1  'x, y, z'
loop_
 _atom_site_type_symbol
 _atom_site_label
 _atom_site_symmetry_multiplicity
 _atom_site_fract_x
 _atom_site_fract_y
 _atom_site_fract_z
 _atom_site_occupancy
  Ho  Ho0  1  0.284204  0.085386  0.379008  1
  Ho  Ho1  1  0.290587  0.910209  0.879010  1
  Ho  Ho2  1  0.709553  0.088513  0.879138  1
  Ho  Ho3  1  0.715712  0.914592  0.378968  1
  Ho  Ho4  1  0.588075  0.791114  0.879677  1
  Ho  Ho5  1  0.588148  0.208112  0.378069  1
  Ho  Ho6  1  0.411606  0.791265  0.378643  1
  Ho  Ho7  1  0.410729  0.208286  0.879914  1
  Ho  Ho8  1  0.208719  0.413129  0.622489  1
  Ho  Ho9  1  0.208979  0.589568  0.119372  1
  Ho  Ho10  1  0.791637  0.410745  0.119715  1
  Ho  Ho11  1  0.791831  0.588216  0.622351  1
  Ho  Ho12  1  0.911405  0.709613  0.120735  1
  Ho  Ho13  1  0.914734  0.284215  0.621107  1
  Ho  Ho14  1  0.086585  0.715540  0.621132  1
  Ho  Ho15  1  0.088635  0.290491  0.120838  1
  Ho  Ho16  1  0.000022  0.000137  0.000013  1
  Ho  Ho17  1  0.499742  0.500183  0.000010  1
  Ho  Ho18  1  0.499830  0.500239  0.500060  1
  Mg  Mg19  1  0.000047  0.999987  0.499921  1
  Ir  Ir20  1  0.345203  0.654193  0.748270  1
  Rh  Rh21  1  0.846263  0.154373  0.247469  1
  Rh  Rh22  1  0.845615  0.846315  0.752501  1
  Rh  Rh23  1  0.154279  0.153774  0.752440  1
  Rh  Rh24  1  0.153194  0.846117  0.247442  1
  Rh  Rh25  1  0.654743  0.345757  0.748240  1
  Rh  Rh26  1  0.654717  0.654796  0.251719  1
  Rh  Rh27  1  0.345757  0.344733  0.251611  1
  Rh  Rh28  1  0.500185  0.000365  0.124002  1
  Rh  Rh29  1  0.500203  0.000470  0.620601  1
  Rh  Rh30  1  0.999462  0.499759  0.876433  1
  Rh  Rh31  1  0.999600  0.499806  0.379102  1
