# generated using pymatgen
data_Pa6Al24Re7Pt
_symmetry_space_group_name_H-M   'P 1'
_cell_length_a   8.91126100
_cell_length_b   8.91126126
_cell_length_c   9.45997100
_cell_angle_alpha   90.00000000
_cell_angle_beta   90.00000000
_cell_angle_gamma   119.99999531
_symmetry_Int_Tables_number   1
_chemical_formula_structural   Pa6Al24Re7Pt
_chemical_formula_sum   'Pa6 Al24 Re7 Pt1'
_cell_volume   650.57713828
_cell_formula_units_Z   1
loop_
 _symmetry_equiv_pos_site_id
 _symmetry_equiv_pos_as_xyz
  1  'x, y, z'
loop_
 _atom_site_type_symbol
 _atom_site_label
 _atom_site_symmetry_multiplicity
 _atom_site_fract_x
 _atom_site_fract_y
 _atom_site_fract_z
 _atom_site_occupancy
  Pa  Pa0  1  0.799236  0.200764  0.750779  1
  Pa  Pa1  1  0.200764  0.799236  0.249221  1
  Pa  Pa2  1  0.401527  0.200764  0.750779  1
  Pa  Pa3  1  0.598473  0.799236  0.249221  1
  Pa  Pa4  1  0.799236  0.598473  0.750779  1
  Pa  Pa5  1  0.200764  0.401527  0.249221  1
  Al  Al6  1  0.666667  0.333333  0.989541  1
  Al  Al7  1  0.333333  0.666667  0.010459  1
  Al  Al8  1  0.333333  0.666667  0.486982  1
  Al  Al9  1  0.666667  0.333333  0.513018  1
  Al  Al10  1  0.835512  0.164488  0.418618  1
  Al  Al11  1  0.164488  0.835512  0.581382  1
  Al  Al12  1  0.328977  0.164488  0.418618  1
  Al  Al13  1  0.161311  0.838689  0.918837  1
  Al  Al14  1  0.671023  0.835512  0.581382  1
  Al  Al15  1  0.838689  0.161311  0.081163  1
  Al  Al16  1  0.835512  0.671023  0.418618  1
  Al  Al17  1  0.677377  0.838689  0.918837  1
  Al  Al18  1  0.164488  0.328977  0.581382  1
  Al  Al19  1  0.322623  0.161311  0.081163  1
  Al  Al20  1  0.161311  0.322623  0.918837  1
  Al  Al21  1  0.838689  0.677377  0.081163  1
  Al  Al22  1  0.437600  0.562400  0.750924  1
  Al  Al23  1  0.562400  0.437600  0.249076  1
  Al  Al24  1  0.124801  0.562400  0.750924  1
  Al  Al25  1  0.875199  0.437600  0.249076  1
  Al  Al26  1  0.437600  0.875199  0.750924  1
  Al  Al27  1  0.562400  0.124801  0.249076  1
  Al  Al28  1  0.000000  0.000000  0.749981  1
  Al  Al29  1  0.000000  0.000000  0.250019  1
  Re  Re30  1  0.500000  0.500000  0.000000  1
  Re  Re31  1  0.000000  0.500000  0.000000  1
  Re  Re32  1  0.500000  0.500000  0.500000  1
  Re  Re33  1  0.500000  0.000000  0.000000  1
  Re  Re34  1  0.000000  0.500000  0.500000  1
  Re  Re35  1  0.500000  0.000000  0.500000  1
  Re  Re36  1  0.000000  0.000000  0.000000  1
  Pt  Pt37  1  0.000000  0.000000  0.500000  1
