# generated using pymatgen
data_Mn4P6SeN12
_symmetry_space_group_name_H-M   'P 1'
_cell_length_a   7.28932324
_cell_length_b   7.28932354
_cell_length_c   7.28932300
_cell_angle_alpha   109.47121635
_cell_angle_beta   109.47121720
_cell_angle_gamma   109.47122322
_symmetry_Int_Tables_number   1
_chemical_formula_structural   Mn4P6SeN12
_chemical_formula_sum   'Mn4 P6 Se1 N12'
_cell_volume   298.15340100
_cell_formula_units_Z   1
loop_
 _symmetry_equiv_pos_site_id
 _symmetry_equiv_pos_as_xyz
  1  'x, y, z'
loop_
 _atom_site_type_symbol
 _atom_site_label
 _atom_site_symmetry_multiplicity
 _atom_site_fract_x
 _atom_site_fract_y
 _atom_site_fract_z
 _atom_site_occupancy
  Mn  Mn0  1  0.349077  0.349077  0.349077  1
  Mn  Mn1  1  0.000000  0.650923  0.000000  1
  Mn  Mn2  1  0.650923  0.000000  0.000000  1
  Mn  Mn3  1  0.000000  0.000000  0.650923  1
  P  P4  1  0.500000  0.250000  0.750000  1
  P  P5  1  0.500000  0.750000  0.250000  1
  P  P6  1  0.750000  0.250000  0.500000  1
  P  P7  1  0.250000  0.500000  0.750000  1
  P  P8  1  0.750000  0.500000  0.250000  1
  P  P9  1  0.250000  0.750000  0.500000  1
  Se  Se10  1  0.000000  0.000000  0.000000  1
  N  N11  1  0.000000  0.722009  0.435798  1
  N  N12  1  0.277991  0.713789  0.277991  1
  N  N13  1  0.286211  0.564202  0.564202  1
  N  N14  1  0.564202  0.564202  0.286211  1
  N  N15  1  0.564202  0.286211  0.564202  1
  N  N16  1  0.722009  0.000000  0.435798  1
  N  N17  1  0.435798  0.000000  0.722009  1
  N  N18  1  0.722009  0.435798  0.000000  1
  N  N19  1  0.277991  0.277991  0.713789  1
  N  N20  1  0.713789  0.277991  0.277991  1
  N  N21  1  0.000000  0.435798  0.722009  1
  N  N22  1  0.435798  0.722009  0.000000  1
