# generated using pymatgen
data_Ho20Ir6Ru5Rh
_symmetry_space_group_name_H-M   'P 1'
_cell_length_a   10.79973670
_cell_length_b   10.79704578
_cell_length_c   6.38141151
_cell_angle_alpha   90.07148928
_cell_angle_beta   89.97369503
_cell_angle_gamma   89.83885831
_symmetry_Int_Tables_number   1
_chemical_formula_structural   Ho20Ir6Ru5Rh
_chemical_formula_sum   'Ho20 Ir6 Ru5 Rh1'
_cell_volume   744.10249245
_cell_formula_units_Z   1
loop_
 _symmetry_equiv_pos_site_id
 _symmetry_equiv_pos_as_xyz
  1  'x, y, z'
loop_
 _atom_site_type_symbol
 _atom_site_label
 _atom_site_symmetry_multiplicity
 _atom_site_fract_x
 _atom_site_fract_y
 _atom_site_fract_z
 _atom_site_occupancy
  Ho  Ho0  1  0.292939  0.086198  0.378697  1
  Ho  Ho1  1  0.293460  0.913836  0.878362  1
  Ho  Ho2  1  0.706438  0.085626  0.875830  1
  Ho  Ho3  1  0.706826  0.912063  0.378383  1
  Ho  Ho4  1  0.587313  0.793464  0.878687  1
  Ho  Ho5  1  0.585587  0.206358  0.378745  1
  Ho  Ho6  1  0.413633  0.793565  0.377581  1
  Ho  Ho7  1  0.413604  0.206546  0.877834  1
  Ho  Ho8  1  0.206347  0.413681  0.621593  1
  Ho  Ho9  1  0.206275  0.586273  0.121497  1
  Ho  Ho10  1  0.793468  0.414340  0.122063  1
  Ho  Ho11  1  0.793290  0.587302  0.621858  1
  Ho  Ho12  1  0.913503  0.707261  0.121300  1
  Ho  Ho13  1  0.914217  0.294319  0.622896  1
  Ho  Ho14  1  0.086027  0.707397  0.622962  1
  Ho  Ho15  1  0.087599  0.293209  0.121623  1
  Ho  Ho16  1  0.999237  0.999716  0.500606  1
  Ho  Ho17  1  0.999582  0.998567  0.999026  1
  Ho  Ho18  1  0.499809  0.500297  0.000064  1
  Ho  Ho19  1  0.499982  0.499736  0.500285  1
  Ir  Ir20  1  0.152369  0.153028  0.750226  1
  Ir  Ir21  1  0.153388  0.846947  0.250382  1
  Ir  Ir22  1  0.653412  0.347197  0.749647  1
  Ir  Ir23  1  0.652197  0.651876  0.249997  1
  Ir  Ir24  1  0.347398  0.347093  0.250154  1
  Ir  Ir25  1  0.347317  0.653217  0.750396  1
  Ru  Ru26  1  0.847725  0.848253  0.749715  1
  Ru  Ru27  1  0.500677  0.000418  0.123301  1
  Ru  Ru28  1  0.500809  0.999982  0.622921  1
  Ru  Ru29  1  0.999280  0.499654  0.877050  1
  Ru  Ru30  1  0.999390  0.499273  0.376667  1
  Rh  Rh31  1  0.846902  0.153309  0.249651  1
