# generated using pymatgen
data_Nd3Er5Cd2CoIr
_symmetry_space_group_name_H-M   'P 1'
_cell_length_a   9.63811010
_cell_length_b   9.63810836
_cell_length_c   9.62147200
_cell_angle_alpha   60.05708260
_cell_angle_beta   60.05708857
_cell_angle_gamma   60.19786309
_symmetry_Int_Tables_number   1
_chemical_formula_structural   Nd3Er5Cd2CoIr
_chemical_formula_sum   'Nd6 Er10 Cd4 Co2 Ir2'
_cell_volume   633.47683998
_cell_formula_units_Z   2
loop_
 _symmetry_equiv_pos_site_id
 _symmetry_equiv_pos_as_xyz
  1  'x, y, z'
loop_
 _atom_site_type_symbol
 _atom_site_label
 _atom_site_symmetry_multiplicity
 _atom_site_fract_x
 _atom_site_fract_y
 _atom_site_fract_z
 _atom_site_occupancy
  Nd  Nd0  1  0.941132  0.558952  0.557627  1
  Nd  Nd1  1  0.558952  0.941132  0.942290  1
  Nd  Nd2  1  0.558952  0.941132  0.557627  1
  Nd  Nd3  1  0.941132  0.558952  0.942290  1
  Nd  Nd4  1  0.557202  0.557202  0.942798  1
  Nd  Nd5  1  0.940596  0.940596  0.559404  1
  Er  Er6  1  0.344447  0.344447  0.351214  1
  Er  Er7  1  0.344447  0.344447  0.959891  1
  Er  Er8  1  0.341332  0.962655  0.348006  1
  Er  Er9  1  0.962655  0.341332  0.348006  1
  Er  Er10  1  0.817077  0.186669  0.186902  1
  Er  Er11  1  0.186669  0.817077  0.809352  1
  Er  Er12  1  0.186669  0.817077  0.186902  1
  Er  Er13  1  0.817077  0.186669  0.809352  1
  Er  Er14  1  0.186491  0.186491  0.813509  1
  Er  Er15  1  0.813264  0.813264  0.186736  1
  Cd  Cd16  1  0.579346  0.579346  0.577990  1
  Cd  Cd17  1  0.579346  0.579346  0.263317  1
  Cd  Cd18  1  0.580317  0.261874  0.578904  1
  Cd  Cd19  1  0.261874  0.580317  0.578904  1
  Co  Co20  1  0.140822  0.140822  0.140178  1
  Co  Co21  1  0.140822  0.140822  0.578175  1
  Ir  Ir22  1  0.142112  0.577264  0.140312  1
  Ir  Ir23  1  0.577264  0.142112  0.140312  1
