# generated using pymatgen
data_Dy2Ga8SiIr3
_symmetry_space_group_name_H-M   'P 1'
_cell_length_a   7.58438159
_cell_length_b   7.53841566
_cell_length_c   9.48143194
_cell_angle_alpha   89.98721018
_cell_angle_beta   89.79817938
_cell_angle_gamma   119.87321811
_symmetry_Int_Tables_number   1
_chemical_formula_structural   Dy2Ga8SiIr3
_chemical_formula_sum   'Dy4 Ga16 Si2 Ir6'
_cell_volume   470.06120206
_cell_formula_units_Z   2
loop_
 _symmetry_equiv_pos_site_id
 _symmetry_equiv_pos_as_xyz
  1  'x, y, z'
loop_
 _atom_site_type_symbol
 _atom_site_label
 _atom_site_symmetry_multiplicity
 _atom_site_fract_x
 _atom_site_fract_y
 _atom_site_fract_z
 _atom_site_occupancy
  Dy  Dy0  1  0.996581  0.666276  0.246928  1
  Dy  Dy1  1  0.003419  0.333724  0.753072  1
  Dy  Dy2  1  0.674432  0.002845  0.247983  1
  Dy  Dy3  1  0.325568  0.997155  0.752017  1
  Ga  Ga4  1  0.129885  0.129103  0.250215  1
  Ga  Ga5  1  0.870115  0.870897  0.749785  1
  Ga  Ga6  1  0.000242  0.664932  0.577841  1
  Ga  Ga7  1  0.334602  0.998769  0.420079  1
  Ga  Ga8  1  0.999758  0.335068  0.422159  1
  Ga  Ga9  1  0.665398  0.001231  0.579921  1
  Ga  Ga10  1  0.660801  0.997799  0.917276  1
  Ga  Ga11  1  0.339199  0.002201  0.082724  1
  Ga  Ga12  1  0.331976  0.330685  0.566884  1
  Ga  Ga13  1  0.668024  0.669315  0.433116  1
  Ga  Ga14  1  0.662145  0.667850  0.069880  1
  Ga  Ga15  1  0.337855  0.332150  0.930120  1
  Ga  Ga16  1  0.338633  0.546600  0.250120  1
  Ga  Ga17  1  0.661367  0.453400  0.749880  1
  Ga  Ga18  1  0.548821  0.339934  0.249885  1
  Ga  Ga19  1  0.451179  0.660066  0.750115  1
  Si  Si20  1  0.001163  0.329260  0.073219  1
  Si  Si21  1  0.998837  0.670740  0.926781  1
  Ir  Ir22  1  0.696425  0.342791  0.001431  1
  Ir  Ir23  1  0.303575  0.657209  0.998569  1
  Ir  Ir24  1  0.328350  0.670971  0.500182  1
  Ir  Ir25  1  0.671650  0.329029  0.499818  1
  Ir  Ir26  1  0.000000  0.000000  0.000000  1
  Ir  Ir27  1  0.000000  0.000000  0.500000  1
