# generated using pymatgen
data_Sm3Lu(Sc3Sn4)2
_symmetry_space_group_name_H-M   'P 1'
_cell_length_a   7.75912726
_cell_length_b   7.99244555
_cell_length_c   14.94273600
_cell_angle_alpha   90.06795969
_cell_angle_beta   89.85093282
_cell_angle_gamma   90.09493296
_symmetry_Int_Tables_number   1
_chemical_formula_structural   Sm3Lu(Sc3Sn4)2
_chemical_formula_sum   'Sm6 Lu2 Sc12 Sn16'
_cell_volume   926.65978434
_cell_formula_units_Z   2
loop_
 _symmetry_equiv_pos_site_id
 _symmetry_equiv_pos_as_xyz
  1  'x, y, z'
loop_
 _atom_site_type_symbol
 _atom_site_label
 _atom_site_symmetry_multiplicity
 _atom_site_fract_x
 _atom_site_fract_y
 _atom_site_fract_z
 _atom_site_occupancy
  Sm  Sm0  1  0.993097  0.174832  0.095995  1
  Sm  Sm1  1  0.006903  0.825168  0.904005  1
  Sm  Sm2  1  0.505662  0.674997  0.905549  1
  Sm  Sm3  1  0.005874  0.823822  0.593312  1
  Sm  Sm4  1  0.494338  0.325003  0.094451  1
  Sm  Sm5  1  0.994126  0.176178  0.406688  1
  Lu  Lu6  1  0.490024  0.324181  0.405555  1
  Lu  Lu7  1  0.509976  0.675819  0.594445  1
  Sc  Sc8  1  0.169900  0.496105  0.748913  1
  Sc  Sc9  1  0.830100  0.503895  0.251087  1
  Sc  Sc10  1  0.330827  0.995019  0.250725  1
  Sc  Sc11  1  0.669173  0.004981  0.749275  1
  Sc  Sc12  1  0.340363  0.163018  0.627199  1
  Sc  Sc13  1  0.659637  0.836982  0.372801  1
  Sc  Sc14  1  0.159701  0.660057  0.374321  1
  Sc  Sc15  1  0.660524  0.839045  0.128397  1
  Sc  Sc16  1  0.840299  0.339943  0.625679  1
  Sc  Sc17  1  0.339476  0.160955  0.871603  1
  Sc  Sc18  1  0.838766  0.337956  0.872288  1
  Sc  Sc19  1  0.161234  0.662044  0.127712  1
  Sn  Sn20  1  0.031850  0.128040  0.748450  1
  Sn  Sn21  1  0.968150  0.871960  0.251550  1
  Sn  Sn22  1  0.466958  0.625658  0.250689  1
  Sn  Sn23  1  0.533042  0.374342  0.749311  1
  Sn  Sn24  1  0.313667  0.850695  0.747326  1
  Sn  Sn25  1  0.686333  0.149305  0.252674  1
  Sn  Sn26  1  0.190901  0.353035  0.251741  1
  Sn  Sn27  1  0.809099  0.646965  0.748259  1
  Sn  Sn28  1  0.189437  0.457992  0.542608  1
  Sn  Sn29  1  0.810563  0.542008  0.457392  1
  Sn  Sn30  1  0.324026  0.957326  0.457148  1
  Sn  Sn31  1  0.822536  0.544931  0.042983  1
  Sn  Sn32  1  0.675974  0.042674  0.542852  1
  Sn  Sn33  1  0.177464  0.455069  0.957017  1
  Sn  Sn34  1  0.678895  0.043429  0.957182  1
  Sn  Sn35  1  0.321105  0.956571  0.042818  1
