# generated using pymatgen
data_Dy12CoNi3SnRu
_symmetry_space_group_name_H-M   'P 1'
_cell_length_a   8.32315318
_cell_length_b   8.32315167
_cell_length_c   8.32315244
_cell_angle_alpha   106.64125484
_cell_angle_beta   110.06226976
_cell_angle_gamma   111.75142293
_symmetry_Int_Tables_number   1
_chemical_formula_structural   Dy12CoNi3SnRu
_chemical_formula_sum   'Dy12 Co1 Ni3 Sn1 Ru1'
_cell_volume   442.94695566
_cell_formula_units_Z   1
loop_
 _symmetry_equiv_pos_site_id
 _symmetry_equiv_pos_as_xyz
  1  'x, y, z'
loop_
 _atom_site_type_symbol
 _atom_site_label
 _atom_site_symmetry_multiplicity
 _atom_site_fract_x
 _atom_site_fract_y
 _atom_site_fract_z
 _atom_site_occupancy
  Dy  Dy0  1  0.472845  0.291329  0.181516  1
  Dy  Dy1  1  0.106053  0.289581  0.816471  1
  Dy  Dy2  1  0.890188  0.708671  0.181516  1
  Dy  Dy3  1  0.526890  0.710419  0.816471  1
  Dy  Dy4  1  0.307319  0.624906  0.322768  1
  Dy  Dy5  1  0.307319  0.984552  0.682413  1
  Dy  Dy6  1  0.697862  0.375094  0.682413  1
  Dy  Dy7  1  0.697862  0.015448  0.322768  1
  Dy  Dy8  1  0.191445  0.212790  0.404234  1
  Dy  Dy9  1  0.808190  0.788839  0.597030  1
  Dy  Dy10  1  0.191445  0.787210  0.978654  1
  Dy  Dy11  1  0.808190  0.211161  0.019353  1
  Co  Co12  1  0.629258  0.000000  0.629258  1
  Ni  Ni13  1  0.499019  0.621378  0.120396  1
  Ni  Ni14  1  0.499019  0.378622  0.877641  1
  Ni  Ni15  1  0.366919  0.000000  0.366919  1
  Sn  Sn16  1  0.999800  0.500000  0.499800  1
  Ru  Ru17  1  0.000379  0.000000  0.000379  1
