# generated using pymatgen
data_Er3TmAl16(GeIr3)2
_symmetry_space_group_name_H-M   'P 1'
_cell_length_a   7.54579400
_cell_length_b   7.54600531
_cell_length_c   9.41145500
_cell_angle_alpha   90.00000000
_cell_angle_beta   90.00000000
_cell_angle_gamma   119.69726691
_symmetry_Int_Tables_number   1
_chemical_formula_structural   Er3TmAl16(GeIr3)2
_chemical_formula_sum   'Er3 Tm1 Al16 Ge2 Ir6'
_cell_volume   465.50700326
_cell_formula_units_Z   1
loop_
 _symmetry_equiv_pos_site_id
 _symmetry_equiv_pos_as_xyz
  1  'x, y, z'
loop_
 _atom_site_type_symbol
 _atom_site_label
 _atom_site_symmetry_multiplicity
 _atom_site_fract_x
 _atom_site_fract_y
 _atom_site_fract_z
 _atom_site_occupancy
  Er  Er0  1  0.995390  0.676495  0.750000  1
  Er  Er1  1  0.004236  0.323309  0.250000  1
  Er  Er2  1  0.676532  0.995511  0.750000  1
  Tm  Tm3  1  0.323390  0.004261  0.250000  1
  Al  Al4  1  0.000413  0.337542  0.574456  1
  Al  Al5  1  0.999716  0.662577  0.425613  1
  Al  Al6  1  0.999716  0.662577  0.074387  1
  Al  Al7  1  0.337535  0.000468  0.925587  1
  Al  Al8  1  0.000413  0.337542  0.925544  1
  Al  Al9  1  0.662406  0.999604  0.074433  1
  Al  Al10  1  0.662406  0.999604  0.425567  1
  Al  Al11  1  0.337535  0.000468  0.574413  1
  Al  Al12  1  0.335513  0.335418  0.059709  1
  Al  Al13  1  0.664524  0.664559  0.940213  1
  Al  Al14  1  0.664524  0.664559  0.559787  1
  Al  Al15  1  0.335513  0.335418  0.440291  1
  Al  Al16  1  0.336069  0.554093  0.750000  1
  Al  Al17  1  0.663795  0.445796  0.250000  1
  Al  Al18  1  0.554086  0.336124  0.750000  1
  Al  Al19  1  0.445951  0.664055  0.250000  1
  Ge  Ge20  1  0.135500  0.135656  0.750000  1
  Ge  Ge21  1  0.864601  0.864154  0.250000  1
  Ir  Ir22  1  0.671289  0.328680  0.499984  1
  Ir  Ir23  1  0.328721  0.671410  0.499985  1
  Ir  Ir24  1  0.328721  0.671410  0.000015  1
  Ir  Ir25  1  0.671289  0.328680  0.000016  1
  Ir  Ir26  1  0.000108  0.000015  0.499960  1
  Ir  Ir27  1  0.000108  0.000015  0.000040  1
