# generated using pymatgen
data_Er10Ir3Ru2Rh
_symmetry_space_group_name_H-M   'P 1'
_cell_length_a   10.74661110
_cell_length_b   10.74639900
_cell_length_c   6.38097206
_cell_angle_alpha   90.00000000
_cell_angle_beta   90.01595843
_cell_angle_gamma   90.00000000
_symmetry_Int_Tables_number   1
_chemical_formula_structural   Er10Ir3Ru2Rh
_chemical_formula_sum   'Er20 Ir6 Ru4 Rh2'
_cell_volume   736.92165814
_cell_formula_units_Z   2
loop_
 _symmetry_equiv_pos_site_id
 _symmetry_equiv_pos_as_xyz
  1  'x, y, z'
loop_
 _atom_site_type_symbol
 _atom_site_label
 _atom_site_symmetry_multiplicity
 _atom_site_fract_x
 _atom_site_fract_y
 _atom_site_fract_z
 _atom_site_occupancy
  Er  Er0  1  0.293296  0.086438  0.377210  1
  Er  Er1  1  0.293296  0.913562  0.877210  1
  Er  Er2  1  0.705361  0.087334  0.876514  1
  Er  Er3  1  0.705361  0.912666  0.376514  1
  Er  Er4  1  0.585515  0.793344  0.877689  1
  Er  Er5  1  0.585515  0.206656  0.377689  1
  Er  Er6  1  0.413237  0.793460  0.377175  1
  Er  Er7  1  0.413237  0.206540  0.877175  1
  Er  Er8  1  0.206551  0.413352  0.622474  1
  Er  Er9  1  0.206551  0.586648  0.122474  1
  Er  Er10  1  0.793426  0.414422  0.122667  1
  Er  Er11  1  0.793426  0.585578  0.622667  1
  Er  Er12  1  0.914046  0.705942  0.123613  1
  Er  Er13  1  0.914046  0.294058  0.623613  1
  Er  Er14  1  0.087758  0.706097  0.622636  1
  Er  Er15  1  0.087758  0.293903  0.122636  1
  Er  Er16  1  0.000420  0.000051  0.499988  1
  Er  Er17  1  0.000420  0.999949  0.999988  1
  Er  Er18  1  0.500027  0.500046  0.000019  1
  Er  Er19  1  0.500027  0.499954  0.500019  1
  Ir  Ir20  1  0.152222  0.152504  0.750088  1
  Ir  Ir21  1  0.152222  0.847496  0.250088  1
  Ir  Ir22  1  0.652874  0.347157  0.750033  1
  Ir  Ir23  1  0.652874  0.652843  0.250033  1
  Ir  Ir24  1  0.347388  0.347396  0.249955  1
  Ir  Ir25  1  0.347388  0.652604  0.749955  1
  Ru  Ru26  1  0.500677  0.999982  0.122298  1
  Ru  Ru27  1  0.500677  0.000018  0.622298  1
  Ru  Ru28  1  0.999714  0.499982  0.877697  1
  Ru  Ru29  1  0.999714  0.500018  0.377697  1
  Rh  Rh30  1  0.847489  0.152284  0.249944  1
  Rh  Rh31  1  0.847489  0.847716  0.749944  1
