# generated using pymatgen
data_Zr10AlSiSn4
_symmetry_space_group_name_H-M   'P 1'
_cell_length_a   8.39750910
_cell_length_b   8.39753898
_cell_length_c   8.39750773
_cell_angle_alpha   96.20542619
_cell_angle_beta   96.21167172
_cell_angle_gamma   141.60073737
_symmetry_Int_Tables_number   1
_chemical_formula_structural   Zr10AlSiSn4
_chemical_formula_sum   'Zr10 Al1 Si1 Sn4'
_cell_volume   347.36628629
_cell_formula_units_Z   1
loop_
 _symmetry_equiv_pos_site_id
 _symmetry_equiv_pos_as_xyz
  1  'x, y, z'
loop_
 _atom_site_type_symbol
 _atom_site_label
 _atom_site_symmetry_multiplicity
 _atom_site_fract_x
 _atom_site_fract_y
 _atom_site_fract_z
 _atom_site_occupancy
  Zr  Zr0  1  0.426257  0.291158  0.713623  1
  Zr  Zr1  1  0.208842  0.073743  0.286365  1
  Zr  Zr2  1  0.577552  0.712609  0.286378  1
  Zr  Zr3  1  0.249999  0.750000  0.499999  1
  Zr  Zr4  1  0.291152  0.577525  0.864898  1
  Zr  Zr5  1  0.712620  0.426257  0.135098  1
  Zr  Zr6  1  0.749980  0.250000  0.499980  1
  Zr  Zr7  1  0.922466  0.208842  0.135099  1
  Zr  Zr8  1  0.787373  0.922475  0.713626  1
  Zr  Zr9  1  0.073769  0.787391  0.864943  1
  Al  Al10  1  0.249965  0.250000  0.999965  1
  Si  Si11  1  0.749978  0.750000  0.999978  1
  Sn  Sn12  1  0.164221  0.335776  0.500004  1
  Sn  Sn13  1  0.664228  0.164224  0.828446  1
  Sn  Sn14  1  0.835803  0.664260  0.500055  1
  Sn  Sn15  1  0.335795  0.835740  0.171542  1
