# generated using pymatgen
data_Nb16Fe2CoNiTe16
_symmetry_space_group_name_H-M   'P 1'
_cell_length_a   4.86561100
_cell_length_b   11.27844803
_cell_length_c   19.95025405
_cell_angle_alpha   90.00770199
_cell_angle_beta   90.00000000
_cell_angle_gamma   90.00000000
_symmetry_Int_Tables_number   1
_chemical_formula_structural   Nb16Fe2CoNiTe16
_chemical_formula_sum   'Nb16 Fe2 Co1 Ni1 Te16'
_cell_volume   1094.80091970
_cell_formula_units_Z   1
loop_
 _symmetry_equiv_pos_site_id
 _symmetry_equiv_pos_as_xyz
  1  'x, y, z'
loop_
 _atom_site_type_symbol
 _atom_site_label
 _atom_site_symmetry_multiplicity
 _atom_site_fract_x
 _atom_site_fract_y
 _atom_site_fract_z
 _atom_site_occupancy
  Nb  Nb0  1  0.499031  0.562606  0.388602  1
  Nb  Nb1  1  0.499031  0.437394  0.611398  1
  Nb  Nb2  1  0.500401  0.062348  0.110995  1
  Nb  Nb3  1  0.500401  0.937652  0.889005  1
  Nb  Nb4  1  0.498983  0.697382  0.535013  1
  Nb  Nb5  1  0.498983  0.302618  0.464987  1
  Nb  Nb6  1  0.500571  0.196488  0.965090  1
  Nb  Nb7  1  0.500571  0.803512  0.034910  1
  Nb  Nb8  1  0.002285  0.683846  0.445879  1
  Nb  Nb9  1  0.002285  0.316154  0.554121  1
  Nb  Nb10  1  0.998483  0.183024  0.053881  1
  Nb  Nb11  1  0.998483  0.816976  0.946119  1
  Nb  Nb12  1  0.001009  0.404943  0.396338  1
  Nb  Nb13  1  0.001009  0.595057  0.603662  1
  Nb  Nb14  1  0.999169  0.905302  0.103217  1
  Nb  Nb15  1  0.999169  0.094698  0.896783  1
  Fe  Fe16  1  0.749583  0.500000  0.500000  1
  Fe  Fe17  1  0.250354  0.000000  0.000000  1
  Co  Co18  1  0.750404  0.000000  0.000000  1
  Ni  Ni19  1  0.249681  0.500000  0.500000  1
  Te  Te20  1  0.001187  0.836182  0.560234  1
  Te  Te21  1  0.001187  0.163818  0.439766  1
  Te  Te22  1  0.998521  0.335951  0.939841  1
  Te  Te23  1  0.998521  0.664049  0.060159  1
  Te  Te24  1  0.498997  0.337316  0.323426  1
  Te  Te25  1  0.498997  0.662684  0.676574  1
  Te  Te26  1  0.501224  0.837487  0.176494  1
  Te  Te27  1  0.501224  0.162513  0.823506  1
  Te  Te28  1  0.500001  0.813580  0.407884  1
  Te  Te29  1  0.500001  0.186420  0.592116  1
  Te  Te30  1  0.500400  0.313327  0.092021  1
  Te  Te31  1  0.500400  0.686673  0.907979  1
  Te  Te32  1  0.001483  0.606418  0.309750  1
  Te  Te33  1  0.001483  0.393582  0.690250  1
  Te  Te34  1  0.998244  0.106314  0.190131  1
  Te  Te35  1  0.998244  0.893686  0.809869  1
