# generated using pymatgen
data_NdAs2Rh3
_symmetry_space_group_name_H-M   'P 1'
_cell_length_a   4.04171800
_cell_length_b   8.49861547
_cell_length_c   9.99233982
_cell_angle_alpha   107.04188599
_cell_angle_beta   90.00000000
_cell_angle_gamma   103.75594823
_symmetry_Int_Tables_number   1
_chemical_formula_structural   NdAs2Rh3
_chemical_formula_sum   'Nd3 As6 Rh9'
_cell_volume   317.84502456
_cell_formula_units_Z   3
loop_
 _symmetry_equiv_pos_site_id
 _symmetry_equiv_pos_as_xyz
  1  'x, y, z'
loop_
 _atom_site_type_symbol
 _atom_site_label
 _atom_site_symmetry_multiplicity
 _atom_site_fract_x
 _atom_site_fract_y
 _atom_site_fract_z
 _atom_site_occupancy
  Nd  Nd0  1  0.843888  0.687776  0.303102  1
  Nd  Nd1  1  0.156112  0.312224  0.696898  1
  Nd  Nd2  1  0.000000  0.000000  0.000000  1
  As  As3  1  0.803301  0.606602  0.870321  1
  As  As4  1  0.196699  0.393398  0.129679  1
  As  As5  1  0.538257  0.076514  0.779684  1
  As  As6  1  0.461743  0.923486  0.220316  1
  As  As7  1  0.637823  0.275647  0.453763  1
  As  As8  1  0.362177  0.724353  0.546237  1
  Rh  Rh9  1  0.956832  0.913665  0.670642  1
  Rh  Rh10  1  0.043168  0.086335  0.329358  1
  Rh  Rh11  1  0.780155  0.560309  0.606827  1
  Rh  Rh12  1  0.219845  0.439691  0.393173  1
  Rh  Rh13  1  0.375198  0.750397  0.793999  1
  Rh  Rh14  1  0.624802  0.249603  0.206001  1
  Rh  Rh15  1  0.500000  0.000000  0.500000  1
  Rh  Rh16  1  0.678646  0.357292  0.959254  1
  Rh  Rh17  1  0.321354  0.642708  0.040746  1
