# generated using pymatgen
data_La9Er(SnSb)4
_symmetry_space_group_name_H-M   'P 1'
_cell_length_a   9.16609841
_cell_length_b   9.16609854
_cell_length_c   8.60885200
_cell_angle_alpha   89.83412758
_cell_angle_beta   89.83412758
_cell_angle_gamma   124.91232299
_symmetry_Int_Tables_number   1
_chemical_formula_structural   La9Er(SnSb)4
_chemical_formula_sum   'La9 Er1 Sn4 Sb4'
_cell_volume   593.10949212
_cell_formula_units_Z   1
loop_
 _symmetry_equiv_pos_site_id
 _symmetry_equiv_pos_as_xyz
  1  'x, y, z'
loop_
 _atom_site_type_symbol
 _atom_site_label
 _atom_site_symmetry_multiplicity
 _atom_site_fract_x
 _atom_site_fract_y
 _atom_site_fract_z
 _atom_site_occupancy
  La  La0  1  0.030375  0.309367  0.334869  1
  La  La1  1  0.969625  0.690633  0.665131  1
  La  La2  1  0.468569  0.193285  0.833945  1
  La  La3  1  0.806715  0.531431  0.166055  1
  La  La4  1  0.531431  0.806715  0.166055  1
  La  La5  1  0.193285  0.468569  0.833945  1
  La  La6  1  0.690633  0.969625  0.665131  1
  La  La7  1  0.309367  0.030375  0.334869  1
  La  La8  1  0.000000  0.000000  0.000000  1
  Er  Er9  1  0.500000  0.500000  0.500000  1
  Sn  Sn10  1  0.370483  0.370483  0.134791  1
  Sn  Sn11  1  0.629517  0.629517  0.865209  1
  Sn  Sn12  1  0.135094  0.135094  0.626805  1
  Sn  Sn13  1  0.864906  0.864906  0.373195  1
  Sb  Sb14  1  0.797609  0.202391  0.000000  1
  Sb  Sb15  1  0.202391  0.797609  0.000000  1
  Sb  Sb16  1  0.695685  0.304315  0.500000  1
  Sb  Sb17  1  0.304315  0.695685  0.500000  1
