# generated using pymatgen
data_NaYbPt4
_symmetry_space_group_name_H-M   'P 1'
_cell_length_a   5.39575037
_cell_length_b   5.39574969
_cell_length_c   5.39575000
_cell_angle_alpha   59.99999812
_cell_angle_beta   60.00000227
_cell_angle_gamma   59.99999736
_symmetry_Int_Tables_number   1
_chemical_formula_structural   NaYbPt4
_chemical_formula_sum   'Na1 Yb1 Pt4'
_cell_volume   111.08117323
_cell_formula_units_Z   1
loop_
 _symmetry_equiv_pos_site_id
 _symmetry_equiv_pos_as_xyz
  1  'x, y, z'
loop_
 _atom_site_type_symbol
 _atom_site_label
 _atom_site_symmetry_multiplicity
 _atom_site_fract_x
 _atom_site_fract_y
 _atom_site_fract_z
 _atom_site_occupancy
  Na  Na0  1  0.750000  0.750000  0.750000  1
  Yb  Yb1  1  0.500000  0.500000  0.500000  1
  Pt  Pt2  1  0.124972  0.124972  0.124972  1
  Pt  Pt3  1  0.625083  0.124972  0.124972  1
  Pt  Pt4  1  0.124972  0.625083  0.124972  1
  Pt  Pt5  1  0.124972  0.124972  0.625083  1
