# generated using pymatgen
data_Sc2Fe4Ni(PRu)7
_symmetry_space_group_name_H-M   'P 1'
_cell_length_a   9.05690757
_cell_length_b   9.16610157
_cell_length_c   3.76615800
_cell_angle_alpha   90.00000000
_cell_angle_beta   90.00000000
_cell_angle_gamma   119.23621465
_symmetry_Int_Tables_number   1
_chemical_formula_structural   Sc2Fe4Ni(PRu)7
_chemical_formula_sum   'Sc2 Fe4 Ni1 P7 Ru7'
_cell_volume   272.82557950
_cell_formula_units_Z   1
loop_
 _symmetry_equiv_pos_site_id
 _symmetry_equiv_pos_as_xyz
  1  'x, y, z'
loop_
 _atom_site_type_symbol
 _atom_site_label
 _atom_site_symmetry_multiplicity
 _atom_site_fract_x
 _atom_site_fract_y
 _atom_site_fract_z
 _atom_site_occupancy
  Sc  Sc0  1  0.676806  0.334861  0.500000  1
  Sc  Sc1  1  0.329037  0.660178  0.000000  1
  Fe  Fe2  1  0.716732  0.888229  0.000000  1
  Fe  Fe3  1  0.115148  0.840986  0.000000  1
  Fe  Fe4  1  0.152382  0.267507  0.000000  1
  Fe  Fe5  1  0.943741  0.366690  0.000000  1
  Ni  Ni6  1  0.555703  0.943488  0.500000  1
  P  P7  1  0.995024  0.997322  0.000000  1
  P  P8  1  0.416698  0.300905  0.000000  1
  P  P9  1  0.594809  0.718683  0.500000  1
  P  P10  1  0.282760  0.879844  0.500000  1
  P  P11  1  0.113719  0.398609  0.500000  1
  P  P12  1  0.713380  0.127103  0.000000  1
  P  P13  1  0.890203  0.578464  0.000000  1
  Ru  Ru14  1  0.383856  0.438390  0.500000  1
  Ru  Ru15  1  0.054978  0.612428  0.500000  1
  Ru  Ru16  1  0.209226  0.088737  0.500000  1
  Ru  Ru17  1  0.882108  0.799603  0.500000  1
  Ru  Ru18  1  0.900149  0.123556  0.500000  1
  Ru  Ru19  1  0.639309  0.574612  0.000000  1
  Ru  Ru20  1  0.434229  0.059808  0.000000  1
