# generated using pymatgen
data_Sm3Y2(RhO6)2
_symmetry_space_group_name_H-M   'P 1'
_cell_length_a   6.94951261
_cell_length_b   6.94951241
_cell_length_c   7.40506303
_cell_angle_alpha   74.19913533
_cell_angle_beta   74.19913379
_cell_angle_gamma   51.13317155
_symmetry_Int_Tables_number   1
_chemical_formula_structural   Sm3Y2(RhO6)2
_chemical_formula_sum   'Sm3 Y2 Rh2 O12'
_cell_volume   265.46682591
_cell_formula_units_Z   1
loop_
 _symmetry_equiv_pos_site_id
 _symmetry_equiv_pos_as_xyz
  1  'x, y, z'
loop_
 _atom_site_type_symbol
 _atom_site_label
 _atom_site_symmetry_multiplicity
 _atom_site_fract_x
 _atom_site_fract_y
 _atom_site_fract_z
 _atom_site_occupancy
  Sm  Sm0  1  0.500000  0.500000  0.500000  1
  Sm  Sm1  1  0.191825  0.191825  0.170549  1
  Sm  Sm2  1  0.808175  0.808175  0.829451  1
  Y  Y3  1  0.802908  0.802908  0.360790  1
  Y  Y4  1  0.197092  0.197092  0.639210  1
  Rh  Rh5  1  0.746808  0.253192  0.000000  1
  Rh  Rh6  1  0.253192  0.746808  0.000000  1
  O  O7  1  0.998461  0.998461  0.186886  1
  O  O8  1  0.001539  0.001539  0.813114  1
  O  O9  1  0.498680  0.498680  0.822290  1
  O  O10  1  0.501320  0.501320  0.177710  1
  O  O11  1  0.594356  0.096207  0.571066  1
  O  O12  1  0.903793  0.405644  0.428934  1
  O  O13  1  0.405644  0.903793  0.428934  1
  O  O14  1  0.398452  0.930447  0.913652  1
  O  O15  1  0.069553  0.601548  0.086348  1
  O  O16  1  0.601548  0.069553  0.086348  1
  O  O17  1  0.930447  0.398452  0.913652  1
  O  O18  1  0.096207  0.594356  0.571066  1
