# generated using pymatgen
data_YLu19Cd3Hg3Ru2
_symmetry_space_group_name_H-M   'P 1'
_cell_length_a   9.44201333
_cell_length_b   9.45068276
_cell_length_c   9.50106800
_cell_angle_alpha   90.00000000
_cell_angle_beta   90.00000000
_cell_angle_gamma   120.03038161
_symmetry_Int_Tables_number   1
_chemical_formula_structural   YLu19Cd3Hg3Ru2
_chemical_formula_sum   'Y1 Lu19 Cd3 Hg3 Ru2'
_cell_volume   734.00296423
_cell_formula_units_Z   1
loop_
 _symmetry_equiv_pos_site_id
 _symmetry_equiv_pos_as_xyz
  1  'x, y, z'
loop_
 _atom_site_type_symbol
 _atom_site_label
 _atom_site_symmetry_multiplicity
 _atom_site_fract_x
 _atom_site_fract_y
 _atom_site_fract_z
 _atom_site_occupancy
  Y  Y0  1  0.083576  0.541788  0.750000  1
  Lu  Lu1  1  0.999598  0.999799  0.490057  1
  Lu  Lu2  1  0.999598  0.999799  0.009943  1
  Lu  Lu3  1  0.210492  0.791319  0.439135  1
  Lu  Lu4  1  0.210492  0.419174  0.439135  1
  Lu  Lu5  1  0.580075  0.790038  0.440413  1
  Lu  Lu6  1  0.788480  0.208745  0.558241  1
  Lu  Lu7  1  0.788480  0.579735  0.558241  1
  Lu  Lu8  1  0.419555  0.209778  0.558318  1
  Lu  Lu9  1  0.788480  0.208745  0.941759  1
  Lu  Lu10  1  0.788480  0.579735  0.941759  1
  Lu  Lu11  1  0.419555  0.209778  0.941682  1
  Lu  Lu12  1  0.210492  0.791319  0.060865  1
  Lu  Lu13  1  0.210492  0.419174  0.060865  1
  Lu  Lu14  1  0.580075  0.790038  0.059587  1
  Lu  Lu15  1  0.540402  0.459376  0.250000  1
  Lu  Lu16  1  0.540402  0.081027  0.250000  1
  Lu  Lu17  1  0.919151  0.459576  0.250000  1
  Lu  Lu18  1  0.461176  0.540393  0.750000  1
  Lu  Lu19  1  0.461176  0.920783  0.750000  1
  Cd  Cd20  1  0.113710  0.889920  0.750000  1
  Cd  Cd21  1  0.113710  0.223790  0.750000  1
  Cd  Cd22  1  0.773733  0.886867  0.750000  1
  Hg  Hg23  1  0.879615  0.120317  0.250000  1
  Hg  Hg24  1  0.879615  0.759299  0.250000  1
  Hg  Hg25  1  0.240779  0.120390  0.250000  1
  Ru  Ru26  1  0.332323  0.666162  0.250000  1
  Ru  Ru27  1  0.666280  0.333140  0.750000  1
