# generated using pymatgen
data_Pr4Nd2TcBr10
_symmetry_space_group_name_H-M   'P 1'
_cell_length_a   7.69201486
_cell_length_b   9.72318830
_cell_length_c   9.65782350
_cell_angle_alpha   109.10327127
_cell_angle_beta   106.37974476
_cell_angle_gamma   97.26481839
_symmetry_Int_Tables_number   1
_chemical_formula_structural   Pr4Nd2TcBr10
_chemical_formula_sum   'Pr4 Nd2 Tc1 Br10'
_cell_volume   635.48962444
_cell_formula_units_Z   1
loop_
 _symmetry_equiv_pos_site_id
 _symmetry_equiv_pos_as_xyz
  1  'x, y, z'
loop_
 _atom_site_type_symbol
 _atom_site_label
 _atom_site_symmetry_multiplicity
 _atom_site_fract_x
 _atom_site_fract_y
 _atom_site_fract_z
 _atom_site_occupancy
  Pr  Pr0  1  0.126962  0.755798  0.047090  1
  Pr  Pr1  1  0.633368  0.814445  0.859869  1
  Pr  Pr2  1  0.873560  0.244315  0.952828  1
  Pr  Pr3  1  0.976775  0.099307  0.302160  1
  Nd  Nd4  1  0.365666  0.185223  0.139758  1
  Nd  Nd5  1  0.022856  0.900993  0.698683  1
  Tc  Tc6  1  0.000632  0.000079  0.999758  1
  Br  Br7  1  0.450150  0.077727  0.825558  1
  Br  Br8  1  0.746588  0.547626  0.916079  1
  Br  Br9  1  0.254106  0.451513  0.084262  1
  Br  Br10  1  0.909764  0.164103  0.633228  1
  Br  Br11  1  0.637936  0.723218  0.540748  1
  Br  Br12  1  0.548589  0.922987  0.174931  1
  Br  Br13  1  0.090550  0.834924  0.367480  1
  Br  Br14  1  0.802854  0.351669  0.260165  1
  Br  Br15  1  0.195379  0.648842  0.739184  1
  Br  Br16  1  0.364266  0.277232  0.458218  1
