# generated using pymatgen
data_Y5Zr3(Ni4P3)4
_symmetry_space_group_name_H-M   'P 1'
_cell_length_a   12.42192600
_cell_length_b   12.42192608
_cell_length_c   3.82803100
_cell_angle_alpha   90.00000000
_cell_angle_beta   90.00000000
_cell_angle_gamma   120.00000510
_symmetry_Int_Tables_number   1
_chemical_formula_structural   Y5Zr3(Ni4P3)4
_chemical_formula_sum   'Y5 Zr3 Ni16 P12'
_cell_volume   511.54510577
_cell_formula_units_Z   1
loop_
 _symmetry_equiv_pos_site_id
 _symmetry_equiv_pos_as_xyz
  1  'x, y, z'
loop_
 _atom_site_type_symbol
 _atom_site_label
 _atom_site_symmetry_multiplicity
 _atom_site_fract_x
 _atom_site_fract_y
 _atom_site_fract_z
 _atom_site_occupancy
  Y  Y0  1  0.184579  0.184579  0.500000  1
  Y  Y1  1  0.815421  0.000000  0.500000  1
  Y  Y2  1  0.000000  0.815421  0.500000  1
  Y  Y3  1  0.333333  0.666667  0.000000  1
  Y  Y4  1  0.666667  0.333333  0.000000  1
  Zr  Zr5  1  0.561440  0.561440  0.000000  1
  Zr  Zr6  1  0.438560  0.000000  0.000000  1
  Zr  Zr7  1  0.000000  0.438560  0.000000  1
  Ni  Ni8  1  0.726401  0.726401  0.500000  1
  Ni  Ni9  1  0.273599  0.000000  0.500000  1
  Ni  Ni10  1  0.000000  0.273599  0.500000  1
  Ni  Ni11  1  0.185501  0.376732  0.000000  1
  Ni  Ni12  1  0.623268  0.808769  0.000000  1
  Ni  Ni13  1  0.191231  0.814499  0.000000  1
  Ni  Ni14  1  0.808769  0.623268  0.000000  1
  Ni  Ni15  1  0.814499  0.191231  0.000000  1
  Ni  Ni16  1  0.376732  0.185501  0.000000  1
  Ni  Ni17  1  0.360074  0.484397  0.500000  1
  Ni  Ni18  1  0.515603  0.875678  0.500000  1
  Ni  Ni19  1  0.124322  0.639926  0.500000  1
  Ni  Ni20  1  0.875678  0.515603  0.500000  1
  Ni  Ni21  1  0.639926  0.124322  0.500000  1
  Ni  Ni22  1  0.484397  0.360074  0.500000  1
  Ni  Ni23  1  0.000000  0.000000  0.000000  1
  P  P24  1  0.821827  0.821827  0.000000  1
  P  P25  1  0.178173  0.000000  0.000000  1
  P  P26  1  0.000000  0.178173  0.000000  1
  P  P27  1  0.170522  0.475471  0.500000  1
  P  P28  1  0.524529  0.695051  0.500000  1
  P  P29  1  0.304949  0.829478  0.500000  1
  P  P30  1  0.695051  0.524529  0.500000  1
  P  P31  1  0.829478  0.304949  0.500000  1
  P  P32  1  0.475471  0.170522  0.500000  1
  P  P33  1  0.356407  0.356407  0.000000  1
  P  P34  1  0.643593  0.000000  0.000000  1
  P  P35  1  0.000000  0.643593  0.000000  1
