# generated using pymatgen
data_Ho4Lu(SiHg)2
_symmetry_space_group_name_H-M   'P 1'
_cell_length_a   8.74885661
_cell_length_b   8.74885771
_cell_length_c   7.47815500
_cell_angle_alpha   90.00000000
_cell_angle_beta   90.00000000
_cell_angle_gamma   129.55892688
_symmetry_Int_Tables_number   1
_chemical_formula_structural   Ho4Lu(SiHg)2
_chemical_formula_sum   'Ho8 Lu2 Si4 Hg4'
_cell_volume   441.30067072
_cell_formula_units_Z   2
loop_
 _symmetry_equiv_pos_site_id
 _symmetry_equiv_pos_as_xyz
  1  'x, y, z'
loop_
 _atom_site_type_symbol
 _atom_site_label
 _atom_site_symmetry_multiplicity
 _atom_site_fract_x
 _atom_site_fract_y
 _atom_site_fract_z
 _atom_site_occupancy
  Ho  Ho0  1  0.053934  0.309132  0.323969  1
  Ho  Ho1  1  0.946066  0.690868  0.676031  1
  Ho  Ho2  1  0.446066  0.190868  0.823969  1
  Ho  Ho3  1  0.809132  0.553934  0.176031  1
  Ho  Ho4  1  0.553934  0.809132  0.176031  1
  Ho  Ho5  1  0.190868  0.446066  0.823969  1
  Ho  Ho6  1  0.690868  0.946066  0.676031  1
  Ho  Ho7  1  0.309132  0.053934  0.323969  1
  Lu  Lu8  1  0.000000  0.000000  0.000000  1
  Lu  Lu9  1  0.500000  0.500000  0.500000  1
  Si  Si10  1  0.379502  0.379502  0.123235  1
  Si  Si11  1  0.620498  0.620498  0.876765  1
  Si  Si12  1  0.120498  0.120498  0.623235  1
  Si  Si13  1  0.879502  0.879502  0.376765  1
  Hg  Hg14  1  0.782500  0.217500  0.000000  1
  Hg  Hg15  1  0.217500  0.782500  0.000000  1
  Hg  Hg16  1  0.717500  0.282500  0.500000  1
  Hg  Hg17  1  0.282500  0.717500  0.500000  1
