# generated using pymatgen
data_Nd2Al4Ga8Ir
_symmetry_space_group_name_H-M   'P 1'
_cell_length_a   6.05170100
_cell_length_b   6.05170100
_cell_length_c   15.84538700
_cell_angle_alpha   90.00000000
_cell_angle_beta   90.00000000
_cell_angle_gamma   90.00000000
_symmetry_Int_Tables_number   1
_chemical_formula_structural   Nd2Al4Ga8Ir
_chemical_formula_sum   'Nd4 Al8 Ga16 Ir2'
_cell_volume   580.30695485
_cell_formula_units_Z   2
loop_
 _symmetry_equiv_pos_site_id
 _symmetry_equiv_pos_as_xyz
  1  'x, y, z'
loop_
 _atom_site_type_symbol
 _atom_site_label
 _atom_site_symmetry_multiplicity
 _atom_site_fract_x
 _atom_site_fract_y
 _atom_site_fract_z
 _atom_site_occupancy
  Nd  Nd0  1  0.750000  0.250000  0.248463  1
  Nd  Nd1  1  0.250000  0.750000  0.248463  1
  Nd  Nd2  1  0.250000  0.750000  0.751537  1
  Nd  Nd3  1  0.750000  0.250000  0.751537  1
  Al  Al4  1  0.500232  0.000232  0.913867  1
  Al  Al5  1  0.000232  0.999768  0.913867  1
  Al  Al6  1  0.499768  0.500232  0.913867  1
  Al  Al7  1  0.999768  0.499768  0.913867  1
  Al  Al8  1  0.499768  0.999768  0.086133  1
  Al  Al9  1  0.999768  0.000232  0.086133  1
  Al  Al10  1  0.500232  0.499768  0.086133  1
  Al  Al11  1  0.000232  0.500232  0.086133  1
  Ga  Ga12  1  0.250000  0.250000  0.188516  1
  Ga  Ga13  1  0.750000  0.750000  0.188516  1
  Ga  Ga14  1  0.750000  0.750000  0.811484  1
  Ga  Ga15  1  0.250000  0.250000  0.811484  1
  Ga  Ga16  1  0.250000  0.250000  0.344068  1
  Ga  Ga17  1  0.750000  0.750000  0.344068  1
  Ga  Ga18  1  0.750000  0.750000  0.655932  1
  Ga  Ga19  1  0.250000  0.250000  0.655932  1
  Ga  Ga20  1  0.579868  0.079868  0.431868  1
  Ga  Ga21  1  0.079868  0.920132  0.431868  1
  Ga  Ga22  1  0.420132  0.579868  0.431868  1
  Ga  Ga23  1  0.920132  0.420132  0.431868  1
  Ga  Ga24  1  0.420132  0.920132  0.568132  1
  Ga  Ga25  1  0.920132  0.079868  0.568132  1
  Ga  Ga26  1  0.579868  0.420132  0.568132  1
  Ga  Ga27  1  0.079868  0.579868  0.568132  1
  Ir  Ir28  1  0.750000  0.250000  0.000000  1
  Ir  Ir29  1  0.250000  0.750000  0.000000  1
