# generated using pymatgen
data_Tb4B16MoW3
_symmetry_space_group_name_H-M   'P 1'
_cell_length_a   6.04667201
_cell_length_b   11.69397403
_cell_length_c   3.63408500
_cell_angle_alpha   90.00000000
_cell_angle_beta   90.00000000
_cell_angle_gamma   89.99194540
_symmetry_Int_Tables_number   1
_chemical_formula_structural   Tb4B16MoW3
_chemical_formula_sum   'Tb4 B16 Mo1 W3'
_cell_volume   256.96478686
_cell_formula_units_Z   1
loop_
 _symmetry_equiv_pos_site_id
 _symmetry_equiv_pos_as_xyz
  1  'x, y, z'
loop_
 _atom_site_type_symbol
 _atom_site_label
 _atom_site_symmetry_multiplicity
 _atom_site_fract_x
 _atom_site_fract_y
 _atom_site_fract_z
 _atom_site_occupancy
  Tb  Tb0  1  0.626653  0.350050  0.000000  1
  Tb  Tb1  1  0.373344  0.649758  0.000000  1
  Tb  Tb2  1  0.126588  0.149808  0.000000  1
  Tb  Tb3  1  0.873143  0.850316  0.000000  1
  B  B4  1  0.785759  0.186074  0.500000  1
  B  B5  1  0.213723  0.813597  0.500000  1
  B  B6  1  0.286323  0.313570  0.500000  1
  B  B7  1  0.713731  0.686338  0.500000  1
  B  B8  1  0.865959  0.032225  0.500000  1
  B  B9  1  0.133556  0.968041  0.500000  1
  B  B10  1  0.366102  0.467906  0.500000  1
  B  B11  1  0.633905  0.532077  0.500000  1
  B  B12  1  0.886311  0.452842  0.500000  1
  B  B13  1  0.113695  0.547132  0.500000  1
  B  B14  1  0.386482  0.047326  0.500000  1
  B  B15  1  0.613960  0.952990  0.500000  1
  B  B16  1  0.975742  0.307007  0.500000  1
  B  B17  1  0.024119  0.692927  0.500000  1
  B  B18  1  0.476187  0.192928  0.500000  1
  B  B19  1  0.524338  0.806978  0.500000  1
  Mo  Mo20  1  0.630253  0.084091  0.000000  1
  W  W21  1  0.370046  0.915939  0.000000  1
  W  W22  1  0.130552  0.415588  0.000000  1
  W  W23  1  0.869529  0.584491  0.000000  1
