# generated using pymatgen
data_La3NdAl18Ir5Pt
_symmetry_space_group_name_H-M   'P 1'
_cell_length_a   7.66437021
_cell_length_b   7.66865489
_cell_length_c   9.63807587
_cell_angle_alpha   89.99538415
_cell_angle_beta   89.98667394
_cell_angle_gamma   119.42633627
_symmetry_Int_Tables_number   1
_chemical_formula_structural   La3NdAl18Ir5Pt
_chemical_formula_sum   'La3 Nd1 Al18 Ir5 Pt1'
_cell_volume   493.39891954
_cell_formula_units_Z   1
loop_
 _symmetry_equiv_pos_site_id
 _symmetry_equiv_pos_as_xyz
  1  'x, y, z'
loop_
 _atom_site_type_symbol
 _atom_site_label
 _atom_site_symmetry_multiplicity
 _atom_site_fract_x
 _atom_site_fract_y
 _atom_site_fract_z
 _atom_site_occupancy
  La  La0  1  0.994798  0.669343  0.250177  1
  La  La1  1  0.004219  0.330058  0.750037  1
  La  La2  1  0.670310  0.995592  0.249995  1
  Nd  Nd3  1  0.330629  0.005301  0.749844  1
  Al  Al4  1  0.132689  0.131146  0.250356  1
  Al  Al5  1  0.871186  0.869022  0.749638  1
  Al  Al6  1  0.008233  0.335370  0.074447  1
  Al  Al7  1  0.001039  0.670369  0.924675  1
  Al  Al8  1  0.998568  0.666561  0.573631  1
  Al  Al9  1  0.334788  0.002592  0.429303  1
  Al  Al10  1  0.004143  0.334907  0.427235  1
  Al  Al11  1  0.663516  0.996120  0.574180  1
  Al  Al12  1  0.663167  0.992203  0.924196  1
  Al  Al13  1  0.331162  0.000239  0.072382  1
  Al  Al14  1  0.334027  0.333026  0.546230  1
  Al  Al15  1  0.665537  0.665608  0.456695  1
  Al  Al16  1  0.664441  0.667668  0.046600  1
  Al  Al17  1  0.332145  0.334116  0.950468  1
  Al  Al18  1  0.341016  0.545794  0.250307  1
  Al  Al19  1  0.657614  0.455011  0.747024  1
  Al  Al20  1  0.542222  0.339773  0.253050  1
  Al  Al21  1  0.454121  0.661130  0.749648  1
  Ir  Ir22  1  0.329116  0.670763  0.999814  1
  Ir  Ir23  1  0.329288  0.670605  0.500138  1
  Ir  Ir24  1  0.670777  0.328953  0.500079  1
  Ir  Ir25  1  0.999981  0.000138  0.999893  1
  Ir  Ir26  1  0.000206  0.999896  0.500073  1
  Pt  Pt27  1  0.671065  0.328695  0.999885  1
