# generated using pymatgen
data_TbTh2Al2GaPd3
_symmetry_space_group_name_H-M   'P 1'
_cell_length_a   7.23750373
_cell_length_b   7.26499321
_cell_length_c   4.14403800
_cell_angle_alpha   90.00000000
_cell_angle_beta   90.00000000
_cell_angle_gamma   119.39641119
_symmetry_Int_Tables_number   1
_chemical_formula_structural   TbTh2Al2GaPd3
_chemical_formula_sum   'Tb1 Th2 Al2 Ga1 Pd3'
_cell_volume   189.84004173
_cell_formula_units_Z   1
loop_
 _symmetry_equiv_pos_site_id
 _symmetry_equiv_pos_as_xyz
  1  'x, y, z'
loop_
 _atom_site_type_symbol
 _atom_site_label
 _atom_site_symmetry_multiplicity
 _atom_site_fract_x
 _atom_site_fract_y
 _atom_site_fract_z
 _atom_site_occupancy
  Tb  Tb0  1  0.585611  0.998838  0.500000  1
  Th  Th1  1  0.998874  0.582287  0.500000  1
  Th  Th2  1  0.422774  0.422514  0.500000  1
  Al  Al3  1  0.239134  0.001801  0.000000  1
  Al  Al4  1  0.995486  0.228807  0.000000  1
  Ga  Ga5  1  0.759615  0.765855  0.000000  1
  Pd  Pd6  1  0.324375  0.663044  0.000000  1
  Pd  Pd7  1  0.664864  0.329033  0.000000  1
  Pd  Pd8  1  0.009266  0.007822  0.500000  1
