# generated using pymatgen
data_Dy4Ga10(IrPd)3
_symmetry_space_group_name_H-M   'P 1'
_cell_length_a   8.69009532
_cell_length_b   8.67282080
_cell_length_c   8.67282000
_cell_angle_alpha   141.80253180
_cell_angle_beta   108.47049117
_cell_angle_gamma   84.08078142
_symmetry_Int_Tables_number   1
_chemical_formula_structural   Dy4Ga10(IrPd)3
_chemical_formula_sum   'Dy4 Ga10 Ir3 Pd3'
_cell_volume   371.33495758
_cell_formula_units_Z   1
loop_
 _symmetry_equiv_pos_site_id
 _symmetry_equiv_pos_as_xyz
  1  'x, y, z'
loop_
 _atom_site_type_symbol
 _atom_site_label
 _atom_site_symmetry_multiplicity
 _atom_site_fract_x
 _atom_site_fract_y
 _atom_site_fract_z
 _atom_site_occupancy
  Dy  Dy0  1  0.419733  0.640210  0.779524  1
  Dy  Dy1  1  0.582688  0.357237  0.225449  1
  Dy  Dy2  1  0.130770  0.856187  0.274584  1
  Dy  Dy3  1  0.865104  0.143808  0.721296  1
  Ga  Ga4  1  0.737183  0.912293  0.824891  1
  Ga  Ga5  1  0.267307  0.090101  0.177206  1
  Ga  Ga6  1  0.911123  0.588655  0.322468  1
  Ga  Ga7  1  0.088316  0.409544  0.678772  1
  Ga  Ga8  1  0.202763  0.953282  0.746526  1
  Ga  Ga9  1  0.793848  0.545094  0.749755  1
  Ga  Ga10  1  0.793848  0.044093  0.248753  1
  Ga  Ga11  1  0.202763  0.456239  0.249483  1
  Ga  Ga12  1  0.499122  0.748575  0.245334  1
  Ga  Ga13  1  0.499122  0.253788  0.750547  1
  Ir  Ir14  1  0.555229  0.149735  0.405494  1
  Ir  Ir15  1  0.743434  0.649773  0.093660  1
  Ir  Ir16  1  0.260172  0.350204  0.909969  1
  Pd  Pd17  1  0.001542  0.749783  0.751498  1
  Pd  Pd18  1  0.001542  0.250044  0.251759  1
  Pd  Pd19  1  0.444392  0.851358  0.593033  1
