# generated using pymatgen
data_Th6IrAu7
_symmetry_space_group_name_H-M   'P 1'
_cell_length_a   8.15804414
_cell_length_b   8.15804349
_cell_length_c   8.15804349
_cell_angle_alpha   113.23783520
_cell_angle_beta   113.23784032
_cell_angle_gamma   113.23783778
_symmetry_Int_Tables_number   1
_chemical_formula_structural   Th6IrAu7
_chemical_formula_sum   'Th6 Ir1 Au7'
_cell_volume   347.72229233
_cell_formula_units_Z   1
loop_
 _symmetry_equiv_pos_site_id
 _symmetry_equiv_pos_as_xyz
  1  'x, y, z'
loop_
 _atom_site_type_symbol
 _atom_site_label
 _atom_site_symmetry_multiplicity
 _atom_site_fract_x
 _atom_site_fract_y
 _atom_site_fract_z
 _atom_site_occupancy
  Th  Th0  1  0.267349  0.382031  0.018043  1
  Th  Th1  1  0.018043  0.267349  0.382031  1
  Th  Th2  1  0.382031  0.018042  0.267350  1
  Th  Th3  1  0.732652  0.617971  0.981959  1
  Th  Th4  1  0.981959  0.732652  0.617971  1
  Th  Th5  1  0.617971  0.981960  0.732652  1
  Ir  Ir6  1  0.000000  0.000000  0.000000  1
  Au  Au7  1  0.593683  0.251824  0.090795  1
  Au  Au8  1  0.090795  0.593683  0.251823  1
  Au  Au9  1  0.251822  0.090796  0.593683  1
  Au  Au10  1  0.406318  0.748178  0.909206  1
  Au  Au11  1  0.909207  0.406318  0.748178  1
  Au  Au12  1  0.748179  0.909205  0.406318  1
  Au  Au13  1  0.499999  0.499999  0.499999  1
