# generated using pymatgen
data_Yb2CuSi14Ir5
_symmetry_space_group_name_H-M   'P 1'
_cell_length_a   7.98908748
_cell_length_b   7.98908785
_cell_length_c   8.01316914
_cell_angle_alpha   57.14324334
_cell_angle_beta   57.14323660
_cell_angle_gamma   57.12070053
_symmetry_Int_Tables_number   1
_chemical_formula_structural   Yb2CuSi14Ir5
_chemical_formula_sum   'Yb2 Cu1 Si14 Ir5'
_cell_volume   337.77771781
_cell_formula_units_Z   1
loop_
 _symmetry_equiv_pos_site_id
 _symmetry_equiv_pos_as_xyz
  1  'x, y, z'
loop_
 _atom_site_type_symbol
 _atom_site_label
 _atom_site_symmetry_multiplicity
 _atom_site_fract_x
 _atom_site_fract_y
 _atom_site_fract_z
 _atom_site_occupancy
  Yb  Yb0  1  0.500847  0.500242  0.500067  1
  Yb  Yb1  1  0.999758  0.999153  0.999933  1
  Cu  Cu2  1  0.934261  0.565739  0.250000  1
  Si  Si3  1  0.352585  0.170306  0.567620  1
  Si  Si4  1  0.575762  0.350840  0.168104  1
  Si  Si5  1  0.179977  0.555794  0.350547  1
  Si  Si6  1  0.059513  0.683861  0.838990  1
  Si  Si7  1  0.849455  0.082039  0.663574  1
  Si  Si8  1  0.674935  0.853059  0.066386  1
  Si  Si9  1  0.646941  0.825065  0.433614  1
  Si  Si10  1  0.417961  0.650545  0.836426  1
  Si  Si11  1  0.816139  0.440487  0.661010  1
  Si  Si12  1  0.944206  0.320023  0.149453  1
  Si  Si13  1  0.149160  0.924238  0.331896  1
  Si  Si14  1  0.329694  0.147415  0.932380  1
  Si  Si15  1  0.250560  0.249440  0.250000  1
  Si  Si16  1  0.747497  0.752503  0.750000  1
  Ir  Ir17  1  0.248231  0.933809  0.567443  1
  Ir  Ir18  1  0.566191  0.251769  0.932557  1
  Ir  Ir19  1  0.752963  0.067036  0.428772  1
  Ir  Ir20  1  0.432964  0.747037  0.071228  1
  Ir  Ir21  1  0.070401  0.429599  0.750000  1
