# generated using pymatgen
data_YLu4Co19(Si2P)4
_symmetry_space_group_name_H-M   'P 1'
_cell_length_a   12.06874624
_cell_length_b   12.06758863
_cell_length_c   3.67122000
_cell_angle_alpha   90.00000000
_cell_angle_beta   90.00000000
_cell_angle_gamma   119.96134451
_symmetry_Int_Tables_number   1
_chemical_formula_structural   YLu4Co19(Si2P)4
_chemical_formula_sum   'Y1 Lu4 Co19 Si8 P4'
_cell_volume   463.22578850
_cell_formula_units_Z   1
loop_
 _symmetry_equiv_pos_site_id
 _symmetry_equiv_pos_as_xyz
  1  'x, y, z'
loop_
 _atom_site_type_symbol
 _atom_site_label
 _atom_site_symmetry_multiplicity
 _atom_site_fract_x
 _atom_site_fract_y
 _atom_site_fract_z
 _atom_site_occupancy
  Y  Y0  1  0.667319  0.332312  0.500000  1
  Lu  Lu1  1  0.332943  0.666039  0.500000  1
  Lu  Lu2  1  0.000832  0.182697  0.000000  1
  Lu  Lu3  1  0.816791  0.817519  0.000000  1
  Lu  Lu4  1  0.183812  0.000182  0.000000  1
  Co  Co5  1  0.628122  0.825541  0.500000  1
  Co  Co6  1  0.175881  0.803131  0.500000  1
  Co  Co7  1  0.196172  0.371483  0.500000  1
  Co  Co8  1  0.372502  0.195860  0.500000  1
  Co  Co9  1  0.825261  0.629389  0.500000  1
  Co  Co10  1  0.798695  0.174431  0.500000  1
  Co  Co11  1  0.999545  0.555949  0.500000  1
  Co  Co12  1  0.442891  0.443345  0.500000  1
  Co  Co13  1  0.554197  0.997136  0.500000  1
  Co  Co14  1  0.521128  0.646268  0.000000  1
  Co  Co15  1  0.353564  0.874798  0.000000  1
  Co  Co16  1  0.123789  0.477642  0.000000  1
  Co  Co17  1  0.484204  0.123821  0.000000  1
  Co  Co18  1  0.645997  0.522621  0.000000  1
  Co  Co19  1  0.874772  0.351941  0.000000  1
  Co  Co20  1  0.000999  0.724124  0.000000  1
  Co  Co21  1  0.276687  0.276564  0.000000  1
  Co  Co22  1  0.721341  0.003439  0.000000  1
  Co  Co23  1  0.999185  0.000239  0.500000  1
  Si  Si24  1  0.999714  0.367022  0.500000  1
  Si  Si25  1  0.632194  0.632703  0.500000  1
  Si  Si26  1  0.367736  0.000020  0.500000  1
  Si  Si27  1  0.520470  0.839652  0.000000  1
  Si  Si28  1  0.159267  0.679956  0.000000  1
  Si  Si29  1  0.318956  0.478616  0.000000  1
  Si  Si30  1  0.477974  0.318877  0.000000  1
  Si  Si31  1  0.842119  0.523066  0.000000  1
  P  P32  1  0.684627  0.162989  0.000000  1
  P  P33  1  0.000612  0.821240  0.500000  1
  P  P34  1  0.179790  0.179012  0.500000  1
  P  P35  1  0.819910  0.000378  0.500000  1
