# generated using pymatgen
data_Ho5(Fe2Si7)2
_symmetry_space_group_name_H-M   'P 1'
_cell_length_a   7.81020400
_cell_length_b   7.72546603
_cell_length_c   12.35463900
_cell_angle_alpha   81.21713973
_cell_angle_beta   90.00000000
_cell_angle_gamma   90.00000000
_symmetry_Int_Tables_number   1
_chemical_formula_structural   Ho5(Fe2Si7)2
_chemical_formula_sum   'Ho10 Fe8 Si28'
_cell_volume   736.70656384
_cell_formula_units_Z   2
loop_
 _symmetry_equiv_pos_site_id
 _symmetry_equiv_pos_as_xyz
  1  'x, y, z'
loop_
 _atom_site_type_symbol
 _atom_site_label
 _atom_site_symmetry_multiplicity
 _atom_site_fract_x
 _atom_site_fract_y
 _atom_site_fract_z
 _atom_site_occupancy
  Ho  Ho0  1  0.000000  0.000000  0.500000  1
  Ho  Ho1  1  0.500000  0.500000  0.500000  1
  Ho  Ho2  1  0.254249  0.156601  0.862256  1
  Ho  Ho3  1  0.754249  0.343399  0.137744  1
  Ho  Ho4  1  0.745751  0.843399  0.137744  1
  Ho  Ho5  1  0.245751  0.656601  0.862256  1
  Ho  Ho6  1  0.247470  0.836826  0.136766  1
  Ho  Ho7  1  0.747470  0.663174  0.863234  1
  Ho  Ho8  1  0.752530  0.163174  0.863234  1
  Ho  Ho9  1  0.252530  0.336826  0.136766  1
  Fe  Fe10  1  0.375435  0.873278  0.499478  1
  Fe  Fe11  1  0.875435  0.626722  0.500522  1
  Fe  Fe12  1  0.624565  0.126722  0.500522  1
  Fe  Fe13  1  0.124565  0.373278  0.499478  1
  Fe  Fe14  1  0.999689  0.938914  0.750859  1
  Fe  Fe15  1  0.499689  0.561086  0.249141  1
  Fe  Fe16  1  0.000311  0.061086  0.249141  1
  Fe  Fe17  1  0.500311  0.438914  0.750859  1
  Si  Si18  1  0.667100  0.834151  0.499865  1
  Si  Si19  1  0.167100  0.665849  0.500135  1
  Si  Si20  1  0.332900  0.165849  0.500135  1
  Si  Si21  1  0.832900  0.334151  0.499865  1
  Si  Si22  1  0.500264  0.887895  0.944135  1
  Si  Si23  1  0.000264  0.612105  0.055865  1
  Si  Si24  1  0.499736  0.112105  0.055865  1
  Si  Si25  1  0.999736  0.387895  0.944135  1
  Si  Si26  1  0.007581  0.229944  0.675795  1
  Si  Si27  1  0.507581  0.270056  0.324205  1
  Si  Si28  1  0.992419  0.770056  0.324205  1
  Si  Si29  1  0.492419  0.729944  0.675795  1
  Si  Si30  1  0.993079  0.684331  0.676024  1
  Si  Si31  1  0.493079  0.815669  0.323976  1
  Si  Si32  1  0.006921  0.315669  0.323976  1
  Si  Si33  1  0.506921  0.184331  0.676024  1
  Si  Si34  1  0.271758  0.948938  0.675570  1
  Si  Si35  1  0.771758  0.551062  0.324430  1
  Si  Si36  1  0.728242  0.051062  0.324430  1
  Si  Si37  1  0.228242  0.448938  0.675570  1
  Si  Si38  1  0.728232  0.963651  0.675614  1
  Si  Si39  1  0.228232  0.536349  0.324386  1
  Si  Si40  1  0.271768  0.036349  0.324386  1
  Si  Si41  1  0.771768  0.463651  0.675614  1
  Si  Si42  1  0.999661  0.892960  0.937537  1
  Si  Si43  1  0.499661  0.607040  0.062463  1
  Si  Si44  1  0.000339  0.107040  0.062463  1
  Si  Si45  1  0.500339  0.392960  0.937537  1
