# generated using pymatgen
data_La4Tl3Ni2
_symmetry_space_group_name_H-M   'P 1'
_cell_length_a   3.80164200
_cell_length_b   7.86715349
_cell_length_c   8.56864298
_cell_angle_alpha   108.73149158
_cell_angle_beta   90.00000000
_cell_angle_gamma   90.00000000
_symmetry_Int_Tables_number   1
_chemical_formula_structural   La4Tl3Ni2
_chemical_formula_sum   'La4 Tl3 Ni2'
_cell_volume   242.69812470
_cell_formula_units_Z   1
loop_
 _symmetry_equiv_pos_site_id
 _symmetry_equiv_pos_as_xyz
  1  'x, y, z'
loop_
 _atom_site_type_symbol
 _atom_site_label
 _atom_site_symmetry_multiplicity
 _atom_site_fract_x
 _atom_site_fract_y
 _atom_site_fract_z
 _atom_site_occupancy
  La  La0  1  0.500000  0.914005  0.786133  1
  La  La1  1  0.500000  0.085995  0.213867  1
  La  La2  1  0.500000  0.395702  0.683140  1
  La  La3  1  0.500000  0.604298  0.316860  1
  Tl  Tl4  1  0.000000  0.702814  0.994296  1
  Tl  Tl5  1  0.000000  0.297186  0.005704  1
  Tl  Tl6  1  0.000000  0.000000  0.500000  1
  Ni  Ni7  1  0.000000  0.654681  0.606149  1
  Ni  Ni8  1  0.000000  0.345319  0.393851  1
