# generated using pymatgen
data_Zr6ZnAs5Ru6
_symmetry_space_group_name_H-M   'P 1'
_cell_length_a   7.71044284
_cell_length_b   7.72958714
_cell_length_c   7.71044217
_cell_angle_alpha   128.36320951
_cell_angle_beta   119.79893431
_cell_angle_gamma   83.17436313
_symmetry_Int_Tables_number   1
_chemical_formula_structural   Zr6ZnAs5Ru6
_chemical_formula_sum   'Zr6 Zn1 As5 Ru6'
_cell_volume   300.28949501
_cell_formula_units_Z   1
loop_
 _symmetry_equiv_pos_site_id
 _symmetry_equiv_pos_as_xyz
  1  'x, y, z'
loop_
 _atom_site_type_symbol
 _atom_site_label
 _atom_site_symmetry_multiplicity
 _atom_site_fract_x
 _atom_site_fract_y
 _atom_site_fract_z
 _atom_site_occupancy
  Zr  Zr0  1  0.465551  0.691913  0.726362  1
  Zr  Zr1  1  0.525013  0.253988  0.228976  1
  Zr  Zr2  1  0.747770  0.831805  0.584035  1
  Zr  Zr3  1  0.248551  0.835236  0.086684  1
  Zr  Zr4  1  0.057541  0.256131  0.698590  1
  Zr  Zr5  1  0.953180  0.662717  0.209537  1
  Zn  Zn6  1  0.277565  0.265577  0.488013  1
  As  As7  1  0.728747  0.238466  0.009719  1
  As  As8  1  0.328650  0.584601  0.248985  1
  As  As9  1  0.670557  0.921154  0.259742  1
  As  As10  1  0.161412  0.921154  0.750597  1
  As  As11  1  0.835616  0.584601  0.755950  1
  Ru  Ru12  1  0.496871  0.495236  0.993433  1
  Ru  Ru13  1  0.001804  0.495236  0.498366  1
  Ru  Ru14  1  0.086327  0.252352  0.092348  1
  Ru  Ru15  1  0.892537  0.008540  0.146236  1
  Ru  Ru16  1  0.362304  0.008540  0.616004  1
  Ru  Ru17  1  0.660004  0.252352  0.666025  1
