# generated using pymatgen
data_LaPr3(Pd2O5)2
_symmetry_space_group_name_H-M   'P 1'
_cell_length_a   6.71476646
_cell_length_b   6.71038346
_cell_length_c   5.65123100
_cell_angle_alpha   90.00000000
_cell_angle_beta   90.00000000
_cell_angle_gamma   90.04242188
_symmetry_Int_Tables_number   1
_chemical_formula_structural   LaPr3(Pd2O5)2
_chemical_formula_sum   'La1 Pr3 Pd4 O10'
_cell_volume   254.63681393
_cell_formula_units_Z   1
loop_
 _symmetry_equiv_pos_site_id
 _symmetry_equiv_pos_as_xyz
  1  'x, y, z'
loop_
 _atom_site_type_symbol
 _atom_site_label
 _atom_site_symmetry_multiplicity
 _atom_site_fract_x
 _atom_site_fract_y
 _atom_site_fract_z
 _atom_site_occupancy
  La  La0  1  0.107481  0.260859  0.000000  1
  Pr  Pr1  1  0.739045  0.107747  0.500000  1
  Pr  Pr2  1  0.891636  0.739571  0.000000  1
  Pr  Pr3  1  0.260613  0.891841  0.500000  1
  Pd  Pd4  1  0.594643  0.307655  0.000000  1
  Pd  Pd5  1  0.308506  0.405274  0.500000  1
  Pd  Pd6  1  0.405163  0.692400  0.000000  1
  Pd  Pd7  1  0.691606  0.594930  0.500000  1
  O  O8  1  0.597290  0.802326  0.258006  1
  O  O9  1  0.801198  0.403061  0.757301  1
  O  O10  1  0.404442  0.197093  0.740242  1
  O  O11  1  0.404442  0.197093  0.259758  1
  O  O12  1  0.999714  0.999109  0.749920  1
  O  O13  1  0.198010  0.598272  0.757347  1
  O  O14  1  0.198010  0.598272  0.242653  1
  O  O15  1  0.597290  0.802326  0.741994  1
  O  O16  1  0.999714  0.999109  0.250080  1
  O  O17  1  0.801198  0.403061  0.242699  1
