# generated using pymatgen
data_Ba4GaSi7Pt8
_symmetry_space_group_name_H-M   'P 1'
_cell_length_a   6.95861699
_cell_length_b   7.88583422
_cell_length_c   8.15622841
_cell_angle_alpha   93.91951312
_cell_angle_beta   89.48009594
_cell_angle_gamma   89.72048834
_symmetry_Int_Tables_number   1
_chemical_formula_structural   Ba4GaSi7Pt8
_chemical_formula_sum   'Ba4 Ga1 Si7 Pt8'
_cell_volume   446.49695233
_cell_formula_units_Z   1
loop_
 _symmetry_equiv_pos_site_id
 _symmetry_equiv_pos_as_xyz
  1  'x, y, z'
loop_
 _atom_site_type_symbol
 _atom_site_label
 _atom_site_symmetry_multiplicity
 _atom_site_fract_x
 _atom_site_fract_y
 _atom_site_fract_z
 _atom_site_occupancy
  Ba  Ba0  1  0.875114  0.502049  0.750288  1
  Ba  Ba1  1  0.371798  0.001765  0.246306  1
  Ba  Ba2  1  0.628585  0.999787  0.747491  1
  Ba  Ba3  1  0.131961  0.501963  0.252438  1
  Ga  Ga4  1  0.410284  0.362420  0.920392  1
  Si  Si5  1  0.902924  0.858248  0.429074  1
  Si  Si6  1  0.088058  0.864754  0.927836  1
  Si  Si7  1  0.597674  0.361274  0.429130  1
  Si  Si8  1  0.089509  0.131391  0.569102  1
  Si  Si9  1  0.596330  0.639013  0.075274  1
  Si  Si10  1  0.904608  0.139422  0.071823  1
  Si  Si11  1  0.408115  0.631237  0.583207  1
  Pt  Pt12  1  0.850222  0.155714  0.369621  1
  Pt  Pt13  1  0.145260  0.833814  0.627820  1
  Pt  Pt14  1  0.139052  0.155699  0.863624  1
  Pt  Pt15  1  0.344711  0.328834  0.614399  1
  Pt  Pt16  1  0.360024  0.684075  0.878251  1
  Pt  Pt17  1  0.848199  0.842001  0.132791  1
  Pt  Pt18  1  0.659811  0.347026  0.136026  1
  Pt  Pt19  1  0.647759  0.659514  0.375107  1
