# generated using pymatgen
data_KNbAs2O7
_symmetry_space_group_name_H-M   'P 1'
_cell_length_a   9.38526500
_cell_length_b   5.11195463
_cell_length_c   8.66346875
_cell_angle_alpha   63.65199918
_cell_angle_beta   90.00000000
_cell_angle_gamma   90.00000000
_symmetry_Int_Tables_number   1
_chemical_formula_structural   KNbAs2O7
_chemical_formula_sum   'K2 Nb2 As4 O14'
_cell_volume   372.46807418
_cell_formula_units_Z   2
loop_
 _symmetry_equiv_pos_site_id
 _symmetry_equiv_pos_as_xyz
  1  'x, y, z'
loop_
 _atom_site_type_symbol
 _atom_site_label
 _atom_site_symmetry_multiplicity
 _atom_site_fract_x
 _atom_site_fract_y
 _atom_site_fract_z
 _atom_site_occupancy
  K  K0  1  0.152884  0.683618  0.775967  1
  K  K1  1  0.652884  0.316382  0.224033  1
  Nb  Nb2  1  0.551905  0.730279  0.715654  1
  Nb  Nb3  1  0.051905  0.269721  0.284346  1
  As  As4  1  0.866615  0.615622  0.515441  1
  As  As5  1  0.280615  0.901394  0.116648  1
  As  As6  1  0.780615  0.098606  0.883352  1
  As  As7  1  0.366615  0.384378  0.484559  1
  O  O8  1  0.708698  0.965205  0.740565  1
  O  O9  1  0.429579  0.742027  0.869168  1
  O  O10  1  0.982330  0.889760  0.495835  1
  O  O11  1  0.693013  0.716746  0.497168  1
  O  O12  1  0.400118  0.515488  0.631691  1
  O  O13  1  0.645117  0.349612  0.874927  1
  O  O14  1  0.912472  0.354597  0.727087  1
  O  O15  1  0.412472  0.645403  0.272913  1
  O  O16  1  0.145117  0.650388  0.125073  1
  O  O17  1  0.900118  0.484512  0.368309  1
  O  O18  1  0.193013  0.283254  0.502832  1
  O  O19  1  0.482330  0.110240  0.504165  1
  O  O20  1  0.929579  0.257973  0.130832  1
  O  O21  1  0.208698  0.034795  0.259435  1
