# generated using pymatgen
data_YHf2Al6CoCu2
_symmetry_space_group_name_H-M   'P 1'
_cell_length_a   8.66597787
_cell_length_b   8.66597763
_cell_length_c   8.66597845
_cell_angle_alpha   35.49532792
_cell_angle_beta   35.49533353
_cell_angle_gamma   35.49532350
_symmetry_Int_Tables_number   1
_chemical_formula_structural   YHf2Al6CoCu2
_chemical_formula_sum   'Y1 Hf2 Al6 Co1 Cu2'
_cell_volume   196.07618156
_cell_formula_units_Z   1
loop_
 _symmetry_equiv_pos_site_id
 _symmetry_equiv_pos_as_xyz
  1  'x, y, z'
loop_
 _atom_site_type_symbol
 _atom_site_label
 _atom_site_symmetry_multiplicity
 _atom_site_fract_x
 _atom_site_fract_y
 _atom_site_fract_z
 _atom_site_occupancy
  Y  Y0  1  0.000000  0.000000  0.000000  1
  Hf  Hf1  1  0.856483  0.856483  0.856483  1
  Hf  Hf2  1  0.143517  0.143517  0.143517  1
  Al  Al3  1  0.413091  0.413091  0.914959  1
  Al  Al4  1  0.914959  0.413091  0.413091  1
  Al  Al5  1  0.413091  0.914959  0.413091  1
  Al  Al6  1  0.586909  0.085041  0.586909  1
  Al  Al7  1  0.085041  0.586909  0.586909  1
  Al  Al8  1  0.586909  0.586909  0.085041  1
  Co  Co9  1  0.500000  0.500000  0.500000  1
  Cu  Cu10  1  0.665949  0.665949  0.665949  1
  Cu  Cu11  1  0.334051  0.334051  0.334051  1
