# generated using pymatgen
data_LaY3Mn2(Co2B)6
_symmetry_space_group_name_H-M   'P 1'
_cell_length_a   5.11828400
_cell_length_b   5.10902159
_cell_length_c   12.66795900
_cell_angle_alpha   89.99990564
_cell_angle_beta   90.00022196
_cell_angle_gamma   120.05997717
_symmetry_Int_Tables_number   1
_chemical_formula_structural   LaY3Mn2(Co2B)6
_chemical_formula_sum   'La1 Y3 Mn2 Co12 B6'
_cell_volume   286.70588453
_cell_formula_units_Z   1
loop_
 _symmetry_equiv_pos_site_id
 _symmetry_equiv_pos_as_xyz
  1  'x, y, z'
loop_
 _atom_site_type_symbol
 _atom_site_label
 _atom_site_symmetry_multiplicity
 _atom_site_fract_x
 _atom_site_fract_y
 _atom_site_fract_z
 _atom_site_occupancy
  La  La0  1  0.000090  0.000000  0.000014  1
  Y  Y1  1  0.000051  0.000000  0.500041  1
  Y  Y2  1  0.000040  0.000000  0.262071  1
  Y  Y3  1  0.000045  0.000000  0.737839  1
  Mn  Mn4  1  0.332900  0.667199  0.999829  1
  Mn  Mn5  1  0.665700  0.332801  0.999829  1
  Co  Co6  1  0.500072  0.000000  0.161955  1
  Co  Co7  1  0.500056  0.500015  0.161876  1
  Co  Co8  1  0.000040  0.499985  0.161876  1
  Co  Co9  1  0.500077  0.000000  0.838105  1
  Co  Co10  1  0.500062  0.500012  0.838173  1
  Co  Co11  1  0.000051  0.499988  0.838173  1
  Co  Co12  1  0.500060  0.000000  0.387184  1
  Co  Co13  1  0.500059  0.499998  0.387204  1
  Co  Co14  1  0.000061  0.500002  0.387204  1
  Co  Co15  1  0.500059  0.000000  0.612886  1
  Co  Co16  1  0.500061  0.499999  0.612868  1
  Co  Co17  1  0.000061  0.500001  0.612868  1
  B  B18  1  0.333379  0.666672  0.500029  1
  B  B19  1  0.666707  0.333328  0.500029  1
  B  B20  1  0.333373  0.666668  0.271112  1
  B  B21  1  0.666705  0.333332  0.271112  1
  B  B22  1  0.666722  0.333355  0.728861  1
  B  B23  1  0.333367  0.666645  0.728861  1
