# generated using pymatgen
data_CeLu6Pa(ReB6)4
_symmetry_space_group_name_H-M   'P 1'
_cell_length_a   3.65827000
_cell_length_b   9.08680664
_cell_length_c   11.45437205
_cell_angle_alpha   90.17531156
_cell_angle_beta   90.00000000
_cell_angle_gamma   90.00000000
_symmetry_Int_Tables_number   1
_chemical_formula_structural   CeLu6Pa(ReB6)4
_chemical_formula_sum   'Ce1 Lu6 Pa1 Re4 B24'
_cell_volume   380.76436290
_cell_formula_units_Z   1
loop_
 _symmetry_equiv_pos_site_id
 _symmetry_equiv_pos_as_xyz
  1  'x, y, z'
loop_
 _atom_site_type_symbol
 _atom_site_label
 _atom_site_symmetry_multiplicity
 _atom_site_fract_x
 _atom_site_fract_y
 _atom_site_fract_z
 _atom_site_occupancy
  Ce  Ce0  1  0.000000  0.319893  0.413181  1
  Lu  Lu1  1  0.000000  0.824000  0.085736  1
  Lu  Lu2  1  0.000000  0.176550  0.914967  1
  Lu  Lu3  1  0.000000  0.945064  0.371547  1
  Lu  Lu4  1  0.000000  0.056006  0.628056  1
  Lu  Lu5  1  0.000000  0.443316  0.127230  1
  Lu  Lu6  1  0.000000  0.556449  0.873839  1
  Pa  Pa7  1  0.000000  0.678669  0.586249  1
  Re  Re8  1  0.000000  0.638615  0.322102  1
  Re  Re9  1  0.000000  0.363662  0.679364  1
  Re  Re10  1  0.000000  0.138615  0.178769  1
  Re  Re11  1  0.000000  0.859368  0.819041  1
  B  B12  1  0.500000  0.555201  0.432188  1
  B  B13  1  0.500000  0.446606  0.568853  1
  B  B14  1  0.500000  0.052807  0.065527  1
  B  B15  1  0.500000  0.946464  0.933623  1
  B  B16  1  0.500000  0.751232  0.418542  1
  B  B17  1  0.500000  0.248848  0.582617  1
  B  B18  1  0.500000  0.249465  0.079200  1
  B  B19  1  0.500000  0.750533  0.920621  1
  B  B20  1  0.500000  0.793576  0.264140  1
  B  B21  1  0.500000  0.206722  0.735960  1
  B  B22  1  0.500000  0.291956  0.232524  1
  B  B23  1  0.500000  0.707439  0.766642  1
  B  B24  1  0.500000  0.631571  0.183893  1
  B  B25  1  0.500000  0.368675  0.816582  1
  B  B26  1  0.500000  0.129776  0.313359  1
  B  B27  1  0.500000  0.869107  0.685611  1
  B  B28  1  0.500000  0.981037  0.211257  1
  B  B29  1  0.500000  0.018633  0.788381  1
  B  B30  1  0.500000  0.483182  0.285494  1
  B  B31  1  0.500000  0.517768  0.714155  1
  B  B32  1  0.500000  0.602288  0.028737  1
  B  B33  1  0.500000  0.398036  0.971701  1
  B  B34  1  0.500000  0.103637  0.471346  1
  B  B35  1  0.500000  0.895234  0.528967  1
