# generated using pymatgen
data_Hf18Ta6ReP2W
_symmetry_space_group_name_H-M   'P 1'
_cell_length_a   8.71233600
_cell_length_b   8.71233574
_cell_length_c   8.77781000
_cell_angle_alpha   90.00000000
_cell_angle_beta   90.00000000
_cell_angle_gamma   120.00000099
_symmetry_Int_Tables_number   1
_chemical_formula_structural   Hf18Ta6ReP2W
_chemical_formula_sum   'Hf18 Ta6 Re1 P2 W1'
_cell_volume   577.01356426
_cell_formula_units_Z   1
loop_
 _symmetry_equiv_pos_site_id
 _symmetry_equiv_pos_as_xyz
  1  'x, y, z'
loop_
 _atom_site_type_symbol
 _atom_site_label
 _atom_site_symmetry_multiplicity
 _atom_site_fract_x
 _atom_site_fract_y
 _atom_site_fract_z
 _atom_site_occupancy
  Hf  Hf0  1  0.198791  0.801209  0.450504  1
  Hf  Hf1  1  0.198791  0.397582  0.450504  1
  Hf  Hf2  1  0.602418  0.801209  0.450504  1
  Hf  Hf3  1  0.801209  0.198791  0.549496  1
  Hf  Hf4  1  0.801209  0.602418  0.549496  1
  Hf  Hf5  1  0.397582  0.198791  0.549496  1
  Hf  Hf6  1  0.801786  0.198214  0.950315  1
  Hf  Hf7  1  0.801786  0.603572  0.950315  1
  Hf  Hf8  1  0.396428  0.198214  0.950315  1
  Hf  Hf9  1  0.198214  0.801786  0.049685  1
  Hf  Hf10  1  0.198214  0.396428  0.049685  1
  Hf  Hf11  1  0.603572  0.801786  0.049685  1
  Hf  Hf12  1  0.538486  0.461514  0.249799  1
  Hf  Hf13  1  0.538486  0.076971  0.249799  1
  Hf  Hf14  1  0.923029  0.461514  0.249799  1
  Hf  Hf15  1  0.461514  0.538486  0.750201  1
  Hf  Hf16  1  0.461514  0.923029  0.750201  1
  Hf  Hf17  1  0.076971  0.538486  0.750201  1
  Ta  Ta18  1  0.888640  0.111360  0.249011  1
  Ta  Ta19  1  0.888640  0.777279  0.249011  1
  Ta  Ta20  1  0.222721  0.111360  0.249011  1
  Ta  Ta21  1  0.111360  0.888640  0.750989  1
  Ta  Ta22  1  0.111360  0.222721  0.750989  1
  Ta  Ta23  1  0.777279  0.888640  0.750989  1
  Re  Re24  1  0.000000  0.000000  0.000000  1
  P  P25  1  0.333333  0.666667  0.249488  1
  P  P26  1  0.666667  0.333333  0.750512  1
  W  W27  1  0.000000  0.000000  0.500000  1
