# generated using pymatgen
data_Pr16Sm4Si15Au
_symmetry_space_group_name_H-M   'P 1'
_cell_length_a   7.96038817
_cell_length_b   7.93946173
_cell_length_c   15.27638400
_cell_angle_alpha   90.12289849
_cell_angle_beta   89.71400893
_cell_angle_gamma   89.76093139
_symmetry_Int_Tables_number   1
_chemical_formula_structural   Pr16Sm4Si15Au
_chemical_formula_sum   'Pr16 Sm4 Si15 Au1'
_cell_volume   965.46306185
_cell_formula_units_Z   1
loop_
 _symmetry_equiv_pos_site_id
 _symmetry_equiv_pos_as_xyz
  1  'x, y, z'
loop_
 _atom_site_type_symbol
 _atom_site_label
 _atom_site_symmetry_multiplicity
 _atom_site_fract_x
 _atom_site_fract_y
 _atom_site_fract_z
 _atom_site_occupancy
  Pr  Pr0  1  0.373805  0.013443  0.448332  1
  Pr  Pr1  1  0.491599  0.873081  0.698638  1
  Pr  Pr2  1  0.509926  0.122393  0.197390  1
  Pr  Pr3  1  0.878496  0.489024  0.301321  1
  Pr  Pr4  1  0.119973  0.512637  0.802981  1
  Pr  Pr5  1  0.625232  0.987198  0.949866  1
  Pr  Pr6  1  0.003496  0.379634  0.549639  1
  Pr  Pr7  1  0.989101  0.625133  0.052743  1
  Pr  Pr8  1  0.134138  0.983945  0.876808  1
  Pr  Pr9  1  0.519095  0.629024  0.127066  1
  Pr  Pr10  1  0.479412  0.372795  0.627600  1
  Pr  Pr11  1  0.627272  0.520395  0.874745  1
  Pr  Pr12  1  0.373875  0.482292  0.371701  1
  Pr  Pr13  1  0.872225  0.021364  0.375845  1
  Pr  Pr14  1  0.981158  0.126985  0.124282  1
  Pr  Pr15  1  0.016544  0.867636  0.621699  1
  Sm  Sm16  1  0.307902  0.307240  0.999659  1
  Sm  Sm17  1  0.191441  0.809404  0.249821  1
  Sm  Sm18  1  0.805826  0.186461  0.751485  1
  Sm  Sm19  1  0.692215  0.688851  0.498995  1
  Si  Si20  1  0.329800  0.692708  0.954101  1
  Si  Si21  1  0.664565  0.306445  0.453033  1
  Si  Si22  1  0.695178  0.332298  0.047849  1
  Si  Si23  1  0.308972  0.671449  0.544452  1
  Si  Si24  1  0.807620  0.830773  0.203993  1
  Si  Si25  1  0.169725  0.194190  0.297637  1
  Si  Si26  1  0.833695  0.806406  0.797620  1
  Si  Si27  1  0.286458  0.922530  0.061576  1
  Si  Si28  1  0.579030  0.787134  0.311424  1
  Si  Si29  1  0.433457  0.210271  0.815468  1
  Si  Si30  1  0.786395  0.577716  0.689638  1
  Si  Si31  1  0.213191  0.422025  0.188748  1
  Si  Si32  1  0.709099  0.077532  0.559821  1
  Si  Si33  1  0.922821  0.288134  0.939955  1
  Si  Si34  1  0.078121  0.713811  0.438208  1
  Au  Au35  1  0.189143  0.167647  0.695864  1
