# generated using pymatgen
data_CuTeSI
_symmetry_space_group_name_H-M   'P 1'
_cell_length_a   4.98902100
_cell_length_b   8.23715471
_cell_length_c   13.01464269
_cell_angle_alpha   64.35652143
_cell_angle_beta   90.00000000
_cell_angle_gamma   90.00000000
_symmetry_Int_Tables_number   1
_chemical_formula_structural   CuTeSI
_chemical_formula_sum   'Cu4 Te4 S4 I4'
_cell_volume   482.16162931
_cell_formula_units_Z   4
loop_
 _symmetry_equiv_pos_site_id
 _symmetry_equiv_pos_as_xyz
  1  'x, y, z'
loop_
 _atom_site_type_symbol
 _atom_site_label
 _atom_site_symmetry_multiplicity
 _atom_site_fract_x
 _atom_site_fract_y
 _atom_site_fract_z
 _atom_site_occupancy
  Cu  Cu0  1  0.871114  0.798965  0.251343  1
  Cu  Cu1  1  0.128886  0.201035  0.748657  1
  Cu  Cu2  1  0.371114  0.201035  0.248657  1
  Cu  Cu3  1  0.628886  0.798965  0.751343  1
  Te  Te4  1  0.504907  0.703716  0.150722  1
  Te  Te5  1  0.495093  0.296284  0.849278  1
  Te  Te6  1  0.004907  0.296284  0.349278  1
  Te  Te7  1  0.995093  0.703716  0.650722  1
  S  S8  1  0.689541  0.415626  0.175668  1
  S  S9  1  0.310459  0.584374  0.824332  1
  S  S10  1  0.189541  0.584374  0.324332  1
  S  S11  1  0.810459  0.415626  0.675668  1
  I  I12  1  0.650575  0.909752  0.391783  1
  I  I13  1  0.349425  0.090248  0.608217  1
  I  I14  1  0.150575  0.090248  0.108217  1
  I  I15  1  0.849425  0.909752  0.891783  1
