# generated using pymatgen
data_CeSmTm2(B6Os)2
_symmetry_space_group_name_H-M   'P 1'
_cell_length_a   3.67368800
_cell_length_b   9.15393588
_cell_length_c   11.55827189
_cell_angle_alpha   90.10547367
_cell_angle_beta   90.00000000
_cell_angle_gamma   90.00000000
_symmetry_Int_Tables_number   1
_chemical_formula_structural   CeSmTm2(B6Os)2
_chemical_formula_sum   'Ce2 Sm2 Tm4 B24 Os4'
_cell_volume   388.68905022
_cell_formula_units_Z   2
loop_
 _symmetry_equiv_pos_site_id
 _symmetry_equiv_pos_as_xyz
  1  'x, y, z'
loop_
 _atom_site_type_symbol
 _atom_site_label
 _atom_site_symmetry_multiplicity
 _atom_site_fract_x
 _atom_site_fract_y
 _atom_site_fract_z
 _atom_site_occupancy
  Ce  Ce0  1  0.000000  0.321889  0.413743  1
  Ce  Ce1  1  0.000000  0.678111  0.586257  1
  Sm  Sm2  1  0.000000  0.821462  0.085706  1
  Sm  Sm3  1  0.000000  0.178538  0.914294  1
  Tm  Tm4  1  0.000000  0.944692  0.373466  1
  Tm  Tm5  1  0.000000  0.055308  0.626535  1
  Tm  Tm6  1  0.000000  0.444117  0.126311  1
  Tm  Tm7  1  0.000000  0.555883  0.873688  1
  B  B8  1  0.500000  0.554883  0.431689  1
  B  B9  1  0.500000  0.445117  0.568311  1
  B  B10  1  0.500000  0.055558  0.068656  1
  B  B11  1  0.500000  0.944442  0.931344  1
  B  B12  1  0.500000  0.750183  0.418550  1
  B  B13  1  0.500000  0.249817  0.581450  1
  B  B14  1  0.500000  0.249821  0.081485  1
  B  B15  1  0.500000  0.750179  0.918515  1
  B  B16  1  0.500000  0.791399  0.266122  1
  B  B17  1  0.500000  0.208601  0.733878  1
  B  B18  1  0.500000  0.291646  0.233559  1
  B  B19  1  0.500000  0.708353  0.766441  1
  B  B20  1  0.500000  0.630672  0.184625  1
  B  B21  1  0.500000  0.369328  0.815375  1
  B  B22  1  0.500000  0.131180  0.315246  1
  B  B23  1  0.500000  0.868820  0.684754  1
  B  B24  1  0.500000  0.984007  0.213834  1
  B  B25  1  0.500000  0.015993  0.786166  1
  B  B26  1  0.500000  0.484320  0.285669  1
  B  B27  1  0.500000  0.515680  0.714331  1
  B  B28  1  0.500000  0.603892  0.028565  1
  B  B29  1  0.500000  0.396108  0.971435  1
  B  B30  1  0.500000  0.104317  0.471512  1
  B  B31  1  0.500000  0.895683  0.528488  1
  Os  Os32  1  0.000000  0.638654  0.321284  1
  Os  Os33  1  0.000000  0.361346  0.678716  1
  Os  Os34  1  0.000000  0.139603  0.181493  1
  Os  Os35  1  0.000000  0.860397  0.818507  1
