# generated using pymatgen
data_YbTmNi2(SnH)2
_symmetry_space_group_name_H-M   'P 1'
_cell_length_a   4.22341600
_cell_length_b   7.08708170
_cell_length_c   8.23356518
_cell_angle_alpha   89.66662253
_cell_angle_beta   90.00000000
_cell_angle_gamma   90.00000000
_symmetry_Int_Tables_number   1
_chemical_formula_structural   YbTmNi2(SnH)2
_chemical_formula_sum   'Yb2 Tm2 Ni4 Sn4 H4'
_cell_volume   246.44038393
_cell_formula_units_Z   2
loop_
 _symmetry_equiv_pos_site_id
 _symmetry_equiv_pos_as_xyz
  1  'x, y, z'
loop_
 _atom_site_type_symbol
 _atom_site_label
 _atom_site_symmetry_multiplicity
 _atom_site_fract_x
 _atom_site_fract_y
 _atom_site_fract_z
 _atom_site_occupancy
  Yb  Yb0  1  0.750000  0.514895  0.817570  1
  Yb  Yb1  1  0.250000  0.485105  0.182430  1
  Tm  Tm2  1  0.250000  0.985257  0.314959  1
  Tm  Tm3  1  0.750000  0.014743  0.685041  1
  Ni  Ni4  1  0.750000  0.265933  0.393719  1
  Ni  Ni5  1  0.250000  0.734067  0.606281  1
  Ni  Ni6  1  0.250000  0.225100  0.884991  1
  Ni  Ni7  1  0.750000  0.774900  0.115009  1
  Sn  Sn8  1  0.750000  0.152116  0.068436  1
  Sn  Sn9  1  0.250000  0.847884  0.931564  1
  Sn  Sn10  1  0.250000  0.348740  0.568782  1
  Sn  Sn11  1  0.750000  0.651260  0.431218  1
  H  H12  1  0.250000  0.954605  0.577624  1
  H  H13  1  0.750000  0.045395  0.422376  1
  H  H14  1  0.750000  0.557831  0.083208  1
  H  H15  1  0.250000  0.442169  0.916792  1
