# generated using pymatgen
data_Nd2BeB3Rh5
_symmetry_space_group_name_H-M   'P 1'
_cell_length_a   7.64480299
_cell_length_b   6.43986683
_cell_length_c   5.66061288
_cell_angle_alpha   77.26688900
_cell_angle_beta   55.50639869
_cell_angle_gamma   46.42384332
_symmetry_Int_Tables_number   1
_chemical_formula_structural   Nd2BeB3Rh5
_chemical_formula_sum   'Nd2 Be1 B3 Rh5'
_cell_volume   159.51420486
_cell_formula_units_Z   1
loop_
 _symmetry_equiv_pos_site_id
 _symmetry_equiv_pos_as_xyz
  1  'x, y, z'
loop_
 _atom_site_type_symbol
 _atom_site_label
 _atom_site_symmetry_multiplicity
 _atom_site_fract_x
 _atom_site_fract_y
 _atom_site_fract_z
 _atom_site_occupancy
  Nd  Nd0  1  0.863539  0.861456  0.138544  1
  Nd  Nd1  1  0.144973  0.145230  0.854770  1
  Be  Be2  1  0.783861  0.480301  0.519699  1
  B  B3  1  0.203070  0.533068  0.466932  1
  B  B4  1  0.538160  0.207474  0.792526  1
  B  B5  1  0.469357  0.788175  0.211825  1
  Rh  Rh6  1  0.751251  0.752956  0.756173  1
  Rh  Rh7  1  0.497035  0.499678  0.005177  1
  Rh  Rh8  1  0.486482  0.493011  0.506989  1
  Rh  Rh9  1  0.001891  0.994823  0.500322  1
  Rh  Rh10  1  0.260379  0.243827  0.247044  1
