# generated using pymatgen
data_Yb8Zn(Pd11Pb)2
_symmetry_space_group_name_H-M   'P 1'
_cell_length_a   8.12138100
_cell_length_b   8.52200900
_cell_length_c   8.50023600
_cell_angle_alpha   90.00000000
_cell_angle_beta   90.00000000
_cell_angle_gamma   90.00000000
_symmetry_Int_Tables_number   1
_chemical_formula_structural   Yb8Zn(Pd11Pb)2
_chemical_formula_sum   'Yb8 Zn1 Pd22 Pb2'
_cell_volume   588.30543046
_cell_formula_units_Z   1
loop_
 _symmetry_equiv_pos_site_id
 _symmetry_equiv_pos_as_xyz
  1  'x, y, z'
loop_
 _atom_site_type_symbol
 _atom_site_label
 _atom_site_symmetry_multiplicity
 _atom_site_fract_x
 _atom_site_fract_y
 _atom_site_fract_z
 _atom_site_occupancy
  Yb  Yb0  1  0.248880  0.221757  0.250039  1
  Yb  Yb1  1  0.748838  0.747119  0.748301  1
  Yb  Yb2  1  0.748838  0.747119  0.251699  1
  Yb  Yb3  1  0.748838  0.252881  0.748301  1
  Yb  Yb4  1  0.248880  0.221757  0.749961  1
  Yb  Yb5  1  0.248880  0.778243  0.250039  1
  Yb  Yb6  1  0.248880  0.778243  0.749961  1
  Yb  Yb7  1  0.748838  0.252881  0.251699  1
  Zn  Zn8  1  0.000760  0.000000  0.000000  1
  Pd  Pd9  1  0.739317  0.500000  0.000000  1
  Pd  Pd10  1  0.001772  0.257101  0.500000  1
  Pd  Pd11  1  0.500364  0.260541  0.000000  1
  Pd  Pd12  1  0.001772  0.742899  0.500000  1
  Pd  Pd13  1  0.500364  0.739459  0.000000  1
  Pd  Pd14  1  0.506157  0.000000  0.263472  1
  Pd  Pd15  1  0.257824  0.000000  0.500000  1
  Pd  Pd16  1  0.506157  0.000000  0.736528  1
  Pd  Pd17  1  0.737173  0.000000  0.500000  1
  Pd  Pd18  1  0.008816  0.500000  0.258262  1
  Pd  Pd19  1  0.008816  0.500000  0.741738  1
  Pd  Pd20  1  0.747878  0.500000  0.500000  1
  Pd  Pd21  1  0.497501  0.249998  0.500000  1
  Pd  Pd22  1  0.497501  0.750002  0.500000  1
  Pd  Pd23  1  0.494008  0.500000  0.254820  1
  Pd  Pd24  1  0.494008  0.500000  0.745180  1
  Pd  Pd25  1  0.303456  0.000000  0.000000  1
  Pd  Pd26  1  0.700465  0.000000  0.000000  1
  Pd  Pd27  1  0.001108  0.289371  0.000000  1
  Pd  Pd28  1  0.001108  0.710629  0.000000  1
  Pd  Pd29  1  0.990731  0.000000  0.291859  1
  Pd  Pd30  1  0.990731  0.000000  0.708141  1
  Pb  Pb31  1  0.266246  0.500000  0.000000  1
  Pb  Pb32  1  0.255095  0.500000  0.500000  1
