# generated using pymatgen
data_Ta2Cd3Hg(SbO7)2
_symmetry_space_group_name_H-M   'P 1'
_cell_length_a   7.46467975
_cell_length_b   7.46467946
_cell_length_c   7.36213414
_cell_angle_alpha   59.84267100
_cell_angle_beta   59.84267078
_cell_angle_gamma   60.21263498
_symmetry_Int_Tables_number   1
_chemical_formula_structural   Ta2Cd3Hg(SbO7)2
_chemical_formula_sum   'Ta2 Cd3 Hg1 Sb2 O14'
_cell_volume   289.84372231
_cell_formula_units_Z   1
loop_
 _symmetry_equiv_pos_site_id
 _symmetry_equiv_pos_as_xyz
  1  'x, y, z'
loop_
 _atom_site_type_symbol
 _atom_site_label
 _atom_site_symmetry_multiplicity
 _atom_site_fract_x
 _atom_site_fract_y
 _atom_site_fract_z
 _atom_site_occupancy
  Ta  Ta0  1  0.125000  0.625000  0.125000  1
  Ta  Ta1  1  0.625000  0.125000  0.125000  1
  Cd  Cd2  1  0.625000  0.625000  0.625000  1
  Cd  Cd3  1  0.625000  0.125000  0.625000  1
  Cd  Cd4  1  0.125000  0.625000  0.625000  1
  Hg  Hg5  1  0.625000  0.625000  0.125000  1
  Sb  Sb6  1  0.125000  0.125000  0.125000  1
  Sb  Sb7  1  0.125000  0.125000  0.625000  1
  O  O8  1  0.813330  0.813330  0.190006  1
  O  O9  1  0.807133  0.195162  0.803362  1
  O  O10  1  0.047635  0.047635  0.453391  1
  O  O11  1  0.808629  0.188160  0.195618  1
  O  O12  1  0.436670  0.436670  0.059994  1
  O  O13  1  0.061840  0.441371  0.054382  1
  O  O14  1  0.195162  0.807133  0.803362  1
  O  O15  1  0.442867  0.054838  0.446638  1
  O  O16  1  0.503250  0.503250  0.495653  1
  O  O17  1  0.188160  0.808629  0.195618  1
  O  O18  1  0.202365  0.202365  0.796609  1
  O  O19  1  0.746750  0.746750  0.754347  1
  O  O20  1  0.441371  0.061840  0.054382  1
  O  O21  1  0.054838  0.442867  0.446638  1
