# generated using pymatgen
data_La2B4Os2RuRh
_symmetry_space_group_name_H-M   'P 1'
_cell_length_a   6.93168838
_cell_length_b   6.09333415
_cell_length_c   5.65106319
_cell_angle_alpha   72.23283139
_cell_angle_beta   56.83805764
_cell_angle_gamma   50.84676366
_symmetry_Int_Tables_number   1
_chemical_formula_structural   La2B4Os2RuRh
_chemical_formula_sum   'La2 B4 Os2 Ru1 Rh1'
_cell_volume   154.64642579
_cell_formula_units_Z   1
loop_
 _symmetry_equiv_pos_site_id
 _symmetry_equiv_pos_as_xyz
  1  'x, y, z'
loop_
 _atom_site_type_symbol
 _atom_site_label
 _atom_site_symmetry_multiplicity
 _atom_site_fract_x
 _atom_site_fract_y
 _atom_site_fract_z
 _atom_site_occupancy
  La  La0  1  0.997790  0.997790  0.002210  1
  La  La1  1  0.249556  0.249556  0.250444  1
  B  B2  1  0.314415  0.691329  0.315860  1
  B  B3  1  0.691329  0.314415  0.678396  1
  B  B4  1  0.576818  0.920949  0.575640  1
  B  B5  1  0.920949  0.576818  0.926592  1
  Os  Os6  1  0.613412  0.613412  0.886588  1
  Os  Os7  1  0.885798  0.885798  0.614202  1
  Ru  Ru8  1  0.634633  0.634633  0.365367  1
  Rh  Rh9  1  0.365299  0.365299  0.634701  1
