# generated using pymatgen
data_TmMg2(Co3B2)3
_symmetry_space_group_name_H-M   'P 1'
_cell_length_a   5.70842384
_cell_length_b   5.70842450
_cell_length_c   5.70842377
_cell_angle_alpha   95.84014315
_cell_angle_beta   95.84015462
_cell_angle_gamma   95.84016556
_symmetry_Int_Tables_number   1
_chemical_formula_structural   TmMg2(Co3B2)3
_chemical_formula_sum   'Tm1 Mg2 Co9 B6'
_cell_volume   182.90437685
_cell_formula_units_Z   1
loop_
 _symmetry_equiv_pos_site_id
 _symmetry_equiv_pos_as_xyz
  1  'x, y, z'
loop_
 _atom_site_type_symbol
 _atom_site_label
 _atom_site_symmetry_multiplicity
 _atom_site_fract_x
 _atom_site_fract_y
 _atom_site_fract_z
 _atom_site_occupancy
  Tm  Tm0  1  0.328076  0.328076  0.328076  1
  Mg  Mg1  1  0.992018  0.992018  0.992018  1
  Mg  Mg2  1  0.676484  0.676484  0.676484  1
  Co  Co3  1  0.994105  0.994105  0.501141  1
  Co  Co4  1  0.501141  0.994105  0.994105  1
  Co  Co5  1  0.994105  0.501141  0.994105  1
  Co  Co6  1  0.703342  0.205222  0.703342  1
  Co  Co7  1  0.703342  0.703342  0.205222  1
  Co  Co8  1  0.205222  0.703342  0.703342  1
  Co  Co9  1  0.294468  0.804443  0.294468  1
  Co  Co10  1  0.294468  0.294468  0.804443  1
  Co  Co11  1  0.804443  0.294468  0.294468  1
  B  B12  1  0.617775  0.388678  0.997938  1
  B  B13  1  0.997938  0.617775  0.388678  1
  B  B14  1  0.388678  0.997938  0.617775  1
  B  B15  1  0.997938  0.388678  0.617775  1
  B  B16  1  0.617775  0.997938  0.388678  1
  B  B17  1  0.388678  0.617775  0.997938  1
