# generated using pymatgen
data_NdHo5(Ni3As2)6
_symmetry_space_group_name_H-M   'P 1'
_cell_length_a   3.91561100
_cell_length_b   10.81688200
_cell_length_c   12.80619800
_cell_angle_alpha   90.00000000
_cell_angle_beta   90.00000000
_cell_angle_gamma   90.00000000
_symmetry_Int_Tables_number   1
_chemical_formula_structural   NdHo5(Ni3As2)6
_chemical_formula_sum   'Nd1 Ho5 Ni18 As12'
_cell_volume   542.40270190
_cell_formula_units_Z   1
loop_
 _symmetry_equiv_pos_site_id
 _symmetry_equiv_pos_as_xyz
  1  'x, y, z'
loop_
 _atom_site_type_symbol
 _atom_site_label
 _atom_site_symmetry_multiplicity
 _atom_site_fract_x
 _atom_site_fract_y
 _atom_site_fract_z
 _atom_site_occupancy
  Nd  Nd0  1  0.500000  0.000000  0.480000  1
  Ho  Ho1  1  0.000000  0.500000  0.520291  1
  Ho  Ho2  1  0.500000  0.816485  0.206282  1
  Ho  Ho3  1  0.500000  0.183515  0.206282  1
  Ho  Ho4  1  0.000000  0.682719  0.792637  1
  Ho  Ho5  1  0.000000  0.317281  0.792637  1
  Ni  Ni6  1  0.500000  0.500000  0.154881  1
  Ni  Ni7  1  0.000000  0.000000  0.847511  1
  Ni  Ni8  1  0.500000  0.500000  0.697768  1
  Ni  Ni9  1  0.000000  0.000000  0.299420  1
  Ni  Ni10  1  0.000000  0.500000  0.979996  1
  Ni  Ni11  1  0.500000  0.000000  0.018848  1
  Ni  Ni12  1  0.500000  0.333954  0.997342  1
  Ni  Ni13  1  0.500000  0.666046  0.997342  1
  Ni  Ni14  1  0.000000  0.167781  0.002811  1
  Ni  Ni15  1  0.000000  0.832219  0.002811  1
  Ni  Ni16  1  0.500000  0.304357  0.425947  1
  Ni  Ni17  1  0.500000  0.695643  0.425947  1
  Ni  Ni18  1  0.000000  0.198993  0.574978  1
  Ni  Ni19  1  0.000000  0.801007  0.574978  1
  Ni  Ni20  1  0.500000  0.879174  0.710728  1
  Ni  Ni21  1  0.500000  0.120826  0.710728  1
  Ni  Ni22  1  0.000000  0.619941  0.290385  1
  Ni  Ni23  1  0.000000  0.380059  0.290385  1
  As  As24  1  0.500000  0.500000  0.874499  1
  As  As25  1  0.000000  0.000000  0.123675  1
  As  As26  1  0.500000  0.500000  0.342482  1
  As  As27  1  0.000000  0.000000  0.661303  1
  As  As28  1  0.500000  0.313446  0.612250  1
  As  As29  1  0.500000  0.686554  0.612250  1
  As  As30  1  0.000000  0.188800  0.385838  1
  As  As31  1  0.000000  0.811200  0.385838  1
  As  As32  1  0.500000  0.846747  0.891719  1
  As  As33  1  0.500000  0.153253  0.891719  1
  As  As34  1  0.000000  0.651878  0.108745  1
  As  As35  1  0.000000  0.348122  0.108745  1
