# generated using pymatgen
data_ScTi2SiGe2Os3
_symmetry_space_group_name_H-M   'P 1'
_cell_length_a   6.70704791
_cell_length_b   7.11387800
_cell_length_c   7.54973369
_cell_angle_alpha   118.10796997
_cell_angle_beta   116.37158815
_cell_angle_gamma   89.99999632
_symmetry_Int_Tables_number   1
_chemical_formula_structural   ScTi2SiGe2Os3
_chemical_formula_sum   'Sc2 Ti4 Si2 Ge4 Os6'
_cell_volume   274.50820060
_cell_formula_units_Z   2
loop_
 _symmetry_equiv_pos_site_id
 _symmetry_equiv_pos_as_xyz
  1  'x, y, z'
loop_
 _atom_site_type_symbol
 _atom_site_label
 _atom_site_symmetry_multiplicity
 _atom_site_fract_x
 _atom_site_fract_y
 _atom_site_fract_z
 _atom_site_occupancy
  Sc  Sc0  1  0.240877  0.467800  0.435600  1
  Sc  Sc1  1  0.805276  0.532200  0.564400  1
  Ti  Ti2  1  0.655503  0.744473  0.988945  1
  Ti  Ti3  1  0.666557  0.255527  0.011055  1
  Ti  Ti4  1  0.856517  0.059425  0.618849  1
  Ti  Ti5  1  0.237668  0.940575  0.381151  1
  Si  Si6  1  0.290414  0.279702  0.059406  1
  Si  Si7  1  0.231008  0.720298  0.940594  1
  Ge  Ge8  1  0.576844  0.847659  0.667802  1
  Ge  Ge9  1  0.909041  0.152341  0.332198  1
  Ge  Ge10  1  0.909041  0.679857  0.332198  1
  Ge  Ge11  1  0.576844  0.320143  0.667802  1
  Os  Os12  1  0.001154  0.000000  0.000000  1
  Os  Os13  1  0.001154  0.500000  0.000000  1
  Os  Os14  1  0.494098  0.662235  0.246945  1
  Os  Os15  1  0.247153  0.337765  0.753055  1
  Os  Os16  1  0.247153  0.915288  0.753055  1
  Os  Os17  1  0.494098  0.084712  0.246945  1
