# generated using pymatgen
data_Lu3Fe(Co4P3)2
_symmetry_space_group_name_H-M   'P 1'
_cell_length_a   3.65800300
_cell_length_b   10.47015000
_cell_length_c   12.08646500
_cell_angle_alpha   90.00000000
_cell_angle_beta   90.00000000
_cell_angle_gamma   90.00000000
_symmetry_Int_Tables_number   1
_chemical_formula_structural   Lu3Fe(Co4P3)2
_chemical_formula_sum   'Lu6 Fe2 Co16 P12'
_cell_volume   462.90967700
_cell_formula_units_Z   2
loop_
 _symmetry_equiv_pos_site_id
 _symmetry_equiv_pos_as_xyz
  1  'x, y, z'
loop_
 _atom_site_type_symbol
 _atom_site_label
 _atom_site_symmetry_multiplicity
 _atom_site_fract_x
 _atom_site_fract_y
 _atom_site_fract_z
 _atom_site_occupancy
  Lu  Lu0  1  0.000000  0.500000  0.523061  1
  Lu  Lu1  1  0.500000  0.000000  0.476939  1
  Lu  Lu2  1  0.500000  0.818352  0.205031  1
  Lu  Lu3  1  0.500000  0.181648  0.205031  1
  Lu  Lu4  1  0.000000  0.681648  0.794969  1
  Lu  Lu5  1  0.000000  0.318352  0.794969  1
  Fe  Fe6  1  0.500000  0.500000  0.157935  1
  Fe  Fe7  1  0.000000  0.000000  0.842065  1
  Co  Co8  1  0.500000  0.500000  0.701482  1
  Co  Co9  1  0.000000  0.000000  0.298518  1
  Co  Co10  1  0.000000  0.500000  0.986227  1
  Co  Co11  1  0.500000  0.000000  0.013773  1
  Co  Co12  1  0.500000  0.332579  0.993556  1
  Co  Co13  1  0.500000  0.667421  0.993556  1
  Co  Co14  1  0.000000  0.167421  0.006444  1
  Co  Co15  1  0.000000  0.832579  0.006444  1
  Co  Co16  1  0.500000  0.297358  0.431114  1
  Co  Co17  1  0.500000  0.702642  0.431114  1
  Co  Co18  1  0.000000  0.202642  0.568886  1
  Co  Co19  1  0.000000  0.797358  0.568886  1
  Co  Co20  1  0.500000  0.877965  0.708410  1
  Co  Co21  1  0.500000  0.122035  0.708410  1
  Co  Co22  1  0.000000  0.622035  0.291590  1
  Co  Co23  1  0.000000  0.377965  0.291590  1
  P  P24  1  0.500000  0.500000  0.881054  1
  P  P25  1  0.000000  0.000000  0.118946  1
  P  P26  1  0.500000  0.500000  0.345191  1
  P  P27  1  0.000000  0.000000  0.654809  1
  P  P28  1  0.500000  0.312118  0.616994  1
  P  P29  1  0.500000  0.687882  0.616994  1
  P  P30  1  0.000000  0.187882  0.383006  1
  P  P31  1  0.000000  0.812118  0.383006  1
  P  P32  1  0.500000  0.846694  0.891331  1
  P  P33  1  0.500000  0.153306  0.891331  1
  P  P34  1  0.000000  0.653306  0.108669  1
  P  P35  1  0.000000  0.346694  0.108669  1
