# generated using pymatgen
data_Dy4Lu4Mn(B8Os)3
_symmetry_space_group_name_H-M   'P 1'
_cell_length_a   3.59917500
_cell_length_b   9.06334026
_cell_length_c   11.45122016
_cell_angle_alpha   90.02067879
_cell_angle_beta   90.00000000
_cell_angle_gamma   90.00000000
_symmetry_Int_Tables_number   1
_chemical_formula_structural   Dy4Lu4Mn(B8Os)3
_chemical_formula_sum   'Dy4 Lu4 Mn1 B24 Os3'
_cell_volume   373.54504893
_cell_formula_units_Z   1
loop_
 _symmetry_equiv_pos_site_id
 _symmetry_equiv_pos_as_xyz
  1  'x, y, z'
loop_
 _atom_site_type_symbol
 _atom_site_label
 _atom_site_symmetry_multiplicity
 _atom_site_fract_x
 _atom_site_fract_y
 _atom_site_fract_z
 _atom_site_occupancy
  Dy  Dy0  1  0.000000  0.324807  0.412784  1
  Dy  Dy1  1  0.000000  0.677366  0.581835  1
  Dy  Dy2  1  0.000000  0.819542  0.088330  1
  Dy  Dy3  1  0.000000  0.178641  0.915249  1
  Lu  Lu4  1  0.000000  0.939862  0.371647  1
  Lu  Lu5  1  0.000000  0.056368  0.626852  1
  Lu  Lu6  1  0.000000  0.446413  0.130489  1
  Lu  Lu7  1  0.000000  0.556504  0.872597  1
  Mn  Mn8  1  0.000000  0.638401  0.319797  1
  B  B9  1  0.500000  0.554732  0.430968  1
  B  B10  1  0.500000  0.446292  0.566647  1
  B  B11  1  0.500000  0.054235  0.067689  1
  B  B12  1  0.500000  0.946077  0.933027  1
  B  B13  1  0.500000  0.747414  0.416864  1
  B  B14  1  0.500000  0.250372  0.580572  1
  B  B15  1  0.500000  0.250679  0.081729  1
  B  B16  1  0.500000  0.750312  0.919273  1
  B  B17  1  0.500000  0.789763  0.266283  1
  B  B18  1  0.500000  0.208229  0.734230  1
  B  B19  1  0.500000  0.292405  0.234741  1
  B  B20  1  0.500000  0.708309  0.765478  1
  B  B21  1  0.500000  0.630694  0.186379  1
  B  B22  1  0.500000  0.369631  0.815699  1
  B  B23  1  0.500000  0.130076  0.315444  1
  B  B24  1  0.500000  0.869304  0.684104  1
  B  B25  1  0.500000  0.981745  0.213625  1
  B  B26  1  0.500000  0.017694  0.786693  1
  B  B27  1  0.500000  0.485068  0.287575  1
  B  B28  1  0.500000  0.517714  0.713104  1
  B  B29  1  0.500000  0.603226  0.028784  1
  B  B30  1  0.500000  0.397578  0.972383  1
  B  B31  1  0.500000  0.102643  0.471264  1
  B  B32  1  0.500000  0.896402  0.527859  1
  Os  Os33  1  0.000000  0.361219  0.680216  1
  Os  Os34  1  0.000000  0.138413  0.179748  1
  Os  Os35  1  0.000000  0.861869  0.820040  1
