# generated using pymatgen
data_Yb4Cu(RuO4)3
_symmetry_space_group_name_H-M   'P 1'
_cell_length_a   5.56226291
_cell_length_b   5.27716272
_cell_length_c   7.63707100
_cell_angle_alpha   89.34112062
_cell_angle_beta   90.42344930
_cell_angle_gamma   90.03624612
_symmetry_Int_Tables_number   1
_chemical_formula_structural   Yb4Cu(RuO4)3
_chemical_formula_sum   'Yb4 Cu1 Ru3 O12'
_cell_volume   224.14971120
_cell_formula_units_Z   1
loop_
 _symmetry_equiv_pos_site_id
 _symmetry_equiv_pos_as_xyz
  1  'x, y, z'
loop_
 _atom_site_type_symbol
 _atom_site_label
 _atom_site_symmetry_multiplicity
 _atom_site_fract_x
 _atom_site_fract_y
 _atom_site_fract_z
 _atom_site_occupancy
  Yb  Yb0  1  0.565695  0.475692  0.761379  1
  Yb  Yb1  1  0.075186  0.021773  0.764670  1
  Yb  Yb2  1  0.434305  0.524308  0.238621  1
  Yb  Yb3  1  0.924814  0.978227  0.235330  1
  Cu  Cu4  1  0.500000  0.000000  0.000000  1
  Ru  Ru5  1  0.000000  0.500000  0.500000  1
  Ru  Ru6  1  0.500000  0.000000  0.500000  1
  Ru  Ru7  1  0.000000  0.500000  0.000000  1
  O  O8  1  0.704508  0.686108  0.048992  1
  O  O9  1  0.200721  0.803375  0.440366  1
  O  O10  1  0.298267  0.303436  0.559211  1
  O  O11  1  0.808490  0.197786  0.952026  1
  O  O12  1  0.295492  0.313892  0.951008  1
  O  O13  1  0.799279  0.196625  0.559634  1
  O  O14  1  0.701733  0.696564  0.440789  1
  O  O15  1  0.191510  0.802214  0.047974  1
  O  O16  1  0.469085  0.890404  0.741826  1
  O  O17  1  0.967578  0.606495  0.747767  1
  O  O18  1  0.530915  0.109596  0.258174  1
  O  O19  1  0.032422  0.393505  0.252233  1
