# generated using pymatgen
data_Nd7P12Pd17
_symmetry_space_group_name_H-M   'P 1'
_cell_length_a   12.42139587
_cell_length_b   12.42139639
_cell_length_c   13.66660696
_cell_angle_alpha   68.31624106
_cell_angle_beta   68.31624052
_cell_angle_gamma   18.96161769
_symmetry_Int_Tables_number   1
_chemical_formula_structural   Nd7P12Pd17
_chemical_formula_sum   'Nd7 P12 Pd17'
_cell_volume   635.27927123
_cell_formula_units_Z   1
loop_
 _symmetry_equiv_pos_site_id
 _symmetry_equiv_pos_as_xyz
  1  'x, y, z'
loop_
 _atom_site_type_symbol
 _atom_site_label
 _atom_site_symmetry_multiplicity
 _atom_site_fract_x
 _atom_site_fract_y
 _atom_site_fract_z
 _atom_site_occupancy
  Nd  Nd0  1  0.500000  0.500000  0.500000  1
  Nd  Nd1  1  0.365055  0.365055  0.000063  1
  Nd  Nd2  1  0.634945  0.634945  0.999937  1
  Nd  Nd3  1  0.233358  0.233358  0.313913  1
  Nd  Nd4  1  0.766642  0.766642  0.686087  1
  Nd  Nd5  1  0.418220  0.418220  0.261695  1
  Nd  Nd6  1  0.581780  0.581780  0.738305  1
  P  P7  1  0.061223  0.061223  0.924799  1
  P  P8  1  0.938777  0.938777  0.075201  1
  P  P9  1  0.886655  0.886655  0.827763  1
  P  P10  1  0.113345  0.113345  0.172237  1
  P  P11  1  0.188221  0.188221  0.620141  1
  P  P12  1  0.811779  0.811779  0.379859  1
  P  P13  1  0.364780  0.364780  0.580031  1
  P  P14  1  0.635220  0.635220  0.419969  1
  P  P15  1  0.010991  0.010991  0.669828  1
  P  P16  1  0.989009  0.989009  0.330172  1
  P  P17  1  0.232438  0.232438  0.882528  1
  P  P18  1  0.767562  0.767562  0.117472  1
  Pd  Pd19  1  0.838765  0.838765  0.193941  1
  Pd  Pd20  1  0.161235  0.161235  0.806059  1
  Pd  Pd21  1  0.026302  0.026302  0.124383  1
  Pd  Pd22  1  0.973698  0.973698  0.875617  1
  Pd  Pd23  1  0.889762  0.889762  0.457611  1
  Pd  Pd24  1  0.110238  0.110238  0.542389  1
  Pd  Pd25  1  0.500000  0.500000  0.000000  1
  Pd  Pd26  1  0.546649  0.546649  0.253651  1
  Pd  Pd27  1  0.453351  0.453351  0.746349  1
  Pd  Pd28  1  0.296502  0.296502  0.487564  1
  Pd  Pd29  1  0.703498  0.703498  0.512436  1
  Pd  Pd30  1  0.666536  0.666536  0.223070  1
  Pd  Pd31  1  0.333464  0.333464  0.776930  1
  Pd  Pd32  1  0.907935  0.907935  0.643844  1
  Pd  Pd33  1  0.092065  0.092065  0.356156  1
  Pd  Pd34  1  0.217583  0.217583  0.069826  1
  Pd  Pd35  1  0.782417  0.782417  0.930174  1
