# generated using pymatgen
data_Nd3In3HgRuRh
_symmetry_space_group_name_H-M   'P 1'
_cell_length_a   7.97225500
_cell_length_b   7.97225408
_cell_length_c   3.94999900
_cell_angle_alpha   90.00000000
_cell_angle_beta   90.00000000
_cell_angle_gamma   120.00000798
_symmetry_Int_Tables_number   1
_chemical_formula_structural   Nd3In3HgRuRh
_chemical_formula_sum   'Nd3 In3 Hg1 Ru1 Rh1'
_cell_volume   217.41519594
_cell_formula_units_Z   1
loop_
 _symmetry_equiv_pos_site_id
 _symmetry_equiv_pos_as_xyz
  1  'x, y, z'
loop_
 _atom_site_type_symbol
 _atom_site_label
 _atom_site_symmetry_multiplicity
 _atom_site_fract_x
 _atom_site_fract_y
 _atom_site_fract_z
 _atom_site_occupancy
  Nd  Nd0  1  0.608853  0.031237  0.500000  1
  Nd  Nd1  1  0.422383  0.391147  0.500000  1
  Nd  Nd2  1  0.968763  0.577617  0.500000  1
  In  In3  1  0.251236  0.004349  0.000000  1
  In  In4  1  0.753114  0.748764  0.000000  1
  In  In5  1  0.995651  0.246886  0.000000  1
  Hg  Hg6  1  0.333333  0.666667  0.000000  1
  Ru  Ru7  1  0.666667  0.333333  0.000000  1
  Rh  Rh8  1  0.000000  0.000000  0.500000  1
