# generated using pymatgen
data_Mg3Se2(BrO3)2
_symmetry_space_group_name_H-M   'P 1'
_cell_length_a   6.38907392
_cell_length_b   8.37154856
_cell_length_c   8.68300168
_cell_angle_alpha   93.65569960
_cell_angle_beta   96.34232980
_cell_angle_gamma   96.39542265
_symmetry_Int_Tables_number   1
_chemical_formula_structural   Mg3Se2(BrO3)2
_chemical_formula_sum   'Mg6 Se4 Br4 O12'
_cell_volume   457.34558769
_cell_formula_units_Z   2
loop_
 _symmetry_equiv_pos_site_id
 _symmetry_equiv_pos_as_xyz
  1  'x, y, z'
loop_
 _atom_site_type_symbol
 _atom_site_label
 _atom_site_symmetry_multiplicity
 _atom_site_fract_x
 _atom_site_fract_y
 _atom_site_fract_z
 _atom_site_occupancy
  Mg  Mg0  1  0.379033  0.147061  0.052339  1
  Mg  Mg1  1  0.865673  0.579224  0.106443  1
  Mg  Mg2  1  0.683629  0.413128  0.423464  1
  Mg  Mg3  1  0.316372  0.586873  0.576536  1
  Mg  Mg4  1  0.134326  0.420775  0.893558  1
  Mg  Mg5  1  0.620964  0.852938  0.947661  1
  Se  Se6  1  0.899480  0.178898  0.167082  1
  Se  Se7  1  0.379436  0.680770  0.219762  1
  Se  Se8  1  0.620565  0.319231  0.780238  1
  Se  Se9  1  0.100517  0.821102  0.832917  1
  Br  Br10  1  0.427493  0.134307  0.349191  1
  Br  Br11  1  0.977030  0.700486  0.418229  1
  Br  Br12  1  0.022972  0.299514  0.581772  1
  Br  Br13  1  0.572508  0.865693  0.650808  1
  O  O14  1  0.080467  0.218115  0.035740  1
  O  O15  1  0.684775  0.088663  0.036050  1
  O  O16  1  0.183352  0.555617  0.104141  1
  O  O17  1  0.588895  0.679379  0.106071  1
  O  O18  1  0.809154  0.363304  0.212537  1
  O  O19  1  0.450646  0.555424  0.363690  1
  O  O20  1  0.549357  0.444578  0.636310  1
  O  O21  1  0.190846  0.636695  0.787464  1
  O  O22  1  0.411104  0.320623  0.893929  1
  O  O23  1  0.816648  0.444384  0.895859  1
  O  O24  1  0.315223  0.911338  0.963948  1
  O  O25  1  0.919535  0.781885  0.964262  1
