# generated using pymatgen
data_ErLu3Pt2
_symmetry_space_group_name_H-M   'P 1'
_cell_length_a   4.70298200
_cell_length_b   7.02782100
_cell_length_c   8.60846500
_cell_angle_alpha   89.99852298
_cell_angle_beta   90.00000000
_cell_angle_gamma   90.00000000
_symmetry_Int_Tables_number   1
_chemical_formula_structural   ErLu3Pt2
_chemical_formula_sum   'Er2 Lu6 Pt4'
_cell_volume   284.52453742
_cell_formula_units_Z   2
loop_
 _symmetry_equiv_pos_site_id
 _symmetry_equiv_pos_as_xyz
  1  'x, y, z'
loop_
 _atom_site_type_symbol
 _atom_site_label
 _atom_site_symmetry_multiplicity
 _atom_site_fract_x
 _atom_site_fract_y
 _atom_site_fract_z
 _atom_site_occupancy
  Er  Er0  1  0.750000  0.010685  0.669598  1
  Er  Er1  1  0.250000  0.989315  0.330402  1
  Lu  Lu2  1  0.750000  0.643132  0.420895  1
  Lu  Lu3  1  0.250000  0.356868  0.579105  1
  Lu  Lu4  1  0.750000  0.144189  0.078540  1
  Lu  Lu5  1  0.250000  0.855811  0.921460  1
  Lu  Lu6  1  0.750000  0.510724  0.832009  1
  Lu  Lu7  1  0.250000  0.489276  0.167991  1
  Pt  Pt8  1  0.750000  0.243019  0.405076  1
  Pt  Pt9  1  0.250000  0.756981  0.594924  1
  Pt  Pt10  1  0.750000  0.741158  0.094028  1
  Pt  Pt11  1  0.250000  0.258842  0.905972  1
