# generated using pymatgen
data_Tb4Y2HoFeI12
_symmetry_space_group_name_H-M   'P 1'
_cell_length_a   9.72638053
_cell_length_b   9.79175052
_cell_length_c   9.79740219
_cell_angle_alpha   107.01382211
_cell_angle_beta   107.13822256
_cell_angle_gamma   106.86131477
_symmetry_Int_Tables_number   1
_chemical_formula_structural   Tb4Y2HoFeI12
_chemical_formula_sum   'Tb4 Y2 Ho1 Fe1 I12'
_cell_volume   776.98655035
_cell_formula_units_Z   1
loop_
 _symmetry_equiv_pos_site_id
 _symmetry_equiv_pos_as_xyz
  1  'x, y, z'
loop_
 _atom_site_type_symbol
 _atom_site_label
 _atom_site_symmetry_multiplicity
 _atom_site_fract_x
 _atom_site_fract_y
 _atom_site_fract_z
 _atom_site_occupancy
  Tb  Tb0  1  0.280387  0.021184  0.090168  1
  Tb  Tb1  1  0.906602  0.706954  0.977525  1
  Tb  Tb2  1  0.978063  0.906164  0.706572  1
  Tb  Tb3  1  0.719627  0.978480  0.910812  1
  Y  Y4  1  0.500003  0.500297  0.500244  1
  Y  Y5  1  0.093162  0.292217  0.022760  1
  Ho  Ho6  1  0.021775  0.093048  0.290019  1
  Fe  Fe7  1  0.999963  0.999094  0.999836  1
  I  I8  1  0.462576  0.385234  0.161251  1
  I  I9  1  0.159539  0.462520  0.385680  1
  I  I10  1  0.385174  0.161196  0.462326  1
  I  I11  1  0.536052  0.614783  0.838333  1
  I  I12  1  0.839438  0.535831  0.613245  1
  I  I13  1  0.613085  0.839314  0.537859  1
  I  I14  1  0.774537  0.319309  0.927785  1
  I  I15  1  0.928617  0.776986  0.321502  1
  I  I16  1  0.320595  0.929206  0.777293  1
  I  I17  1  0.226745  0.680088  0.072607  1
  I  I18  1  0.072301  0.226369  0.679565  1
  I  I19  1  0.681757  0.071729  0.224618  1
