# generated using pymatgen
data_Sr3CaCd4(SiO4)4
_symmetry_space_group_name_H-M   'P 1'
_cell_length_a   5.11732846
_cell_length_b   6.93768600
_cell_length_c   11.78884248
_cell_angle_alpha   90.00000000
_cell_angle_beta   90.12450154
_cell_angle_gamma   90.00000000
_symmetry_Int_Tables_number   1
_chemical_formula_structural   Sr3CaCd4(SiO4)4
_chemical_formula_sum   'Sr3 Ca1 Cd4 Si4 O16'
_cell_volume   418.53142575
_cell_formula_units_Z   1
loop_
 _symmetry_equiv_pos_site_id
 _symmetry_equiv_pos_as_xyz
  1  'x, y, z'
loop_
 _atom_site_type_symbol
 _atom_site_label
 _atom_site_symmetry_multiplicity
 _atom_site_fract_x
 _atom_site_fract_y
 _atom_site_fract_z
 _atom_site_occupancy
  Sr  Sr0  1  0.482050  0.750000  0.778918  1
  Sr  Sr1  1  0.977078  0.250000  0.718186  1
  Sr  Sr2  1  0.523155  0.250000  0.221029  1
  Ca  Ca3  1  0.013583  0.750000  0.279851  1
  Cd  Cd4  1  0.498159  0.501994  0.495333  1
  Cd  Cd5  1  0.001974  0.501034  0.003830  1
  Cd  Cd6  1  0.498159  0.998006  0.495333  1
  Cd  Cd7  1  0.001974  0.998966  0.003830  1
  Si  Si8  1  0.920127  0.750000  0.583757  1
  Si  Si9  1  0.418079  0.250000  0.911841  1
  Si  Si10  1  0.076719  0.250000  0.408377  1
  Si  Si11  1  0.585203  0.750000  0.095597  1
  O  O12  1  0.191784  0.444186  0.342288  1
  O  O13  1  0.714946  0.560967  0.160650  1
  O  O14  1  0.796913  0.940342  0.649619  1
  O  O15  1  0.295922  0.058445  0.846603  1
  O  O16  1  0.796913  0.559658  0.649619  1
  O  O17  1  0.295922  0.441555  0.846603  1
  O  O18  1  0.191784  0.055814  0.342288  1
  O  O19  1  0.714946  0.939033  0.160650  1
  O  O20  1  0.787954  0.750000  0.452849  1
  O  O21  1  0.280833  0.250000  0.041217  1
  O  O22  1  0.220031  0.250000  0.536839  1
  O  O23  1  0.715672  0.750000  0.964458  1
  O  O24  1  0.262963  0.750000  0.094767  1
  O  O25  1  0.755613  0.250000  0.416297  1
  O  O26  1  0.739589  0.250000  0.917774  1
  O  O27  1  0.241953  0.750000  0.581595  1
