# generated using pymatgen
data_Li2Mo(PPd)3
_symmetry_space_group_name_H-M   'P 1'
_cell_length_a   3.30694400
_cell_length_b   6.70525171
_cell_length_c   6.65866195
_cell_angle_alpha   120.23172314
_cell_angle_beta   90.00000000
_cell_angle_gamma   90.00000000
_symmetry_Int_Tables_number   1
_chemical_formula_structural   Li2Mo(PPd)3
_chemical_formula_sum   'Li2 Mo1 P3 Pd3'
_cell_volume   127.56769413
_cell_formula_units_Z   1
loop_
 _symmetry_equiv_pos_site_id
 _symmetry_equiv_pos_as_xyz
  1  'x, y, z'
loop_
 _atom_site_type_symbol
 _atom_site_label
 _atom_site_symmetry_multiplicity
 _atom_site_fract_x
 _atom_site_fract_y
 _atom_site_fract_z
 _atom_site_occupancy
  Li  Li0  1  0.000000  0.394761  0.389204  1
  Li  Li1  1  0.000000  0.005557  0.610796  1
  Mo  Mo2  1  0.000000  0.614270  0.000000  1
  P  P3  1  0.500000  0.657434  0.294787  1
  P  P4  1  0.500000  0.362645  0.705213  1
  P  P5  1  0.000000  0.973629  0.000000  1
  Pd  Pd6  1  0.500000  0.723234  0.686165  1
  Pd  Pd7  1  0.500000  0.037068  0.313835  1
  Pd  Pd8  1  0.500000  0.231401  0.000000  1
