# generated using pymatgen
data_Y8In3Tc
_symmetry_space_group_name_H-M   'P 1'
_cell_length_a   10.44353800
_cell_length_b   10.44353918
_cell_length_c   7.11624200
_cell_angle_alpha   90.00000000
_cell_angle_beta   90.00000000
_cell_angle_gamma   120.00000259
_symmetry_Int_Tables_number   1
_chemical_formula_structural   Y8In3Tc
_chemical_formula_sum   'Y16 In6 Tc2'
_cell_volume   672.16621636
_cell_formula_units_Z   2
loop_
 _symmetry_equiv_pos_site_id
 _symmetry_equiv_pos_as_xyz
  1  'x, y, z'
loop_
 _atom_site_type_symbol
 _atom_site_label
 _atom_site_symmetry_multiplicity
 _atom_site_fract_x
 _atom_site_fract_y
 _atom_site_fract_z
 _atom_site_occupancy
  Y  Y0  1  0.467103  0.532897  0.477509  1
  Y  Y1  1  0.065793  0.532897  0.477509  1
  Y  Y2  1  0.467103  0.934207  0.477509  1
  Y  Y3  1  0.532897  0.467103  0.977509  1
  Y  Y4  1  0.934207  0.467103  0.977509  1
  Y  Y5  1  0.532897  0.065793  0.977509  1
  Y  Y6  1  0.823718  0.176282  0.275586  1
  Y  Y7  1  0.352563  0.176282  0.275586  1
  Y  Y8  1  0.823718  0.647437  0.275586  1
  Y  Y9  1  0.176282  0.823718  0.775586  1
  Y  Y10  1  0.647437  0.823718  0.775586  1
  Y  Y11  1  0.176282  0.352563  0.775586  1
  Y  Y12  1  0.333333  0.666667  0.103035  1
  Y  Y13  1  0.666667  0.333333  0.603035  1
  Y  Y14  1  0.000000  0.000000  0.498312  1
  Y  Y15  1  0.000000  0.000000  0.998312  1
  In  In16  1  0.163145  0.836855  0.235011  1
  In  In17  1  0.673711  0.836855  0.235011  1
  In  In18  1  0.163145  0.326289  0.235011  1
  In  In19  1  0.836855  0.163145  0.735011  1
  In  In20  1  0.326289  0.163145  0.735011  1
  In  In21  1  0.836855  0.673711  0.735011  1
  Tc  Tc22  1  0.333333  0.666667  0.706612  1
  Tc  Tc23  1  0.666667  0.333333  0.206612  1
