# generated using pymatgen
data_Zr13Al9FeRh7
_symmetry_space_group_name_H-M   'P 1'
_cell_length_a   9.16449048
_cell_length_b   9.16449063
_cell_length_c   9.16449100
_cell_angle_alpha   59.74937681
_cell_angle_beta   59.74937625
_cell_angle_gamma   59.74938450
_symmetry_Int_Tables_number   1
_chemical_formula_structural   Zr13Al9FeRh7
_chemical_formula_sum   'Zr13 Al9 Fe1 Rh7'
_cell_volume   541.16703987
_cell_formula_units_Z   1
loop_
 _symmetry_equiv_pos_site_id
 _symmetry_equiv_pos_as_xyz
  1  'x, y, z'
loop_
 _atom_site_type_symbol
 _atom_site_label
 _atom_site_symmetry_multiplicity
 _atom_site_fract_x
 _atom_site_fract_y
 _atom_site_fract_z
 _atom_site_occupancy
  Zr  Zr0  1  0.202091  0.202091  0.797329  1
  Zr  Zr1  1  0.797329  0.202091  0.202091  1
  Zr  Zr2  1  0.202091  0.797329  0.202091  1
  Zr  Zr3  1  0.807476  0.807476  0.173687  1
  Zr  Zr4  1  0.173687  0.807476  0.807476  1
  Zr  Zr5  1  0.807476  0.173687  0.807476  1
  Zr  Zr6  1  0.378556  0.378556  0.378556  1
  Zr  Zr7  1  0.379479  0.865717  0.379479  1
  Zr  Zr8  1  0.865717  0.379479  0.379479  1
  Zr  Zr9  1  0.379479  0.379479  0.865717  1
  Zr  Zr10  1  0.839883  0.484959  0.839883  1
  Zr  Zr11  1  0.484959  0.839883  0.839883  1
  Zr  Zr12  1  0.839883  0.839883  0.484959  1
  Al  Al13  1  0.157154  0.157154  0.157154  1
  Al  Al14  1  0.161860  0.518588  0.161860  1
  Al  Al15  1  0.518588  0.161860  0.161860  1
  Al  Al16  1  0.161860  0.161860  0.518588  1
  Al  Al17  1  0.617497  0.617497  0.617497  1
  Al  Al18  1  0.619754  0.147207  0.619754  1
  Al  Al19  1  0.147207  0.619754  0.619754  1
  Al  Al20  1  0.619754  0.619754  0.147207  1
  Al  Al21  1  0.827162  0.827162  0.827162  1
  Fe  Fe22  1  0.003417  0.003417  0.003417  1
  Rh  Rh23  1  0.005755  0.005755  0.500477  1
  Rh  Rh24  1  0.500477  0.005755  0.005755  1
  Rh  Rh25  1  0.005755  0.500477  0.005755  1
  Rh  Rh26  1  0.493882  0.493882  0.007308  1
  Rh  Rh27  1  0.007308  0.493882  0.493882  1
  Rh  Rh28  1  0.493882  0.007308  0.493882  1
  Rh  Rh29  1  0.500585  0.500585  0.500585  1
