# generated using pymatgen
data_Dy5Tm3Mn2(OsC4)2
_symmetry_space_group_name_H-M   'P 1'
_cell_length_a   5.05067400
_cell_length_b   6.41396928
_cell_length_c   9.66131863
_cell_angle_alpha   90.57885359
_cell_angle_beta   90.00000000
_cell_angle_gamma   90.00000000
_symmetry_Int_Tables_number   1
_chemical_formula_structural   Dy5Tm3Mn2(OsC4)2
_chemical_formula_sum   'Dy5 Tm3 Mn2 Os2 C8'
_cell_volume   312.96116806
_cell_formula_units_Z   1
loop_
 _symmetry_equiv_pos_site_id
 _symmetry_equiv_pos_as_xyz
  1  'x, y, z'
loop_
 _atom_site_type_symbol
 _atom_site_label
 _atom_site_symmetry_multiplicity
 _atom_site_fract_x
 _atom_site_fract_y
 _atom_site_fract_z
 _atom_site_occupancy
  Dy  Dy0  1  0.250000  0.178765  0.947650  1
  Dy  Dy1  1  0.250000  0.526512  0.214798  1
  Dy  Dy2  1  0.750000  0.474316  0.785259  1
  Dy  Dy3  1  0.750000  0.973343  0.712160  1
  Dy  Dy4  1  0.250000  0.025868  0.288606  1
  Tm  Tm5  1  0.250000  0.680067  0.557349  1
  Tm  Tm6  1  0.750000  0.320312  0.442174  1
  Tm  Tm7  1  0.750000  0.823719  0.053990  1
  Mn  Mn8  1  0.250000  0.727692  0.861044  1
  Mn  Mn9  1  0.750000  0.271701  0.139269  1
  Os  Os10  1  0.750000  0.774392  0.361927  1
  Os  Os11  1  0.250000  0.225430  0.637568  1
  C  C12  1  0.250000  0.468362  0.763575  1
  C  C13  1  0.750000  0.532433  0.234845  1
  C  C14  1  0.750000  0.047102  0.255808  1
  C  C15  1  0.250000  0.952351  0.743667  1
  C  C16  1  0.250000  0.814402  0.039170  1
  C  C17  1  0.750000  0.183238  0.961459  1
  C  C18  1  0.750000  0.672576  0.550415  1
  C  C19  1  0.250000  0.327419  0.449268  1
