# generated using pymatgen
data_Tb2Lu10Tc3Ni
_symmetry_space_group_name_H-M   'P 1'
_cell_length_a   6.16559035
_cell_length_b   7.25593507
_cell_length_c   8.98918300
_cell_angle_alpha   90.00000000
_cell_angle_beta   90.00000000
_cell_angle_gamma   90.13430118
_symmetry_Int_Tables_number   1
_chemical_formula_structural   Tb2Lu10Tc3Ni
_chemical_formula_sum   'Tb2 Lu10 Tc3 Ni1'
_cell_volume   402.14908303
_cell_formula_units_Z   1
loop_
 _symmetry_equiv_pos_site_id
 _symmetry_equiv_pos_as_xyz
  1  'x, y, z'
loop_
 _atom_site_type_symbol
 _atom_site_label
 _atom_site_symmetry_multiplicity
 _atom_site_fract_x
 _atom_site_fract_y
 _atom_site_fract_z
 _atom_site_occupancy
  Tb  Tb0  1  0.136467  0.460456  0.750000  1
  Tb  Tb1  1  0.376081  0.956134  0.750000  1
  Lu  Lu2  1  0.331261  0.677640  0.067858  1
  Lu  Lu3  1  0.160529  0.176975  0.436513  1
  Lu  Lu4  1  0.662276  0.323342  0.560158  1
  Lu  Lu5  1  0.837012  0.824856  0.940590  1
  Lu  Lu6  1  0.662276  0.323342  0.939842  1
  Lu  Lu7  1  0.837012  0.824856  0.559410  1
  Lu  Lu8  1  0.331261  0.677640  0.432142  1
  Lu  Lu9  1  0.160529  0.176975  0.063487  1
  Lu  Lu10  1  0.873502  0.539460  0.250000  1
  Lu  Lu11  1  0.622314  0.038651  0.250000  1
  Tc  Tc12  1  0.037653  0.884633  0.250000  1
  Tc  Tc13  1  0.460186  0.386502  0.250000  1
  Tc  Tc14  1  0.956084  0.115743  0.750000  1
  Ni  Ni15  1  0.555558  0.612793  0.750000  1
