# generated using pymatgen
data_Ce2ErIn3Pt2Au
_symmetry_space_group_name_H-M   'P 1'
_cell_length_a   7.67319556
_cell_length_b   7.72723727
_cell_length_c   4.06215800
_cell_angle_alpha   90.00000000
_cell_angle_beta   90.00000000
_cell_angle_gamma   120.12068276
_symmetry_Int_Tables_number   1
_chemical_formula_structural   Ce2ErIn3Pt2Au
_chemical_formula_sum   'Ce2 Er1 In3 Pt2 Au1'
_cell_volume   208.33322428
_cell_formula_units_Z   1
loop_
 _symmetry_equiv_pos_site_id
 _symmetry_equiv_pos_as_xyz
  1  'x, y, z'
loop_
 _atom_site_type_symbol
 _atom_site_label
 _atom_site_symmetry_multiplicity
 _atom_site_fract_x
 _atom_site_fract_y
 _atom_site_fract_z
 _atom_site_occupancy
  Ce  Ce0  1  0.599245  0.011759  0.500000  1
  Ce  Ce1  1  0.413956  0.401308  0.500000  1
  Er  Er2  1  0.988064  0.590780  0.500000  1
  In  In3  1  0.749022  0.744906  0.000000  1
  In  In4  1  0.001168  0.256384  0.000000  1
  In  In5  1  0.250844  0.996004  0.000000  1
  Pt  Pt6  1  0.668423  0.334051  0.000000  1
  Pt  Pt7  1  0.999633  0.999192  0.500000  1
  Au  Au8  1  0.329647  0.665614  0.000000  1
