# generated using pymatgen
data_Lu4Ni(AsRu)6
_symmetry_space_group_name_H-M   'P 1'
_cell_length_a   7.16585275
_cell_length_b   7.16585503
_cell_length_c   7.16585300
_cell_angle_alpha   109.37520237
_cell_angle_beta   109.66361287
_cell_angle_gamma   109.37519836
_symmetry_Int_Tables_number   1
_chemical_formula_structural   Lu4Ni(AsRu)6
_chemical_formula_sum   'Lu4 Ni1 As6 Ru6'
_cell_volume   283.25479035
_cell_formula_units_Z   1
loop_
 _symmetry_equiv_pos_site_id
 _symmetry_equiv_pos_as_xyz
  1  'x, y, z'
loop_
 _atom_site_type_symbol
 _atom_site_label
 _atom_site_symmetry_multiplicity
 _atom_site_fract_x
 _atom_site_fract_y
 _atom_site_fract_z
 _atom_site_occupancy
  Lu  Lu0  1  0.000351  0.000679  0.500320  1
  Lu  Lu1  1  0.499680  0.999321  0.999649  1
  Lu  Lu2  1  0.000331  0.500000  0.999669  1
  Lu  Lu3  1  0.499654  0.500000  0.500346  1
  Ni  Ni4  1  0.749870  0.500000  0.250130  1
  As  As5  1  0.315671  0.999976  0.315645  1
  As  As6  1  0.998698  0.316937  0.315666  1
  As  As7  1  0.998824  0.683089  0.681805  1
  As  As8  1  0.318195  0.316911  0.001176  1
  As  As9  1  0.684334  0.683063  0.001302  1
  As  As10  1  0.684355  0.000024  0.684329  1
  Ru  Ru11  1  0.500902  0.748963  0.249775  1
  Ru  Ru12  1  0.500885  0.251044  0.751994  1
  Ru  Ru13  1  0.750225  0.251037  0.499098  1
  Ru  Ru14  1  0.248006  0.748956  0.499115  1
  Ru  Ru15  1  0.250008  0.500000  0.749992  1
  Ru  Ru16  1  0.000010  0.000000  0.999990  1
