# generated using pymatgen
data_TbNi2P2Pd
_symmetry_space_group_name_H-M   'P 1'
_cell_length_a   3.73099100
_cell_length_b   7.85113509
_cell_length_c   9.58210311
_cell_angle_alpha   105.73781189
_cell_angle_beta   90.00000000
_cell_angle_gamma   103.74543172
_symmetry_Int_Tables_number   1
_chemical_formula_structural   TbNi2P2Pd
_chemical_formula_sum   'Tb3 Ni6 P6 Pd3'
_cell_volume   261.80050656
_cell_formula_units_Z   3
loop_
 _symmetry_equiv_pos_site_id
 _symmetry_equiv_pos_as_xyz
  1  'x, y, z'
loop_
 _atom_site_type_symbol
 _atom_site_label
 _atom_site_symmetry_multiplicity
 _atom_site_fract_x
 _atom_site_fract_y
 _atom_site_fract_z
 _atom_site_occupancy
  Tb  Tb0  1  0.849326  0.698653  0.308203  1
  Tb  Tb1  1  0.150674  0.301347  0.691797  1
  Tb  Tb2  1  0.000000  0.000000  0.000000  1
  Ni  Ni3  1  0.949788  0.899576  0.671559  1
  Ni  Ni4  1  0.050212  0.100424  0.328441  1
  Ni  Ni5  1  0.780557  0.561117  0.603956  1
  Ni  Ni6  1  0.219443  0.438883  0.396044  1
  Ni  Ni7  1  0.369412  0.738822  0.788209  1
  Ni  Ni8  1  0.630588  0.261178  0.211791  1
  P  P9  1  0.800702  0.601404  0.849221  1
  P  P10  1  0.199298  0.398596  0.150779  1
  P  P11  1  0.525053  0.050108  0.781393  1
  P  P12  1  0.474947  0.949892  0.218607  1
  P  P13  1  0.644632  0.289265  0.448884  1
  P  P14  1  0.355368  0.710735  0.551116  1
  Pd  Pd15  1  0.500000  0.000000  0.500000  1
  Pd  Pd16  1  0.672091  0.344183  0.960391  1
  Pd  Pd17  1  0.327909  0.655817  0.039609  1
