# generated using pymatgen
data_NdNi6(BIr)6
_symmetry_space_group_name_H-M   'P 1'
_cell_length_a   6.31870106
_cell_length_b   6.31870018
_cell_length_c   6.31870126
_cell_angle_alpha   103.53606570
_cell_angle_beta   103.53606672
_cell_angle_gamma   103.53604460
_symmetry_Int_Tables_number   1
_chemical_formula_structural   NdNi6(BIr)6
_chemical_formula_sum   'Nd1 Ni6 B6 Ir6'
_cell_volume   227.05326494
_cell_formula_units_Z   1
loop_
 _symmetry_equiv_pos_site_id
 _symmetry_equiv_pos_as_xyz
  1  'x, y, z'
loop_
 _atom_site_type_symbol
 _atom_site_label
 _atom_site_symmetry_multiplicity
 _atom_site_fract_x
 _atom_site_fract_y
 _atom_site_fract_z
 _atom_site_occupancy
  Nd  Nd0  1  0.000000  0.000000  0.000000  1
  Ni  Ni1  1  0.544812  0.799877  0.544812  1
  Ni  Ni2  1  0.544812  0.544812  0.799877  1
  Ni  Ni3  1  0.799877  0.544812  0.544812  1
  Ni  Ni4  1  0.455188  0.200123  0.455188  1
  Ni  Ni5  1  0.455188  0.455188  0.200123  1
  Ni  Ni6  1  0.200123  0.455188  0.455188  1
  B  B7  1  0.768721  0.348560  0.768721  1
  B  B8  1  0.768721  0.768721  0.348560  1
  B  B9  1  0.348560  0.768721  0.768721  1
  B  B10  1  0.231279  0.651440  0.231279  1
  B  B11  1  0.231279  0.231279  0.651440  1
  B  B12  1  0.651440  0.231279  0.231279  1
  Ir  Ir13  1  0.138362  0.861638  0.500000  1
  Ir  Ir14  1  0.500000  0.138362  0.861638  1
  Ir  Ir15  1  0.861638  0.500000  0.138362  1
  Ir  Ir16  1  0.500000  0.861638  0.138362  1
  Ir  Ir17  1  0.138362  0.500000  0.861638  1
  Ir  Ir18  1  0.861638  0.138362  0.500000  1
