# generated using pymatgen
data_Mn6InS7
_symmetry_space_group_name_H-M   'P 1'
_cell_length_a   8.87788477
_cell_length_b   8.87788472
_cell_length_c   8.87788429
_cell_angle_alpha   60.57380209
_cell_angle_beta   60.57379942
_cell_angle_gamma   60.57378593
_symmetry_Int_Tables_number   1
_chemical_formula_structural   Mn6InS7
_chemical_formula_sum   'Mn12 In2 S14'
_cell_volume   501.19462927
_cell_formula_units_Z   2
loop_
 _symmetry_equiv_pos_site_id
 _symmetry_equiv_pos_as_xyz
  1  'x, y, z'
loop_
 _atom_site_type_symbol
 _atom_site_label
 _atom_site_symmetry_multiplicity
 _atom_site_fract_x
 _atom_site_fract_y
 _atom_site_fract_z
 _atom_site_occupancy
  Mn  Mn0  1  0.308973  0.126741  0.993588  1
  Mn  Mn1  1  0.197705  0.884560  0.058661  1
  Mn  Mn2  1  0.884560  0.058661  0.197705  1
  Mn  Mn3  1  0.941339  0.802295  0.115440  1
  Mn  Mn4  1  0.802295  0.115440  0.941339  1
  Mn  Mn5  1  0.115440  0.941339  0.802295  1
  Mn  Mn6  1  0.993588  0.308973  0.126741  1
  Mn  Mn7  1  0.873259  0.006412  0.691027  1
  Mn  Mn8  1  0.126741  0.993588  0.308973  1
  Mn  Mn9  1  0.006412  0.691027  0.873259  1
  Mn  Mn10  1  0.691027  0.873259  0.006412  1
  Mn  Mn11  1  0.058661  0.197705  0.884560  1
  In  In12  1  0.386208  0.386208  0.386208  1
  In  In13  1  0.613792  0.613792  0.613792  1
  S  S14  1  0.978130  0.236495  0.654957  1
  S  S15  1  0.236495  0.654957  0.978130  1
  S  S16  1  0.654957  0.978130  0.236495  1
  S  S17  1  0.021870  0.763505  0.345043  1
  S  S18  1  0.763505  0.345043  0.021870  1
  S  S19  1  0.345043  0.021870  0.763505  1
  S  S20  1  0.169564  0.410546  0.817878  1
  S  S21  1  0.410546  0.817878  0.169564  1
  S  S22  1  0.817878  0.169564  0.410546  1
  S  S23  1  0.830436  0.589454  0.182122  1
  S  S24  1  0.589454  0.182122  0.830436  1
  S  S25  1  0.182122  0.830436  0.589454  1
  S  S26  1  0.778574  0.778574  0.778574  1
  S  S27  1  0.221426  0.221426  0.221426  1
