# generated using pymatgen
data_Er4LuHg2Bi
_symmetry_space_group_name_H-M   'P 1'
_cell_length_a   8.78089925
_cell_length_b   8.78089952
_cell_length_c   8.78089997
_cell_angle_alpha   124.41764081
_cell_angle_beta   124.41764668
_cell_angle_gamma   82.50485767
_symmetry_Int_Tables_number   1
_chemical_formula_structural   Er4LuHg2Bi
_chemical_formula_sum   'Er8 Lu2 Hg4 Bi2'
_cell_volume   442.61353867
_cell_formula_units_Z   2
loop_
 _symmetry_equiv_pos_site_id
 _symmetry_equiv_pos_as_xyz
  1  'x, y, z'
loop_
 _atom_site_type_symbol
 _atom_site_label
 _atom_site_symmetry_multiplicity
 _atom_site_fract_x
 _atom_site_fract_y
 _atom_site_fract_z
 _atom_site_occupancy
  Er  Er0  1  0.507681  0.007681  0.806919  1
  Er  Er1  1  0.200761  0.700761  0.193081  1
  Er  Er2  1  0.007681  0.200761  0.500000  1
  Er  Er3  1  0.700761  0.507681  0.500000  1
  Er  Er4  1  0.492319  0.992319  0.193081  1
  Er  Er5  1  0.799239  0.299239  0.806919  1
  Er  Er6  1  0.992319  0.799239  0.500000  1
  Er  Er7  1  0.299239  0.492319  0.500000  1
  Lu  Lu8  1  0.500000  0.500000  0.000000  1
  Lu  Lu9  1  0.000000  0.000000  0.000000  1
  Hg  Hg10  1  0.140536  0.640536  0.781072  1
  Hg  Hg11  1  0.859464  0.359464  0.218928  1
  Hg  Hg12  1  0.640536  0.859464  0.500000  1
  Hg  Hg13  1  0.359464  0.140536  0.500000  1
  Bi  Bi14  1  0.250000  0.250000  0.000000  1
  Bi  Bi15  1  0.750000  0.750000  0.000000  1
