# generated using pymatgen
data_Y3HoMoRu7
_symmetry_space_group_name_H-M   'P 1'
_cell_length_a   5.47461615
_cell_length_b   5.19820384
_cell_length_c   9.04528903
_cell_angle_alpha   89.99103789
_cell_angle_beta   90.00086100
_cell_angle_gamma   121.91093207
_symmetry_Int_Tables_number   1
_chemical_formula_structural   Y3HoMoRu7
_chemical_formula_sum   'Y3 Ho1 Mo1 Ru7'
_cell_volume   218.50986096
_cell_formula_units_Z   1
loop_
 _symmetry_equiv_pos_site_id
 _symmetry_equiv_pos_as_xyz
  1  'x, y, z'
loop_
 _atom_site_type_symbol
 _atom_site_label
 _atom_site_symmetry_multiplicity
 _atom_site_fract_x
 _atom_site_fract_y
 _atom_site_fract_z
 _atom_site_occupancy
  Y  Y0  1  0.672514  0.345344  0.563540  1
  Y  Y1  1  0.334486  0.669092  0.431953  1
  Y  Y2  1  0.334562  0.669241  0.067848  1
  Ho  Ho3  1  0.672738  0.345805  0.936518  1
  Mo  Mo4  1  0.159506  0.319860  0.750246  1
  Ru  Ru5  1  0.009180  0.018662  0.498154  1
  Ru  Ru6  1  0.009043  0.018353  0.001609  1
  Ru  Ru7  1  0.171696  0.821060  0.750387  1
  Ru  Ru8  1  0.650028  0.821318  0.750377  1
  Ru  Ru9  1  0.822650  0.645213  0.249724  1
  Ru  Ru10  1  0.831058  0.162662  0.249821  1
  Ru  Ru11  1  0.332538  0.163391  0.249824  1
