# generated using pymatgen
data_Ho9Th3Tc3Ir
_symmetry_space_group_name_H-M   'P 1'
_cell_length_a   6.38529561
_cell_length_b   7.30885325
_cell_length_c   9.39501800
_cell_angle_alpha   90.00000000
_cell_angle_beta   90.00000000
_cell_angle_gamma   90.29258197
_symmetry_Int_Tables_number   1
_chemical_formula_structural   Ho9Th3Tc3Ir
_chemical_formula_sum   'Ho9 Th3 Tc3 Ir1'
_cell_volume   438.45214949
_cell_formula_units_Z   1
loop_
 _symmetry_equiv_pos_site_id
 _symmetry_equiv_pos_as_xyz
  1  'x, y, z'
loop_
 _atom_site_type_symbol
 _atom_site_label
 _atom_site_symmetry_multiplicity
 _atom_site_fract_x
 _atom_site_fract_y
 _atom_site_fract_z
 _atom_site_occupancy
  Ho  Ho0  1  0.330323  0.677675  0.064883  1
  Ho  Ho1  1  0.165989  0.174477  0.435477  1
  Ho  Ho2  1  0.663889  0.323258  0.565906  1
  Ho  Ho3  1  0.832137  0.823119  0.931955  1
  Ho  Ho4  1  0.663889  0.323258  0.934094  1
  Ho  Ho5  1  0.832137  0.823119  0.568045  1
  Ho  Ho6  1  0.330323  0.677675  0.435117  1
  Ho  Ho7  1  0.165989  0.174477  0.064523  1
  Ho  Ho8  1  0.369560  0.963123  0.750000  1
  Th  Th9  1  0.857848  0.549746  0.250000  1
  Th  Th10  1  0.636745  0.047297  0.250000  1
  Th  Th11  1  0.141188  0.448670  0.750000  1
  Tc  Tc12  1  0.016643  0.872826  0.250000  1
  Tc  Tc13  1  0.480394  0.371800  0.250000  1
  Tc  Tc14  1  0.970446  0.130885  0.750000  1
  Ir  Ir15  1  0.542501  0.618596  0.750000  1
