# generated using pymatgen
data_ErTm23Te12
_symmetry_space_group_name_H-M   'P 1'
_cell_length_a   4.01089100
_cell_length_b   11.38182782
_cell_length_c   21.94788600
_cell_angle_alpha   89.95307836
_cell_angle_beta   90.00000000
_cell_angle_gamma   90.00000000
_symmetry_Int_Tables_number   1
_chemical_formula_structural   ErTm23Te12
_chemical_formula_sum   'Er1 Tm23 Te12'
_cell_volume   1001.94855027
_cell_formula_units_Z   1
loop_
 _symmetry_equiv_pos_site_id
 _symmetry_equiv_pos_as_xyz
  1  'x, y, z'
loop_
 _atom_site_type_symbol
 _atom_site_label
 _atom_site_symmetry_multiplicity
 _atom_site_fract_x
 _atom_site_fract_y
 _atom_site_fract_z
 _atom_site_occupancy
  Er  Er0  1  0.250000  0.888381  0.483030  1
  Tm  Tm1  1  0.250000  0.150611  0.390973  1
  Tm  Tm2  1  0.750000  0.848986  0.608847  1
  Tm  Tm3  1  0.750000  0.650601  0.108569  1
  Tm  Tm4  1  0.250000  0.349286  0.891538  1
  Tm  Tm5  1  0.250000  0.452683  0.339191  1
  Tm  Tm6  1  0.750000  0.546502  0.660748  1
  Tm  Tm7  1  0.750000  0.953094  0.160385  1
  Tm  Tm8  1  0.250000  0.046743  0.839719  1
  Tm  Tm9  1  0.250000  0.735307  0.231741  1
  Tm  Tm10  1  0.750000  0.264922  0.768065  1
  Tm  Tm11  1  0.750000  0.235146  0.267692  1
  Tm  Tm12  1  0.250000  0.764817  0.732340  1
  Tm  Tm13  1  0.250000  0.114954  0.034351  1
  Tm  Tm14  1  0.750000  0.884986  0.965910  1
  Tm  Tm15  1  0.750000  0.615026  0.465733  1
  Tm  Tm16  1  0.250000  0.384806  0.534059  1
  Tm  Tm17  1  0.250000  0.417191  0.144811  1
  Tm  Tm18  1  0.750000  0.582824  0.855396  1
  Tm  Tm19  1  0.750000  0.916598  0.354341  1
  Tm  Tm20  1  0.250000  0.082888  0.644817  1
  Tm  Tm21  1  0.250000  0.612486  0.983008  1
  Tm  Tm22  1  0.750000  0.387653  0.017294  1
  Tm  Tm23  1  0.750000  0.113922  0.517365  1
  Te  Te24  1  0.250000  0.849942  0.068910  1
  Te  Te25  1  0.750000  0.149994  0.931163  1
  Te  Te26  1  0.750000  0.350245  0.431115  1
  Te  Te27  1  0.250000  0.649388  0.569058  1
  Te  Te28  1  0.250000  0.710355  0.371912  1
  Te  Te29  1  0.750000  0.289711  0.627953  1
  Te  Te30  1  0.750000  0.210588  0.127830  1
  Te  Te31  1  0.250000  0.789428  0.872268  1
  Te  Te32  1  0.250000  0.020424  0.260336  1
  Te  Te33  1  0.750000  0.979575  0.739516  1
  Te  Te34  1  0.750000  0.520334  0.239213  1
  Te  Te35  1  0.250000  0.479601  0.760801  1
