# generated using pymatgen
data_Re3Ir2Os2Ru
_symmetry_space_group_name_H-M   'P 1'
_cell_length_a   5.54166547
_cell_length_b   5.53880970
_cell_length_c   4.38482800
_cell_angle_alpha   90.00000000
_cell_angle_beta   90.00000000
_cell_angle_gamma   120.18944436
_symmetry_Int_Tables_number   1
_chemical_formula_structural   Re3Ir2Os2Ru
_chemical_formula_sum   'Re3 Ir2 Os2 Ru1'
_cell_volume   116.33428373
_cell_formula_units_Z   1
loop_
 _symmetry_equiv_pos_site_id
 _symmetry_equiv_pos_as_xyz
  1  'x, y, z'
loop_
 _atom_site_type_symbol
 _atom_site_label
 _atom_site_symmetry_multiplicity
 _atom_site_fract_x
 _atom_site_fract_y
 _atom_site_fract_z
 _atom_site_occupancy
  Re  Re0  1  0.161981  0.327951  0.250000  1
  Re  Re1  1  0.835278  0.674243  0.750000  1
  Re  Re2  1  0.326930  0.162609  0.750000  1
  Ir  Ir3  1  0.335985  0.665687  0.750000  1
  Ir  Ir4  1  0.669277  0.334346  0.250000  1
  Os  Os5  1  0.671531  0.837591  0.250000  1
  Os  Os6  1  0.163356  0.836314  0.250000  1
  Ru  Ru7  1  0.835662  0.161257  0.750000  1
