# generated using pymatgen
data_La3Hg4PtAu
_symmetry_space_group_name_H-M   'P 1'
_cell_length_a   8.20494200
_cell_length_b   8.20494319
_cell_length_c   3.95879200
_cell_angle_alpha   90.00000000
_cell_angle_beta   90.00000000
_cell_angle_gamma   120.00000328
_symmetry_Int_Tables_number   1
_chemical_formula_structural   La3Hg4PtAu
_chemical_formula_sum   'La3 Hg4 Pt1 Au1'
_cell_volume   230.80456528
_cell_formula_units_Z   1
loop_
 _symmetry_equiv_pos_site_id
 _symmetry_equiv_pos_as_xyz
  1  'x, y, z'
loop_
 _atom_site_type_symbol
 _atom_site_label
 _atom_site_symmetry_multiplicity
 _atom_site_fract_x
 _atom_site_fract_y
 _atom_site_fract_z
 _atom_site_occupancy
  La  La0  1  0.402543  0.416324  0.500000  1
  La  La1  1  0.583676  0.986219  0.500000  1
  La  La2  1  0.013781  0.597457  0.500000  1
  Hg  Hg3  1  0.725046  0.724554  0.000000  1
  Hg  Hg4  1  0.275446  0.000491  0.000000  1
  Hg  Hg5  1  0.999509  0.274954  0.000000  1
  Hg  Hg6  1  0.000000  0.000000  0.500000  1
  Pt  Pt7  1  0.333333  0.666667  0.000000  1
  Au  Au8  1  0.666667  0.333333  0.000000  1
