# generated using pymatgen
data_SbTeF9
_symmetry_space_group_name_H-M   'P 1'
_cell_length_a   5.68428771
_cell_length_b   7.79740974
_cell_length_c   9.80754912
_cell_angle_alpha   103.93958285
_cell_angle_beta   107.88447279
_cell_angle_gamma   88.15997395
_symmetry_Int_Tables_number   1
_chemical_formula_structural   SbTeF9
_chemical_formula_sum   'Sb2 Te2 F18'
_cell_volume   401.09581460
_cell_formula_units_Z   2
loop_
 _symmetry_equiv_pos_site_id
 _symmetry_equiv_pos_as_xyz
  1  'x, y, z'
loop_
 _atom_site_type_symbol
 _atom_site_label
 _atom_site_symmetry_multiplicity
 _atom_site_fract_x
 _atom_site_fract_y
 _atom_site_fract_z
 _atom_site_occupancy
  Sb  Sb0  1  0.426800  0.737623  0.296894  1
  Sb  Sb1  1  0.573200  0.262377  0.703106  1
  Te  Te2  1  0.852584  0.340240  0.164412  1
  Te  Te3  1  0.147416  0.659760  0.835588  1
  F  F4  1  0.111683  0.598204  0.186163  1
  F  F5  1  0.426974  0.495657  0.705693  1
  F  F6  1  0.367513  0.738107  0.475879  1
  F  F7  1  0.748432  0.844466  0.382168  1
  F  F8  1  0.935266  0.647464  0.644826  1
  F  F9  1  0.064734  0.352536  0.355174  1
  F  F10  1  0.462982  0.701412  0.098436  1
  F  F11  1  0.573026  0.504343  0.294307  1
  F  F12  1  0.079148  0.211974  0.078485  1
  F  F13  1  0.306145  0.867483  0.837181  1
  F  F14  1  0.920852  0.788026  0.921515  1
  F  F15  1  0.262579  0.947563  0.272616  1
  F  F16  1  0.537018  0.298588  0.901564  1
  F  F17  1  0.693855  0.132517  0.162819  1
  F  F18  1  0.888317  0.401796  0.813837  1
  F  F19  1  0.737421  0.052437  0.727384  1
  F  F20  1  0.632487  0.261893  0.524121  1
  F  F21  1  0.251568  0.155534  0.617832  1
