# generated using pymatgen
data_MgZrGa3Os
_symmetry_space_group_name_H-M   'P 1'
_cell_length_a   5.22377700
_cell_length_b   5.22377761
_cell_length_c   8.53635700
_cell_angle_alpha   90.00000000
_cell_angle_beta   90.00000000
_cell_angle_gamma   120.00000248
_symmetry_Int_Tables_number   1
_chemical_formula_structural   MgZrGa3Os
_chemical_formula_sum   'Mg2 Zr2 Ga6 Os2'
_cell_volume   201.73093374
_cell_formula_units_Z   2
loop_
 _symmetry_equiv_pos_site_id
 _symmetry_equiv_pos_as_xyz
  1  'x, y, z'
loop_
 _atom_site_type_symbol
 _atom_site_label
 _atom_site_symmetry_multiplicity
 _atom_site_fract_x
 _atom_site_fract_y
 _atom_site_fract_z
 _atom_site_occupancy
  Mg  Mg0  1  0.666666  0.333333  0.054589  1
  Mg  Mg1  1  0.666666  0.333333  0.445411  1
  Zr  Zr2  1  0.333333  0.666666  0.555357  1
  Zr  Zr3  1  0.333333  0.666666  0.944644  1
  Ga  Ga4  1  0.168739  0.337478  0.250000  1
  Ga  Ga5  1  0.168738  0.831261  0.250000  1
  Ga  Ga6  1  0.662522  0.831261  0.250000  1
  Ga  Ga7  1  0.334446  0.167224  0.750000  1
  Ga  Ga8  1  0.832777  0.167224  0.750000  1
  Ga  Ga9  1  0.832776  0.665552  0.750000  1
  Os  Os10  1  0.000000  0.000000  0.003547  1
  Os  Os11  1  0.000000  0.000000  0.496453  1
