# generated using pymatgen
data_Nb3Re3Si2B
_symmetry_space_group_name_H-M   'P 1'
_cell_length_a   6.75922100
_cell_length_b   6.75922153
_cell_length_c   3.24624900
_cell_angle_alpha   90.00000000
_cell_angle_beta   90.00000000
_cell_angle_gamma   119.99999250
_symmetry_Int_Tables_number   1
_chemical_formula_structural   Nb3Re3Si2B
_chemical_formula_sum   'Nb3 Re3 Si2 B1'
_cell_volume   128.44163356
_cell_formula_units_Z   1
loop_
 _symmetry_equiv_pos_site_id
 _symmetry_equiv_pos_as_xyz
  1  'x, y, z'
loop_
 _atom_site_type_symbol
 _atom_site_label
 _atom_site_symmetry_multiplicity
 _atom_site_fract_x
 _atom_site_fract_y
 _atom_site_fract_z
 _atom_site_occupancy
  Nb  Nb0  1  0.397358  0.000000  0.500000  1
  Nb  Nb1  1  0.000000  0.397358  0.500000  1
  Nb  Nb2  1  0.602642  0.602642  0.500000  1
  Re  Re3  1  0.759226  0.000000  0.000000  1
  Re  Re4  1  0.000000  0.759226  0.000000  1
  Re  Re5  1  0.240774  0.240774  0.000000  1
  Si  Si6  1  0.333333  0.666667  0.000000  1
  Si  Si7  1  0.666667  0.333333  0.000000  1
  B  B8  1  0.000000  0.000000  0.500000  1
