# generated using pymatgen
data_Tm3ThGe6Rh7
_symmetry_space_group_name_H-M   'P 1'
_cell_length_a   7.29796057
_cell_length_b   7.28972545
_cell_length_c   7.29796058
_cell_angle_alpha   109.44836893
_cell_angle_beta   109.49408069
_cell_angle_gamma   109.44835509
_symmetry_Int_Tables_number   1
_chemical_formula_structural   Tm3ThGe6Rh7
_chemical_formula_sum   'Tm3 Th1 Ge6 Rh7'
_cell_volume   298.96110287
_cell_formula_units_Z   1
loop_
 _symmetry_equiv_pos_site_id
 _symmetry_equiv_pos_as_xyz
  1  'x, y, z'
loop_
 _atom_site_type_symbol
 _atom_site_label
 _atom_site_symmetry_multiplicity
 _atom_site_fract_x
 _atom_site_fract_y
 _atom_site_fract_z
 _atom_site_occupancy
  Tm  Tm0  1  0.500000  0.500000  0.500000  1
  Tm  Tm1  1  0.500000  0.000000  0.000000  1
  Tm  Tm2  1  0.000000  0.000000  0.500000  1
  Th  Th3  1  0.000000  0.500000  0.000000  1
  Ge  Ge4  1  0.676158  0.992013  0.676158  1
  Ge  Ge5  1  0.676158  0.684145  0.000000  1
  Ge  Ge6  1  0.323842  0.315855  0.000000  1
  Ge  Ge7  1  0.000000  0.684145  0.676158  1
  Ge  Ge8  1  0.000000  0.315855  0.323842  1
  Ge  Ge9  1  0.323842  0.007987  0.323842  1
  Rh  Rh10  1  0.748851  0.500000  0.251149  1
  Rh  Rh11  1  0.497701  0.248851  0.748851  1
  Rh  Rh12  1  0.748851  0.248851  0.497701  1
  Rh  Rh13  1  0.251149  0.751149  0.502299  1
  Rh  Rh14  1  0.251149  0.500000  0.748851  1
  Rh  Rh15  1  0.502299  0.751149  0.251149  1
  Rh  Rh16  1  0.000000  0.000000  0.000000  1
