# generated using pymatgen
data_Li8GaPPt6
_symmetry_space_group_name_H-M   'P 1'
_cell_length_a   6.82356597
_cell_length_b   6.82356510
_cell_length_c   6.82356500
_cell_angle_alpha   61.58908648
_cell_angle_beta   61.58909045
_cell_angle_gamma   61.58908429
_symmetry_Int_Tables_number   1
_chemical_formula_structural   Li8GaPPt6
_chemical_formula_sum   'Li8 Ga1 P1 Pt6'
_cell_volume   232.66523241
_cell_formula_units_Z   1
loop_
 _symmetry_equiv_pos_site_id
 _symmetry_equiv_pos_as_xyz
  1  'x, y, z'
loop_
 _atom_site_type_symbol
 _atom_site_label
 _atom_site_symmetry_multiplicity
 _atom_site_fract_x
 _atom_site_fract_y
 _atom_site_fract_z
 _atom_site_occupancy
  Li  Li0  1  0.283621  0.283650  0.283541  1
  Li  Li1  1  0.721362  0.721352  0.721375  1
  Li  Li2  1  0.572915  0.843743  0.337987  1
  Li  Li3  1  0.338063  0.572840  0.843782  1
  Li  Li4  1  0.843692  0.338105  0.572889  1
  Li  Li5  1  0.656939  0.155782  0.456471  1
  Li  Li6  1  0.155759  0.456427  0.657014  1
  Li  Li7  1  0.456476  0.656959  0.155747  1
  Ga  Ga8  1  0.885527  0.885513  0.885518  1
  P  P9  1  0.087729  0.087725  0.087741  1
  Pt  Pt10  1  0.913884  0.463250  0.128967  1
  Pt  Pt11  1  0.128964  0.913933  0.463222  1
  Pt  Pt12  1  0.463260  0.128935  0.913902  1
  Pt  Pt13  1  0.261412  0.007438  0.722946  1
  Pt  Pt14  1  0.722948  0.261423  0.007447  1
  Pt  Pt15  1  0.007450  0.722925  0.261452  1
