# generated using pymatgen
data_Lu2Th(InNi)3
_symmetry_space_group_name_H-M   'P 1'
_cell_length_a   7.45896800
_cell_length_b   7.34162633
_cell_length_c   3.86181000
_cell_angle_alpha   90.00000000
_cell_angle_beta   90.00000000
_cell_angle_gamma   120.53012992
_symmetry_Int_Tables_number   1
_chemical_formula_structural   Lu2Th(InNi)3
_chemical_formula_sum   'Lu2 Th1 In3 Ni3'
_cell_volume   182.15777142
_cell_formula_units_Z   1
loop_
 _symmetry_equiv_pos_site_id
 _symmetry_equiv_pos_as_xyz
  1  'x, y, z'
loop_
 _atom_site_type_symbol
 _atom_site_label
 _atom_site_symmetry_multiplicity
 _atom_site_fract_x
 _atom_site_fract_y
 _atom_site_fract_z
 _atom_site_occupancy
  Lu  Lu0  1  0.000166  0.591970  0.000000  1
  Lu  Lu1  1  0.408196  0.408030  0.000000  1
  Th  Th2  1  0.586588  0.000000  0.000000  1
  In  In3  1  0.243019  0.000000  0.500000  1
  In  In4  1  0.012362  0.264506  0.500000  1
  In  In5  1  0.747856  0.735494  0.500000  1
  Ni  Ni6  1  0.338986  0.672891  0.500000  1
  Ni  Ni7  1  0.666095  0.327109  0.500000  1
  Ni  Ni8  1  0.996731  0.000000  0.000000  1
