# generated using pymatgen
data_Dy3Ho4Sn23Os6
_symmetry_space_group_name_H-M   'P 1'
_cell_length_a   9.85160119
_cell_length_b   9.84851992
_cell_length_c   10.12346604
_cell_angle_alpha   89.99999776
_cell_angle_beta   90.00906447
_cell_angle_gamma   119.98965279
_symmetry_Int_Tables_number   1
_chemical_formula_structural   Dy3Ho4Sn23Os6
_chemical_formula_sum   'Dy3 Ho4 Sn23 Os6'
_cell_volume   850.71270287
_cell_formula_units_Z   1
loop_
 _symmetry_equiv_pos_site_id
 _symmetry_equiv_pos_as_xyz
  1  'x, y, z'
loop_
 _atom_site_type_symbol
 _atom_site_label
 _atom_site_symmetry_multiplicity
 _atom_site_fract_x
 _atom_site_fract_y
 _atom_site_fract_z
 _atom_site_occupancy
  Dy  Dy0  1  0.000001  0.000001  0.000003  1
  Dy  Dy1  1  0.514825  0.485166  0.697922  1
  Dy  Dy2  1  0.514825  0.029658  0.697922  1
  Ho  Ho3  1  0.970623  0.485311  0.698033  1
  Ho  Ho4  1  0.029346  0.514673  0.301966  1
  Ho  Ho5  1  0.485305  0.970622  0.301976  1
  Ho  Ho6  1  0.485305  0.514684  0.301976  1
  Sn  Sn7  1  0.666668  0.333334  0.175291  1
  Sn  Sn8  1  0.666854  0.333427  0.870092  1
  Sn  Sn9  1  0.333345  0.666673  0.130131  1
  Sn  Sn10  1  0.349864  0.349876  0.000028  1
  Sn  Sn11  1  0.999982  0.650058  0.000004  1
  Sn  Sn12  1  0.650137  0.000016  0.000036  1
  Sn  Sn13  1  0.650137  0.650122  0.000036  1
  Sn  Sn14  1  0.333277  0.666639  0.824759  1
  Sn  Sn15  1  0.439766  0.219883  0.462984  1
  Sn  Sn16  1  0.219758  0.779992  0.536811  1
  Sn  Sn17  1  0.219758  0.439765  0.536811  1
  Sn  Sn18  1  0.560270  0.780134  0.536743  1
  Sn  Sn19  1  0.117841  0.882165  0.275830  1
  Sn  Sn20  1  0.780149  0.560220  0.463053  1
  Sn  Sn21  1  0.780149  0.219930  0.463053  1
  Sn  Sn22  1  0.349864  0.999987  0.000028  1
  Sn  Sn23  1  0.117841  0.235677  0.275830  1
  Sn  Sn24  1  0.764313  0.882157  0.275820  1
  Sn  Sn25  1  0.235554  0.117776  0.724215  1
  Sn  Sn26  1  0.882253  0.764405  0.724180  1
  Sn  Sn27  1  0.882253  0.117847  0.724180  1
  Sn  Sn28  1  0.999991  0.999995  0.499998  1
  Sn  Sn29  1  0.999982  0.349924  0.000004  1
  Os  Os30  1  0.170151  0.829453  0.797735  1
  Os  Os31  1  0.170151  0.340698  0.797735  1
  Os  Os32  1  0.659405  0.829702  0.797802  1
  Os  Os33  1  0.340787  0.170394  0.202320  1
  Os  Os34  1  0.829633  0.659218  0.202346  1
  Os  Os35  1  0.829633  0.170416  0.202346  1
