# generated using pymatgen
data_LaMnH5
_symmetry_space_group_name_H-M   'P 1'
_cell_length_a   4.43582700
_cell_length_b   4.75128900
_cell_length_c   11.67886000
_cell_angle_alpha   90.00000000
_cell_angle_beta   90.00000000
_cell_angle_gamma   90.00000000
_symmetry_Int_Tables_number   1
_chemical_formula_structural   LaMnH5
_chemical_formula_sum   'La4 Mn4 H20'
_cell_volume   246.14243912
_cell_formula_units_Z   4
loop_
 _symmetry_equiv_pos_site_id
 _symmetry_equiv_pos_as_xyz
  1  'x, y, z'
loop_
 _atom_site_type_symbol
 _atom_site_label
 _atom_site_symmetry_multiplicity
 _atom_site_fract_x
 _atom_site_fract_y
 _atom_site_fract_z
 _atom_site_occupancy
  La  La0  1  0.269500  0.251696  0.644589  1
  La  La1  1  0.769500  0.248304  0.355411  1
  La  La2  1  0.230500  0.748304  0.144589  1
  La  La3  1  0.730500  0.751696  0.855411  1
  Mn  Mn4  1  0.286029  0.251768  0.923947  1
  Mn  Mn5  1  0.786029  0.248232  0.076053  1
  Mn  Mn6  1  0.213971  0.748232  0.423947  1
  Mn  Mn7  1  0.713971  0.751768  0.576053  1
  H  H8  1  0.494642  0.538782  0.495317  1
  H  H9  1  0.994642  0.961218  0.504683  1
  H  H10  1  0.005358  0.461218  0.995317  1
  H  H11  1  0.505358  0.038782  0.004683  1
  H  H12  1  0.195585  0.009298  0.828614  1
  H  H13  1  0.695585  0.490702  0.171386  1
  H  H14  1  0.304415  0.990702  0.328614  1
  H  H15  1  0.804415  0.509298  0.671386  1
  H  H16  1  0.198432  0.497176  0.829309  1
  H  H17  1  0.698432  0.002824  0.170691  1
  H  H18  1  0.301568  0.502824  0.329309  1
  H  H19  1  0.801568  0.997176  0.670691  1
  H  H20  1  0.569352  0.251749  0.835435  1
  H  H21  1  0.069352  0.248251  0.164565  1
  H  H22  1  0.930648  0.748251  0.335435  1
  H  H23  1  0.430648  0.751749  0.664565  1
  H  H24  1  0.007436  0.037765  0.995382  1
  H  H25  1  0.507436  0.462235  0.004618  1
  H  H26  1  0.492564  0.962235  0.495382  1
  H  H27  1  0.992564  0.537765  0.504618  1
