# generated using pymatgen
data_TbHo2Hf(Co4P3)2
_symmetry_space_group_name_H-M   'P 1'
_cell_length_a   3.71183300
_cell_length_b   10.66738600
_cell_length_c   12.37019100
_cell_angle_alpha   90.00000000
_cell_angle_beta   90.00000000
_cell_angle_gamma   90.00000000
_symmetry_Int_Tables_number   1
_chemical_formula_structural   TbHo2Hf(Co4P3)2
_chemical_formula_sum   'Tb2 Ho4 Hf2 Co16 P12'
_cell_volume   489.80458278
_cell_formula_units_Z   2
loop_
 _symmetry_equiv_pos_site_id
 _symmetry_equiv_pos_as_xyz
  1  'x, y, z'
loop_
 _atom_site_type_symbol
 _atom_site_label
 _atom_site_symmetry_multiplicity
 _atom_site_fract_x
 _atom_site_fract_y
 _atom_site_fract_z
 _atom_site_occupancy
  Tb  Tb0  1  0.000000  0.500000  0.528937  1
  Tb  Tb1  1  0.500000  0.000000  0.471063  1
  Ho  Ho2  1  0.500000  0.821937  0.204288  1
  Ho  Ho3  1  0.500000  0.178063  0.204288  1
  Ho  Ho4  1  0.000000  0.678063  0.795712  1
  Ho  Ho5  1  0.000000  0.321937  0.795712  1
  Hf  Hf6  1  0.500000  0.500000  0.156982  1
  Hf  Hf7  1  0.000000  0.000000  0.843018  1
  Co  Co8  1  0.000000  0.500000  0.986900  1
  Co  Co9  1  0.500000  0.000000  0.013100  1
  Co  Co10  1  0.500000  0.295213  0.432805  1
  Co  Co11  1  0.500000  0.704787  0.432805  1
  Co  Co12  1  0.000000  0.204787  0.567195  1
  Co  Co13  1  0.000000  0.795213  0.567195  1
  Co  Co14  1  0.500000  0.877732  0.703448  1
  Co  Co15  1  0.500000  0.122268  0.703448  1
  Co  Co16  1  0.000000  0.622268  0.296552  1
  Co  Co17  1  0.000000  0.377732  0.296552  1
  Co  Co18  1  0.500000  0.331915  0.993500  1
  Co  Co19  1  0.500000  0.668085  0.993500  1
  Co  Co20  1  0.000000  0.168085  0.006500  1
  Co  Co21  1  0.000000  0.831915  0.006500  1
  Co  Co22  1  0.500000  0.500000  0.704086  1
  Co  Co23  1  0.000000  0.000000  0.295914  1
  P  P24  1  0.500000  0.309779  0.616146  1
  P  P25  1  0.500000  0.690221  0.616146  1
  P  P26  1  0.000000  0.190221  0.383854  1
  P  P27  1  0.000000  0.809779  0.383854  1
  P  P28  1  0.500000  0.500000  0.883614  1
  P  P29  1  0.000000  0.000000  0.116386  1
  P  P30  1  0.500000  0.838241  0.892834  1
  P  P31  1  0.500000  0.161759  0.892834  1
  P  P32  1  0.000000  0.661759  0.107166  1
  P  P33  1  0.000000  0.338241  0.107166  1
  P  P34  1  0.500000  0.500000  0.361319  1
  P  P35  1  0.000000  0.000000  0.638681  1
