# generated using pymatgen
data_Tm4SiSn5Rh7
_symmetry_space_group_name_H-M   'P 1'
_cell_length_a   7.49206166
_cell_length_b   7.49206091
_cell_length_c   7.49206234
_cell_angle_alpha   109.18777156
_cell_angle_beta   109.61313951
_cell_angle_gamma   109.61312371
_symmetry_Int_Tables_number   1
_chemical_formula_structural   Tm4SiSn5Rh7
_chemical_formula_sum   'Tm4 Si1 Sn5 Rh7'
_cell_volume   323.72344873
_cell_formula_units_Z   1
loop_
 _symmetry_equiv_pos_site_id
 _symmetry_equiv_pos_as_xyz
  1  'x, y, z'
loop_
 _atom_site_type_symbol
 _atom_site_label
 _atom_site_symmetry_multiplicity
 _atom_site_fract_x
 _atom_site_fract_y
 _atom_site_fract_z
 _atom_site_occupancy
  Tm  Tm0  1  0.000000  0.987862  0.526376  1
  Tm  Tm1  1  0.000000  0.526376  0.987862  1
  Tm  Tm2  1  0.461487  0.987862  0.987862  1
  Tm  Tm3  1  0.538513  0.526376  0.526376  1
  Si  Si4  1  0.000000  0.652437  0.652437  1
  Sn  Sn5  1  0.686092  0.699194  0.013102  1
  Sn  Sn6  1  0.313908  0.013102  0.327011  1
  Sn  Sn7  1  0.000000  0.294236  0.294236  1
  Sn  Sn8  1  0.313908  0.327011  0.013102  1
  Sn  Sn9  1  0.686092  0.013102  0.699194  1
  Rh  Rh10  1  0.756950  0.256888  0.499938  1
  Rh  Rh11  1  0.756950  0.499938  0.256888  1
  Rh  Rh12  1  0.500000  0.259098  0.759098  1
  Rh  Rh13  1  0.243050  0.499938  0.742987  1
  Rh  Rh14  1  0.243050  0.742987  0.499938  1
  Rh  Rh15  1  0.500000  0.759098  0.259098  1
  Rh  Rh16  1  0.000000  0.954496  0.954496  1
