# generated using pymatgen
data_Tb16Cd2AgHg(IrPt)2
_symmetry_space_group_name_H-M   'P 1'
_cell_length_a   9.67279322
_cell_length_b   9.67279354
_cell_length_c   9.65049300
_cell_angle_alpha   60.07623235
_cell_angle_beta   60.07623127
_cell_angle_gamma   60.19338896
_symmetry_Int_Tables_number   1
_chemical_formula_structural   Tb16Cd2AgHg(IrPt)2
_chemical_formula_sum   'Tb16 Cd2 Ag1 Hg1 Ir2 Pt2'
_cell_volume   640.13262318
_cell_formula_units_Z   1
loop_
 _symmetry_equiv_pos_site_id
 _symmetry_equiv_pos_as_xyz
  1  'x, y, z'
loop_
 _atom_site_type_symbol
 _atom_site_label
 _atom_site_symmetry_multiplicity
 _atom_site_fract_x
 _atom_site_fract_y
 _atom_site_fract_z
 _atom_site_occupancy
  Tb  Tb0  1  0.601259  0.601259  0.596562  1
  Tb  Tb1  1  0.600884  0.600884  0.201630  1
  Tb  Tb2  1  0.607855  0.190289  0.600835  1
  Tb  Tb3  1  0.190289  0.607855  0.600835  1
  Tb  Tb4  1  0.057183  0.439193  0.440806  1
  Tb  Tb5  1  0.438776  0.057340  0.063515  1
  Tb  Tb6  1  0.439193  0.057183  0.440806  1
  Tb  Tb7  1  0.057340  0.438776  0.063515  1
  Tb  Tb8  1  0.439880  0.439880  0.060416  1
  Tb  Tb9  1  0.060967  0.060967  0.439417  1
  Tb  Tb10  1  0.185087  0.815369  0.812192  1
  Tb  Tb11  1  0.815224  0.186429  0.185918  1
  Tb  Tb12  1  0.815369  0.185087  0.812192  1
  Tb  Tb13  1  0.186429  0.815224  0.185918  1
  Tb  Tb14  1  0.813718  0.813718  0.184649  1
  Tb  Tb15  1  0.186282  0.186282  0.813435  1
  Cd  Cd16  1  0.829303  0.508791  0.831798  1
  Cd  Cd17  1  0.508791  0.829303  0.831798  1
  Ag  Ag18  1  0.834117  0.834117  0.836505  1
  Hg  Hg19  1  0.834750  0.834750  0.494874  1
  Ir  Ir20  1  0.390622  0.822863  0.393148  1
  Ir  Ir21  1  0.822863  0.390622  0.393148  1
  Pt  Pt22  1  0.391978  0.391978  0.395879  1
  Pt  Pt23  1  0.391839  0.391839  0.820206  1
