# generated using pymatgen
data_Er4Mn(Si2Pt)5
_symmetry_space_group_name_H-M   'P 1'
_cell_length_a   8.10737701
_cell_length_b   8.10737637
_cell_length_c   8.10737734
_cell_angle_alpha   137.48878400
_cell_angle_beta   103.76929449
_cell_angle_gamma   91.42348069
_symmetry_Int_Tables_number   1
_chemical_formula_structural   Er4Mn(Si2Pt)5
_chemical_formula_sum   'Er4 Mn1 Si10 Pt5'
_cell_volume   333.06228721
_cell_formula_units_Z   1
loop_
 _symmetry_equiv_pos_site_id
 _symmetry_equiv_pos_as_xyz
  1  'x, y, z'
loop_
 _atom_site_type_symbol
 _atom_site_label
 _atom_site_symmetry_multiplicity
 _atom_site_fract_x
 _atom_site_fract_y
 _atom_site_fract_z
 _atom_site_occupancy
  Er  Er0  1  0.102082  0.870650  0.232488  1
  Er  Er1  1  0.897918  0.130406  0.768568  1
  Er  Er2  1  0.638162  0.369594  0.267512  1
  Er  Er3  1  0.361838  0.629350  0.731432  1
  Mn  Mn4  1  0.500000  0.750000  0.250000  1
  Si  Si5  1  0.000000  0.750000  0.750000  1
  Si  Si6  1  0.000000  0.250000  0.250000  1
  Si  Si7  1  0.273546  0.023546  0.750000  1
  Si  Si8  1  0.726454  0.476454  0.750000  1
  Si  Si9  1  0.721602  0.971602  0.250000  1
  Si  Si10  1  0.278398  0.528398  0.250000  1
  Si  Si11  1  0.754513  0.620423  0.167247  1
  Si  Si12  1  0.245487  0.412735  0.865911  1
  Si  Si13  1  0.453176  0.087265  0.332753  1
  Si  Si14  1  0.546824  0.879577  0.634089  1
  Pt  Pt15  1  0.500000  0.250000  0.750000  1
  Pt  Pt16  1  0.023219  0.636827  0.382344  1
  Pt  Pt17  1  0.976781  0.359125  0.613608  1
  Pt  Pt18  1  0.254483  0.140875  0.117656  1
  Pt  Pt19  1  0.745517  0.863173  0.886392  1
