# generated using pymatgen
data_K4(RhO2)3
_symmetry_space_group_name_H-M   'P 1'
_cell_length_a   5.73732673
_cell_length_b   5.73732692
_cell_length_c   8.06426169
_cell_angle_alpha   88.08934658
_cell_angle_beta   88.08934760
_cell_angle_gamma   66.11820884
_symmetry_Int_Tables_number   1
_chemical_formula_structural   K4(RhO2)3
_chemical_formula_sum   'K4 Rh3 O6'
_cell_volume   242.53133543
_cell_formula_units_Z   1
loop_
 _symmetry_equiv_pos_site_id
 _symmetry_equiv_pos_as_xyz
  1  'x, y, z'
loop_
 _atom_site_type_symbol
 _atom_site_label
 _atom_site_symmetry_multiplicity
 _atom_site_fract_x
 _atom_site_fract_y
 _atom_site_fract_z
 _atom_site_occupancy
  K  K0  1  0.679153  0.679153  0.624489  1
  K  K1  1  0.320847  0.320847  0.375511  1
  K  K2  1  0.648771  0.648771  0.103690  1
  K  K3  1  0.351229  0.351229  0.896310  1
  Rh  Rh4  1  0.000000  0.000000  0.000000  1
  Rh  Rh5  1  0.963577  0.963577  0.320259  1
  Rh  Rh6  1  0.036423  0.036423  0.679741  1
  O  O7  1  0.115731  0.692991  0.150542  1
  O  O8  1  0.692991  0.115731  0.150542  1
  O  O9  1  0.884269  0.307009  0.849458  1
  O  O10  1  0.307009  0.884269  0.849458  1
  O  O11  1  0.208031  0.791969  0.500000  1
  O  O12  1  0.791969  0.208031  0.500000  1
