# generated using pymatgen
data_Tb4Sc3V(WO6)4
_symmetry_space_group_name_H-M   'P 1'
_cell_length_a   7.54270276
_cell_length_b   5.27744816
_cell_length_c   11.27385115
_cell_angle_alpha   90.06073460
_cell_angle_beta   90.03599326
_cell_angle_gamma   90.10917311
_symmetry_Int_Tables_number   1
_chemical_formula_structural   Tb4Sc3V(WO6)4
_chemical_formula_sum   'Tb4 Sc3 V1 W4 O24'
_cell_volume   448.76827470
_cell_formula_units_Z   1
loop_
 _symmetry_equiv_pos_site_id
 _symmetry_equiv_pos_as_xyz
  1  'x, y, z'
loop_
 _atom_site_type_symbol
 _atom_site_label
 _atom_site_symmetry_multiplicity
 _atom_site_fract_x
 _atom_site_fract_y
 _atom_site_fract_z
 _atom_site_occupancy
  Tb  Tb0  1  0.251816  0.204648  0.042368  1
  Tb  Tb1  1  0.752362  0.706661  0.456332  1
  Tb  Tb2  1  0.250043  0.796622  0.546763  1
  Tb  Tb3  1  0.755104  0.293803  0.952182  1
  Sc  Sc4  1  0.509326  0.705717  0.141903  1
  Sc  Sc5  1  0.009122  0.206835  0.360151  1
  Sc  Sc6  1  0.508780  0.293978  0.641069  1
  V  V7  1  0.006657  0.800628  0.864293  1
  W  W8  1  0.997647  0.695413  0.139978  1
  W  W9  1  0.497182  0.197478  0.359966  1
  W  W10  1  0.997811  0.306562  0.642760  1
  W  W11  1  0.497730  0.801876  0.859965  1
  O  O12  1  0.541819  0.995046  0.017915  1
  O  O13  1  0.957516  0.984339  0.027441  1
  O  O14  1  0.761030  0.566822  0.113571  1
  O  O15  1  0.239947  0.819992  0.142094  1
  O  O16  1  0.074742  0.377603  0.201209  1
  O  O17  1  0.434564  0.344694  0.213616  1
  O  O18  1  0.935378  0.845552  0.284963  1
  O  O19  1  0.576227  0.879569  0.296555  1
  O  O20  1  0.740306  0.320723  0.357004  1
  O  O21  1  0.260750  0.066505  0.384828  1
  O  O22  1  0.456564  0.486004  0.469651  1
  O  O23  1  0.044893  0.495951  0.482820  1
  O  O24  1  0.543702  0.005626  0.518586  1
  O  O25  1  0.957390  0.015422  0.529634  1
  O  O26  1  0.760645  0.432003  0.616086  1
  O  O27  1  0.240464  0.183014  0.643045  1
  O  O28  1  0.071404  0.620726  0.708931  1
  O  O29  1  0.436137  0.655395  0.713684  1
  O  O30  1  0.936814  0.141648  0.785132  1
  O  O31  1  0.573701  0.121085  0.797004  1
  O  O32  1  0.744243  0.686420  0.857823  1
  O  O33  1  0.255874  0.923830  0.883972  1
  O  O34  1  0.458563  0.513160  0.968662  1
  O  O35  1  0.044145  0.508631  0.978041  1
