# generated using pymatgen
data_Dy2TmSn3Ir2Rh
_symmetry_space_group_name_H-M   'P 1'
_cell_length_a   7.68520200
_cell_length_b   7.66939590
_cell_length_c   3.71451500
_cell_angle_alpha   90.00000000
_cell_angle_beta   90.00000000
_cell_angle_gamma   120.06820715
_symmetry_Int_Tables_number   1
_chemical_formula_structural   Dy2TmSn3Ir2Rh
_chemical_formula_sum   'Dy2 Tm1 Sn3 Ir2 Rh1'
_cell_volume   189.47429111
_cell_formula_units_Z   1
loop_
 _symmetry_equiv_pos_site_id
 _symmetry_equiv_pos_as_xyz
  1  'x, y, z'
loop_
 _atom_site_type_symbol
 _atom_site_label
 _atom_site_symmetry_multiplicity
 _atom_site_fract_x
 _atom_site_fract_y
 _atom_site_fract_z
 _atom_site_occupancy
  Dy  Dy0  1  0.000050  0.403553  0.000000  1
  Dy  Dy1  1  0.596497  0.596447  0.000000  1
  Tm  Tm2  1  0.403378  0.000000  0.000000  1
  Sn  Sn3  1  0.266086  0.264820  0.500000  1
  Sn  Sn4  1  0.001265  0.735180  0.500000  1
  Sn  Sn5  1  0.733320  0.000000  0.500000  1
  Ir  Ir6  1  0.665306  0.331670  0.500000  1
  Ir  Ir7  1  0.333635  0.668330  0.500000  1
  Rh  Rh8  1  0.000463  0.000000  0.000000  1
