# generated using pymatgen
data_Dy15Ho5Co3Bi8Os
_symmetry_space_group_name_H-M   'P 1'
_cell_length_a   7.99606630
_cell_length_b   8.93250431
_cell_length_c   12.44447990
_cell_angle_alpha   90.02956113
_cell_angle_beta   89.69372744
_cell_angle_gamma   90.00651847
_symmetry_Int_Tables_number   1
_chemical_formula_structural   Dy15Ho5Co3Bi8Os
_chemical_formula_sum   'Dy15 Ho5 Co3 Bi8 Os1'
_cell_volume   888.83286836
_cell_formula_units_Z   1
loop_
 _symmetry_equiv_pos_site_id
 _symmetry_equiv_pos_as_xyz
  1  'x, y, z'
loop_
 _atom_site_type_symbol
 _atom_site_label
 _atom_site_symmetry_multiplicity
 _atom_site_fract_x
 _atom_site_fract_y
 _atom_site_fract_z
 _atom_site_occupancy
  Dy  Dy0  1  0.346087  0.750232  0.700748  1
  Dy  Dy1  1  0.653122  0.249780  0.300700  1
  Dy  Dy2  1  0.847471  0.249758  0.800009  1
  Dy  Dy3  1  0.154784  0.750125  0.205966  1
  Dy  Dy4  1  0.880688  0.750192  0.805567  1
  Dy  Dy5  1  0.114803  0.249760  0.189459  1
  Dy  Dy6  1  0.384545  0.249610  0.688474  1
  Dy  Dy7  1  0.615151  0.750363  0.312772  1
  Dy  Dy8  1  0.675360  0.536793  0.563073  1
  Dy  Dy9  1  0.323823  0.461854  0.436930  1
  Dy  Dy10  1  0.176676  0.457883  0.935382  1
  Dy  Dy11  1  0.052035  0.750280  0.497938  1
  Dy  Dy12  1  0.947573  0.249709  0.502505  1
  Dy  Dy13  1  0.554755  0.249819  0.003080  1
  Dy  Dy14  1  0.444457  0.750257  0.996759  1
  Ho  Ho15  1  0.325054  0.038210  0.437050  1
  Ho  Ho16  1  0.825149  0.537618  0.063513  1
  Ho  Ho17  1  0.674131  0.963017  0.562992  1
  Ho  Ho18  1  0.825470  0.962296  0.063434  1
  Ho  Ho19  1  0.175889  0.042301  0.935495  1
  Co  Co20  1  0.930570  0.249790  0.009012  1
  Co  Co21  1  0.564437  0.249433  0.507941  1
  Co  Co22  1  0.434076  0.750582  0.492436  1
  Bi  Bi23  1  0.572101  0.508457  0.826227  1
  Bi  Bi24  1  0.429509  0.490899  0.173450  1
  Bi  Bi25  1  0.072516  0.490410  0.672308  1
  Bi  Bi26  1  0.429568  0.009152  0.173602  1
  Bi  Bi27  1  0.927131  0.508729  0.327232  1
  Bi  Bi28  1  0.571760  0.991538  0.826162  1
  Bi  Bi29  1  0.927561  0.991305  0.327372  1
  Bi  Bi30  1  0.072171  0.009582  0.672291  1
  Os  Os31  1  0.071577  0.750265  0.990120  1
