# generated using pymatgen
data_Sc8TaNb11Si15B
_symmetry_space_group_name_H-M   'P 1'
_cell_length_a   6.68012701
_cell_length_b   6.86729478
_cell_length_c   13.13959504
_cell_angle_alpha   90.00851461
_cell_angle_beta   89.99728886
_cell_angle_gamma   89.60331395
_symmetry_Int_Tables_number   1
_chemical_formula_structural   Sc8TaNb11Si15B
_chemical_formula_sum   'Sc8 Ta1 Nb11 Si15 B1'
_cell_volume   602.75660242
_cell_formula_units_Z   1
loop_
 _symmetry_equiv_pos_site_id
 _symmetry_equiv_pos_as_xyz
  1  'x, y, z'
loop_
 _atom_site_type_symbol
 _atom_site_label
 _atom_site_symmetry_multiplicity
 _atom_site_fract_x
 _atom_site_fract_y
 _atom_site_fract_z
 _atom_site_occupancy
  Sc  Sc0  1  0.501675  0.668555  0.597168  1
  Sc  Sc1  1  0.003514  0.823722  0.902074  1
  Sc  Sc2  1  0.499288  0.326356  0.095153  1
  Sc  Sc3  1  0.998951  0.174958  0.405528  1
  Sc  Sc4  1  0.499259  0.326547  0.404877  1
  Sc  Sc5  1  0.998873  0.174792  0.094495  1
  Sc  Sc6  1  0.501709  0.669016  0.902844  1
  Sc  Sc7  1  0.003468  0.823703  0.597905  1
  Ta  Ta8  1  0.649486  0.187945  0.629726  1
  Nb  Nb9  1  0.171108  0.326343  0.872359  1
  Nb  Nb10  1  0.338585  0.825013  0.124087  1
  Nb  Nb11  1  0.837878  0.675851  0.375933  1
  Nb  Nb12  1  0.338678  0.825163  0.375922  1
  Nb  Nb13  1  0.837737  0.675941  0.124152  1
  Nb  Nb14  1  0.650652  0.187327  0.870674  1
  Nb  Nb15  1  0.171424  0.326065  0.627471  1
  Nb  Nb16  1  0.828407  0.493776  0.749994  1
  Nb  Nb17  1  0.336509  0.007026  0.749971  1
  Nb  Nb18  1  0.163161  0.506015  0.250007  1
  Nb  Nb19  1  0.663153  0.995034  0.250085  1
  Si  Si20  1  0.668804  0.969384  0.464315  1
  Si  Si21  1  0.169721  0.532936  0.037571  1
  Si  Si22  1  0.330927  0.031314  0.960717  1
  Si  Si23  1  0.832943  0.467105  0.540092  1
  Si  Si24  1  0.331211  0.031222  0.539305  1
  Si  Si25  1  0.833272  0.467187  0.960029  1
  Si  Si26  1  0.668822  0.969304  0.035875  1
  Si  Si27  1  0.169780  0.532970  0.462377  1
  Si  Si28  1  0.956919  0.116070  0.749845  1
  Si  Si29  1  0.541853  0.614456  0.250014  1
  Si  Si30  1  0.041346  0.886658  0.249999  1
  Si  Si31  1  0.704600  0.865306  0.749852  1
  Si  Si32  1  0.219254  0.624484  0.749985  1
  Si  Si33  1  0.294145  0.137540  0.250030  1
  Si  Si34  1  0.795730  0.362246  0.249958  1
  B  B35  1  0.447160  0.372669  0.749613  1
