# generated using pymatgen
data_Na(Sr2Au3)2
_symmetry_space_group_name_H-M   'P 1'
_cell_length_a   16.41446483
_cell_length_b   16.41446533
_cell_length_c   4.27075900
_cell_angle_alpha   90.00000000
_cell_angle_beta   90.00000000
_cell_angle_gamma   164.14940838
_symmetry_Int_Tables_number   1
_chemical_formula_structural   Na(Sr2Au3)2
_chemical_formula_sum   'Na1 Sr4 Au6'
_cell_volume   314.28783588
_cell_formula_units_Z   1
loop_
 _symmetry_equiv_pos_site_id
 _symmetry_equiv_pos_as_xyz
  1  'x, y, z'
loop_
 _atom_site_type_symbol
 _atom_site_label
 _atom_site_symmetry_multiplicity
 _atom_site_fract_x
 _atom_site_fract_y
 _atom_site_fract_z
 _atom_site_occupancy
  Na  Na0  1  0.615335  0.384665  0.000000  1
  Sr  Sr1  1  0.005325  0.994675  0.000000  1
  Sr  Sr2  1  0.384258  0.615742  0.000000  1
  Sr  Sr3  1  0.800587  0.199412  0.500000  1
  Sr  Sr4  1  0.191828  0.808171  0.500000  1
  Au  Au5  1  0.719087  0.280913  0.000000  1
  Au  Au6  1  0.278710  0.721290  0.000000  1
  Au  Au7  1  0.904537  0.095463  0.500000  1
  Au  Au8  1  0.545581  0.454418  0.500000  1
  Au  Au9  1  0.459993  0.540006  0.500000  1
  Au  Au10  1  0.094758  0.905242  0.500000  1
