# generated using pymatgen
data_TbCe4RhPb3
_symmetry_space_group_name_H-M   'P 1'
_cell_length_a   9.64434100
_cell_length_b   9.64434078
_cell_length_c   6.38509500
_cell_angle_alpha   90.00000000
_cell_angle_beta   90.00000000
_cell_angle_gamma   119.19628548
_symmetry_Int_Tables_number   1
_chemical_formula_structural   TbCe4RhPb3
_chemical_formula_sum   'Tb2 Ce8 Rh2 Pb6'
_cell_volume   518.44618156
_cell_formula_units_Z   2
loop_
 _symmetry_equiv_pos_site_id
 _symmetry_equiv_pos_as_xyz
  1  'x, y, z'
loop_
 _atom_site_type_symbol
 _atom_site_label
 _atom_site_symmetry_multiplicity
 _atom_site_fract_x
 _atom_site_fract_y
 _atom_site_fract_z
 _atom_site_occupancy
  Tb  Tb0  1  0.251089  0.251089  0.750000  1
  Tb  Tb1  1  0.748911  0.748911  0.250000  1
  Ce  Ce2  1  0.238603  0.000505  0.250000  1
  Ce  Ce3  1  0.761397  0.999495  0.750000  1
  Ce  Ce4  1  0.331606  0.668394  0.500000  1
  Ce  Ce5  1  0.668394  0.331606  0.500000  1
  Ce  Ce6  1  0.000505  0.238603  0.250000  1
  Ce  Ce7  1  0.999495  0.761397  0.750000  1
  Ce  Ce8  1  0.331606  0.668394  0.000000  1
  Ce  Ce9  1  0.668394  0.331606  0.000000  1
  Rh  Rh10  1  0.000000  0.000000  0.000000  1
  Rh  Rh11  1  0.000000  0.000000  0.500000  1
  Pb  Pb12  1  0.398089  0.398089  0.250000  1
  Pb  Pb13  1  0.601911  0.601911  0.750000  1
  Pb  Pb14  1  0.002491  0.396981  0.750000  1
  Pb  Pb15  1  0.603019  0.997509  0.250000  1
  Pb  Pb16  1  0.396981  0.002491  0.750000  1
  Pb  Pb17  1  0.997509  0.603019  0.250000  1
