# generated using pymatgen
data_La2Tb2PtSe7
_symmetry_space_group_name_H-M   'P 1'
_cell_length_a   4.05073410
_cell_length_b   8.31129307
_cell_length_c   8.67131659
_cell_angle_alpha   90.11017183
_cell_angle_beta   89.98835672
_cell_angle_gamma   90.00390249
_symmetry_Int_Tables_number   1
_chemical_formula_structural   La2Tb2PtSe7
_chemical_formula_sum   'La2 Tb2 Pt1 Se7'
_cell_volume   291.93526684
_cell_formula_units_Z   1
loop_
 _symmetry_equiv_pos_site_id
 _symmetry_equiv_pos_as_xyz
  1  'x, y, z'
loop_
 _atom_site_type_symbol
 _atom_site_label
 _atom_site_symmetry_multiplicity
 _atom_site_fract_x
 _atom_site_fract_y
 _atom_site_fract_z
 _atom_site_occupancy
  La  La0  1  0.250651  0.626934  0.748658  1
  La  La1  1  0.749677  0.379702  0.274075  1
  Tb  Tb2  1  0.250352  0.124545  0.700958  1
  Tb  Tb3  1  0.750048  0.869607  0.273354  1
  Pt  Pt4  1  0.749311  0.122122  0.998145  1
  Se  Se5  1  0.249411  0.315905  0.992588  1
  Se  Se6  1  0.750212  0.629722  0.010481  1
  Se  Se7  1  0.750504  0.881888  0.630515  1
  Se  Se8  1  0.250026  0.636029  0.372377  1
  Se  Se9  1  0.249383  0.929703  0.998351  1
  Se  Se10  1  0.750409  0.369122  0.635220  1
  Se  Se11  1  0.250016  0.114721  0.365277  1
