# generated using pymatgen
data_Tb10HoTmRu4
_symmetry_space_group_name_H-M   'P 1'
_cell_length_a   6.33882791
_cell_length_b   7.31328222
_cell_length_c   9.23407743
_cell_angle_alpha   89.94766075
_cell_angle_beta   90.33711636
_cell_angle_gamma   89.90536232
_symmetry_Int_Tables_number   1
_chemical_formula_structural   Tb10HoTmRu4
_chemical_formula_sum   'Tb10 Ho1 Tm1 Ru4'
_cell_volume   428.06183766
_cell_formula_units_Z   1
loop_
 _symmetry_equiv_pos_site_id
 _symmetry_equiv_pos_as_xyz
  1  'x, y, z'
loop_
 _atom_site_type_symbol
 _atom_site_label
 _atom_site_symmetry_multiplicity
 _atom_site_fract_x
 _atom_site_fract_y
 _atom_site_fract_z
 _atom_site_occupancy
  Tb  Tb0  1  0.634719  0.040501  0.251208  1
  Tb  Tb1  1  0.365678  0.959847  0.748811  1
  Tb  Tb2  1  0.133495  0.459082  0.748328  1
  Tb  Tb3  1  0.865966  0.540371  0.251636  1
  Tb  Tb4  1  0.170582  0.177262  0.065169  1
  Tb  Tb5  1  0.829369  0.822860  0.934736  1
  Tb  Tb6  1  0.669855  0.322513  0.933482  1
  Tb  Tb7  1  0.829406  0.822600  0.564596  1
  Tb  Tb8  1  0.330208  0.677431  0.065994  1
  Tb  Tb9  1  0.170376  0.177489  0.435641  1
  Ho  Ho10  1  0.331235  0.675982  0.435728  1
  Tm  Tm11  1  0.668910  0.324094  0.564837  1
  Ru  Ru12  1  0.461136  0.385929  0.253266  1
  Ru  Ru13  1  0.539460  0.613507  0.746906  1
  Ru  Ru14  1  0.958202  0.114661  0.749260  1
  Ru  Ru15  1  0.041403  0.885870  0.250401  1
