# generated using pymatgen
data_MgVGaCo5B2
_symmetry_space_group_name_H-M   'P 1'
_cell_length_a   8.65578426
_cell_length_b   8.65578426
_cell_length_c   2.83626800
_cell_angle_alpha   90.00000000
_cell_angle_beta   90.00000000
_cell_angle_gamma   91.49665409
_symmetry_Int_Tables_number   1
_chemical_formula_structural   MgVGaCo5B2
_chemical_formula_sum   'Mg2 V2 Ga2 Co10 B4'
_cell_volume   212.42808185
_cell_formula_units_Z   2
loop_
 _symmetry_equiv_pos_site_id
 _symmetry_equiv_pos_as_xyz
  1  'x, y, z'
loop_
 _atom_site_type_symbol
 _atom_site_label
 _atom_site_symmetry_multiplicity
 _atom_site_fract_x
 _atom_site_fract_y
 _atom_site_fract_z
 _atom_site_occupancy
  Mg  Mg0  1  0.322540  0.177460  0.000000  1
  Mg  Mg1  1  0.677460  0.822540  0.000000  1
  V  V2  1  0.824881  0.324881  0.000000  1
  V  V3  1  0.175119  0.675119  0.000000  1
  Ga  Ga4  1  0.500000  0.500000  0.000000  1
  Ga  Ga5  1  0.000000  0.000000  0.000000  1
  Co  Co6  1  0.500000  0.000000  0.500000  1
  Co  Co7  1  0.000000  0.500000  0.500000  1
  Co  Co8  1  0.726284  0.556155  0.500000  1
  Co  Co9  1  0.273716  0.443845  0.500000  1
  Co  Co10  1  0.215423  0.917392  0.500000  1
  Co  Co11  1  0.784577  0.082608  0.500000  1
  Co  Co12  1  0.417392  0.715423  0.500000  1
  Co  Co13  1  0.582608  0.284577  0.500000  1
  Co  Co14  1  0.056155  0.226284  0.500000  1
  Co  Co15  1  0.943845  0.773716  0.500000  1
  B  B16  1  0.623660  0.123660  0.000000  1
  B  B17  1  0.376340  0.876340  0.000000  1
  B  B18  1  0.119046  0.380954  0.000000  1
  B  B19  1  0.880954  0.619046  0.000000  1
