# generated using pymatgen
data_PrOsBr
_symmetry_space_group_name_H-M   'P 1'
_cell_length_a   4.23081500
_cell_length_b   4.23081502
_cell_length_c   11.74822000
_cell_angle_alpha   90.00000000
_cell_angle_beta   90.00000000
_cell_angle_gamma   120.00000768
_symmetry_Int_Tables_number   1
_chemical_formula_structural   PrOsBr
_chemical_formula_sum   'Pr2 Os2 Br2'
_cell_volume   182.11710641
_cell_formula_units_Z   2
loop_
 _symmetry_equiv_pos_site_id
 _symmetry_equiv_pos_as_xyz
  1  'x, y, z'
loop_
 _atom_site_type_symbol
 _atom_site_label
 _atom_site_symmetry_multiplicity
 _atom_site_fract_x
 _atom_site_fract_y
 _atom_site_fract_z
 _atom_site_occupancy
  Pr  Pr0  1  0.000000  0.000000  0.180985  1
  Pr  Pr1  1  0.000000  0.000000  0.819015  1
  Os  Os2  1  0.666667  0.333334  0.014142  1
  Os  Os3  1  0.333333  0.666666  0.985858  1
  Br  Br4  1  0.333333  0.666666  0.343443  1
  Br  Br5  1  0.666667  0.333334  0.656557  1
