# generated using pymatgen
data_Tm4Al18ZnRu2Rh3
_symmetry_space_group_name_H-M   'P 1'
_cell_length_a   7.56448863
_cell_length_b   7.56448864
_cell_length_c   9.44759552
_cell_angle_alpha   90.17736457
_cell_angle_beta   90.17736258
_cell_angle_gamma   119.37680649
_symmetry_Int_Tables_number   1
_chemical_formula_structural   Tm4Al18ZnRu2Rh3
_chemical_formula_sum   'Tm4 Al18 Zn1 Ru2 Rh3'
_cell_volume   471.08148630
_cell_formula_units_Z   1
loop_
 _symmetry_equiv_pos_site_id
 _symmetry_equiv_pos_as_xyz
  1  'x, y, z'
loop_
 _atom_site_type_symbol
 _atom_site_label
 _atom_site_symmetry_multiplicity
 _atom_site_fract_x
 _atom_site_fract_y
 _atom_site_fract_z
 _atom_site_occupancy
  Tm  Tm0  1  0.996030  0.676026  0.250290  1
  Tm  Tm1  1  0.004074  0.323483  0.749588  1
  Tm  Tm2  1  0.676517  0.995926  0.250412  1
  Tm  Tm3  1  0.323974  0.003970  0.749710  1
  Al  Al4  1  0.134025  0.134670  0.256984  1
  Al  Al5  1  0.865330  0.865975  0.743016  1
  Al  Al6  1  0.000479  0.344043  0.079282  1
  Al  Al7  1  0.996951  0.653917  0.921083  1
  Al  Al8  1  0.000219  0.665788  0.573487  1
  Al  Al9  1  0.334212  0.999781  0.426513  1
  Al  Al10  1  0.999575  0.335090  0.426836  1
  Al  Al11  1  0.664910  0.000425  0.573164  1
  Al  Al12  1  0.655957  0.999521  0.920718  1
  Al  Al13  1  0.346083  0.003049  0.078917  1
  Al  Al14  1  0.331744  0.332144  0.550301  1
  Al  Al15  1  0.667856  0.668256  0.449699  1
  Al  Al16  1  0.658793  0.656408  0.055968  1
  Al  Al17  1  0.343592  0.341207  0.944032  1
  Al  Al18  1  0.338703  0.552427  0.251110  1
  Al  Al19  1  0.660590  0.446583  0.749987  1
  Al  Al20  1  0.553417  0.339410  0.250013  1
  Al  Al21  1  0.447573  0.661297  0.748890  1
  Zn  Zn22  1  0.999871  0.000129  0.000000  1
  Ru  Ru23  1  0.672265  0.327735  0.000000  1
  Ru  Ru24  1  0.999699  0.000301  0.500000  1
  Rh  Rh25  1  0.328124  0.671876  0.000000  1
  Rh  Rh26  1  0.327622  0.672378  0.500000  1
  Rh  Rh27  1  0.671814  0.328186  0.500000  1
