# generated using pymatgen
data_Zr8Al14GaRh7
_symmetry_space_group_name_H-M   'P 1'
_cell_length_a   8.92274315
_cell_length_b   8.92274377
_cell_length_c   8.92274337
_cell_angle_alpha   120.29902458
_cell_angle_beta   119.83341572
_cell_angle_gamma   89.88581793
_symmetry_Int_Tables_number   1
_chemical_formula_structural   Zr8Al14GaRh7
_chemical_formula_sum   'Zr8 Al14 Ga1 Rh7'
_cell_volume   501.80545633
_cell_formula_units_Z   1
loop_
 _symmetry_equiv_pos_site_id
 _symmetry_equiv_pos_as_xyz
  1  'x, y, z'
loop_
 _atom_site_type_symbol
 _atom_site_label
 _atom_site_symmetry_multiplicity
 _atom_site_fract_x
 _atom_site_fract_y
 _atom_site_fract_z
 _atom_site_occupancy
  Zr  Zr0  1  0.800447  0.294960  0.081155  1
  Zr  Zr1  1  0.213805  0.294960  0.494513  1
  Zr  Zr2  1  0.198041  0.698041  0.500000  1
  Zr  Zr3  1  0.213805  0.719292  0.918845  1
  Zr  Zr4  1  0.800447  0.719292  0.505487  1
  Zr  Zr5  1  0.780186  0.280186  0.500000  1
  Zr  Zr6  1  0.378990  0.119697  0.740707  1
  Zr  Zr7  1  0.378990  0.638283  0.259293  1
  Al  Al8  1  0.159164  0.332605  0.173441  1
  Al  Al9  1  0.159164  0.985723  0.826559  1
  Al  Al10  1  0.150481  0.342436  0.808044  1
  Al  Al11  1  0.534391  0.342436  0.191956  1
  Al  Al12  1  0.839347  0.658315  0.818970  1
  Al  Al13  1  0.839347  0.020377  0.181030  1
  Al  Al14  1  0.837293  0.661157  0.176136  1
  Al  Al15  1  0.485021  0.661157  0.823864  1
  Al  Al16  1  0.379249  0.122125  0.257124  1
  Al  Al17  1  0.865004  0.122125  0.742876  1
  Al  Al18  1  0.622523  0.875723  0.253200  1
  Al  Al19  1  0.622523  0.369323  0.746800  1
  Al  Al20  1  0.623410  0.878171  0.745240  1
  Al  Al21  1  0.132930  0.878171  0.254760  1
  Ga  Ga22  1  0.987907  0.487907  0.500000  1
  Rh  Rh23  1  0.997705  0.999398  0.500882  1
  Rh  Rh24  1  0.498515  0.999398  0.001693  1
  Rh  Rh25  1  0.498528  0.498528  0.000000  1
  Rh  Rh26  1  0.498515  0.496822  0.499118  1
  Rh  Rh27  1  0.997705  0.496822  0.998307  1
  Rh  Rh28  1  0.998670  0.998670  0.000000  1
  Rh  Rh29  1  0.507895  0.007895  0.500000  1
