# generated using pymatgen
data_Ho16Tm3MgIr12
_symmetry_space_group_name_H-M   'P 1'
_cell_length_a   10.79338400
_cell_length_b   10.79338400
_cell_length_c   6.28431400
_cell_angle_alpha   90.00000000
_cell_angle_beta   90.00000000
_cell_angle_gamma   90.00000000
_symmetry_Int_Tables_number   1
_chemical_formula_structural   Ho16Tm3MgIr12
_chemical_formula_sum   'Ho16 Tm3 Mg1 Ir12'
_cell_volume   732.10459637
_cell_formula_units_Z   1
loop_
 _symmetry_equiv_pos_site_id
 _symmetry_equiv_pos_as_xyz
  1  'x, y, z'
loop_
 _atom_site_type_symbol
 _atom_site_label
 _atom_site_symmetry_multiplicity
 _atom_site_fract_x
 _atom_site_fract_y
 _atom_site_fract_z
 _atom_site_occupancy
  Ho  Ho0  1  0.284108  0.084549  0.378052  1
  Ho  Ho1  1  0.290442  0.912294  0.878918  1
  Ho  Ho2  1  0.709558  0.087706  0.878918  1
  Ho  Ho3  1  0.715892  0.915451  0.378052  1
  Ho  Ho4  1  0.588354  0.791573  0.877849  1
  Ho  Ho5  1  0.587223  0.208332  0.376438  1
  Ho  Ho6  1  0.412777  0.791668  0.376438  1
  Ho  Ho7  1  0.411646  0.208427  0.877849  1
  Ho  Ho8  1  0.208332  0.412777  0.623562  1
  Ho  Ho9  1  0.208427  0.588354  0.122151  1
  Ho  Ho10  1  0.791573  0.411646  0.122151  1
  Ho  Ho11  1  0.791668  0.587223  0.623562  1
  Ho  Ho12  1  0.912294  0.709558  0.121082  1
  Ho  Ho13  1  0.915451  0.284108  0.621948  1
  Ho  Ho14  1  0.084549  0.715892  0.621948  1
  Ho  Ho15  1  0.087706  0.290442  0.121082  1
  Tm  Tm16  1  0.000000  0.000000  0.000000  1
  Tm  Tm17  1  0.500000  0.500000  0.000000  1
  Tm  Tm18  1  0.500000  0.500000  0.500000  1
  Mg  Mg19  1  0.000000  0.000000  0.500000  1
  Ir  Ir20  1  0.846509  0.154289  0.246823  1
  Ir  Ir21  1  0.845711  0.846509  0.753177  1
  Ir  Ir22  1  0.154289  0.153491  0.753177  1
  Ir  Ir23  1  0.153491  0.845711  0.246823  1
  Ir  Ir24  1  0.653668  0.346713  0.748627  1
  Ir  Ir25  1  0.653287  0.653668  0.251373  1
  Ir  Ir26  1  0.346713  0.346332  0.251373  1
  Ir  Ir27  1  0.346332  0.653287  0.748627  1
  Ir  Ir28  1  0.500000  0.000000  0.124266  1
  Ir  Ir29  1  0.500000  0.000000  0.620535  1
  Ir  Ir30  1  0.000000  0.500000  0.875734  1
  Ir  Ir31  1  0.000000  0.500000  0.379465  1
