# generated using pymatgen
data_Ac3MgCd2Pd3
_symmetry_space_group_name_H-M   'P 1'
_cell_length_a   7.90336100
_cell_length_b   7.90336123
_cell_length_c   4.37639800
_cell_angle_alpha   90.00000000
_cell_angle_beta   90.00000000
_cell_angle_gamma   120.85298582
_symmetry_Int_Tables_number   1
_chemical_formula_structural   Ac3MgCd2Pd3
_chemical_formula_sum   'Ac3 Mg1 Cd2 Pd3'
_cell_volume   234.67870434
_cell_formula_units_Z   1
loop_
 _symmetry_equiv_pos_site_id
 _symmetry_equiv_pos_as_xyz
  1  'x, y, z'
loop_
 _atom_site_type_symbol
 _atom_site_label
 _atom_site_symmetry_multiplicity
 _atom_site_fract_x
 _atom_site_fract_y
 _atom_site_fract_z
 _atom_site_occupancy
  Ac  Ac0  1  0.413018  0.995108  0.500000  1
  Ac  Ac1  1  0.995108  0.413018  0.500000  1
  Ac  Ac2  1  0.593854  0.593854  0.500000  1
  Mg  Mg3  1  0.232721  0.232721  0.000000  1
  Cd  Cd4  1  0.761943  0.000920  0.000000  1
  Cd  Cd5  1  0.000920  0.761943  0.000000  1
  Pd  Pd6  1  0.331492  0.656733  0.000000  1
  Pd  Pd7  1  0.656733  0.331492  0.000000  1
  Pd  Pd8  1  0.014213  0.014213  0.500000  1
