# generated using pymatgen
data_Y8Er7Lu5Pt16
_symmetry_space_group_name_H-M   'P 1'
_cell_length_a   7.42013200
_cell_length_b   7.50546937
_cell_length_c   14.58803900
_cell_angle_alpha   89.98280089
_cell_angle_beta   89.99892669
_cell_angle_gamma   90.00512200
_symmetry_Int_Tables_number   1
_chemical_formula_structural   Y8Er7Lu5Pt16
_chemical_formula_sum   'Y8 Er7 Lu5 Pt16'
_cell_volume   812.43080537
_cell_formula_units_Z   1
loop_
 _symmetry_equiv_pos_site_id
 _symmetry_equiv_pos_as_xyz
  1  'x, y, z'
loop_
 _atom_site_type_symbol
 _atom_site_label
 _atom_site_symmetry_multiplicity
 _atom_site_fract_x
 _atom_site_fract_y
 _atom_site_fract_z
 _atom_site_occupancy
  Y  Y0  1  0.499255  0.679429  0.593667  1
  Y  Y1  1  0.999631  0.819646  0.906122  1
  Y  Y2  1  0.500496  0.319694  0.093606  1
  Y  Y3  1  0.000757  0.180223  0.406944  1
  Y  Y4  1  0.500431  0.319901  0.406473  1
  Y  Y5  1  0.000466  0.180307  0.093576  1
  Y  Y6  1  0.499617  0.680226  0.906069  1
  Y  Y7  1  0.999621  0.819814  0.593623  1
  Er  Er8  1  0.654775  0.166543  0.623180  1
  Er  Er9  1  0.154702  0.333558  0.876227  1
  Er  Er10  1  0.345250  0.833536  0.123544  1
  Er  Er11  1  0.845453  0.666275  0.376845  1
  Er  Er12  1  0.344986  0.833204  0.376968  1
  Er  Er13  1  0.845265  0.666504  0.123485  1
  Er  Er14  1  0.654769  0.166498  0.876175  1
  Lu  Lu15  1  0.154576  0.333465  0.623860  1
  Lu  Lu16  1  0.818401  0.509486  0.749529  1
  Lu  Lu17  1  0.317851  0.990387  0.749551  1
  Lu  Lu18  1  0.181934  0.490023  0.250098  1
  Lu  Lu19  1  0.681931  0.009755  0.250203  1
  Pt  Pt20  1  0.682264  0.966180  0.457999  1
  Pt  Pt21  1  0.183017  0.533552  0.042300  1
  Pt  Pt22  1  0.317006  0.033610  0.957662  1
  Pt  Pt23  1  0.818829  0.465997  0.542662  1
  Pt  Pt24  1  0.315433  0.036127  0.542446  1
  Pt  Pt25  1  0.816714  0.466661  0.957626  1
  Pt  Pt26  1  0.682957  0.966561  0.042168  1
  Pt  Pt27  1  0.183498  0.532932  0.459261  1
  Pt  Pt28  1  0.450636  0.385126  0.749070  1
  Pt  Pt29  1  0.952202  0.115352  0.749225  1
  Pt  Pt30  1  0.548413  0.613913  0.250318  1
  Pt  Pt31  1  0.048397  0.885860  0.250323  1
  Pt  Pt32  1  0.684528  0.858489  0.749566  1
  Pt  Pt33  1  0.183514  0.641192  0.748995  1
  Pt  Pt34  1  0.316258  0.141869  0.250385  1
  Pt  Pt35  1  0.816168  0.358100  0.250249  1
