# generated using pymatgen
data_Ac5Er5Sn8
_symmetry_space_group_name_H-M   'P 1'
_cell_length_a   8.39188800
_cell_length_b   8.49492875
_cell_length_c   16.22271673
_cell_angle_alpha   90.15461211
_cell_angle_beta   90.00000000
_cell_angle_gamma   90.00000000
_symmetry_Int_Tables_number   1
_chemical_formula_structural   Ac5Er5Sn8
_chemical_formula_sum   'Ac10 Er10 Sn16'
_cell_volume   1156.48877922
_cell_formula_units_Z   2
loop_
 _symmetry_equiv_pos_site_id
 _symmetry_equiv_pos_as_xyz
  1  'x, y, z'
loop_
 _atom_site_type_symbol
 _atom_site_label
 _atom_site_symmetry_multiplicity
 _atom_site_fract_x
 _atom_site_fract_y
 _atom_site_fract_z
 _atom_site_occupancy
  Ac  Ac0  1  0.366623  0.838955  0.614569  1
  Ac  Ac1  1  0.866623  0.661045  0.885431  1
  Ac  Ac2  1  0.521971  0.320700  0.905064  1
  Ac  Ac3  1  0.021971  0.179300  0.594936  1
  Ac  Ac4  1  0.480878  0.678277  0.399863  1
  Ac  Ac5  1  0.980878  0.821723  0.100137  1
  Ac  Ac6  1  0.481285  0.677124  0.099174  1
  Ac  Ac7  1  0.981285  0.822876  0.400826  1
  Ac  Ac8  1  0.518407  0.319712  0.594652  1
  Ac  Ac9  1  0.018407  0.180288  0.905348  1
  Er  Er10  1  0.361635  0.839711  0.876839  1
  Er  Er11  1  0.861635  0.660289  0.623161  1
  Er  Er12  1  0.637714  0.157548  0.376954  1
  Er  Er13  1  0.137714  0.342452  0.123046  1
  Er  Er14  1  0.632151  0.159603  0.128002  1
  Er  Er15  1  0.132151  0.340397  0.371998  1
  Er  Er16  1  0.198416  0.505083  0.750232  1
  Er  Er17  1  0.698416  0.994917  0.749768  1
  Er  Er18  1  0.800930  0.492287  0.251058  1
  Er  Er19  1  0.300930  0.007713  0.248942  1
  Sn  Sn20  1  0.303359  0.043635  0.044865  1
  Sn  Sn21  1  0.803359  0.456365  0.455135  1
  Sn  Sn22  1  0.715140  0.959706  0.542275  1
  Sn  Sn23  1  0.215140  0.540294  0.957725  1
  Sn  Sn24  1  0.683162  0.967503  0.960844  1
  Sn  Sn25  1  0.183162  0.532497  0.539156  1
  Sn  Sn26  1  0.301106  0.053928  0.446190  1
  Sn  Sn27  1  0.801106  0.446072  0.053810  1
  Sn  Sn28  1  0.562205  0.624103  0.749810  1
  Sn  Sn29  1  0.062205  0.875897  0.750190  1
  Sn  Sn30  1  0.436868  0.366867  0.250719  1
  Sn  Sn31  1  0.936868  0.133133  0.249281  1
  Sn  Sn32  1  0.325130  0.144051  0.752526  1
  Sn  Sn33  1  0.825130  0.355949  0.747474  1
  Sn  Sn34  1  0.673020  0.864330  0.250231  1
  Sn  Sn35  1  0.173020  0.635670  0.249769  1
