# generated using pymatgen
data_Na3Yb2TaO6
_symmetry_space_group_name_H-M   'P 1'
_cell_length_a   10.89641908
_cell_length_b   10.35084104
_cell_length_c   5.77682372
_cell_angle_alpha   79.50677451
_cell_angle_beta   69.07428660
_cell_angle_gamma   31.41894793
_symmetry_Int_Tables_number   1
_chemical_formula_structural   Na3Yb2TaO6
_chemical_formula_sum   'Na6 Yb4 Ta2 O12'
_cell_volume   307.01330328
_cell_formula_units_Z   2
loop_
 _symmetry_equiv_pos_site_id
 _symmetry_equiv_pos_as_xyz
  1  'x, y, z'
loop_
 _atom_site_type_symbol
 _atom_site_label
 _atom_site_symmetry_multiplicity
 _atom_site_fract_x
 _atom_site_fract_y
 _atom_site_fract_z
 _atom_site_occupancy
  Na  Na0  1  0.000000  0.000000  0.000000  1
  Na  Na1  1  0.086821  0.086821  0.413179  1
  Na  Na2  1  0.836821  0.836821  0.163179  1
  Na  Na3  1  0.163179  0.163179  0.836821  1
  Na  Na4  1  0.250000  0.250000  0.250000  1
  Na  Na5  1  0.413179  0.413179  0.086821  1
  Yb  Yb6  1  0.580682  0.580682  0.919318  1
  Yb  Yb7  1  0.919318  0.919318  0.580682  1
  Yb  Yb8  1  0.669318  0.669318  0.330682  1
  Yb  Yb9  1  0.330682  0.330682  0.669318  1
  Ta  Ta10  1  0.750000  0.750000  0.750000  1
  Ta  Ta11  1  0.500000  0.500000  0.500000  1
  O  O12  1  0.286398  0.713602  0.286398  1
  O  O13  1  0.713602  0.286398  0.713602  1
  O  O14  1  0.963602  0.536398  0.963602  1
  O  O15  1  0.536398  0.963602  0.536398  1
  O  O16  1  0.204804  0.646252  0.783409  1
  O  O17  1  0.365535  0.783409  0.646252  1
  O  O18  1  0.783409  0.365535  0.204804  1
  O  O19  1  0.646252  0.204804  0.365535  1
  O  O20  1  0.603748  0.045196  0.884465  1
  O  O21  1  0.884465  0.466591  0.603748  1
  O  O22  1  0.466591  0.884465  0.045196  1
  O  O23  1  0.045196  0.603748  0.466591  1
