# generated using pymatgen
data_Tb8Al2RuRh
_symmetry_space_group_name_H-M   'P 1'
_cell_length_a   9.58948532
_cell_length_b   9.61012477
_cell_length_c   9.58948593
_cell_angle_alpha   59.70254520
_cell_angle_beta   59.60842036
_cell_angle_gamma   59.70253172
_symmetry_Int_Tables_number   1
_chemical_formula_structural   Tb8Al2RuRh
_chemical_formula_sum   'Tb16 Al4 Ru2 Rh2'
_cell_volume   620.22201024
_cell_formula_units_Z   2
loop_
 _symmetry_equiv_pos_site_id
 _symmetry_equiv_pos_as_xyz
  1  'x, y, z'
loop_
 _atom_site_type_symbol
 _atom_site_label
 _atom_site_symmetry_multiplicity
 _atom_site_fract_x
 _atom_site_fract_y
 _atom_site_fract_z
 _atom_site_occupancy
  Tb  Tb0  1  0.806837  0.806337  0.192900  1
  Tb  Tb1  1  0.806761  0.194435  0.806761  1
  Tb  Tb2  1  0.192450  0.195648  0.808395  1
  Tb  Tb3  1  0.647972  0.054949  0.647972  1
  Tb  Tb4  1  0.061739  0.060987  0.440140  1
  Tb  Tb5  1  0.439139  0.435359  0.063623  1
  Tb  Tb6  1  0.649306  0.648171  0.649306  1
  Tb  Tb7  1  0.808396  0.195648  0.192450  1
  Tb  Tb8  1  0.192900  0.806337  0.806837  1
  Tb  Tb9  1  0.053667  0.648121  0.648679  1
  Tb  Tb10  1  0.440140  0.060986  0.061739  1
  Tb  Tb11  1  0.436101  0.063997  0.436101  1
  Tb  Tb12  1  0.060052  0.439455  0.060053  1
  Tb  Tb13  1  0.648679  0.648121  0.053667  1
  Tb  Tb14  1  0.194803  0.806997  0.194803  1
  Tb  Tb15  1  0.063623  0.435359  0.439139  1
  Al  Al16  1  0.423600  0.423372  0.423600  1
  Al  Al17  1  0.423586  0.423104  0.730774  1
  Al  Al18  1  0.423893  0.729895  0.423893  1
  Al  Al19  1  0.730774  0.423104  0.423586  1
  Ru  Ru20  1  0.857189  0.422539  0.857189  1
  Ru  Ru21  1  0.858245  0.860804  0.858247  1
  Rh  Rh22  1  0.857097  0.858140  0.423048  1
  Rh  Rh23  1  0.423048  0.858140  0.857096  1
