# generated using pymatgen
data_Dy5FeRuO12
_symmetry_space_group_name_H-M   'P 1'
_cell_length_a   6.81926192
_cell_length_b   6.81925965
_cell_length_c   7.29053907
_cell_angle_alpha   74.41663336
_cell_angle_beta   74.41664066
_cell_angle_gamma   51.15555730
_symmetry_Int_Tables_number   1
_chemical_formula_structural   Dy5FeRuO12
_chemical_formula_sum   'Dy5 Fe1 Ru1 O12'
_cell_volume   252.06900480
_cell_formula_units_Z   1
loop_
 _symmetry_equiv_pos_site_id
 _symmetry_equiv_pos_as_xyz
  1  'x, y, z'
loop_
 _atom_site_type_symbol
 _atom_site_label
 _atom_site_symmetry_multiplicity
 _atom_site_fract_x
 _atom_site_fract_y
 _atom_site_fract_z
 _atom_site_occupancy
  Dy  Dy0  1  0.691506  0.691557  0.669708  1
  Dy  Dy1  1  0.693121  0.700594  0.140350  1
  Dy  Dy2  1  0.997580  0.002420  0.000000  1
  Dy  Dy3  1  0.299406  0.306879  0.859650  1
  Dy  Dy4  1  0.308443  0.308494  0.330292  1
  Fe  Fe5  1  0.249046  0.750954  0.500000  1
  Ru  Ru6  1  0.759724  0.240276  0.500000  1
  O  O7  1  0.400705  0.905033  0.924966  1
  O  O8  1  0.572658  0.096912  0.582357  1
  O  O9  1  0.903088  0.427342  0.417643  1
  O  O10  1  0.094967  0.599295  0.075034  1
  O  O11  1  0.994055  0.006753  0.315480  1
  O  O12  1  0.510052  0.489689  0.687494  1
  O  O13  1  0.901805  0.405247  0.924668  1
  O  O14  1  0.101650  0.576117  0.580674  1
  O  O15  1  0.423883  0.898350  0.419326  1
  O  O16  1  0.594753  0.098195  0.075332  1
  O  O17  1  0.510311  0.489948  0.312506  1
  O  O18  1  0.993247  0.005945  0.684520  1
