# generated using pymatgen
data_TbDyEr3Ru2
_symmetry_space_group_name_H-M   'P 1'
_cell_length_a   6.32023844
_cell_length_b   7.25354479
_cell_length_c   8.43520121
_cell_angle_alpha   96.73927931
_cell_angle_beta   112.00173132
_cell_angle_gamma   90.00000044
_symmetry_Int_Tables_number   1
_chemical_formula_structural   TbDyEr3Ru2
_chemical_formula_sum   'Tb2 Dy2 Er6 Ru4'
_cell_volume   355.65829863
_cell_formula_units_Z   2
loop_
 _symmetry_equiv_pos_site_id
 _symmetry_equiv_pos_as_xyz
  1  'x, y, z'
loop_
 _atom_site_type_symbol
 _atom_site_label
 _atom_site_symmetry_multiplicity
 _atom_site_fract_x
 _atom_site_fract_y
 _atom_site_fract_z
 _atom_site_occupancy
  Tb  Tb0  1  0.790048  0.583714  0.812286  1
  Tb  Tb1  1  0.977762  0.916286  0.187714  1
  Dy  Dy2  1  0.209943  0.416124  0.187549  1
  Dy  Dy3  1  0.022394  0.083876  0.812451  1
  Er  Er4  1  0.205388  0.684567  0.565658  1
  Er  Er5  1  0.639730  0.815433  0.434342  1
  Er  Er6  1  0.794289  0.315023  0.434244  1
  Er  Er7  1  0.360044  0.184977  0.565756  1
  Er  Er8  1  0.420019  0.750000  0.000000  1
  Er  Er9  1  0.579765  0.250000  0.000000  1
  Ru  Ru10  1  0.601245  0.924423  0.778709  1
  Ru  Ru11  1  0.822535  0.575577  0.221291  1
  Ru  Ru12  1  0.398945  0.075986  0.221054  1
  Ru  Ru13  1  0.177892  0.424014  0.778946  1
