# generated using pymatgen
data_TmPa3Co12(NiB3)2
_symmetry_space_group_name_H-M   'P 1'
_cell_length_a   4.93481000
_cell_length_b   4.93480929
_cell_length_c   13.07308900
_cell_angle_alpha   90.00000000
_cell_angle_beta   90.00000000
_cell_angle_gamma   120.00000478
_symmetry_Int_Tables_number   1
_chemical_formula_structural   TmPa3Co12(NiB3)2
_chemical_formula_sum   'Tm1 Pa3 Co12 Ni2 B6'
_cell_volume   275.70817158
_cell_formula_units_Z   1
loop_
 _symmetry_equiv_pos_site_id
 _symmetry_equiv_pos_as_xyz
  1  'x, y, z'
loop_
 _atom_site_type_symbol
 _atom_site_label
 _atom_site_symmetry_multiplicity
 _atom_site_fract_x
 _atom_site_fract_y
 _atom_site_fract_z
 _atom_site_occupancy
  Tm  Tm0  1  0.000000  0.000000  0.500000  1
  Pa  Pa1  1  0.000000  0.000000  0.000000  1
  Pa  Pa2  1  0.000000  0.000000  0.741907  1
  Pa  Pa3  1  0.000000  0.000000  0.258093  1
  Co  Co4  1  0.500000  0.500000  0.844660  1
  Co  Co5  1  0.500000  0.000000  0.844660  1
  Co  Co6  1  0.000000  0.500000  0.844660  1
  Co  Co7  1  0.500000  0.500000  0.155340  1
  Co  Co8  1  0.500000  0.000000  0.155340  1
  Co  Co9  1  0.000000  0.500000  0.155340  1
  Co  Co10  1  0.500000  0.500000  0.616521  1
  Co  Co11  1  0.500000  0.000000  0.616521  1
  Co  Co12  1  0.000000  0.500000  0.616521  1
  Co  Co13  1  0.500000  0.500000  0.383479  1
  Co  Co14  1  0.500000  0.000000  0.383479  1
  Co  Co15  1  0.000000  0.500000  0.383479  1
  Ni  Ni16  1  0.666667  0.333333  0.000000  1
  Ni  Ni17  1  0.333333  0.666667  0.000000  1
  B  B18  1  0.666667  0.333333  0.500000  1
  B  B19  1  0.333333  0.666667  0.500000  1
  B  B20  1  0.666667  0.333333  0.732342  1
  B  B21  1  0.333333  0.666667  0.732342  1
  B  B22  1  0.333333  0.666667  0.267658  1
  B  B23  1  0.666667  0.333333  0.267658  1
