# generated using pymatgen
data_Nd2YHo(ReB6)2
_symmetry_space_group_name_H-M   'P 1'
_cell_length_a   3.73128800
_cell_length_b   9.25561505
_cell_length_c   11.71272306
_cell_angle_alpha   90.01206097
_cell_angle_beta   90.00000000
_cell_angle_gamma   90.00000000
_symmetry_Int_Tables_number   1
_chemical_formula_structural   Nd2YHo(ReB6)2
_chemical_formula_sum   'Nd4 Y2 Ho2 Re4 B24'
_cell_volume   404.50316160
_cell_formula_units_Z   2
loop_
 _symmetry_equiv_pos_site_id
 _symmetry_equiv_pos_as_xyz
  1  'x, y, z'
loop_
 _atom_site_type_symbol
 _atom_site_label
 _atom_site_symmetry_multiplicity
 _atom_site_fract_x
 _atom_site_fract_y
 _atom_site_fract_z
 _atom_site_occupancy
  Nd  Nd0  1  0.000000  0.323104  0.414092  1
  Nd  Nd1  1  0.000000  0.676896  0.585908  1
  Nd  Nd2  1  0.000000  0.822797  0.085773  1
  Nd  Nd3  1  0.000000  0.177203  0.914227  1
  Y  Y4  1  0.000000  0.943008  0.369499  1
  Y  Y5  1  0.000000  0.056992  0.630501  1
  Ho  Ho6  1  0.000000  0.442994  0.130577  1
  Ho  Ho7  1  0.000000  0.557006  0.869423  1
  Re  Re8  1  0.000000  0.638997  0.319263  1
  Re  Re9  1  0.000000  0.361003  0.680737  1
  Re  Re10  1  0.000000  0.139839  0.180292  1
  Re  Re11  1  0.000000  0.860161  0.819708  1
  B  B12  1  0.500000  0.555067  0.430511  1
  B  B13  1  0.500000  0.444933  0.569489  1
  B  B14  1  0.500000  0.055106  0.069448  1
  B  B15  1  0.500000  0.944894  0.930552  1
  B  B16  1  0.500000  0.749437  0.416057  1
  B  B17  1  0.500000  0.250563  0.583943  1
  B  B18  1  0.500000  0.249841  0.083980  1
  B  B19  1  0.500000  0.750159  0.916020  1
  B  B20  1  0.500000  0.791089  0.266138  1
  B  B21  1  0.500000  0.208911  0.733862  1
  B  B22  1  0.500000  0.291500  0.233662  1
  B  B23  1  0.500000  0.708500  0.766338  1
  B  B24  1  0.500000  0.629708  0.186562  1
  B  B25  1  0.500000  0.370292  0.813438  1
  B  B26  1  0.500000  0.130114  0.313206  1
  B  B27  1  0.500000  0.869886  0.686794  1
  B  B28  1  0.500000  0.984215  0.212791  1
  B  B29  1  0.500000  0.015785  0.787209  1
  B  B30  1  0.500000  0.484064  0.286886  1
  B  B31  1  0.500000  0.515936  0.713114  1
  B  B32  1  0.500000  0.596327  0.026724  1
  B  B33  1  0.500000  0.403673  0.973276  1
  B  B34  1  0.500000  0.096843  0.473193  1
  B  B35  1  0.500000  0.903157  0.526807  1
