# generated using pymatgen
data_Y11HoCo4SnRh
_symmetry_space_group_name_H-M   'P 1'
_cell_length_a   8.33019120
_cell_length_b   8.33514475
_cell_length_c   8.33514463
_cell_angle_alpha   110.86462730
_cell_angle_beta   110.61534882
_cell_angle_gamma   106.98547788
_symmetry_Int_Tables_number   1
_chemical_formula_structural   Y11HoCo4SnRh
_chemical_formula_sum   'Y11 Ho1 Co4 Sn1 Rh1'
_cell_volume   444.75238193
_cell_formula_units_Z   1
loop_
 _symmetry_equiv_pos_site_id
 _symmetry_equiv_pos_as_xyz
  1  'x, y, z'
loop_
 _atom_site_type_symbol
 _atom_site_label
 _atom_site_symmetry_multiplicity
 _atom_site_fract_x
 _atom_site_fract_y
 _atom_site_fract_z
 _atom_site_occupancy
  Y  Y0  1  0.593137  0.788740  0.804398  1
  Y  Y1  1  0.016199  0.211529  0.804669  1
  Y  Y2  1  0.984385  0.788548  0.195839  1
  Y  Y3  1  0.186685  0.291629  0.477694  1
  Y  Y4  1  0.812851  0.707458  0.521134  1
  Y  Y5  1  0.186685  0.708991  0.895057  1
  Y  Y6  1  0.812851  0.291718  0.105393  1
  Y  Y7  1  0.313313  0.617801  0.305098  1
  Y  Y8  1  0.686433  0.381464  0.694175  1
  Y  Y9  1  0.313313  0.008214  0.695512  1
  Y  Y10  1  0.686433  0.992258  0.304969  1
  Ho  Ho11  1  0.405494  0.209545  0.195948  1
  Co  Co12  1  0.380343  0.000904  0.379439  1
  Co  Co13  1  0.619044  0.999883  0.619161  1
  Co  Co14  1  0.110711  0.610677  0.500034  1
  Co  Co15  1  0.889091  0.389226  0.499865  1
  Sn  Sn16  1  0.500122  0.499987  0.000136  1
  Rh  Rh17  1  0.002909  0.001428  0.001481  1
