# generated using pymatgen
data_TbErB6Ru
_symmetry_space_group_name_H-M   'P 1'
_cell_length_a   3.65372800
_cell_length_b   9.12749800
_cell_length_c   11.51502200
_cell_angle_alpha   90.00000000
_cell_angle_beta   90.00000000
_cell_angle_gamma   90.00000000
_symmetry_Int_Tables_number   1
_chemical_formula_structural   TbErB6Ru
_chemical_formula_sum   'Tb4 Er4 B24 Ru4'
_cell_volume   384.01901726
_cell_formula_units_Z   4
loop_
 _symmetry_equiv_pos_site_id
 _symmetry_equiv_pos_as_xyz
  1  'x, y, z'
loop_
 _atom_site_type_symbol
 _atom_site_label
 _atom_site_symmetry_multiplicity
 _atom_site_fract_x
 _atom_site_fract_y
 _atom_site_fract_z
 _atom_site_occupancy
  Tb  Tb0  1  0.000000  0.322789  0.414085  1
  Tb  Tb1  1  0.000000  0.677211  0.585915  1
  Tb  Tb2  1  0.000000  0.822789  0.085915  1
  Tb  Tb3  1  0.000000  0.177211  0.914085  1
  Er  Er4  1  0.000000  0.943971  0.372265  1
  Er  Er5  1  0.000000  0.056029  0.627735  1
  Er  Er6  1  0.000000  0.443971  0.127735  1
  Er  Er7  1  0.000000  0.556029  0.872265  1
  B  B8  1  0.500000  0.554655  0.432555  1
  B  B9  1  0.500000  0.445345  0.567445  1
  B  B10  1  0.500000  0.054655  0.067445  1
  B  B11  1  0.500000  0.945345  0.932555  1
  B  B12  1  0.500000  0.748970  0.419292  1
  B  B13  1  0.500000  0.251030  0.580708  1
  B  B14  1  0.500000  0.248970  0.080708  1
  B  B15  1  0.500000  0.751030  0.919292  1
  B  B16  1  0.500000  0.791582  0.266241  1
  B  B17  1  0.500000  0.208418  0.733759  1
  B  B18  1  0.500000  0.291582  0.233759  1
  B  B19  1  0.500000  0.708418  0.766241  1
  B  B20  1  0.500000  0.631741  0.184921  1
  B  B21  1  0.500000  0.368259  0.815079  1
  B  B22  1  0.500000  0.131741  0.315079  1
  B  B23  1  0.500000  0.868259  0.684921  1
  B  B24  1  0.500000  0.984071  0.213284  1
  B  B25  1  0.500000  0.015929  0.786716  1
  B  B26  1  0.500000  0.484071  0.286716  1
  B  B27  1  0.500000  0.515929  0.713284  1
  B  B28  1  0.500000  0.605883  0.029157  1
  B  B29  1  0.500000  0.394117  0.970843  1
  B  B30  1  0.500000  0.105883  0.470843  1
  B  B31  1  0.500000  0.894117  0.529157  1
  Ru  Ru32  1  0.000000  0.638491  0.320545  1
  Ru  Ru33  1  0.000000  0.361509  0.679455  1
  Ru  Ru34  1  0.000000  0.138491  0.179455  1
  Ru  Ru35  1  0.000000  0.861509  0.820545  1
