# generated using pymatgen
data_NaSm2Si4(AsPd10)2
_symmetry_space_group_name_H-M   'P 1'
_cell_length_a   8.72807397
_cell_length_b   8.79868669
_cell_length_c   8.79868705
_cell_angle_alpha   59.46976089
_cell_angle_beta   60.26512101
_cell_angle_gamma   60.26511809
_symmetry_Int_Tables_number   1
_chemical_formula_structural   NaSm2Si4(AsPd10)2
_chemical_formula_sum   'Na1 Sm2 Si4 As2 Pd20'
_cell_volume   477.73124313
_cell_formula_units_Z   1
loop_
 _symmetry_equiv_pos_site_id
 _symmetry_equiv_pos_as_xyz
  1  'x, y, z'
loop_
 _atom_site_type_symbol
 _atom_site_label
 _atom_site_symmetry_multiplicity
 _atom_site_fract_x
 _atom_site_fract_y
 _atom_site_fract_z
 _atom_site_occupancy
  Na  Na0  1  0.000000  0.000000  0.000000  1
  Sm  Sm1  1  0.250000  0.250000  0.250000  1
  Sm  Sm2  1  0.750000  0.750000  0.750000  1
  Si  Si3  1  0.264573  0.735427  0.264573  1
  Si  Si4  1  0.735427  0.264573  0.735427  1
  Si  Si5  1  0.264573  0.264573  0.735427  1
  Si  Si6  1  0.735427  0.735427  0.264573  1
  As  As7  1  0.738067  0.261933  0.261933  1
  As  As8  1  0.261933  0.738067  0.738067  1
  Pd  Pd9  1  0.380771  0.386847  0.386847  1
  Pd  Pd10  1  0.619229  0.613153  0.613153  1
  Pd  Pd11  1  0.386847  0.380771  0.845535  1
  Pd  Pd12  1  0.386847  0.845535  0.380771  1
  Pd  Pd13  1  0.613153  0.619229  0.154465  1
  Pd  Pd14  1  0.613153  0.154465  0.619229  1
  Pd  Pd15  1  0.845535  0.386847  0.386847  1
  Pd  Pd16  1  0.154465  0.613153  0.613153  1
  Pd  Pd17  1  0.346875  0.000000  0.000000  1
  Pd  Pd18  1  0.653125  0.000000  0.000000  1
  Pd  Pd19  1  0.000000  0.346875  0.653125  1
  Pd  Pd20  1  0.000000  0.653125  0.346875  1
  Pd  Pd21  1  0.007617  0.347685  0.992383  1
  Pd  Pd22  1  0.652315  0.992383  0.347685  1
  Pd  Pd23  1  0.992383  0.652315  0.007617  1
  Pd  Pd24  1  0.347685  0.007617  0.652315  1
  Pd  Pd25  1  0.007617  0.992383  0.347685  1
  Pd  Pd26  1  0.992383  0.007617  0.652315  1
  Pd  Pd27  1  0.652315  0.347685  0.992383  1
  Pd  Pd28  1  0.347685  0.652315  0.007617  1
