# generated using pymatgen
data_Y3Er2TmFeBi2
_symmetry_space_group_name_H-M   'P 1'
_cell_length_a   8.29372901
_cell_length_b   8.29372999
_cell_length_c   4.19670000
_cell_angle_alpha   90.00000000
_cell_angle_beta   90.00000000
_cell_angle_gamma   119.99460266
_symmetry_Int_Tables_number   1
_chemical_formula_structural   Y3Er2TmFeBi2
_chemical_formula_sum   'Y3 Er2 Tm1 Fe1 Bi2'
_cell_volume   250.01260645
_cell_formula_units_Z   1
loop_
 _symmetry_equiv_pos_site_id
 _symmetry_equiv_pos_as_xyz
  1  'x, y, z'
loop_
 _atom_site_type_symbol
 _atom_site_label
 _atom_site_symmetry_multiplicity
 _atom_site_fract_x
 _atom_site_fract_y
 _atom_site_fract_z
 _atom_site_occupancy
  Y  Y0  1  0.608873  0.999910  0.000000  1
  Y  Y1  1  0.999910  0.608873  0.000000  1
  Y  Y2  1  0.391266  0.391266  0.000000  1
  Er  Er3  1  0.229182  0.999967  0.500000  1
  Er  Er4  1  0.999967  0.229182  0.500000  1
  Tm  Tm5  1  0.770915  0.770915  0.500000  1
  Fe  Fe6  1  0.999724  0.999724  0.000000  1
  Bi  Bi7  1  0.333479  0.666684  0.500000  1
  Bi  Bi8  1  0.666684  0.333479  0.500000  1
