# generated using pymatgen
data_Tb8Os3RuC8
_symmetry_space_group_name_H-M   'P 1'
_cell_length_a   5.16369400
_cell_length_b   6.45984707
_cell_length_c   9.83376487
_cell_angle_alpha   89.92337660
_cell_angle_beta   90.00000000
_cell_angle_gamma   90.00000000
_symmetry_Int_Tables_number   1
_chemical_formula_structural   Tb8Os3RuC8
_chemical_formula_sum   'Tb8 Os3 Ru1 C8'
_cell_volume   328.02139131
_cell_formula_units_Z   1
loop_
 _symmetry_equiv_pos_site_id
 _symmetry_equiv_pos_as_xyz
  1  'x, y, z'
loop_
 _atom_site_type_symbol
 _atom_site_label
 _atom_site_symmetry_multiplicity
 _atom_site_fract_x
 _atom_site_fract_y
 _atom_site_fract_z
 _atom_site_occupancy
  Tb  Tb0  1  0.750000  0.817999  0.051752  1
  Tb  Tb1  1  0.250000  0.684875  0.551692  1
  Tb  Tb2  1  0.750000  0.314842  0.447619  1
  Tb  Tb3  1  0.250000  0.183907  0.947450  1
  Tb  Tb4  1  0.750000  0.474860  0.782136  1
  Tb  Tb5  1  0.250000  0.024277  0.281549  1
  Tb  Tb6  1  0.750000  0.975466  0.719223  1
  Tb  Tb7  1  0.250000  0.524518  0.217949  1
  Os  Os8  1  0.250000  0.224961  0.635161  1
  Os  Os9  1  0.750000  0.775875  0.364468  1
  Os  Os10  1  0.250000  0.724193  0.864482  1
  Ru  Ru11  1  0.750000  0.276285  0.135288  1
  C  C12  1  0.750000  0.174736  0.948002  1
  C  C13  1  0.250000  0.823056  0.051376  1
  C  C14  1  0.750000  0.676587  0.551627  1
  C  C15  1  0.250000  0.322736  0.448287  1
  C  C16  1  0.750000  0.038649  0.258529  1
  C  C17  1  0.250000  0.460984  0.757251  1
  C  C18  1  0.750000  0.540611  0.244105  1
  C  C19  1  0.250000  0.960580  0.742051  1
