# generated using pymatgen
data_Ca2Nd3Sb3C
_symmetry_space_group_name_H-M   'P 1'
_cell_length_a   9.20187700
_cell_length_b   9.20187704
_cell_length_c   6.71160100
_cell_angle_alpha   90.00000000
_cell_angle_beta   90.00000000
_cell_angle_gamma   120.00000346
_symmetry_Int_Tables_number   1
_chemical_formula_structural   Ca2Nd3Sb3C
_chemical_formula_sum   'Ca4 Nd6 Sb6 C2'
_cell_volume   492.16371967
_cell_formula_units_Z   2
loop_
 _symmetry_equiv_pos_site_id
 _symmetry_equiv_pos_as_xyz
  1  'x, y, z'
loop_
 _atom_site_type_symbol
 _atom_site_label
 _atom_site_symmetry_multiplicity
 _atom_site_fract_x
 _atom_site_fract_y
 _atom_site_fract_z
 _atom_site_occupancy
  Ca  Ca0  1  0.666667  0.333333  0.500000  1
  Ca  Ca1  1  0.333333  0.666667  0.500000  1
  Ca  Ca2  1  0.333333  0.666667  0.000000  1
  Ca  Ca3  1  0.666667  0.333333  0.000000  1
  Nd  Nd4  1  0.782726  0.782726  0.250000  1
  Nd  Nd5  1  0.217274  0.000000  0.250000  1
  Nd  Nd6  1  0.000000  0.217274  0.250000  1
  Nd  Nd7  1  0.217274  0.217274  0.750000  1
  Nd  Nd8  1  0.782726  0.000000  0.750000  1
  Nd  Nd9  1  0.000000  0.782726  0.750000  1
  Sb  Sb10  1  0.404311  0.404311  0.250000  1
  Sb  Sb11  1  0.595689  0.000000  0.250000  1
  Sb  Sb12  1  0.000000  0.595689  0.250000  1
  Sb  Sb13  1  0.595689  0.595689  0.750000  1
  Sb  Sb14  1  0.404311  0.000000  0.750000  1
  Sb  Sb15  1  0.000000  0.404311  0.750000  1
  C  C16  1  0.000000  0.000000  0.500000  1
  C  C17  1  0.000000  0.000000  0.000000  1
