# generated using pymatgen
data_CaTb(ZnRh)2
_symmetry_space_group_name_H-M   'P 1'
_cell_length_a   4.16261300
_cell_length_b   7.02205021
_cell_length_c   7.99367659
_cell_angle_alpha   90.22427246
_cell_angle_beta   90.00000000
_cell_angle_gamma   90.00000000
_symmetry_Int_Tables_number   1
_chemical_formula_structural   CaTb(ZnRh)2
_chemical_formula_sum   'Ca2 Tb2 Zn4 Rh4'
_cell_volume   233.65399598
_cell_formula_units_Z   2
loop_
 _symmetry_equiv_pos_site_id
 _symmetry_equiv_pos_as_xyz
  1  'x, y, z'
loop_
 _atom_site_type_symbol
 _atom_site_label
 _atom_site_symmetry_multiplicity
 _atom_site_fract_x
 _atom_site_fract_y
 _atom_site_fract_z
 _atom_site_occupancy
  Ca  Ca0  1  0.250000  0.527868  0.182048  1
  Ca  Ca1  1  0.750000  0.472132  0.817952  1
  Tb  Tb2  1  0.250000  0.028533  0.316925  1
  Tb  Tb3  1  0.750000  0.971467  0.683075  1
  Zn  Zn4  1  0.250000  0.148965  0.934859  1
  Zn  Zn5  1  0.750000  0.851035  0.065141  1
  Zn  Zn6  1  0.250000  0.642365  0.565997  1
  Zn  Zn7  1  0.750000  0.357635  0.434003  1
  Rh  Rh8  1  0.750000  0.739198  0.383952  1
  Rh  Rh9  1  0.250000  0.260802  0.616048  1
  Rh  Rh10  1  0.750000  0.218192  0.127246  1
  Rh  Rh11  1  0.250000  0.781808  0.872754  1
