# generated using pymatgen
data_Sr2Cr3Co9P7
_symmetry_space_group_name_H-M   'P 1'
_cell_length_a   9.10762000
_cell_length_b   9.10762062
_cell_length_c   3.67525700
_cell_angle_alpha   90.00000000
_cell_angle_beta   90.00000000
_cell_angle_gamma   119.99999776
_symmetry_Int_Tables_number   1
_chemical_formula_structural   Sr2Cr3Co9P7
_chemical_formula_sum   'Sr2 Cr3 Co9 P7'
_cell_volume   264.01474867
_cell_formula_units_Z   1
loop_
 _symmetry_equiv_pos_site_id
 _symmetry_equiv_pos_as_xyz
  1  'x, y, z'
loop_
 _atom_site_type_symbol
 _atom_site_label
 _atom_site_symmetry_multiplicity
 _atom_site_fract_x
 _atom_site_fract_y
 _atom_site_fract_z
 _atom_site_occupancy
  Sr  Sr0  1  0.333333  0.666667  0.000000  1
  Sr  Sr1  1  0.666667  0.333333  0.500000  1
  Cr  Cr2  1  0.210503  0.115638  0.500000  1
  Cr  Cr3  1  0.884362  0.094866  0.500000  1
  Cr  Cr4  1  0.905134  0.789497  0.500000  1
  Co  Co5  1  0.427610  0.370711  0.000000  1
  Co  Co6  1  0.629289  0.056898  0.000000  1
  Co  Co7  1  0.943102  0.572390  0.000000  1
  Co  Co8  1  0.152619  0.880857  0.000000  1
  Co  Co9  1  0.119143  0.271762  0.000000  1
  Co  Co10  1  0.728238  0.847381  0.000000  1
  Co  Co11  1  0.383038  0.953521  0.500000  1
  Co  Co12  1  0.046479  0.429518  0.500000  1
  Co  Co13  1  0.570482  0.616962  0.500000  1
  P  P14  1  0.403293  0.106705  0.000000  1
  P  P15  1  0.893295  0.296588  0.000000  1
  P  P16  1  0.703412  0.596707  0.000000  1
  P  P17  1  0.105081  0.709059  0.500000  1
  P  P18  1  0.290941  0.396023  0.500000  1
  P  P19  1  0.603977  0.894919  0.500000  1
  P  P20  1  0.000000  0.000000  0.000000  1
