# generated using pymatgen
data_Pr7Y12HoSn16
_symmetry_space_group_name_H-M   'P 1'
_cell_length_a   8.07807124
_cell_length_b   8.33701606
_cell_length_c   15.71809700
_cell_angle_alpha   90.01504381
_cell_angle_beta   90.08183623
_cell_angle_gamma   89.78484285
_symmetry_Int_Tables_number   1
_chemical_formula_structural   Pr7Y12HoSn16
_chemical_formula_sum   'Pr7 Y12 Ho1 Sn16'
_cell_volume   1058.55825178
_cell_formula_units_Z   1
loop_
 _symmetry_equiv_pos_site_id
 _symmetry_equiv_pos_as_xyz
  1  'x, y, z'
loop_
 _atom_site_type_symbol
 _atom_site_label
 _atom_site_symmetry_multiplicity
 _atom_site_fract_x
 _atom_site_fract_y
 _atom_site_fract_z
 _atom_site_occupancy
  Pr  Pr0  1  0.993632  0.821994  0.901870  1
  Pr  Pr1  1  0.505988  0.320931  0.096302  1
  Pr  Pr2  1  0.004149  0.177958  0.405188  1
  Pr  Pr3  1  0.507483  0.321826  0.404441  1
  Pr  Pr4  1  0.004892  0.177257  0.095755  1
  Pr  Pr5  1  0.494078  0.677450  0.903943  1
  Pr  Pr6  1  0.994222  0.821207  0.596509  1
  Y  Y7  1  0.651013  0.168302  0.625144  1
  Y  Y8  1  0.151976  0.334156  0.875380  1
  Y  Y9  1  0.349363  0.832507  0.124317  1
  Y  Y10  1  0.849627  0.666446  0.377498  1
  Y  Y11  1  0.350678  0.831658  0.376010  1
  Y  Y12  1  0.848617  0.667421  0.123538  1
  Y  Y13  1  0.651185  0.167148  0.874041  1
  Y  Y14  1  0.151136  0.335189  0.623158  1
  Y  Y15  1  0.490564  0.677947  0.597673  1
  Y  Y16  1  0.818078  0.501665  0.748868  1
  Y  Y17  1  0.319019  0.000849  0.749347  1
  Y  Y18  1  0.182399  0.499434  0.250468  1
  Ho  Ho19  1  0.682058  0.999654  0.250228  1
  Sn  Sn20  1  0.683458  0.958530  0.460869  1
  Sn  Sn21  1  0.186310  0.539392  0.041204  1
  Sn  Sn22  1  0.314335  0.039953  0.958826  1
  Sn  Sn23  1  0.806831  0.463856  0.542716  1
  Sn  Sn24  1  0.316717  0.037214  0.541769  1
  Sn  Sn25  1  0.814352  0.459478  0.958394  1
  Sn  Sn26  1  0.685170  0.959853  0.039738  1
  Sn  Sn27  1  0.191702  0.540955  0.459975  1
  Sn  Sn28  1  0.452641  0.381030  0.749586  1
  Sn  Sn29  1  0.954373  0.122903  0.749307  1
  Sn  Sn30  1  0.548661  0.620968  0.250078  1
  Sn  Sn31  1  0.046845  0.877174  0.250724  1
  Sn  Sn32  1  0.683676  0.855174  0.747824  1
  Sn  Sn33  1  0.188957  0.643146  0.748710  1
  Sn  Sn34  1  0.311859  0.141434  0.250368  1
  Sn  Sn35  1  0.813952  0.357940  0.250237  1
