# generated using pymatgen
data_TbDy4In2(NiHg)2
_symmetry_space_group_name_H-M   'P 1'
_cell_length_a   3.59689200
_cell_length_b   7.90174600
_cell_length_c   18.09732600
_cell_angle_alpha   90.00000000
_cell_angle_beta   90.00000000
_cell_angle_gamma   90.00000000
_symmetry_Int_Tables_number   1
_chemical_formula_structural   TbDy4In2(NiHg)2
_chemical_formula_sum   'Tb2 Dy8 In4 Ni4 Hg4'
_cell_volume   514.35725852
_cell_formula_units_Z   2
loop_
 _symmetry_equiv_pos_site_id
 _symmetry_equiv_pos_as_xyz
  1  'x, y, z'
loop_
 _atom_site_type_symbol
 _atom_site_label
 _atom_site_symmetry_multiplicity
 _atom_site_fract_x
 _atom_site_fract_y
 _atom_site_fract_z
 _atom_site_occupancy
  Tb  Tb0  1  0.000000  0.500000  0.500000  1
  Tb  Tb1  1  0.000000  0.000000  0.000000  1
  Dy  Dy2  1  0.000000  0.748434  0.281991  1
  Dy  Dy3  1  0.000000  0.251566  0.718009  1
  Dy  Dy4  1  0.000000  0.751566  0.781991  1
  Dy  Dy5  1  0.000000  0.248434  0.218009  1
  Dy  Dy6  1  0.000000  0.609706  0.088014  1
  Dy  Dy7  1  0.000000  0.390294  0.911986  1
  Dy  Dy8  1  0.000000  0.890294  0.588014  1
  Dy  Dy9  1  0.000000  0.109706  0.411986  1
  In  In10  1  0.500000  0.576063  0.653092  1
  In  In11  1  0.500000  0.423937  0.346908  1
  In  In12  1  0.500000  0.923937  0.153092  1
  In  In13  1  0.500000  0.076063  0.846908  1
  Ni  Ni14  1  0.500000  0.532801  0.197812  1
  Ni  Ni15  1  0.500000  0.467199  0.802188  1
  Ni  Ni16  1  0.500000  0.967199  0.697812  1
  Ni  Ni17  1  0.500000  0.032801  0.302188  1
  Hg  Hg18  1  0.500000  0.710056  0.930905  1
  Hg  Hg19  1  0.500000  0.289944  0.069095  1
  Hg  Hg20  1  0.500000  0.789944  0.430905  1
  Hg  Hg21  1  0.500000  0.210056  0.569095  1
