# generated using pymatgen
data_FeIr5O12
_symmetry_space_group_name_H-M   'P 1'
_cell_length_a   4.55724503
_cell_length_b   4.55724486
_cell_length_c   9.51156900
_cell_angle_alpha   90.00000000
_cell_angle_beta   90.00000000
_cell_angle_gamma   89.79384164
_symmetry_Int_Tables_number   1
_chemical_formula_structural   FeIr5O12
_chemical_formula_sum   'Fe1 Ir5 O12'
_cell_volume   197.53956579
_cell_formula_units_Z   1
loop_
 _symmetry_equiv_pos_site_id
 _symmetry_equiv_pos_as_xyz
  1  'x, y, z'
loop_
 _atom_site_type_symbol
 _atom_site_label
 _atom_site_symmetry_multiplicity
 _atom_site_fract_x
 _atom_site_fract_y
 _atom_site_fract_z
 _atom_site_occupancy
  Fe  Fe0  1  0.000000  0.000000  0.000000  1
  Ir  Ir1  1  0.000000  0.000000  0.331710  1
  Ir  Ir2  1  0.000000  0.000000  0.668290  1
  Ir  Ir3  1  0.500000  0.500000  0.500000  1
  Ir  Ir4  1  0.500000  0.500000  0.833666  1
  Ir  Ir5  1  0.500000  0.500000  0.166334  1
  O  O6  1  0.307553  0.307553  0.333362  1
  O  O7  1  0.307553  0.307553  0.666638  1
  O  O8  1  0.692447  0.692447  0.333362  1
  O  O9  1  0.692447  0.692447  0.666638  1
  O  O10  1  0.192271  0.807729  0.500000  1
  O  O11  1  0.194443  0.805557  0.833178  1
  O  O12  1  0.194443  0.805557  0.166822  1
  O  O13  1  0.311045  0.311045  0.000000  1
  O  O14  1  0.688955  0.688955  0.000000  1
  O  O15  1  0.805557  0.194443  0.166822  1
  O  O16  1  0.805557  0.194443  0.833178  1
  O  O17  1  0.807729  0.192271  0.500000  1
