# generated using pymatgen
data_Ac4SiS3
_symmetry_space_group_name_H-M   'P 1'
_cell_length_a   7.61218758
_cell_length_b   7.61218780
_cell_length_c   7.61218802
_cell_angle_alpha   131.94755160
_cell_angle_beta   131.94754957
_cell_angle_gamma   70.31188034
_symmetry_Int_Tables_number   1
_chemical_formula_structural   Ac4SiS3
_chemical_formula_sum   'Ac4 Si1 S3'
_cell_volume   239.13432983
_cell_formula_units_Z   1
loop_
 _symmetry_equiv_pos_site_id
 _symmetry_equiv_pos_as_xyz
  1  'x, y, z'
loop_
 _atom_site_type_symbol
 _atom_site_label
 _atom_site_symmetry_multiplicity
 _atom_site_fract_x
 _atom_site_fract_y
 _atom_site_fract_z
 _atom_site_occupancy
  Ac  Ac0  1  0.248464  0.248464  0.000000  1
  Ac  Ac1  1  0.751535  0.751535  0.000000  1
  Ac  Ac2  1  0.500000  0.000000  0.500000  1
  Ac  Ac3  1  0.000000  0.500000  0.500000  1
  Si  Si4  1  0.000000  0.000000  0.000000  1
  S  S5  1  0.500000  0.500000  0.000000  1
  S  S6  1  0.750001  0.250000  0.500000  1
  S  S7  1  0.250000  0.750001  0.500000  1
