# generated using pymatgen
data_Dy8Ho4InCo4Rh
_symmetry_space_group_name_H-M   'P 1'
_cell_length_a   8.28409131
_cell_length_b   8.28407708
_cell_length_c   8.28409101
_cell_angle_alpha   110.84441876
_cell_angle_beta   110.74095469
_cell_angle_gamma   106.85950919
_symmetry_Int_Tables_number   1
_chemical_formula_structural   Dy8Ho4InCo4Rh
_chemical_formula_sum   'Dy8 Ho4 In1 Co4 Rh1'
_cell_volume   436.95616499
_cell_formula_units_Z   1
loop_
 _symmetry_equiv_pos_site_id
 _symmetry_equiv_pos_as_xyz
  1  'x, y, z'
loop_
 _atom_site_type_symbol
 _atom_site_label
 _atom_site_symmetry_multiplicity
 _atom_site_fract_x
 _atom_site_fract_y
 _atom_site_fract_z
 _atom_site_occupancy
  Dy  Dy0  1  0.314075  0.619301  0.305225  1
  Dy  Dy1  1  0.685925  0.380699  0.694775  1
  Dy  Dy2  1  0.314073  0.008844  0.694772  1
  Dy  Dy3  1  0.685927  0.991156  0.305228  1
  Dy  Dy4  1  0.186489  0.291630  0.478119  1
  Dy  Dy5  1  0.813511  0.708370  0.521881  1
  Dy  Dy6  1  0.186490  0.708370  0.894860  1
  Dy  Dy7  1  0.813510  0.291630  0.105140  1
  Ho  Ho8  1  0.406434  0.212276  0.194164  1
  Ho  Ho9  1  0.593566  0.787724  0.805836  1
  Ho  Ho10  1  0.018112  0.212276  0.805843  1
  Ho  Ho11  1  0.981888  0.787724  0.194157  1
  In  In12  1  0.500000  0.500000  0.000000  1
  Co  Co13  1  0.112331  0.612327  0.499996  1
  Co  Co14  1  0.887669  0.387673  0.500004  1
  Co  Co15  1  0.379220  0.000000  0.379220  1
  Co  Co16  1  0.620780  0.000000  0.620780  1
  Rh  Rh17  1  0.000000  0.000000  0.000000  1
