# generated using pymatgen
data_Hf18Ta6FeCo2W
_symmetry_space_group_name_H-M   'P 1'
_cell_length_a   8.83098201
_cell_length_b   8.83098282
_cell_length_c   8.35840300
_cell_angle_alpha   90.00057838
_cell_angle_beta   89.99942014
_cell_angle_gamma   119.99596389
_symmetry_Int_Tables_number   1
_chemical_formula_structural   Hf18Ta6FeCo2W
_chemical_formula_sum   'Hf18 Ta6 Fe1 Co2 W1'
_cell_volume   564.53339760
_cell_formula_units_Z   1
loop_
 _symmetry_equiv_pos_site_id
 _symmetry_equiv_pos_as_xyz
  1  'x, y, z'
loop_
 _atom_site_type_symbol
 _atom_site_label
 _atom_site_symmetry_multiplicity
 _atom_site_fract_x
 _atom_site_fract_y
 _atom_site_fract_z
 _atom_site_occupancy
  Hf  Hf0  1  0.202766  0.797234  0.438425  1
  Hf  Hf1  1  0.202732  0.405517  0.438416  1
  Hf  Hf2  1  0.594483  0.797268  0.438416  1
  Hf  Hf3  1  0.797234  0.202766  0.561575  1
  Hf  Hf4  1  0.797268  0.594483  0.561584  1
  Hf  Hf5  1  0.405517  0.202732  0.561584  1
  Hf  Hf6  1  0.798209  0.201791  0.940646  1
  Hf  Hf7  1  0.798260  0.596440  0.940623  1
  Hf  Hf8  1  0.403560  0.201740  0.940623  1
  Hf  Hf9  1  0.201791  0.798209  0.059354  1
  Hf  Hf10  1  0.201740  0.403560  0.059377  1
  Hf  Hf11  1  0.596440  0.798260  0.059377  1
  Hf  Hf12  1  0.540603  0.459397  0.251543  1
  Hf  Hf13  1  0.540568  0.081167  0.251544  1
  Hf  Hf14  1  0.918833  0.459432  0.251544  1
  Hf  Hf15  1  0.459397  0.540603  0.748457  1
  Hf  Hf16  1  0.459432  0.918833  0.748456  1
  Hf  Hf17  1  0.081167  0.540568  0.748456  1
  Ta  Ta18  1  0.889192  0.110808  0.256391  1
  Ta  Ta19  1  0.889216  0.778419  0.256397  1
  Ta  Ta20  1  0.221581  0.110784  0.256397  1
  Ta  Ta21  1  0.110808  0.889192  0.743609  1
  Ta  Ta22  1  0.110784  0.221581  0.743603  1
  Ta  Ta23  1  0.778419  0.889216  0.743603  1
  Fe  Fe24  1  0.000000  0.000000  0.500000  1
  Co  Co25  1  0.333324  0.666676  0.250637  1
  Co  Co26  1  0.666676  0.333324  0.749363  1
  W  W27  1  0.000000  0.000000  0.000000  1
