# generated using pymatgen
data_Be(PH4)2
_symmetry_space_group_name_H-M   'P 1'
_cell_length_a   3.86654627
_cell_length_b   3.86937737
_cell_length_c   9.42221621
_cell_angle_alpha   92.14217309
_cell_angle_beta   89.29968258
_cell_angle_gamma   90.61372530
_symmetry_Int_Tables_number   1
_chemical_formula_structural   Be(PH4)2
_chemical_formula_sum   'Be1 P2 H8'
_cell_volume   140.85051513
_cell_formula_units_Z   1
loop_
 _symmetry_equiv_pos_site_id
 _symmetry_equiv_pos_as_xyz
  1  'x, y, z'
loop_
 _atom_site_type_symbol
 _atom_site_label
 _atom_site_symmetry_multiplicity
 _atom_site_fract_x
 _atom_site_fract_y
 _atom_site_fract_z
 _atom_site_occupancy
  Be  Be0  1  0.240143  0.015652  0.965297  1
  P  P1  1  0.736135  0.005851  0.078790  1
  P  P2  1  0.207766  0.504406  0.852315  1
  H  H3  1  0.211115  0.596675  0.383071  1
  H  H4  1  0.393440  0.496854  0.721171  1
  H  H5  1  0.876580  0.494069  0.789598  1
  H  H6  1  0.684791  0.978917  0.553473  1
  H  H7  1  0.724361  0.698469  0.155739  1
  H  H8  1  0.206529  0.407921  0.361338  1
  H  H9  1  0.867827  0.019069  0.574329  1
  H  H10  1  0.735448  0.234106  0.200390  1
