# generated using pymatgen
data_Ho2Pa2ReB12Mo
_symmetry_space_group_name_H-M   'P 1'
_cell_length_a   3.73447000
_cell_length_b   9.17735809
_cell_length_c   11.52757612
_cell_angle_alpha   89.98374492
_cell_angle_beta   90.00000000
_cell_angle_gamma   90.00000000
_symmetry_Int_Tables_number   1
_chemical_formula_structural   Ho2Pa2ReB12Mo
_chemical_formula_sum   'Ho4 Pa4 Re2 B24 Mo2'
_cell_volume   395.07962589
_cell_formula_units_Z   2
loop_
 _symmetry_equiv_pos_site_id
 _symmetry_equiv_pos_as_xyz
  1  'x, y, z'
loop_
 _atom_site_type_symbol
 _atom_site_label
 _atom_site_symmetry_multiplicity
 _atom_site_fract_x
 _atom_site_fract_y
 _atom_site_fract_z
 _atom_site_occupancy
  Ho  Ho0  1  0.000000  0.945048  0.374493  1
  Ho  Ho1  1  0.000000  0.054952  0.625507  1
  Ho  Ho2  1  0.000000  0.445916  0.125740  1
  Ho  Ho3  1  0.000000  0.554084  0.874260  1
  Pa  Pa4  1  0.000000  0.323140  0.413791  1
  Pa  Pa5  1  0.000000  0.676860  0.586209  1
  Pa  Pa6  1  0.000000  0.821619  0.087582  1
  Pa  Pa7  1  0.000000  0.178381  0.912418  1
  Re  Re8  1  0.000000  0.137801  0.177314  1
  Re  Re9  1  0.000000  0.862199  0.822686  1
  B  B10  1  0.500000  0.552887  0.433029  1
  B  B11  1  0.500000  0.447113  0.566971  1
  B  B12  1  0.500000  0.053167  0.067176  1
  B  B13  1  0.500000  0.946833  0.932824  1
  B  B14  1  0.500000  0.747653  0.420848  1
  B  B15  1  0.500000  0.252347  0.579152  1
  B  B16  1  0.500000  0.248126  0.079973  1
  B  B17  1  0.500000  0.751874  0.920027  1
  B  B18  1  0.500000  0.793870  0.265301  1
  B  B19  1  0.500000  0.206130  0.734699  1
  B  B20  1  0.500000  0.292335  0.233959  1
  B  B21  1  0.500000  0.707665  0.766041  1
  B  B22  1  0.500000  0.633749  0.184759  1
  B  B23  1  0.500000  0.366251  0.815241  1
  B  B24  1  0.500000  0.132738  0.314291  1
  B  B25  1  0.500000  0.867262  0.685709  1
  B  B26  1  0.500000  0.983001  0.213320  1
  B  B27  1  0.500000  0.016999  0.786680  1
  B  B28  1  0.500000  0.481993  0.286507  1
  B  B29  1  0.500000  0.518007  0.713493  1
  B  B30  1  0.500000  0.612834  0.030640  1
  B  B31  1  0.500000  0.387166  0.969360  1
  B  B32  1  0.500000  0.112333  0.468117  1
  B  B33  1  0.500000  0.887667  0.531883  1
  Mo  Mo34  1  0.000000  0.638666  0.321263  1
  Mo  Mo35  1  0.000000  0.361334  0.678737  1
