# generated using pymatgen
data_Tb2Er3Os2
_symmetry_space_group_name_H-M   'P 1'
_cell_length_a   6.34038907
_cell_length_b   7.34170374
_cell_length_c   8.41164780
_cell_angle_alpha   97.05095435
_cell_angle_beta   112.14064160
_cell_angle_gamma   89.99999677
_symmetry_Int_Tables_number   1
_chemical_formula_structural   Tb2Er3Os2
_chemical_formula_sum   'Tb4 Er6 Os4'
_cell_volume   359.48428345
_cell_formula_units_Z   2
loop_
 _symmetry_equiv_pos_site_id
 _symmetry_equiv_pos_as_xyz
  1  'x, y, z'
loop_
 _atom_site_type_symbol
 _atom_site_label
 _atom_site_symmetry_multiplicity
 _atom_site_fract_x
 _atom_site_fract_y
 _atom_site_fract_z
 _atom_site_occupancy
  Tb  Tb0  1  0.790499  0.583409  0.814000  1
  Tb  Tb1  1  0.976499  0.916591  0.186000  1
  Tb  Tb2  1  0.209501  0.416591  0.186000  1
  Tb  Tb3  1  0.023501  0.083409  0.814000  1
  Er  Er4  1  0.203340  0.683839  0.565125  1
  Er  Er5  1  0.638214  0.816161  0.434875  1
  Er  Er6  1  0.796660  0.316161  0.434875  1
  Er  Er7  1  0.361786  0.183839  0.565125  1
  Er  Er8  1  0.421855  0.750000  0.000000  1
  Er  Er9  1  0.578145  0.250000  0.000000  1
  Os  Os10  1  0.599450  0.923888  0.779413  1
  Os  Os11  1  0.820036  0.576112  0.220587  1
  Os  Os12  1  0.400550  0.076112  0.220587  1
  Os  Os13  1  0.179964  0.423888  0.779413  1
