# generated using pymatgen
data_K3Rb(GaPt)8
_symmetry_space_group_name_H-M   'P 1'
_cell_length_a   6.62879705
_cell_length_b   8.32785553
_cell_length_c   8.52121881
_cell_angle_alpha   85.12283299
_cell_angle_beta   90.11160439
_cell_angle_gamma   89.86816912
_symmetry_Int_Tables_number   1
_chemical_formula_structural   K3Rb(GaPt)8
_chemical_formula_sum   'K3 Rb1 Ga8 Pt8'
_cell_volume   468.69696987
_cell_formula_units_Z   1
loop_
 _symmetry_equiv_pos_site_id
 _symmetry_equiv_pos_as_xyz
  1  'x, y, z'
loop_
 _atom_site_type_symbol
 _atom_site_label
 _atom_site_symmetry_multiplicity
 _atom_site_fract_x
 _atom_site_fract_y
 _atom_site_fract_z
 _atom_site_occupancy
  K  K0  1  0.883611  0.504978  0.764946  1
  K  K1  1  0.384429  0.994986  0.232533  1
  K  K2  1  0.615146  0.004570  0.768404  1
  Rb  Rb3  1  0.119304  0.494142  0.231069  1
  Ga  Ga4  1  0.851446  0.810143  0.439541  1
  Ga  Ga5  1  0.080521  0.871545  0.927318  1
  Ga  Ga6  1  0.643603  0.308833  0.438093  1
  Ga  Ga7  1  0.144666  0.189662  0.563307  1
  Ga  Ga8  1  0.583606  0.629699  0.071794  1
  Ga  Ga9  1  0.918462  0.128327  0.072314  1
  Ga  Ga10  1  0.357027  0.692419  0.562339  1
  Ga  Ga11  1  0.422085  0.370568  0.925260  1
  Pt  Pt12  1  0.893257  0.106183  0.374436  1
  Pt  Pt13  1  0.103953  0.892639  0.626956  1
  Pt  Pt14  1  0.169726  0.169206  0.856744  1
  Pt  Pt15  1  0.394707  0.393822  0.626499  1
  Pt  Pt16  1  0.331756  0.669256  0.855862  1
  Pt  Pt17  1  0.829365  0.832817  0.144723  1
  Pt  Pt18  1  0.668206  0.329909  0.144156  1
  Pt  Pt19  1  0.605121  0.606295  0.373705  1
