# generated using pymatgen
data_Gd2DyTmB16
_symmetry_space_group_name_H-M   'P 1'
_cell_length_a   7.11512936
_cell_length_b   7.11234295
_cell_length_c   4.03079100
_cell_angle_alpha   90.00000000
_cell_angle_beta   90.00000000
_cell_angle_gamma   90.19422610
_symmetry_Int_Tables_number   1
_chemical_formula_structural   Gd2DyTmB16
_chemical_formula_sum   'Gd2 Dy1 Tm1 B16'
_cell_volume   203.97797447
_cell_formula_units_Z   1
loop_
 _symmetry_equiv_pos_site_id
 _symmetry_equiv_pos_as_xyz
  1  'x, y, z'
loop_
 _atom_site_type_symbol
 _atom_site_label
 _atom_site_symmetry_multiplicity
 _atom_site_fract_x
 _atom_site_fract_y
 _atom_site_fract_z
 _atom_site_occupancy
  Gd  Gd0  1  0.183313  0.682852  0.000000  1
  Gd  Gd1  1  0.317172  0.182739  0.000000  1
  Dy  Dy2  1  0.817493  0.317345  0.000000  1
  Tm  Tm3  1  0.681895  0.817869  0.000000  1
  B  B4  1  0.325298  0.462099  0.500000  1
  B  B5  1  0.677634  0.539670  0.500000  1
  B  B6  1  0.539840  0.324606  0.500000  1
  B  B7  1  0.463416  0.676853  0.500000  1
  B  B8  1  0.997742  0.999084  0.203147  1
  B  B9  1  0.502046  0.500815  0.796854  1
  B  B10  1  0.997742  0.999084  0.796853  1
  B  B11  1  0.502046  0.500815  0.203146  1
  B  B12  1  0.586815  0.086524  0.500000  1
  B  B13  1  0.087127  0.412658  0.500000  1
  B  B14  1  0.913660  0.586106  0.500000  1
  B  B15  1  0.412994  0.912736  0.500000  1
  B  B16  1  0.037293  0.175650  0.500000  1
  B  B17  1  0.174628  0.961459  0.500000  1
  B  B18  1  0.822315  0.037694  0.500000  1
  B  B19  1  0.959530  0.823340  0.500000  1
