# generated using pymatgen
data_Nd2Ag2Ru3PtO14
_symmetry_space_group_name_H-M   'P 1'
_cell_length_a   7.27798821
_cell_length_b   7.18769096
_cell_length_c   7.27798769
_cell_angle_alpha   60.85040707
_cell_angle_beta   61.82086088
_cell_angle_gamma   60.85040236
_symmetry_Int_Tables_number   1
_chemical_formula_structural   Nd2Ag2Ru3PtO14
_chemical_formula_sum   'Nd2 Ag2 Ru3 Pt1 O14'
_cell_volume   276.27233610
_cell_formula_units_Z   1
loop_
 _symmetry_equiv_pos_site_id
 _symmetry_equiv_pos_as_xyz
  1  'x, y, z'
loop_
 _atom_site_type_symbol
 _atom_site_label
 _atom_site_symmetry_multiplicity
 _atom_site_fract_x
 _atom_site_fract_y
 _atom_site_fract_z
 _atom_site_occupancy
  Nd  Nd0  1  0.625000  0.125000  0.125000  1
  Nd  Nd1  1  0.125000  0.125000  0.625000  1
  Ag  Ag2  1  0.125000  0.625000  0.125000  1
  Ag  Ag3  1  0.125000  0.125000  0.125000  1
  Ru  Ru4  1  0.125000  0.625000  0.625000  1
  Ru  Ru5  1  0.625000  0.125000  0.625000  1
  Ru  Ru6  1  0.625000  0.625000  0.125000  1
  Pt  Pt7  1  0.625000  0.625000  0.625000  1
  O  O8  1  0.702787  0.707967  0.293565  1
  O  O9  1  0.309840  0.306139  0.695662  1
  O  O10  1  0.714680  0.284811  0.714680  1
  O  O11  1  0.319511  0.685346  0.319511  1
  O  O12  1  0.293565  0.707967  0.702787  1
  O  O13  1  0.695662  0.306139  0.309840  1
  O  O14  1  0.547213  0.542033  0.956435  1
  O  O15  1  0.940160  0.943861  0.554338  1
  O  O16  1  0.535320  0.965189  0.535320  1
  O  O17  1  0.930489  0.564654  0.930489  1
  O  O18  1  0.956435  0.542033  0.547213  1
  O  O19  1  0.554338  0.943861  0.940160  1
  O  O20  1  0.235835  0.263512  0.235835  1
  O  O21  1  0.014165  0.986488  0.014165  1
