# generated using pymatgen
data_Lu3ZnAg2C
_symmetry_space_group_name_H-M   'P 1'
_cell_length_a   9.11471548
_cell_length_b   9.11471485
_cell_length_c   9.11471600
_cell_angle_alpha   59.99999584
_cell_angle_beta   59.99999810
_cell_angle_gamma   59.99999438
_symmetry_Int_Tables_number   1
_chemical_formula_structural   Lu3ZnAg2C
_chemical_formula_sum   'Lu12 Zn4 Ag8 C4'
_cell_volume   535.44431039
_cell_formula_units_Z   4
loop_
 _symmetry_equiv_pos_site_id
 _symmetry_equiv_pos_as_xyz
  1  'x, y, z'
loop_
 _atom_site_type_symbol
 _atom_site_label
 _atom_site_symmetry_multiplicity
 _atom_site_fract_x
 _atom_site_fract_y
 _atom_site_fract_z
 _atom_site_occupancy
  Lu  Lu0  1  0.442245  0.442245  0.057755  1
  Lu  Lu1  1  0.057755  0.442245  0.057755  1
  Lu  Lu2  1  0.442245  0.057755  0.057755  1
  Lu  Lu3  1  0.057755  0.057755  0.442245  1
  Lu  Lu4  1  0.442245  0.057755  0.442245  1
  Lu  Lu5  1  0.057755  0.442245  0.442245  1
  Lu  Lu6  1  0.807755  0.807755  0.192245  1
  Lu  Lu7  1  0.192245  0.807755  0.192245  1
  Lu  Lu8  1  0.807755  0.192245  0.192245  1
  Lu  Lu9  1  0.192245  0.192245  0.807755  1
  Lu  Lu10  1  0.807755  0.192245  0.807755  1
  Lu  Lu11  1  0.192245  0.807755  0.807755  1
  Zn  Zn12  1  0.625000  0.625000  0.125000  1
  Zn  Zn13  1  0.625000  0.125000  0.625000  1
  Zn  Zn14  1  0.125000  0.625000  0.625000  1
  Zn  Zn15  1  0.625000  0.625000  0.625000  1
  Ag  Ag16  1  0.832004  0.832004  0.503989  1
  Ag  Ag17  1  0.832004  0.503989  0.832004  1
  Ag  Ag18  1  0.503989  0.832004  0.832004  1
  Ag  Ag19  1  0.832004  0.832004  0.832004  1
  Ag  Ag20  1  0.417996  0.417996  0.746011  1
  Ag  Ag21  1  0.417996  0.746011  0.417996  1
  Ag  Ag22  1  0.746011  0.417996  0.417996  1
  Ag  Ag23  1  0.417996  0.417996  0.417996  1
  C  C24  1  0.125000  0.125000  0.625000  1
  C  C25  1  0.125000  0.625000  0.125000  1
  C  C26  1  0.625000  0.125000  0.125000  1
  C  C27  1  0.125000  0.125000  0.125000  1
