# generated using pymatgen
data_Sr3Tc2NiO9
_symmetry_space_group_name_H-M   'P 1'
_cell_length_a   5.61602600
_cell_length_b   5.61602534
_cell_length_c   6.89316100
_cell_angle_alpha   90.00000000
_cell_angle_beta   90.00000000
_cell_angle_gamma   119.99999210
_symmetry_Int_Tables_number   1
_chemical_formula_structural   Sr3Tc2NiO9
_chemical_formula_sum   'Sr3 Tc2 Ni1 O9'
_cell_volume   188.28132977
_cell_formula_units_Z   1
loop_
 _symmetry_equiv_pos_site_id
 _symmetry_equiv_pos_as_xyz
  1  'x, y, z'
loop_
 _atom_site_type_symbol
 _atom_site_label
 _atom_site_symmetry_multiplicity
 _atom_site_fract_x
 _atom_site_fract_y
 _atom_site_fract_z
 _atom_site_occupancy
  Sr  Sr0  1  0.000000  0.000000  0.000000  1
  Sr  Sr1  1  0.666667  0.333333  0.351255  1
  Sr  Sr2  1  0.333333  0.666667  0.648745  1
  Tc  Tc3  1  0.666667  0.333333  0.837334  1
  Tc  Tc4  1  0.333333  0.666667  0.162666  1
  Ni  Ni5  1  0.000000  0.000000  0.500000  1
  O  O6  1  0.500000  0.000000  0.000000  1
  O  O7  1  0.500000  0.500000  0.000000  1
  O  O8  1  0.000000  0.500000  0.000000  1
  O  O9  1  0.829283  0.658565  0.674537  1
  O  O10  1  0.829283  0.170717  0.674537  1
  O  O11  1  0.341435  0.170717  0.674537  1
  O  O12  1  0.170717  0.341435  0.325463  1
  O  O13  1  0.170717  0.829283  0.325463  1
  O  O14  1  0.658565  0.829283  0.325463  1
