# generated using pymatgen
data_Ba2PrUO6
_symmetry_space_group_name_H-M   'P 1'
_cell_length_a   6.33394323
_cell_length_b   6.32498300
_cell_length_c   8.91094294
_cell_angle_alpha   90.00000000
_cell_angle_beta   90.32093329
_cell_angle_gamma   90.00000000
_symmetry_Int_Tables_number   1
_chemical_formula_structural   Ba2PrUO6
_chemical_formula_sum   'Ba4 Pr2 U2 O12'
_cell_volume   356.98533747
_cell_formula_units_Z   2
loop_
 _symmetry_equiv_pos_site_id
 _symmetry_equiv_pos_as_xyz
  1  'x, y, z'
loop_
 _atom_site_type_symbol
 _atom_site_label
 _atom_site_symmetry_multiplicity
 _atom_site_fract_x
 _atom_site_fract_y
 _atom_site_fract_z
 _atom_site_occupancy
  Ba  Ba0  1  0.490602  0.481537  0.250993  1
  Ba  Ba1  1  0.009400  0.981536  0.249006  1
  Ba  Ba2  1  0.509399  0.518464  0.749007  1
  Ba  Ba3  1  0.990601  0.018463  0.750992  1
  Pr  Pr4  1  0.500000  0.000000  0.999999  1
  Pr  Pr5  1  0.000000  0.500000  0.500001  1
  U  U6  1  0.000000  0.500000  0.000000  1
  U  U7  1  0.499999  0.000000  0.499999  1
  O  O8  1  0.582816  0.014789  0.263746  1
  O  O9  1  0.917183  0.514789  0.236254  1
  O  O10  1  0.417183  0.985212  0.736254  1
  O  O11  1  0.082817  0.485212  0.763745  1
  O  O12  1  0.260039  0.714609  0.045143  1
  O  O13  1  0.239960  0.214610  0.454857  1
  O  O14  1  0.739960  0.285390  0.954856  1
  O  O15  1  0.760040  0.785389  0.545143  1
  O  O16  1  0.212561  0.237190  0.046153  1
  O  O17  1  0.287441  0.737190  0.453848  1
  O  O18  1  0.787440  0.762810  0.953847  1
  O  O19  1  0.712560  0.262811  0.546152  1
