# generated using pymatgen
data_FeTc2NiSn8
_symmetry_space_group_name_H-M   'P 1'
_cell_length_a   5.48196100
_cell_length_b   5.36790748
_cell_length_c   9.42156000
_cell_angle_alpha   90.00000000
_cell_angle_beta   90.00000000
_cell_angle_gamma   120.70536093
_symmetry_Int_Tables_number   1
_chemical_formula_structural   FeTc2NiSn8
_chemical_formula_sum   'Fe1 Tc2 Ni1 Sn8'
_cell_volume   238.37653064
_cell_formula_units_Z   1
loop_
 _symmetry_equiv_pos_site_id
 _symmetry_equiv_pos_as_xyz
  1  'x, y, z'
loop_
 _atom_site_type_symbol
 _atom_site_label
 _atom_site_symmetry_multiplicity
 _atom_site_fract_x
 _atom_site_fract_y
 _atom_site_fract_z
 _atom_site_occupancy
  Fe  Fe0  1  0.750000  0.000000  0.500000  1
  Tc  Tc1  1  0.250000  0.000000  0.500000  1
  Tc  Tc2  1  0.250000  0.000000  0.000000  1
  Ni  Ni3  1  0.750000  0.000000  0.000000  1
  Sn  Sn4  1  0.250000  0.500000  0.408880  1
  Sn  Sn5  1  0.750000  0.500000  0.911456  1
  Sn  Sn6  1  0.250000  0.500000  0.088544  1
  Sn  Sn7  1  0.750000  0.500000  0.591120  1
  Sn  Sn8  1  0.915947  0.824546  0.248819  1
  Sn  Sn9  1  0.408599  0.824546  0.751181  1
  Sn  Sn10  1  0.584053  0.175454  0.248819  1
  Sn  Sn11  1  0.091401  0.175454  0.751181  1
