# generated using pymatgen
data_Dy16CdCo3Hg3Os
_symmetry_space_group_name_H-M   'P 1'
_cell_length_a   9.48789039
_cell_length_b   9.48902899
_cell_length_c   9.55330866
_cell_angle_alpha   60.22233023
_cell_angle_beta   60.17837426
_cell_angle_gamma   59.99603781
_symmetry_Int_Tables_number   1
_chemical_formula_structural   Dy16CdCo3Hg3Os
_chemical_formula_sum   'Dy16 Cd1 Co3 Hg3 Os1'
_cell_volume   609.99405034
_cell_formula_units_Z   1
loop_
 _symmetry_equiv_pos_site_id
 _symmetry_equiv_pos_as_xyz
  1  'x, y, z'
loop_
 _atom_site_type_symbol
 _atom_site_label
 _atom_site_symmetry_multiplicity
 _atom_site_fract_x
 _atom_site_fract_y
 _atom_site_fract_z
 _atom_site_occupancy
  Dy  Dy0  1  0.148577  0.542570  0.158684  1
  Dy  Dy1  1  0.693546  0.310718  0.685018  1
  Dy  Dy2  1  0.690689  0.310766  0.309409  1
  Dy  Dy3  1  0.938204  0.562643  0.561859  1
  Dy  Dy4  1  0.546743  0.148048  0.157161  1
  Dy  Dy5  1  0.151991  0.153901  0.540205  1
  Dy  Dy6  1  0.938204  0.937294  0.561859  1
  Dy  Dy7  1  0.312859  0.688571  0.309998  1
  Dy  Dy8  1  0.559157  0.944930  0.937004  1
  Dy  Dy9  1  0.563131  0.937720  0.561428  1
  Dy  Dy10  1  0.690689  0.689136  0.309409  1
  Dy  Dy11  1  0.559157  0.558910  0.937004  1
  Dy  Dy12  1  0.945503  0.559527  0.935444  1
  Dy  Dy13  1  0.313004  0.692389  0.684728  1
  Dy  Dy14  1  0.148577  0.150168  0.158684  1
  Dy  Dy15  1  0.313004  0.309879  0.684728  1
  Cd  Cd16  1  0.238863  0.920686  0.919766  1
  Co  Co17  1  0.358829  0.920812  0.360300  1
  Co  Co18  1  0.920969  0.359290  0.360452  1
  Co  Co19  1  0.358829  0.360060  0.360300  1
  Hg  Hg20  1  0.917349  0.252175  0.914514  1
  Hg  Hg21  1  0.917349  0.915962  0.914514  1
  Hg  Hg22  1  0.916601  0.914643  0.254114  1
  Os  Os23  1  0.358175  0.359201  0.923423  1
