# generated using pymatgen
data_Th3Sc(Ge2Ir)4
_symmetry_space_group_name_H-M   'P 1'
_cell_length_a   9.50162943
_cell_length_b   9.50162883
_cell_length_c   9.50162853
_cell_angle_alpha   153.32991682
_cell_angle_beta   124.16283127
_cell_angle_gamma   62.92524746
_symmetry_Int_Tables_number   1
_chemical_formula_structural   Th3Sc(Ge2Ir)4
_chemical_formula_sum   'Th3 Sc1 Ge8 Ir4'
_cell_volume   316.07048661
_cell_formula_units_Z   1
loop_
 _symmetry_equiv_pos_site_id
 _symmetry_equiv_pos_as_xyz
  1  'x, y, z'
loop_
 _atom_site_type_symbol
 _atom_site_label
 _atom_site_symmetry_multiplicity
 _atom_site_fract_x
 _atom_site_fract_y
 _atom_site_fract_z
 _atom_site_occupancy
  Th  Th0  1  0.292898  0.792898  0.500000  1
  Th  Th1  1  0.272456  0.001253  0.271203  1
  Th  Th2  1  0.730051  0.001253  0.728797  1
  Sc  Sc3  1  0.705173  0.205173  0.500000  1
  Ge  Ge4  1  0.581566  0.581566  0.000000  1
  Ge  Ge5  1  0.946123  0.797915  0.148208  1
  Ge  Ge6  1  0.649707  0.797915  0.851792  1
  Ge  Ge7  1  0.036463  0.198800  0.837663  1
  Ge  Ge8  1  0.922227  0.422227  0.500000  1
  Ge  Ge9  1  0.425728  0.425728  0.000000  1
  Ge  Ge10  1  0.076416  0.576416  0.500000  1
  Ge  Ge11  1  0.361138  0.198800  0.162337  1
  Ir  Ir12  1  0.898580  0.647000  0.251579  1
  Ir  Ir13  1  0.099287  0.353028  0.746259  1
  Ir  Ir14  1  0.606767  0.353028  0.253741  1
  Ir  Ir15  1  0.395422  0.647000  0.748421  1
