# generated using pymatgen
data_Lu6Fe17P12Rh
_symmetry_space_group_name_H-M   'P 1'
_cell_length_a   3.67449300
_cell_length_b   10.48910000
_cell_length_c   12.17047700
_cell_angle_alpha   90.00000000
_cell_angle_beta   90.00000000
_cell_angle_gamma   90.00000000
_symmetry_Int_Tables_number   1
_chemical_formula_structural   Lu6Fe17P12Rh
_chemical_formula_sum   'Lu6 Fe17 P12 Rh1'
_cell_volume   469.07604008
_cell_formula_units_Z   1
loop_
 _symmetry_equiv_pos_site_id
 _symmetry_equiv_pos_as_xyz
  1  'x, y, z'
loop_
 _atom_site_type_symbol
 _atom_site_label
 _atom_site_symmetry_multiplicity
 _atom_site_fract_x
 _atom_site_fract_y
 _atom_site_fract_z
 _atom_site_occupancy
  Lu  Lu0  1  0.000000  0.500000  0.526116  1
  Lu  Lu1  1  0.500000  0.000000  0.479229  1
  Lu  Lu2  1  0.500000  0.815964  0.205451  1
  Lu  Lu3  1  0.500000  0.184036  0.205451  1
  Lu  Lu4  1  0.000000  0.679221  0.792474  1
  Lu  Lu5  1  0.000000  0.320779  0.792474  1
  Fe  Fe6  1  0.500000  0.500000  0.154007  1
  Fe  Fe7  1  0.000000  0.000000  0.846411  1
  Fe  Fe8  1  0.500000  0.500000  0.698968  1
  Fe  Fe9  1  0.000000  0.500000  0.989081  1
  Fe  Fe10  1  0.500000  0.000000  0.009132  1
  Fe  Fe11  1  0.500000  0.328040  0.996317  1
  Fe  Fe12  1  0.500000  0.671960  0.996317  1
  Fe  Fe13  1  0.000000  0.173983  0.002746  1
  Fe  Fe14  1  0.000000  0.826017  0.002746  1
  Fe  Fe15  1  0.500000  0.301050  0.431460  1
  Fe  Fe16  1  0.500000  0.698950  0.431460  1
  Fe  Fe17  1  0.000000  0.200228  0.570480  1
  Fe  Fe18  1  0.000000  0.799772  0.570480  1
  Fe  Fe19  1  0.500000  0.881898  0.708301  1
  Fe  Fe20  1  0.500000  0.118102  0.708301  1
  Fe  Fe21  1  0.000000  0.617301  0.291397  1
  Fe  Fe22  1  0.000000  0.382699  0.291397  1
  P  P23  1  0.500000  0.500000  0.882022  1
  P  P24  1  0.000000  0.000000  0.109654  1
  P  P25  1  0.500000  0.500000  0.342322  1
  P  P26  1  0.000000  0.000000  0.659146  1
  P  P27  1  0.500000  0.307568  0.615589  1
  P  P28  1  0.500000  0.692432  0.615589  1
  P  P29  1  0.000000  0.200323  0.387917  1
  P  P30  1  0.000000  0.799677  0.387917  1
  P  P31  1  0.500000  0.849903  0.886933  1
  P  P32  1  0.500000  0.150097  0.886933  1
  P  P33  1  0.000000  0.648503  0.112447  1
  P  P34  1  0.000000  0.351497  0.112447  1
  Rh  Rh35  1  0.000000  0.000000  0.300886  1
