# generated using pymatgen
data_Ho2Er2TmIr2
_symmetry_space_group_name_H-M   'P 1'
_cell_length_a   6.45432428
_cell_length_b   7.17796744
_cell_length_c   8.42245481
_cell_angle_alpha   96.43085144
_cell_angle_beta   112.52966889
_cell_angle_gamma   89.99999925
_symmetry_Int_Tables_number   1
_chemical_formula_structural   Ho2Er2TmIr2
_chemical_formula_sum   'Ho4 Er4 Tm2 Ir4'
_cell_volume   357.76391599
_cell_formula_units_Z   2
loop_
 _symmetry_equiv_pos_site_id
 _symmetry_equiv_pos_as_xyz
  1  'x, y, z'
loop_
 _atom_site_type_symbol
 _atom_site_label
 _atom_site_symmetry_multiplicity
 _atom_site_fract_x
 _atom_site_fract_y
 _atom_site_fract_z
 _atom_site_occupancy
  Ho  Ho0  1  0.969999  0.918923  0.181969  1
  Ho  Ho1  1  0.788029  0.581077  0.818031  1
  Ho  Ho2  1  0.030001  0.081077  0.818031  1
  Ho  Ho3  1  0.211971  0.418923  0.181969  1
  Er  Er4  1  0.653996  0.817973  0.441917  1
  Er  Er5  1  0.212079  0.682027  0.558083  1
  Er  Er6  1  0.346004  0.182027  0.558083  1
  Er  Er7  1  0.787921  0.317973  0.441917  1
  Tm  Tm8  1  0.427687  0.750000  0.000000  1
  Tm  Tm9  1  0.572313  0.250000  0.000000  1
  Ir  Ir10  1  0.824873  0.572962  0.218170  1
  Ir  Ir11  1  0.606704  0.927038  0.781830  1
  Ir  Ir12  1  0.175128  0.427038  0.781830  1
  Ir  Ir13  1  0.393296  0.072962  0.218170  1
