# generated using pymatgen
data_Dy2ErGa3(Ni3Sn)3
_symmetry_space_group_name_H-M   'P 1'
_cell_length_a   9.12877000
_cell_length_b   9.12876974
_cell_length_c   4.06427900
_cell_angle_alpha   90.00000000
_cell_angle_beta   90.00000000
_cell_angle_gamma   119.99999370
_symmetry_Int_Tables_number   1
_chemical_formula_structural   Dy2ErGa3(Ni3Sn)3
_chemical_formula_sum   'Dy2 Er1 Ga3 Ni9 Sn3'
_cell_volume   293.31798327
_cell_formula_units_Z   1
loop_
 _symmetry_equiv_pos_site_id
 _symmetry_equiv_pos_as_xyz
  1  'x, y, z'
loop_
 _atom_site_type_symbol
 _atom_site_label
 _atom_site_symmetry_multiplicity
 _atom_site_fract_x
 _atom_site_fract_y
 _atom_site_fract_z
 _atom_site_occupancy
  Dy  Dy0  1  0.666667  0.333333  0.500000  1
  Dy  Dy1  1  0.333333  0.666667  0.500000  1
  Er  Er2  1  0.000000  0.000000  0.000000  1
  Ga  Ga3  1  0.743960  0.743960  0.500000  1
  Ga  Ga4  1  0.256040  0.000000  0.500000  1
  Ga  Ga5  1  0.000000  0.256040  0.500000  1
  Ni  Ni6  1  0.836838  0.201035  0.000000  1
  Ni  Ni7  1  0.798965  0.635803  0.000000  1
  Ni  Ni8  1  0.364197  0.163162  0.000000  1
  Ni  Ni9  1  0.201035  0.836838  0.000000  1
  Ni  Ni10  1  0.635803  0.798965  0.000000  1
  Ni  Ni11  1  0.163162  0.364197  0.000000  1
  Ni  Ni12  1  0.282502  0.282502  0.500000  1
  Ni  Ni13  1  0.717498  0.000000  0.500000  1
  Ni  Ni14  1  0.000000  0.717498  0.500000  1
  Sn  Sn15  1  0.475157  0.475157  0.000000  1
  Sn  Sn16  1  0.524843  0.000000  0.000000  1
  Sn  Sn17  1  0.000000  0.524843  0.000000  1
