# generated using pymatgen
data_LaNdAsSe
_symmetry_space_group_name_H-M   'P 1'
_cell_length_a   6.03989400
_cell_length_b   6.03989400
_cell_length_c   6.06155100
_cell_angle_alpha   90.00000000
_cell_angle_beta   90.00000000
_cell_angle_gamma   90.00000000
_symmetry_Int_Tables_number   1
_chemical_formula_structural   LaNdAsSe
_chemical_formula_sum   'La2 Nd2 As2 Se2'
_cell_volume   221.12731733
_cell_formula_units_Z   2
loop_
 _symmetry_equiv_pos_site_id
 _symmetry_equiv_pos_as_xyz
  1  'x, y, z'
loop_
 _atom_site_type_symbol
 _atom_site_label
 _atom_site_symmetry_multiplicity
 _atom_site_fract_x
 _atom_site_fract_y
 _atom_site_fract_z
 _atom_site_occupancy
  La  La0  1  0.250002  0.250002  0.002425  1
  La  La1  1  0.750001  0.750001  0.997577  1
  Nd  Nd2  1  0.750001  0.250002  0.500000  1
  Nd  Nd3  1  0.250002  0.750001  0.500000  1
  As  As4  1  0.750001  0.750001  0.497725  1
  As  As5  1  0.250002  0.250002  0.502274  1
  Se  Se6  1  0.750001  0.250002  0.000000  1
  Se  Se7  1  0.250002  0.750001  0.000000  1
