# generated using pymatgen
data_EuDy(NbN2)2
_symmetry_space_group_name_H-M   'P 1'
_cell_length_a   3.34270900
_cell_length_b   5.75887455
_cell_length_c   11.03155573
_cell_angle_alpha   89.81359077
_cell_angle_beta   90.00000000
_cell_angle_gamma   90.00000000
_symmetry_Int_Tables_number   1
_chemical_formula_structural   EuDy(NbN2)2
_chemical_formula_sum   'Eu2 Dy2 Nb4 N8'
_cell_volume   212.35899119
_cell_formula_units_Z   2
loop_
 _symmetry_equiv_pos_site_id
 _symmetry_equiv_pos_as_xyz
  1  'x, y, z'
loop_
 _atom_site_type_symbol
 _atom_site_label
 _atom_site_symmetry_multiplicity
 _atom_site_fract_x
 _atom_site_fract_y
 _atom_site_fract_z
 _atom_site_occupancy
  Eu  Eu0  1  0.250000  0.584597  0.860342  1
  Eu  Eu1  1  0.750000  0.415403  0.139658  1
  Dy  Dy2  1  0.750000  0.913672  0.362291  1
  Dy  Dy3  1  0.250000  0.086328  0.637709  1
  Nb  Nb4  1  0.250000  0.914501  0.111640  1
  Nb  Nb5  1  0.750000  0.085499  0.888360  1
  Nb  Nb6  1  0.750000  0.587335  0.607409  1
  Nb  Nb7  1  0.250000  0.412665  0.392591  1
  N  N8  1  0.250000  0.665070  0.250142  1
  N  N9  1  0.750000  0.334930  0.749858  1
  N  N10  1  0.750000  0.844094  0.740618  1
  N  N11  1  0.250000  0.155906  0.259382  1
  N  N12  1  0.250000  0.743750  0.509216  1
  N  N13  1  0.750000  0.256250  0.490784  1
  N  N14  1  0.750000  0.776372  0.013136  1
  N  N15  1  0.250000  0.223628  0.986864  1
