# generated using pymatgen
data_PrCo5As3
_symmetry_space_group_name_H-M   'P 1'
_cell_length_a   3.86334800
_cell_length_b   10.82015800
_cell_length_c   12.30273600
_cell_angle_alpha   90.00000000
_cell_angle_beta   90.00000000
_cell_angle_gamma   90.00000000
_symmetry_Int_Tables_number   1
_chemical_formula_structural   PrCo5As3
_chemical_formula_sum   'Pr4 Co20 As12'
_cell_volume   514.27941033
_cell_formula_units_Z   4
loop_
 _symmetry_equiv_pos_site_id
 _symmetry_equiv_pos_as_xyz
  1  'x, y, z'
loop_
 _atom_site_type_symbol
 _atom_site_label
 _atom_site_symmetry_multiplicity
 _atom_site_fract_x
 _atom_site_fract_y
 _atom_site_fract_z
 _atom_site_occupancy
  Pr  Pr0  1  0.250000  0.582424  0.700724  1
  Pr  Pr1  1  0.250000  0.917576  0.200724  1
  Pr  Pr2  1  0.750000  0.417576  0.299276  1
  Pr  Pr3  1  0.750000  0.082424  0.799276  1
  Co  Co4  1  0.250000  0.709016  0.990959  1
  Co  Co5  1  0.250000  0.790984  0.490959  1
  Co  Co6  1  0.750000  0.290984  0.009041  1
  Co  Co7  1  0.750000  0.209016  0.509041  1
  Co  Co8  1  0.250000  0.405723  0.489769  1
  Co  Co9  1  0.250000  0.094277  0.989769  1
  Co  Co10  1  0.750000  0.594277  0.510231  1
  Co  Co11  1  0.750000  0.905723  0.010231  1
  Co  Co12  1  0.250000  0.216254  0.176199  1
  Co  Co13  1  0.250000  0.283746  0.676199  1
  Co  Co14  1  0.750000  0.783746  0.823801  1
  Co  Co15  1  0.750000  0.716254  0.323801  1
  Co  Co16  1  0.250000  0.883132  0.695798  1
  Co  Co17  1  0.250000  0.616868  0.195798  1
  Co  Co18  1  0.750000  0.116868  0.304202  1
  Co  Co19  1  0.750000  0.383132  0.804202  1
  Co  Co20  1  0.250000  0.470671  0.932930  1
  Co  Co21  1  0.250000  0.029329  0.432930  1
  Co  Co22  1  0.750000  0.529329  0.067070  1
  Co  Co23  1  0.750000  0.970671  0.567070  1
  As  As24  1  0.250000  0.415789  0.111855  1
  As  As25  1  0.250000  0.084211  0.611855  1
  As  As26  1  0.750000  0.584211  0.888145  1
  As  As27  1  0.750000  0.915789  0.388145  1
  As  As28  1  0.250000  0.273925  0.870360  1
  As  As29  1  0.250000  0.226075  0.370360  1
  As  As30  1  0.750000  0.726075  0.129640  1
  As  As31  1  0.750000  0.773925  0.629640  1
  As  As32  1  0.250000  0.604644  0.392581  1
  As  As33  1  0.250000  0.895356  0.892581  1
  As  As34  1  0.750000  0.395356  0.607419  1
  As  As35  1  0.750000  0.104644  0.107419  1
