# generated using pymatgen
data_Y7Ho(IrRh)4
_symmetry_space_group_name_H-M   'P 1'
_cell_length_a   6.87723800
_cell_length_b   4.85525500
_cell_length_c   9.72419000
_cell_angle_alpha   90.00000000
_cell_angle_beta   90.00085501
_cell_angle_gamma   90.00000000
_symmetry_Int_Tables_number   1
_chemical_formula_structural   Y7Ho(IrRh)4
_chemical_formula_sum   'Y7 Ho1 Ir4 Rh4'
_cell_volume   324.69794068
_cell_formula_units_Z   1
loop_
 _symmetry_equiv_pos_site_id
 _symmetry_equiv_pos_as_xyz
  1  'x, y, z'
loop_
 _atom_site_type_symbol
 _atom_site_label
 _atom_site_symmetry_multiplicity
 _atom_site_fract_x
 _atom_site_fract_y
 _atom_site_fract_z
 _atom_site_occupancy
  Y  Y0  1  0.499796  0.750000  0.125018  1
  Y  Y1  1  0.999768  0.249999  0.374647  1
  Y  Y2  1  0.499754  0.249999  0.374950  1
  Y  Y3  1  0.500238  0.750000  0.624987  1
  Y  Y4  1  0.000246  0.750000  0.624998  1
  Y  Y5  1  0.500238  0.249999  0.875062  1
  Y  Y6  1  0.000245  0.249999  0.875371  1
  Ho  Ho7  1  0.999775  0.750000  0.124971  1
  Ir  Ir8  1  0.751331  0.249999  0.125015  1
  Ir  Ir9  1  0.249127  0.750000  0.374142  1
  Ir  Ir10  1  0.750135  0.249999  0.625008  1
  Ir  Ir11  1  0.249430  0.750000  0.875860  1
  Rh  Rh12  1  0.248455  0.249999  0.125024  1
  Rh  Rh13  1  0.750486  0.750000  0.374312  1
  Rh  Rh14  1  0.250125  0.249999  0.625021  1
  Rh  Rh15  1  0.750848  0.750000  0.875613  1
