# generated using pymatgen
data_HoFe3P3Pd2
_symmetry_space_group_name_H-M   'P 1'
_cell_length_a   3.76929700
_cell_length_b   10.39545500
_cell_length_c   12.48802900
_cell_angle_alpha   90.00000000
_cell_angle_beta   90.00000000
_cell_angle_gamma   90.00000000
_symmetry_Int_Tables_number   1
_chemical_formula_structural   HoFe3P3Pd2
_chemical_formula_sum   'Ho4 Fe12 P12 Pd8'
_cell_volume   489.32540045
_cell_formula_units_Z   4
loop_
 _symmetry_equiv_pos_site_id
 _symmetry_equiv_pos_as_xyz
  1  'x, y, z'
loop_
 _atom_site_type_symbol
 _atom_site_label
 _atom_site_symmetry_multiplicity
 _atom_site_fract_x
 _atom_site_fract_y
 _atom_site_fract_z
 _atom_site_occupancy
  Ho  Ho0  1  0.250000  0.578733  0.716596  1
  Ho  Ho1  1  0.250000  0.921267  0.216596  1
  Ho  Ho2  1  0.750000  0.421267  0.283404  1
  Ho  Ho3  1  0.750000  0.078733  0.783404  1
  Fe  Fe4  1  0.250000  0.222598  0.169677  1
  Fe  Fe5  1  0.250000  0.277402  0.669677  1
  Fe  Fe6  1  0.750000  0.777402  0.830323  1
  Fe  Fe7  1  0.750000  0.722598  0.330323  1
  Fe  Fe8  1  0.250000  0.874260  0.695489  1
  Fe  Fe9  1  0.250000  0.625740  0.195489  1
  Fe  Fe10  1  0.750000  0.125740  0.304511  1
  Fe  Fe11  1  0.750000  0.374260  0.804511  1
  Fe  Fe12  1  0.250000  0.457139  0.933473  1
  Fe  Fe13  1  0.250000  0.042861  0.433473  1
  Fe  Fe14  1  0.750000  0.542861  0.066527  1
  Fe  Fe15  1  0.750000  0.957139  0.566527  1
  P  P16  1  0.250000  0.433908  0.110599  1
  P  P17  1  0.250000  0.066092  0.610599  1
  P  P18  1  0.750000  0.566092  0.889401  1
  P  P19  1  0.750000  0.933908  0.389401  1
  P  P20  1  0.250000  0.274163  0.847392  1
  P  P21  1  0.250000  0.225837  0.347392  1
  P  P22  1  0.750000  0.725837  0.152608  1
  P  P23  1  0.750000  0.774163  0.652608  1
  P  P24  1  0.250000  0.608584  0.370273  1
  P  P25  1  0.250000  0.891416  0.870273  1
  P  P26  1  0.750000  0.391416  0.629727  1
  P  P27  1  0.750000  0.108584  0.129727  1
  Pd  Pd28  1  0.250000  0.709351  0.986325  1
  Pd  Pd29  1  0.250000  0.790649  0.486325  1
  Pd  Pd30  1  0.750000  0.290649  0.013675  1
  Pd  Pd31  1  0.750000  0.209351  0.513675  1
  Pd  Pd32  1  0.250000  0.407409  0.469090  1
  Pd  Pd33  1  0.250000  0.092591  0.969090  1
  Pd  Pd34  1  0.750000  0.592591  0.530910  1
  Pd  Pd35  1  0.750000  0.907409  0.030910  1
