# generated using pymatgen
data_Tb7DyCoHg3
_symmetry_space_group_name_H-M   'P 1'
_cell_length_a   10.19082242
_cell_length_b   10.19082163
_cell_length_c   7.10391131
_cell_angle_alpha   90.02943275
_cell_angle_beta   89.97056261
_cell_angle_gamma   119.98521049
_symmetry_Int_Tables_number   1
_chemical_formula_structural   Tb7DyCoHg3
_chemical_formula_sum   'Tb14 Dy2 Co2 Hg6'
_cell_volume   639.01525099
_cell_formula_units_Z   2
loop_
 _symmetry_equiv_pos_site_id
 _symmetry_equiv_pos_as_xyz
  1  'x, y, z'
loop_
 _atom_site_type_symbol
 _atom_site_label
 _atom_site_symmetry_multiplicity
 _atom_site_fract_x
 _atom_site_fract_y
 _atom_site_fract_z
 _atom_site_occupancy
  Tb  Tb0  1  0.826646  0.173354  0.483691  1
  Tb  Tb1  1  0.173364  0.346679  0.983616  1
  Tb  Tb2  1  0.653321  0.826636  0.983616  1
  Tb  Tb3  1  0.173373  0.826627  0.983550  1
  Tb  Tb4  1  0.666566  0.333434  0.184792  1
  Tb  Tb5  1  0.333304  0.666696  0.684581  1
  Tb  Tb6  1  0.538830  0.077754  0.790277  1
  Tb  Tb7  1  0.922246  0.461170  0.790277  1
  Tb  Tb8  1  0.538912  0.461088  0.790172  1
  Tb  Tb9  1  0.461105  0.922272  0.290523  1
  Tb  Tb10  1  0.077728  0.538895  0.290523  1
  Tb  Tb11  1  0.461175  0.538825  0.290582  1
  Tb  Tb12  1  0.000028  0.999972  0.775775  1
  Tb  Tb13  1  0.999992  0.000008  0.275908  1
  Dy  Dy14  1  0.826573  0.653158  0.483690  1
  Dy  Dy15  1  0.346842  0.173427  0.483690  1
  Co  Co16  1  0.666578  0.333422  0.553690  1
  Co  Co17  1  0.333338  0.666662  0.053751  1
  Hg  Hg18  1  0.832839  0.665763  0.042418  1
  Hg  Hg19  1  0.334237  0.167161  0.042418  1
  Hg  Hg20  1  0.832892  0.167108  0.042197  1
  Hg  Hg21  1  0.167230  0.334106  0.542142  1
  Hg  Hg22  1  0.665894  0.832770  0.542142  1
  Hg  Hg23  1  0.166986  0.833014  0.542058  1
