# generated using pymatgen
data_Yb2InPd5
_symmetry_space_group_name_H-M   'P 1'
_cell_length_a   4.28088600
_cell_length_b   5.79424000
_cell_length_c   11.46575100
_cell_angle_alpha   90.00000000
_cell_angle_beta   90.00000000
_cell_angle_gamma   90.00000000
_symmetry_Int_Tables_number   1
_chemical_formula_structural   Yb2InPd5
_chemical_formula_sum   'Yb4 In2 Pd10'
_cell_volume   284.40200165
_cell_formula_units_Z   2
loop_
 _symmetry_equiv_pos_site_id
 _symmetry_equiv_pos_as_xyz
  1  'x, y, z'
loop_
 _atom_site_type_symbol
 _atom_site_label
 _atom_site_symmetry_multiplicity
 _atom_site_fract_x
 _atom_site_fract_y
 _atom_site_fract_z
 _atom_site_occupancy
  Yb  Yb0  1  0.500000  0.311298  0.860470  1
  Yb  Yb1  1  0.500000  0.811298  0.639530  1
  Yb  Yb2  1  0.500000  0.688702  0.139530  1
  Yb  Yb3  1  0.500000  0.188702  0.360470  1
  In  In4  1  0.000000  0.500000  0.500000  1
  In  In5  1  0.000000  0.000000  0.000000  1
  Pd  Pd6  1  0.500000  0.701605  0.386364  1
  Pd  Pd7  1  0.500000  0.298395  0.613636  1
  Pd  Pd8  1  0.000000  0.058788  0.751550  1
  Pd  Pd9  1  0.500000  0.798395  0.886364  1
  Pd  Pd10  1  0.000000  0.441212  0.251550  1
  Pd  Pd11  1  0.000000  0.941212  0.248450  1
  Pd  Pd12  1  0.000000  0.558788  0.748450  1
  Pd  Pd13  1  0.000000  0.500000  0.000000  1
  Pd  Pd14  1  0.000000  0.000000  0.500000  1
  Pd  Pd15  1  0.500000  0.201605  0.113636  1
