# generated using pymatgen
data_Sc4Al16GaSiIr6
_symmetry_space_group_name_H-M   'P 1'
_cell_length_a   7.46788496
_cell_length_b   7.46787829
_cell_length_c   9.28686400
_cell_angle_alpha   90.00000000
_cell_angle_beta   90.00000000
_cell_angle_gamma   119.74351908
_symmetry_Int_Tables_number   1
_chemical_formula_structural   Sc4Al16GaSiIr6
_chemical_formula_sum   'Sc4 Al16 Ga1 Si1 Ir6'
_cell_volume   449.68789563
_cell_formula_units_Z   1
loop_
 _symmetry_equiv_pos_site_id
 _symmetry_equiv_pos_as_xyz
  1  'x, y, z'
loop_
 _atom_site_type_symbol
 _atom_site_label
 _atom_site_symmetry_multiplicity
 _atom_site_fract_x
 _atom_site_fract_y
 _atom_site_fract_z
 _atom_site_occupancy
  Sc  Sc0  1  0.994631  0.677562  0.250000  1
  Sc  Sc1  1  0.003810  0.328314  0.750000  1
  Sc  Sc2  1  0.677562  0.994631  0.250000  1
  Sc  Sc3  1  0.328314  0.003809  0.750000  1
  Al  Al4  1  0.998118  0.337026  0.078917  1
  Al  Al5  1  0.001093  0.665775  0.923837  1
  Al  Al6  1  0.001093  0.665775  0.576163  1
  Al  Al7  1  0.337025  0.998118  0.421083  1
  Al  Al8  1  0.998118  0.337026  0.421083  1
  Al  Al9  1  0.665776  0.001094  0.576163  1
  Al  Al10  1  0.665776  0.001094  0.923837  1
  Al  Al11  1  0.337025  0.998118  0.078917  1
  Al  Al12  1  0.329969  0.329969  0.561258  1
  Al  Al13  1  0.665357  0.665357  0.441084  1
  Al  Al14  1  0.665357  0.665357  0.058916  1
  Al  Al15  1  0.329969  0.329969  0.938742  1
  Al  Al16  1  0.336947  0.553454  0.250000  1
  Al  Al17  1  0.661726  0.447034  0.750000  1
  Al  Al18  1  0.553455  0.336948  0.250000  1
  Al  Al19  1  0.447035  0.661726  0.750000  1
  Ga  Ga20  1  0.875103  0.875103  0.750000  1
  Si  Si21  1  0.130459  0.130459  0.250000  1
  Ir  Ir22  1  0.670603  0.327000  0.000031  1
  Ir  Ir23  1  0.327000  0.670602  0.000030  1
  Ir  Ir24  1  0.327000  0.670602  0.499970  1
  Ir  Ir25  1  0.670603  0.327000  0.499969  1
  Ir  Ir26  1  0.000537  0.000537  0.010443  1
  Ir  Ir27  1  0.000537  0.000537  0.489557  1
