# generated using pymatgen
data_Tm2Lu10Tc3Pt
_symmetry_space_group_name_H-M   'P 1'
_cell_length_a   6.16761105
_cell_length_b   7.30639402
_cell_length_c   8.94811100
_cell_angle_alpha   90.00000000
_cell_angle_beta   90.00000000
_cell_angle_gamma   89.99674934
_symmetry_Int_Tables_number   1
_chemical_formula_structural   Tm2Lu10Tc3Pt
_chemical_formula_sum   'Tm2 Lu10 Tc3 Pt1'
_cell_volume   403.22869405
_cell_formula_units_Z   1
loop_
 _symmetry_equiv_pos_site_id
 _symmetry_equiv_pos_as_xyz
  1  'x, y, z'
loop_
 _atom_site_type_symbol
 _atom_site_label
 _atom_site_symmetry_multiplicity
 _atom_site_fract_x
 _atom_site_fract_y
 _atom_site_fract_z
 _atom_site_occupancy
  Tm  Tm0  1  0.127137  0.455797  0.750000  1
  Tm  Tm1  1  0.374018  0.965146  0.750000  1
  Lu  Lu2  1  0.331127  0.675717  0.066307  1
  Lu  Lu3  1  0.163083  0.177267  0.436688  1
  Lu  Lu4  1  0.665318  0.318855  0.557964  1
  Lu  Lu5  1  0.838994  0.827998  0.941352  1
  Lu  Lu6  1  0.665318  0.318855  0.942036  1
  Lu  Lu7  1  0.838994  0.827998  0.558648  1
  Lu  Lu8  1  0.331127  0.675717  0.433693  1
  Lu  Lu9  1  0.163083  0.177267  0.063312  1
  Lu  Lu10  1  0.874755  0.542099  0.250000  1
  Lu  Lu11  1  0.620838  0.037359  0.250000  1
  Tc  Tc12  1  0.037905  0.884972  0.250000  1
  Tc  Tc13  1  0.464487  0.385855  0.250000  1
  Tc  Tc14  1  0.958147  0.115204  0.750000  1
  Pt  Pt15  1  0.545668  0.613896  0.750000  1
