# generated using pymatgen
data_Ho4Lu8In2Tc3
_symmetry_space_group_name_H-M   'P 1'
_cell_length_a   8.34807845
_cell_length_b   8.34808101
_cell_length_c   8.34807964
_cell_angle_alpha   108.81188750
_cell_angle_beta   108.81188787
_cell_angle_gamma   110.79808677
_symmetry_Int_Tables_number   1
_chemical_formula_structural   Ho4Lu8In2Tc3
_chemical_formula_sum   'Ho4 Lu8 In2 Tc3'
_cell_volume   447.67486108
_cell_formula_units_Z   1
loop_
 _symmetry_equiv_pos_site_id
 _symmetry_equiv_pos_as_xyz
  1  'x, y, z'
loop_
 _atom_site_type_symbol
 _atom_site_label
 _atom_site_symmetry_multiplicity
 _atom_site_fract_x
 _atom_site_fract_y
 _atom_site_fract_z
 _atom_site_occupancy
  Ho  Ho0  1  0.303649  0.303649  0.607299  1
  Ho  Ho1  1  0.696351  0.696351  0.392701  1
  Ho  Ho2  1  0.696351  0.303649  0.000000  1
  Ho  Ho3  1  0.303649  0.696351  0.000000  1
  Lu  Lu4  1  0.188760  0.427068  0.238307  1
  Lu  Lu5  1  0.811240  0.572932  0.761693  1
  Lu  Lu6  1  0.188760  0.950452  0.761693  1
  Lu  Lu7  1  0.950452  0.188760  0.761693  1
  Lu  Lu8  1  0.811240  0.049548  0.238307  1
  Lu  Lu9  1  0.049548  0.811240  0.238307  1
  Lu  Lu10  1  0.427068  0.188760  0.238307  1
  Lu  Lu11  1  0.572932  0.811240  0.761693  1
  In  In12  1  0.000000  0.500000  0.500000  1
  In  In13  1  0.500000  0.000000  0.500000  1
  Tc  Tc14  1  0.370854  0.370854  0.000000  1
  Tc  Tc15  1  0.629146  0.629146  0.000000  1
  Tc  Tc16  1  0.000000  0.000000  0.000000  1
