# generated using pymatgen
data_Ti10Ge2As4C
_symmetry_space_group_name_H-M   'P 1'
_cell_length_a   7.52442606
_cell_length_b   7.53408108
_cell_length_c   5.20920254
_cell_angle_alpha   90.16704087
_cell_angle_beta   89.91637569
_cell_angle_gamma   120.04244275
_symmetry_Int_Tables_number   1
_chemical_formula_structural   Ti10Ge2As4C
_chemical_formula_sum   'Ti10 Ge2 As4 C1'
_cell_volume   255.63351994
_cell_formula_units_Z   1
loop_
 _symmetry_equiv_pos_site_id
 _symmetry_equiv_pos_as_xyz
  1  'x, y, z'
loop_
 _atom_site_type_symbol
 _atom_site_label
 _atom_site_symmetry_multiplicity
 _atom_site_fract_x
 _atom_site_fract_y
 _atom_site_fract_z
 _atom_site_occupancy
  Ti  Ti0  1  0.000000  0.762026  0.261966  1
  Ti  Ti1  1  0.236574  0.235791  0.260160  1
  Ti  Ti2  1  0.763426  0.999217  0.260160  1
  Ti  Ti3  1  0.000000  0.238467  0.738514  1
  Ti  Ti4  1  0.762556  0.763118  0.740097  1
  Ti  Ti5  1  0.237444  0.000562  0.740097  1
  Ti  Ti6  1  0.331452  0.666157  0.999643  1
  Ti  Ti7  1  0.668548  0.334704  0.999643  1
  Ti  Ti8  1  0.668508  0.334530  0.500492  1
  Ti  Ti9  1  0.331492  0.666023  0.500492  1
  Ge  Ge10  1  0.396008  0.395761  0.754281  1
  Ge  Ge11  1  0.603992  0.999753  0.754281  1
  As  As12  1  0.000000  0.393252  0.245606  1
  As  As13  1  0.602270  0.603261  0.244502  1
  As  As14  1  0.397730  0.000991  0.244502  1
  As  As15  1  0.000000  0.606540  0.754971  1
  C  C16  1  0.000000  0.999850  0.500595  1
