# generated using pymatgen
data_Th4Al13Ga5Ir6
_symmetry_space_group_name_H-M   'P 1'
_cell_length_a   7.66197619
_cell_length_b   7.65964734
_cell_length_c   9.57887300
_cell_angle_alpha   90.00000000
_cell_angle_beta   90.00000000
_cell_angle_gamma   119.62444109
_symmetry_Int_Tables_number   1
_chemical_formula_structural   Th4Al13Ga5Ir6
_chemical_formula_sum   'Th4 Al13 Ga5 Ir6'
_cell_volume   488.68132948
_cell_formula_units_Z   1
loop_
 _symmetry_equiv_pos_site_id
 _symmetry_equiv_pos_as_xyz
  1  'x, y, z'
loop_
 _atom_site_type_symbol
 _atom_site_label
 _atom_site_symmetry_multiplicity
 _atom_site_fract_x
 _atom_site_fract_y
 _atom_site_fract_z
 _atom_site_occupancy
  Th  Th0  1  0.993515  0.669049  0.250000  1
  Th  Th1  1  0.002582  0.328038  0.750000  1
  Th  Th2  1  0.669630  0.995085  0.250000  1
  Th  Th3  1  0.331091  0.007142  0.750000  1
  Al  Al4  1  0.004816  0.334880  0.072752  1
  Al  Al5  1  0.996441  0.665337  0.927052  1
  Al  Al6  1  0.996441  0.665337  0.572948  1
  Al  Al7  1  0.334624  0.004350  0.427332  1
  Al  Al8  1  0.004816  0.334880  0.427248  1
  Al  Al9  1  0.664354  0.994600  0.572642  1
  Al  Al10  1  0.664354  0.994600  0.927358  1
  Al  Al11  1  0.334624  0.004350  0.072668  1
  Al  Al12  1  0.336801  0.337542  0.552680  1
  Al  Al13  1  0.663203  0.663101  0.449702  1
  Al  Al14  1  0.663203  0.663101  0.050298  1
  Al  Al15  1  0.336801  0.337542  0.947320  1
  Al  Al16  1  0.454249  0.660187  0.750000  1
  Ga  Ga17  1  0.132769  0.132877  0.250000  1
  Ga  Ga18  1  0.866820  0.865397  0.750000  1
  Ga  Ga19  1  0.340615  0.545123  0.250000  1
  Ga  Ga20  1  0.661469  0.457711  0.750000  1
  Ga  Ga21  1  0.544117  0.341055  0.250000  1
  Ir  Ir22  1  0.672407  0.326941  0.999927  1
  Ir  Ir23  1  0.328406  0.671943  0.997532  1
  Ir  Ir24  1  0.328406  0.671943  0.502468  1
  Ir  Ir25  1  0.672407  0.326941  0.500073  1
  Ir  Ir26  1  0.000520  0.000475  0.999869  1
  Ir  Ir27  1  0.000520  0.000475  0.500131  1
