# generated using pymatgen
data_PrEu15(InRh)4
_symmetry_space_group_name_H-M   'P 1'
_cell_length_a   10.23958925
_cell_length_b   10.21145761
_cell_length_c   10.21145900
_cell_angle_alpha   59.99999874
_cell_angle_beta   60.09083850
_cell_angle_gamma   60.09083973
_symmetry_Int_Tables_number   1
_chemical_formula_structural   PrEu15(InRh)4
_chemical_formula_sum   'Pr1 Eu15 In4 Rh4'
_cell_volume   756.02822347
_cell_formula_units_Z   1
loop_
 _symmetry_equiv_pos_site_id
 _symmetry_equiv_pos_as_xyz
  1  'x, y, z'
loop_
 _atom_site_type_symbol
 _atom_site_label
 _atom_site_symmetry_multiplicity
 _atom_site_fract_x
 _atom_site_fract_y
 _atom_site_fract_z
 _atom_site_occupancy
  Pr  Pr0  1  0.537148  0.154284  0.154284  1
  Eu  Eu1  1  0.695244  0.305905  0.305905  1
  Eu  Eu2  1  0.695244  0.692947  0.305905  1
  Eu  Eu3  1  0.305191  0.693729  0.307349  1
  Eu  Eu4  1  0.941222  0.944068  0.557355  1
  Eu  Eu5  1  0.153652  0.154636  0.537076  1
  Eu  Eu6  1  0.553966  0.944801  0.556433  1
  Eu  Eu7  1  0.153652  0.154636  0.154636  1
  Eu  Eu8  1  0.305191  0.307349  0.693729  1
  Eu  Eu9  1  0.941222  0.557355  0.557355  1
  Eu  Eu10  1  0.553966  0.556433  0.944801  1
  Eu  Eu11  1  0.553966  0.944801  0.944801  1
  Eu  Eu12  1  0.941222  0.557355  0.944068  1
  Eu  Eu13  1  0.153652  0.537076  0.154636  1
  Eu  Eu14  1  0.305191  0.693729  0.693729  1
  Eu  Eu15  1  0.695244  0.305905  0.692947  1
  In  In16  1  0.918933  0.921407  0.238255  1
  In  In17  1  0.233687  0.922104  0.922104  1
  In  In18  1  0.918933  0.238255  0.921407  1
  In  In19  1  0.918933  0.921407  0.921407  1
  Rh  Rh20  1  0.369506  0.355810  0.355810  1
  Rh  Rh21  1  0.916019  0.361327  0.361327  1
  Rh  Rh22  1  0.369506  0.355810  0.918875  1
  Rh  Rh23  1  0.369506  0.918875  0.355810  1
