# generated using pymatgen
data_Ba4Pr7GdS16
_symmetry_space_group_name_H-M   'P 1'
_cell_length_a   4.17583000
_cell_length_b   12.49677136
_cell_length_c   14.96820900
_cell_angle_alpha   89.92274531
_cell_angle_beta   90.00000000
_cell_angle_gamma   90.00000000
_symmetry_Int_Tables_number   1
_chemical_formula_structural   Ba4Pr7GdS16
_chemical_formula_sum   'Ba4 Pr7 Gd1 S16'
_cell_volume   781.10618714
_cell_formula_units_Z   1
loop_
 _symmetry_equiv_pos_site_id
 _symmetry_equiv_pos_as_xyz
  1  'x, y, z'
loop_
 _atom_site_type_symbol
 _atom_site_label
 _atom_site_symmetry_multiplicity
 _atom_site_fract_x
 _atom_site_fract_y
 _atom_site_fract_z
 _atom_site_occupancy
  Ba  Ba0  1  0.250000  0.756420  0.340768  1
  Ba  Ba1  1  0.250000  0.255344  0.161675  1
  Ba  Ba2  1  0.750000  0.242559  0.657701  1
  Ba  Ba3  1  0.750000  0.744488  0.839881  1
  Pr  Pr4  1  0.250000  0.423696  0.392766  1
  Pr  Pr5  1  0.250000  0.927898  0.109898  1
  Pr  Pr6  1  0.750000  0.573394  0.608166  1
  Pr  Pr7  1  0.750000  0.073930  0.892155  1
  Pr  Pr8  1  0.250000  0.420343  0.896802  1
  Pr  Pr9  1  0.250000  0.922552  0.601342  1
  Pr  Pr10  1  0.750000  0.579236  0.103479  1
  Gd  Gd11  1  0.750000  0.078459  0.395972  1
  S  S12  1  0.250000  0.208447  0.823784  1
  S  S13  1  0.250000  0.709336  0.674509  1
  S  S14  1  0.750000  0.791838  0.175881  1
  S  S15  1  0.750000  0.286514  0.327294  1
  S  S16  1  0.250000  0.130057  0.518391  1
  S  S17  1  0.250000  0.630858  0.975593  1
  S  S18  1  0.750000  0.874245  0.472778  1
  S  S19  1  0.750000  0.368657  0.024747  1
  S  S20  1  0.250000  0.519690  0.218146  1
  S  S21  1  0.250000  0.023665  0.286443  1
  S  S22  1  0.750000  0.479254  0.782702  1
  S  S23  1  0.750000  0.980020  0.716784  1
  S  S24  1  0.250000  0.418082  0.580733  1
  S  S25  1  0.250000  0.918973  0.920827  1
  S  S26  1  0.750000  0.580463  0.420284  1
  S  S27  1  0.750000  0.081582  0.080502  1
