# generated using pymatgen
data_Y4MoW3N8
_symmetry_space_group_name_H-M   'P 1'
_cell_length_a   3.21803000
_cell_length_b   5.73255840
_cell_length_c   10.58421874
_cell_angle_alpha   89.95715146
_cell_angle_beta   90.00000542
_cell_angle_gamma   90.00003779
_symmetry_Int_Tables_number   1
_chemical_formula_structural   Y4MoW3N8
_chemical_formula_sum   'Y4 Mo1 W3 N8'
_cell_volume   195.25279595
_cell_formula_units_Z   1
loop_
 _symmetry_equiv_pos_site_id
 _symmetry_equiv_pos_as_xyz
  1  'x, y, z'
loop_
 _atom_site_type_symbol
 _atom_site_label
 _atom_site_symmetry_multiplicity
 _atom_site_fract_x
 _atom_site_fract_y
 _atom_site_fract_z
 _atom_site_occupancy
  Y  Y0  1  0.250000  0.079667  0.853622  1
  Y  Y1  1  0.249999  0.579412  0.645370  1
  Y  Y2  1  0.750000  0.919972  0.145025  1
  Y  Y3  1  0.750000  0.420327  0.354447  1
  Mo  Mo4  1  0.750000  0.066336  0.594001  1
  W  W5  1  0.250000  0.433025  0.095014  1
  W  W6  1  0.250001  0.934196  0.405525  1
  W  W7  1  0.750000  0.567280  0.905258  1
  N  N8  1  0.250002  0.163923  0.249354  1
  N  N9  1  0.250001  0.665479  0.251145  1
  N  N10  1  0.749998  0.833178  0.751901  1
  N  N11  1  0.750000  0.338389  0.751330  1
  N  N12  1  0.250000  0.760238  0.992879  1
  N  N13  1  0.249999  0.257690  0.505834  1
  N  N14  1  0.749999  0.240170  0.007676  1
  N  N15  1  0.750000  0.740719  0.491619  1
