# generated using pymatgen
data_Tb7Tm3(SiPb3)2
_symmetry_space_group_name_H-M   'P 1'
_cell_length_a   9.32697800
_cell_length_b   9.32697810
_cell_length_c   6.51988800
_cell_angle_alpha   90.00000000
_cell_angle_beta   90.00000000
_cell_angle_gamma   119.99999966
_symmetry_Int_Tables_number   1
_chemical_formula_structural   Tb7Tm3(SiPb3)2
_chemical_formula_sum   'Tb7 Tm3 Si2 Pb6'
_cell_volume   491.19357545
_cell_formula_units_Z   1
loop_
 _symmetry_equiv_pos_site_id
 _symmetry_equiv_pos_as_xyz
  1  'x, y, z'
loop_
 _atom_site_type_symbol
 _atom_site_label
 _atom_site_symmetry_multiplicity
 _atom_site_fract_x
 _atom_site_fract_y
 _atom_site_fract_z
 _atom_site_occupancy
  Tb  Tb0  1  0.666667  0.333333  0.500000  1
  Tb  Tb1  1  0.749599  0.749745  0.250241  1
  Tb  Tb2  1  0.250255  0.999854  0.250241  1
  Tb  Tb3  1  0.000146  0.250401  0.250241  1
  Tb  Tb4  1  0.250255  0.250401  0.749759  1
  Tb  Tb5  1  0.749599  0.999854  0.749759  1
  Tb  Tb6  1  0.000146  0.749745  0.749759  1
  Tm  Tm7  1  0.333333  0.666667  0.500000  1
  Tm  Tm8  1  0.333333  0.666667  0.000000  1
  Tm  Tm9  1  0.666667  0.333333  0.000000  1
  Si  Si10  1  0.000000  0.000000  0.500000  1
  Si  Si11  1  0.000000  0.000000  0.000000  1
  Pb  Pb12  1  0.392908  0.393544  0.249782  1
  Pb  Pb13  1  0.606456  0.999364  0.249782  1
  Pb  Pb14  1  0.000636  0.607092  0.249782  1
  Pb  Pb15  1  0.606456  0.607092  0.750218  1
  Pb  Pb16  1  0.392908  0.999364  0.750218  1
  Pb  Pb17  1  0.000636  0.393544  0.750218  1
