# generated using pymatgen
data_CePa2TiSb5
_symmetry_space_group_name_H-M   'P 1'
_cell_length_a   9.25374000
_cell_length_b   9.21635777
_cell_length_c   6.21548400
_cell_angle_alpha   90.00000000
_cell_angle_beta   90.00000000
_cell_angle_gamma   120.13425761
_symmetry_Int_Tables_number   1
_chemical_formula_structural   CePa2TiSb5
_chemical_formula_sum   'Ce2 Pa4 Ti2 Sb10'
_cell_volume   458.45115194
_cell_formula_units_Z   2
loop_
 _symmetry_equiv_pos_site_id
 _symmetry_equiv_pos_as_xyz
  1  'x, y, z'
loop_
 _atom_site_type_symbol
 _atom_site_label
 _atom_site_symmetry_multiplicity
 _atom_site_fract_x
 _atom_site_fract_y
 _atom_site_fract_z
 _atom_site_occupancy
  Ce  Ce0  1  0.615436  0.000000  0.250000  1
  Ce  Ce1  1  0.384564  0.000000  0.750000  1
  Pa  Pa2  1  0.002982  0.612543  0.250000  1
  Pa  Pa3  1  0.997018  0.387457  0.750000  1
  Pa  Pa4  1  0.390439  0.387457  0.250000  1
  Pa  Pa5  1  0.609561  0.612543  0.750000  1
  Ti  Ti6  1  0.000000  0.000000  0.000000  1
  Ti  Ti7  1  0.000000  0.000000  0.500000  1
  Sb  Sb8  1  0.258011  0.000000  0.250000  1
  Sb  Sb9  1  0.741989  0.000000  0.750000  1
  Sb  Sb10  1  0.004597  0.263854  0.250000  1
  Sb  Sb11  1  0.995403  0.736146  0.750000  1
  Sb  Sb12  1  0.740744  0.736146  0.250000  1
  Sb  Sb13  1  0.259256  0.263854  0.750000  1
  Sb  Sb14  1  0.331072  0.662146  0.000000  1
  Sb  Sb15  1  0.668928  0.337854  0.000000  1
  Sb  Sb16  1  0.668928  0.337854  0.500000  1
  Sb  Sb17  1  0.331072  0.662146  0.500000  1
