# generated using pymatgen
data_Th8Zr7Si16Mo5
_symmetry_space_group_name_H-M   'P 1'
_cell_length_a   7.11775655
_cell_length_b   7.29602676
_cell_length_c   13.68537466
_cell_angle_alpha   90.09596380
_cell_angle_beta   89.78288271
_cell_angle_gamma   89.88050724
_symmetry_Int_Tables_number   1
_chemical_formula_structural   Th8Zr7Si16Mo5
_chemical_formula_sum   'Th8 Zr7 Si16 Mo5'
_cell_volume   710.69222080
_cell_formula_units_Z   1
loop_
 _symmetry_equiv_pos_site_id
 _symmetry_equiv_pos_as_xyz
  1  'x, y, z'
loop_
 _atom_site_type_symbol
 _atom_site_label
 _atom_site_symmetry_multiplicity
 _atom_site_fract_x
 _atom_site_fract_y
 _atom_site_fract_z
 _atom_site_occupancy
  Th  Th0  1  0.504485  0.331115  0.099009  1
  Th  Th1  1  0.000769  0.169277  0.404435  1
  Th  Th2  1  0.499264  0.670044  0.592750  1
  Th  Th3  1  0.995374  0.831246  0.903862  1
  Th  Th4  1  0.496245  0.669044  0.905519  1
  Th  Th5  1  0.000642  0.828617  0.593182  1
  Th  Th6  1  0.501997  0.331765  0.405447  1
  Th  Th7  1  0.002230  0.168367  0.096368  1
  Zr  Zr8  1  0.837155  0.326277  0.618880  1
  Zr  Zr9  1  0.338254  0.172662  0.878497  1
  Zr  Zr10  1  0.160618  0.674998  0.123930  1
  Zr  Zr11  1  0.665988  0.000577  0.750179  1
  Zr  Zr12  1  0.164776  0.496163  0.747618  1
  Zr  Zr13  1  0.335051  0.995476  0.254644  1
  Zr  Zr14  1  0.833412  0.506280  0.250356  1
  Si  Si15  1  0.655566  0.036499  0.539063  1
  Si  Si16  1  0.148374  0.460003  0.954631  1
  Si  Si17  1  0.351644  0.960935  0.047442  1
  Si  Si18  1  0.842347  0.551269  0.451536  1
  Si  Si19  1  0.339787  0.956339  0.458414  1
  Si  Si20  1  0.833196  0.541488  0.039397  1
  Si  Si21  1  0.665951  0.041915  0.961766  1
  Si  Si22  1  0.167839  0.456474  0.538969  1
  Si  Si23  1  0.543506  0.368116  0.748484  1
  Si  Si24  1  0.044240  0.130814  0.748704  1
  Si  Si25  1  0.459945  0.635569  0.253710  1
  Si  Si26  1  0.951079  0.867612  0.254257  1
  Si  Si27  1  0.793224  0.612362  0.751167  1
  Si  Si28  1  0.295708  0.885912  0.747585  1
  Si  Si29  1  0.204463  0.388987  0.253187  1
  Si  Si30  1  0.703445  0.107137  0.250614  1
  Mo  Mo31  1  0.657648  0.830923  0.375295  1
  Mo  Mo32  1  0.165322  0.674904  0.376516  1
  Mo  Mo33  1  0.667358  0.824921  0.127522  1
  Mo  Mo34  1  0.834382  0.324470  0.874357  1
  Mo  Mo35  1  0.338717  0.171448  0.622709  1
