# generated using pymatgen
data_Cs2ZnSi2SnAs4
_symmetry_space_group_name_H-M   'P 1'
_cell_length_a   8.72054352
_cell_length_b   8.85124536
_cell_length_c   8.46331320
_cell_angle_alpha   84.89114870
_cell_angle_beta   78.60849412
_cell_angle_gamma   73.22094112
_symmetry_Int_Tables_number   1
_chemical_formula_structural   Cs2ZnSi2SnAs4
_chemical_formula_sum   'Cs4 Zn2 Si4 Sn2 As8'
_cell_volume   612.77255978
_cell_formula_units_Z   2
loop_
 _symmetry_equiv_pos_site_id
 _symmetry_equiv_pos_as_xyz
  1  'x, y, z'
loop_
 _atom_site_type_symbol
 _atom_site_label
 _atom_site_symmetry_multiplicity
 _atom_site_fract_x
 _atom_site_fract_y
 _atom_site_fract_z
 _atom_site_occupancy
  Cs  Cs0  1  0.449688  0.756529  0.382863  1
  Cs  Cs1  1  0.550312  0.243471  0.617137  1
  Cs  Cs2  1  0.434133  0.787898  0.866593  1
  Cs  Cs3  1  0.565867  0.212102  0.133407  1
  Zn  Zn4  1  0.960245  0.816756  0.246393  1
  Zn  Zn5  1  0.039755  0.183244  0.753607  1
  Si  Si6  1  0.944670  0.575368  0.616368  1
  Si  Si7  1  0.055330  0.424632  0.383632  1
  Si  Si8  1  0.140264  0.468580  0.970607  1
  Si  Si9  1  0.859736  0.531420  0.029393  1
  Sn  Sn10  1  0.949251  0.897185  0.780991  1
  Sn  Sn11  1  0.050749  0.102815  0.219009  1
  As  As12  1  0.801946  0.834894  0.541804  1
  As  As13  1  0.198054  0.165106  0.458196  1
  As  As14  1  0.822822  0.393659  0.285945  1
  As  As15  1  0.177178  0.606341  0.714055  1
  As  As16  1  0.765275  0.809517  0.056716  1
  As  As17  1  0.234725  0.190483  0.943284  1
  As  As18  1  0.792598  0.429996  0.805807  1
  As  As19  1  0.207402  0.570004  0.194193  1
