# generated using pymatgen
data_U3Pa(Al3Ir)6
_symmetry_space_group_name_H-M   'P 1'
_cell_length_a   7.60640100
_cell_length_b   7.60730731
_cell_length_c   9.39520500
_cell_angle_alpha   90.00000000
_cell_angle_beta   90.00000000
_cell_angle_gamma   119.54621266
_symmetry_Int_Tables_number   1
_chemical_formula_structural   U3Pa(Al3Ir)6
_chemical_formula_sum   'U3 Pa1 Al18 Ir6'
_cell_volume   472.94958205
_cell_formula_units_Z   1
loop_
 _symmetry_equiv_pos_site_id
 _symmetry_equiv_pos_as_xyz
  1  'x, y, z'
loop_
 _atom_site_type_symbol
 _atom_site_label
 _atom_site_symmetry_multiplicity
 _atom_site_fract_x
 _atom_site_fract_y
 _atom_site_fract_z
 _atom_site_occupancy
  U  U0  1  0.004369  0.328698  0.250000  1
  U  U1  1  0.670709  0.996491  0.750000  1
  U  U2  1  0.330298  0.005350  0.250000  1
  Pa  Pa3  1  0.997967  0.670593  0.750000  1
  Al  Al4  1  0.129075  0.129619  0.750000  1
  Al  Al5  1  0.870695  0.871990  0.250000  1
  Al  Al6  1  0.002576  0.333648  0.573373  1
  Al  Al7  1  0.997724  0.663799  0.422149  1
  Al  Al8  1  0.997724  0.663799  0.077851  1
  Al  Al9  1  0.336558  0.004276  0.926787  1
  Al  Al10  1  0.002576  0.333648  0.926627  1
  Al  Al11  1  0.664532  0.998393  0.073874  1
  Al  Al12  1  0.664532  0.998393  0.426126  1
  Al  Al13  1  0.336558  0.004276  0.573213  1
  Al  Al14  1  0.334578  0.334355  0.055430  1
  Al  Al15  1  0.664239  0.664997  0.946656  1
  Al  Al16  1  0.664239  0.664997  0.553344  1
  Al  Al17  1  0.334578  0.334355  0.444570  1
  Al  Al18  1  0.340763  0.546819  0.750000  1
  Al  Al19  1  0.658117  0.450372  0.250000  1
  Al  Al20  1  0.545818  0.339439  0.750000  1
  Al  Al21  1  0.450653  0.660261  0.250000  1
  Ir  Ir22  1  0.674635  0.330384  0.502102  1
  Ir  Ir23  1  0.326799  0.673252  0.502172  1
  Ir  Ir24  1  0.326799  0.673252  0.997828  1
  Ir  Ir25  1  0.674635  0.330384  0.997898  1
  Ir  Ir26  1  0.999127  0.997081  0.501797  1
  Ir  Ir27  1  0.999127  0.997081  0.998203  1
