# generated using pymatgen
data_Dy(AlBr4)3
_symmetry_space_group_name_H-M   'P 1'
_cell_length_a   11.61120000
_cell_length_b   11.61119935
_cell_length_c   17.17839500
_cell_angle_alpha   90.00000000
_cell_angle_beta   90.00000000
_cell_angle_gamma   119.99999614
_symmetry_Int_Tables_number   1
_chemical_formula_structural   Dy(AlBr4)3
_chemical_formula_sum   'Dy3 Al9 Br36'
_cell_volume   2005.70667844
_cell_formula_units_Z   3
loop_
 _symmetry_equiv_pos_site_id
 _symmetry_equiv_pos_as_xyz
  1  'x, y, z'
loop_
 _atom_site_type_symbol
 _atom_site_label
 _atom_site_symmetry_multiplicity
 _atom_site_fract_x
 _atom_site_fract_y
 _atom_site_fract_z
 _atom_site_occupancy
  Dy  Dy0  1  0.986114  0.493056  0.000000  1
  Dy  Dy1  1  0.506944  0.013886  0.666667  1
  Dy  Dy2  1  0.506944  0.493056  0.333333  1
  Al  Al3  1  0.730824  0.269176  0.833333  1
  Al  Al4  1  0.136478  0.768870  0.604720  1
  Al  Al5  1  0.231130  0.367609  0.938053  1
  Al  Al6  1  0.632391  0.863522  0.271386  1
  Al  Al7  1  0.730824  0.461646  0.166667  1
  Al  Al8  1  0.538354  0.269176  0.500000  1
  Al  Al9  1  0.136478  0.367609  0.395280  1
  Al  Al10  1  0.632391  0.768870  0.728614  1
  Al  Al11  1  0.231130  0.863522  0.061947  1
  Br  Br12  1  0.013402  0.844149  0.544260  1
  Br  Br13  1  0.830747  0.986598  0.210927  1
  Br  Br14  1  0.155851  0.169253  0.877594  1
  Br  Br15  1  0.789750  0.589741  0.280418  1
  Br  Br16  1  0.410259  0.200009  0.613752  1
  Br  Br17  1  0.799991  0.210250  0.947085  1
  Br  Br18  1  0.410259  0.210250  0.386248  1
  Br  Br19  1  0.799991  0.589741  0.052915  1
  Br  Br20  1  0.789750  0.200009  0.719582  1
  Br  Br21  1  0.230711  0.342520  0.276446  1
  Br  Br22  1  0.657480  0.888191  0.609779  1
  Br  Br23  1  0.111809  0.769289  0.943113  1
  Br  Br24  1  0.657480  0.769289  0.390221  1
  Br  Br25  1  0.111809  0.342520  0.056887  1
  Br  Br26  1  0.230711  0.888191  0.723554  1
  Br  Br27  1  0.501432  0.654761  0.205756  1
  Br  Br28  1  0.345239  0.846673  0.539090  1
  Br  Br29  1  0.153327  0.498568  0.872423  1
  Br  Br30  1  0.345239  0.498568  0.460910  1
  Br  Br31  1  0.153327  0.654761  0.127577  1
  Br  Br32  1  0.501432  0.846673  0.794244  1
  Br  Br33  1  0.664121  0.498278  0.482667  1
  Br  Br34  1  0.501722  0.165843  0.816001  1
  Br  Br35  1  0.834157  0.335879  0.149334  1
  Br  Br36  1  0.501722  0.335879  0.183999  1
  Br  Br37  1  0.834157  0.498278  0.850666  1
  Br  Br38  1  0.664121  0.165843  0.517333  1
  Br  Br39  1  0.037114  0.490961  0.374583  1
  Br  Br40  1  0.509039  0.546154  0.707916  1
  Br  Br41  1  0.453846  0.962886  0.041249  1
  Br  Br42  1  0.509039  0.962886  0.292084  1
  Br  Br43  1  0.453846  0.490961  0.958751  1
  Br  Br44  1  0.037114  0.546154  0.625417  1
  Br  Br45  1  0.013402  0.169253  0.455740  1
  Br  Br46  1  0.830747  0.844149  0.789073  1
  Br  Br47  1  0.155851  0.986598  0.122406  1
