# generated using pymatgen
data_Tb3DyGaCo4
_symmetry_space_group_name_H-M   'P 1'
_cell_length_a   5.48837411
_cell_length_b   5.48837408
_cell_length_c   8.90410303
_cell_angle_alpha   109.21391775
_cell_angle_beta   109.21391843
_cell_angle_gamma   43.27892639
_symmetry_Int_Tables_number   1
_chemical_formula_structural   Tb3DyGaCo4
_chemical_formula_sum   'Tb3 Dy1 Ga1 Co4'
_cell_volume   171.96267906
_cell_formula_units_Z   1
loop_
 _symmetry_equiv_pos_site_id
 _symmetry_equiv_pos_as_xyz
  1  'x, y, z'
loop_
 _atom_site_type_symbol
 _atom_site_label
 _atom_site_symmetry_multiplicity
 _atom_site_fract_x
 _atom_site_fract_y
 _atom_site_fract_z
 _atom_site_occupancy
  Tb  Tb0  1  0.746297  0.746297  0.338259  1
  Tb  Tb1  1  0.253892  0.253892  0.661385  1
  Tb  Tb2  1  0.608759  0.608759  0.885172  1
  Dy  Dy3  1  0.392170  0.392170  0.115524  1
  Ga  Ga4  1  0.499882  0.499882  0.499692  1
  Co  Co5  1  0.093013  0.093013  0.120401  1
  Co  Co6  1  0.036229  0.036229  0.354223  1
  Co  Co7  1  0.963078  0.963078  0.645193  1
  Co  Co8  1  0.906680  0.906680  0.880148  1
