# generated using pymatgen
data_ScPa3(InRh2)2
_symmetry_space_group_name_H-M   'P 1'
_cell_length_a   7.65791440
_cell_length_b   7.65791447
_cell_length_c   3.56919200
_cell_angle_alpha   90.00000000
_cell_angle_beta   90.00000000
_cell_angle_gamma   92.23573058
_symmetry_Int_Tables_number   1
_chemical_formula_structural   ScPa3(InRh2)2
_chemical_formula_sum   'Sc1 Pa3 In2 Rh4'
_cell_volume   209.15112834
_cell_formula_units_Z   1
loop_
 _symmetry_equiv_pos_site_id
 _symmetry_equiv_pos_as_xyz
  1  'x, y, z'
loop_
 _atom_site_type_symbol
 _atom_site_label
 _atom_site_symmetry_multiplicity
 _atom_site_fract_x
 _atom_site_fract_y
 _atom_site_fract_z
 _atom_site_occupancy
  Sc  Sc0  1  0.171777  0.328223  0.500000  1
  Pa  Pa1  1  0.667962  0.173109  0.500000  1
  Pa  Pa2  1  0.326891  0.832038  0.500000  1
  Pa  Pa3  1  0.833359  0.666641  0.500000  1
  In  In4  1  0.484447  0.495873  0.000000  1
  In  In5  1  0.004127  0.015553  0.000000  1
  Rh  Rh6  1  0.381163  0.118837  0.000000  1
  Rh  Rh7  1  0.130063  0.642551  0.000000  1
  Rh  Rh8  1  0.857449  0.369937  0.000000  1
  Rh  Rh9  1  0.642761  0.857239  0.000000  1
