# generated using pymatgen
data_Tm6Nb2Fe7(Co3P4)3
_symmetry_space_group_name_H-M   'P 1'
_cell_length_a   3.70639400
_cell_length_b   10.57735936
_cell_length_c   12.15753523
_cell_angle_alpha   90.20830734
_cell_angle_beta   90.00000000
_cell_angle_gamma   90.00000000
_symmetry_Int_Tables_number   1
_chemical_formula_structural   Tm6Nb2Fe7(Co3P4)3
_chemical_formula_sum   'Tm6 Nb2 Fe7 Co9 P12'
_cell_volume   476.61917420
_cell_formula_units_Z   1
loop_
 _symmetry_equiv_pos_site_id
 _symmetry_equiv_pos_as_xyz
  1  'x, y, z'
loop_
 _atom_site_type_symbol
 _atom_site_label
 _atom_site_symmetry_multiplicity
 _atom_site_fract_x
 _atom_site_fract_y
 _atom_site_fract_z
 _atom_site_occupancy
  Tm  Tm0  1  0.000000  0.499518  0.528628  1
  Tm  Tm1  1  0.500000  0.999242  0.471505  1
  Tm  Tm2  1  0.500000  0.822903  0.205189  1
  Tm  Tm3  1  0.500000  0.178110  0.205276  1
  Tm  Tm4  1  0.000000  0.677474  0.794657  1
  Tm  Tm5  1  0.000000  0.321616  0.794648  1
  Nb  Nb6  1  0.500000  0.499880  0.154818  1
  Nb  Nb7  1  0.000000  0.999748  0.845042  1
  Fe  Fe8  1  0.500000  0.330797  0.995373  1
  Fe  Fe9  1  0.500000  0.668955  0.995468  1
  Fe  Fe10  1  0.000000  0.168785  0.004284  1
  Fe  Fe11  1  0.000000  0.830728  0.004375  1
  Fe  Fe12  1  0.500000  0.297302  0.430906  1
  Fe  Fe13  1  0.500000  0.703537  0.431820  1
  Fe  Fe14  1  0.000000  0.203365  0.569032  1
  Co  Co15  1  0.500000  0.500063  0.701161  1
  Co  Co16  1  0.000000  0.000468  0.299081  1
  Co  Co17  1  0.000000  0.499607  0.985427  1
  Co  Co18  1  0.500000  0.999997  0.014640  1
  Co  Co19  1  0.000000  0.797767  0.569136  1
  Co  Co20  1  0.500000  0.877069  0.704404  1
  Co  Co21  1  0.500000  0.120471  0.704279  1
  Co  Co22  1  0.000000  0.622331  0.295709  1
  Co  Co23  1  0.000000  0.378978  0.295482  1
  P  P24  1  0.500000  0.499526  0.884696  1
  P  P25  1  0.000000  0.000377  0.115416  1
  P  P26  1  0.500000  0.499960  0.357524  1
  P  P27  1  0.000000  0.002486  0.642536  1
  P  P28  1  0.500000  0.307986  0.614304  1
  P  P29  1  0.500000  0.690363  0.614866  1
  P  P30  1  0.000000  0.192201  0.385685  1
  P  P31  1  0.000000  0.808859  0.384505  1
  P  P32  1  0.500000  0.839556  0.893644  1
  P  P33  1  0.500000  0.160112  0.893513  1
  P  P34  1  0.000000  0.660216  0.106529  1
  P  P35  1  0.000000  0.339647  0.106441  1
