# generated using pymatgen
data_CeTmPd6
_symmetry_space_group_name_H-M   'P 1'
_cell_length_a   5.83348234
_cell_length_b   5.83348214
_cell_length_c   5.83348300
_cell_angle_alpha   60.00000081
_cell_angle_beta   60.00000194
_cell_angle_gamma   59.99999361
_symmetry_Int_Tables_number   1
_chemical_formula_structural   CeTmPd6
_chemical_formula_sum   'Ce1 Tm1 Pd6'
_cell_volume   140.36818589
_cell_formula_units_Z   1
loop_
 _symmetry_equiv_pos_site_id
 _symmetry_equiv_pos_as_xyz
  1  'x, y, z'
loop_
 _atom_site_type_symbol
 _atom_site_label
 _atom_site_symmetry_multiplicity
 _atom_site_fract_x
 _atom_site_fract_y
 _atom_site_fract_z
 _atom_site_occupancy
  Ce  Ce0  1  0.000000  0.000000  0.000000  1
  Tm  Tm1  1  0.500000  0.500000  0.500000  1
  Pd  Pd2  1  0.500000  0.000000  0.000000  1
  Pd  Pd3  1  0.000000  0.500000  0.500000  1
  Pd  Pd4  1  0.000000  0.500000  0.000000  1
  Pd  Pd5  1  0.500000  0.000000  0.500000  1
  Pd  Pd6  1  0.000000  0.000000  0.500000  1
  Pd  Pd7  1  0.500000  0.500000  0.000000  1
