# generated using pymatgen
data_Ta8Ti2Si5Sn
_symmetry_space_group_name_H-M   'P 1'
_cell_length_a   7.61812396
_cell_length_b   7.61812242
_cell_length_c   7.62151912
_cell_angle_alpha   128.54366864
_cell_angle_beta   128.38869430
_cell_angle_gamma   75.83834153
_symmetry_Int_Tables_number   1
_chemical_formula_structural   Ta8Ti2Si5Sn
_chemical_formula_sum   'Ta8 Ti2 Si5 Sn1'
_cell_volume   263.75929316
_cell_formula_units_Z   1
loop_
 _symmetry_equiv_pos_site_id
 _symmetry_equiv_pos_as_xyz
  1  'x, y, z'
loop_
 _atom_site_type_symbol
 _atom_site_label
 _atom_site_symmetry_multiplicity
 _atom_site_fract_x
 _atom_site_fract_y
 _atom_site_fract_z
 _atom_site_occupancy
  Ta  Ta0  1  0.505113  0.023329  0.824418  1
  Ta  Ta1  1  0.198910  0.680694  0.175582  1
  Ta  Ta2  1  0.993487  0.819869  0.516857  1
  Ta  Ta3  1  0.303012  0.476631  0.483143  1
  Ta  Ta4  1  0.476201  0.992961  0.173240  1
  Ta  Ta5  1  0.819721  0.302961  0.826760  1
  Ta  Ta6  1  0.002996  0.002996  0.000000  1
  Ta  Ta7  1  0.499357  0.499357  0.000000  1
  Ti  Ti8  1  0.023971  0.196216  0.517190  1
  Ti  Ti9  1  0.679025  0.506781  0.482810  1
  Si  Si10  1  0.251846  0.251846  0.000000  1
  Si  Si11  1  0.366818  0.131078  0.499669  1
  Si  Si12  1  0.631409  0.867149  0.500331  1
  Si  Si13  1  0.868566  0.369131  0.242486  1
  Si  Si14  1  0.126646  0.626080  0.757514  1
  Sn  Sn15  1  0.752921  0.752921  0.000000  1
