# generated using pymatgen
data_CaEu3Nb3CrO14
_symmetry_space_group_name_H-M   'P 1'
_cell_length_a   7.50942953
_cell_length_b   7.50942998
_cell_length_c   7.39373781
_cell_angle_alpha   59.48103141
_cell_angle_beta   59.48103308
_cell_angle_gamma   59.99999709
_symmetry_Int_Tables_number   1
_chemical_formula_structural   CaEu3Nb3CrO14
_chemical_formula_sum   'Ca1 Eu3 Nb3 Cr1 O14'
_cell_volume   292.49022117
_cell_formula_units_Z   1
loop_
 _symmetry_equiv_pos_site_id
 _symmetry_equiv_pos_as_xyz
  1  'x, y, z'
loop_
 _atom_site_type_symbol
 _atom_site_label
 _atom_site_symmetry_multiplicity
 _atom_site_fract_x
 _atom_site_fract_y
 _atom_site_fract_z
 _atom_site_occupancy
  Ca  Ca0  1  0.125000  0.125000  0.625000  1
  Eu  Eu1  1  0.125000  0.625000  0.125000  1
  Eu  Eu2  1  0.625000  0.125000  0.125000  1
  Eu  Eu3  1  0.125000  0.125000  0.125000  1
  Nb  Nb4  1  0.625000  0.125000  0.625000  1
  Nb  Nb5  1  0.125000  0.625000  0.625000  1
  Nb  Nb6  1  0.625000  0.625000  0.625000  1
  Cr  Cr7  1  0.625000  0.625000  0.125000  1
  O  O8  1  0.999461  0.999461  0.001617  1
  O  O9  1  0.250539  0.250539  0.248383  1
  O  O10  1  0.302617  0.302617  0.699055  1
  O  O11  1  0.550865  0.550865  0.948020  1
  O  O12  1  0.695712  0.302617  0.699055  1
  O  O13  1  0.699135  0.299750  0.301980  1
  O  O14  1  0.302617  0.695712  0.699055  1
  O  O15  1  0.299750  0.699135  0.301980  1
  O  O16  1  0.699135  0.699135  0.301980  1
  O  O17  1  0.947383  0.554288  0.550945  1
  O  O18  1  0.550865  0.950250  0.948020  1
  O  O19  1  0.947383  0.947383  0.550945  1
  O  O20  1  0.950250  0.550865  0.948020  1
  O  O21  1  0.554288  0.947383  0.550945  1
