# generated using pymatgen
data_YEr(Lu3Au2)2
_symmetry_space_group_name_H-M   'P 1'
_cell_length_a   4.84644500
_cell_length_b   7.05342753
_cell_length_c   8.79796200
_cell_angle_alpha   89.93506383
_cell_angle_beta   90.00000000
_cell_angle_gamma   90.00000000
_symmetry_Int_Tables_number   1
_chemical_formula_structural   YEr(Lu3Au2)2
_chemical_formula_sum   'Y1 Er1 Lu6 Au4'
_cell_volume   300.74976731
_cell_formula_units_Z   1
loop_
 _symmetry_equiv_pos_site_id
 _symmetry_equiv_pos_as_xyz
  1  'x, y, z'
loop_
 _atom_site_type_symbol
 _atom_site_label
 _atom_site_symmetry_multiplicity
 _atom_site_fract_x
 _atom_site_fract_y
 _atom_site_fract_z
 _atom_site_occupancy
  Y  Y0  1  0.750000  0.014994  0.677189  1
  Er  Er1  1  0.750000  0.515253  0.823743  1
  Lu  Lu2  1  0.250000  0.851516  0.923387  1
  Lu  Lu3  1  0.250000  0.352014  0.577265  1
  Lu  Lu4  1  0.750000  0.148976  0.080256  1
  Lu  Lu5  1  0.750000  0.648576  0.419755  1
  Lu  Lu6  1  0.250000  0.484319  0.177230  1
  Lu  Lu7  1  0.250000  0.984171  0.323206  1
  Au  Au8  1  0.250000  0.255394  0.901176  1
  Au  Au9  1  0.250000  0.752375  0.598871  1
  Au  Au10  1  0.750000  0.745874  0.100760  1
  Au  Au11  1  0.750000  0.246540  0.397160  1
