# generated using pymatgen
data_Yb2NbMoO6
_symmetry_space_group_name_H-M   'P 1'
_cell_length_a   5.73453600
_cell_length_b   5.48189259
_cell_length_c   9.63663533
_cell_angle_alpha   54.84744663
_cell_angle_beta   90.00000000
_cell_angle_gamma   90.00000000
_symmetry_Int_Tables_number   1
_chemical_formula_structural   Yb2NbMoO6
_chemical_formula_sum   'Yb4 Nb2 Mo2 O12'
_cell_volume   247.68903331
_cell_formula_units_Z   2
loop_
 _symmetry_equiv_pos_site_id
 _symmetry_equiv_pos_as_xyz
  1  'x, y, z'
loop_
 _atom_site_type_symbol
 _atom_site_label
 _atom_site_symmetry_multiplicity
 _atom_site_fract_x
 _atom_site_fract_y
 _atom_site_fract_z
 _atom_site_occupancy
  Yb  Yb0  1  0.440256  0.264283  0.753603  1
  Yb  Yb1  1  0.940256  0.735717  0.746397  1
  Yb  Yb2  1  0.559744  0.735717  0.246397  1
  Yb  Yb3  1  0.059744  0.264283  0.253603  1
  Nb  Nb4  1  0.500000  0.500000  0.000000  1
  Nb  Nb5  1  0.000000  0.500000  0.500000  1
  Mo  Mo6  1  0.500000  0.000000  0.500000  1
  Mo  Mo7  1  0.000000  0.000000  0.000000  1
  O  O8  1  0.210513  0.375745  0.935863  1
  O  O9  1  0.710513  0.624255  0.564137  1
  O  O10  1  0.789487  0.624255  0.064137  1
  O  O11  1  0.289487  0.375745  0.435863  1
  O  O12  1  0.308928  0.743189  0.053252  1
  O  O13  1  0.808928  0.256811  0.446748  1
  O  O14  1  0.691072  0.256811  0.946748  1
  O  O15  1  0.191072  0.743189  0.553252  1
  O  O16  1  0.045317  0.144775  0.741985  1
  O  O17  1  0.545317  0.855225  0.758015  1
  O  O18  1  0.454683  0.144775  0.241985  1
  O  O19  1  0.954683  0.855225  0.258015  1
