# generated using pymatgen
data_Tm3ZrAl17SiRh6
_symmetry_space_group_name_H-M   'P 1'
_cell_length_a   7.51333811
_cell_length_b   7.50474655
_cell_length_c   9.33167700
_cell_angle_alpha   90.00000000
_cell_angle_beta   90.00000000
_cell_angle_gamma   119.60981018
_symmetry_Int_Tables_number   1
_chemical_formula_structural   Tm3ZrAl17SiRh6
_chemical_formula_sum   'Tm3 Zr1 Al17 Si1 Rh6'
_cell_volume   457.46035588
_cell_formula_units_Z   1
loop_
 _symmetry_equiv_pos_site_id
 _symmetry_equiv_pos_as_xyz
  1  'x, y, z'
loop_
 _atom_site_type_symbol
 _atom_site_label
 _atom_site_symmetry_multiplicity
 _atom_site_fract_x
 _atom_site_fract_y
 _atom_site_fract_z
 _atom_site_occupancy
  Tm  Tm0  1  0.007197  0.322983  0.750000  1
  Tm  Tm1  1  0.671591  0.995343  0.250000  1
  Tm  Tm2  1  0.324503  0.007785  0.750000  1
  Zr  Zr3  1  0.994689  0.671195  0.250000  1
  Al  Al4  1  0.122863  0.120772  0.250000  1
  Al  Al5  1  0.999645  0.337552  0.079082  1
  Al  Al6  1  0.000251  0.663651  0.927980  1
  Al  Al7  1  0.000251  0.663651  0.572020  1
  Al  Al8  1  0.332068  0.997409  0.420775  1
  Al  Al9  1  0.999645  0.337552  0.420918  1
  Al  Al10  1  0.663005  0.998983  0.576693  1
  Al  Al11  1  0.663005  0.998983  0.923307  1
  Al  Al12  1  0.332068  0.997409  0.079225  1
  Al  Al13  1  0.335932  0.336020  0.550436  1
  Al  Al14  1  0.670000  0.667686  0.439228  1
  Al  Al15  1  0.670000  0.667686  0.060772  1
  Al  Al16  1  0.335932  0.336020  0.949564  1
  Al  Al17  1  0.335115  0.551203  0.250000  1
  Al  Al18  1  0.665396  0.451868  0.750000  1
  Al  Al19  1  0.555341  0.341850  0.250000  1
  Al  Al20  1  0.448869  0.662617  0.750000  1
  Si  Si21  1  0.868857  0.867439  0.750000  1
  Rh  Rh22  1  0.673429  0.328632  0.999924  1
  Rh  Rh23  1  0.329723  0.674146  0.000654  1
  Rh  Rh24  1  0.329723  0.674146  0.499346  1
  Rh  Rh25  1  0.673429  0.328632  0.500076  1
  Rh  Rh26  1  0.998737  0.999392  0.993773  1
  Rh  Rh27  1  0.998737  0.999392  0.506227  1
