# generated using pymatgen
data_CaPr8NdIr6
_symmetry_space_group_name_H-M   'P 1'
_cell_length_a   11.35219700
_cell_length_b   11.35219700
_cell_length_c   6.54527600
_cell_angle_alpha   90.00000000
_cell_angle_beta   90.00000000
_cell_angle_gamma   90.00000000
_symmetry_Int_Tables_number   1
_chemical_formula_structural   CaPr8NdIr6
_chemical_formula_sum   'Ca2 Pr16 Nd2 Ir12'
_cell_volume   843.50527445
_cell_formula_units_Z   2
loop_
 _symmetry_equiv_pos_site_id
 _symmetry_equiv_pos_as_xyz
  1  'x, y, z'
loop_
 _atom_site_type_symbol
 _atom_site_label
 _atom_site_symmetry_multiplicity
 _atom_site_fract_x
 _atom_site_fract_y
 _atom_site_fract_z
 _atom_site_occupancy
  Ca  Ca0  1  0.000000  0.000000  0.500000  1
  Ca  Ca1  1  0.000000  0.000000  0.000000  1
  Pr  Pr2  1  0.288050  0.088299  0.384475  1
  Pr  Pr3  1  0.288050  0.911701  0.884475  1
  Pr  Pr4  1  0.711950  0.088299  0.884475  1
  Pr  Pr5  1  0.711950  0.911701  0.384475  1
  Pr  Pr6  1  0.589408  0.791169  0.883143  1
  Pr  Pr7  1  0.589408  0.208831  0.383143  1
  Pr  Pr8  1  0.410592  0.791169  0.383143  1
  Pr  Pr9  1  0.410592  0.208831  0.883143  1
  Pr  Pr10  1  0.208831  0.410592  0.616857  1
  Pr  Pr11  1  0.208831  0.589408  0.116857  1
  Pr  Pr12  1  0.791169  0.410592  0.116857  1
  Pr  Pr13  1  0.791169  0.589408  0.616857  1
  Pr  Pr14  1  0.911701  0.711950  0.115525  1
  Pr  Pr15  1  0.911701  0.288050  0.615525  1
  Pr  Pr16  1  0.088299  0.711950  0.615525  1
  Pr  Pr17  1  0.088299  0.288050  0.115525  1
  Nd  Nd18  1  0.500000  0.500000  0.000000  1
  Nd  Nd19  1  0.500000  0.500000  0.500000  1
  Ir  Ir20  1  0.842615  0.157385  0.250000  1
  Ir  Ir21  1  0.842615  0.842615  0.750000  1
  Ir  Ir22  1  0.157385  0.157385  0.750000  1
  Ir  Ir23  1  0.157385  0.842615  0.250000  1
  Ir  Ir24  1  0.653559  0.346441  0.750000  1
  Ir  Ir25  1  0.653559  0.653559  0.250000  1
  Ir  Ir26  1  0.346441  0.346441  0.250000  1
  Ir  Ir27  1  0.346441  0.653559  0.750000  1
  Ir  Ir28  1  0.500000  0.000000  0.115223  1
  Ir  Ir29  1  0.500000  0.000000  0.615223  1
  Ir  Ir30  1  0.000000  0.500000  0.884777  1
  Ir  Ir31  1  0.000000  0.500000  0.384777  1
