# generated using pymatgen
data_Tb3Y13MgHg3Ir4
_symmetry_space_group_name_H-M   'P 1'
_cell_length_a   9.66075037
_cell_length_b   9.66671946
_cell_length_c   9.66672000
_cell_angle_alpha   59.99999814
_cell_angle_beta   59.97955708
_cell_angle_gamma   59.97955141
_symmetry_Int_Tables_number   1
_chemical_formula_structural   Tb3Y13MgHg3Ir4
_chemical_formula_sum   'Tb3 Y13 Mg1 Hg3 Ir4'
_cell_volume   638.14567221
_cell_formula_units_Z   1
loop_
 _symmetry_equiv_pos_site_id
 _symmetry_equiv_pos_as_xyz
  1  'x, y, z'
loop_
 _atom_site_type_symbol
 _atom_site_label
 _atom_site_symmetry_multiplicity
 _atom_site_fract_x
 _atom_site_fract_y
 _atom_site_fract_z
 _atom_site_occupancy
  Tb  Tb0  1  0.600375  0.598272  0.598272  1
  Tb  Tb1  1  0.600375  0.598272  0.203081  1
  Tb  Tb2  1  0.600375  0.203081  0.598272  1
  Y  Y3  1  0.192825  0.602391  0.602391  1
  Y  Y4  1  0.059354  0.440411  0.440411  1
  Y  Y5  1  0.436792  0.062324  0.062324  1
  Y  Y6  1  0.436792  0.062324  0.438561  1
  Y  Y7  1  0.059354  0.440411  0.059823  1
  Y  Y8  1  0.436792  0.438561  0.062324  1
  Y  Y9  1  0.059354  0.059823  0.440411  1
  Y  Y10  1  0.185801  0.812890  0.812890  1
  Y  Y11  1  0.812061  0.187362  0.187362  1
  Y  Y12  1  0.812061  0.187362  0.813215  1
  Y  Y13  1  0.185801  0.812890  0.188421  1
  Y  Y14  1  0.812061  0.813215  0.187362  1
  Y  Y15  1  0.185801  0.188421  0.812890  1
  Mg  Mg16  1  0.536028  0.821324  0.821324  1
  Hg  Hg17  1  0.830998  0.836277  0.836277  1
  Hg  Hg18  1  0.830998  0.836277  0.496450  1
  Hg  Hg19  1  0.830998  0.496450  0.836277  1
  Ir  Ir20  1  0.390525  0.393216  0.393216  1
  Ir  Ir21  1  0.390525  0.393216  0.823042  1
  Ir  Ir22  1  0.390525  0.823042  0.393216  1
  Ir  Ir23  1  0.823432  0.392189  0.392189  1
