# generated using pymatgen
data_Cr(SCl6)2
_symmetry_space_group_name_H-M   'P 1'
_cell_length_a   8.29440278
_cell_length_b   8.29440240
_cell_length_c   8.29440294
_cell_angle_alpha   78.71922066
_cell_angle_beta   78.71922161
_cell_angle_gamma   78.71921784
_symmetry_Int_Tables_number   1
_chemical_formula_structural   Cr(SCl6)2
_chemical_formula_sum   'Cr1 S2 Cl12'
_cell_volume   541.40004161
_cell_formula_units_Z   1
loop_
 _symmetry_equiv_pos_site_id
 _symmetry_equiv_pos_as_xyz
  1  'x, y, z'
loop_
 _atom_site_type_symbol
 _atom_site_label
 _atom_site_symmetry_multiplicity
 _atom_site_fract_x
 _atom_site_fract_y
 _atom_site_fract_z
 _atom_site_occupancy
  Cr  Cr0  1  0.000000  0.000000  0.000000  1
  S  S1  1  0.207319  0.207319  0.207319  1
  S  S2  1  0.792681  0.792681  0.792681  1
  Cl  Cl3  1  0.835988  0.835988  0.538277  1
  Cl  Cl4  1  0.873885  0.182321  0.182321  1
  Cl  Cl5  1  0.182321  0.182321  0.873885  1
  Cl  Cl6  1  0.182321  0.873885  0.182321  1
  Cl  Cl7  1  0.817679  0.126115  0.817679  1
  Cl  Cl8  1  0.126115  0.817679  0.817679  1
  Cl  Cl9  1  0.817679  0.817679  0.126115  1
  Cl  Cl10  1  0.461723  0.164012  0.164012  1
  Cl  Cl11  1  0.164012  0.164012  0.461723  1
  Cl  Cl12  1  0.164012  0.461723  0.164012  1
  Cl  Cl13  1  0.835988  0.538277  0.835988  1
  Cl  Cl14  1  0.538277  0.835988  0.835988  1
