# generated using pymatgen
data_Pr5Lu3(Si3Rh)4
_symmetry_space_group_name_H-M   'P 1'
_cell_length_a   8.25224400
_cell_length_b   8.25182095
_cell_length_c   8.16375500
_cell_angle_alpha   90.00000000
_cell_angle_beta   90.00000000
_cell_angle_gamma   119.99981359
_symmetry_Int_Tables_number   1
_chemical_formula_structural   Pr5Lu3(Si3Rh)4
_chemical_formula_sum   'Pr5 Lu3 Si12 Rh4'
_cell_volume   481.44121571
_cell_formula_units_Z   1
loop_
 _symmetry_equiv_pos_site_id
 _symmetry_equiv_pos_as_xyz
  1  'x, y, z'
loop_
 _atom_site_type_symbol
 _atom_site_label
 _atom_site_symmetry_multiplicity
 _atom_site_fract_x
 _atom_site_fract_y
 _atom_site_fract_z
 _atom_site_occupancy
  Pr  Pr0  1  0.999994  0.000012  0.250000  1
  Pr  Pr1  1  0.999993  0.999963  0.750000  1
  Pr  Pr2  1  0.499777  0.500230  0.250000  1
  Pr  Pr3  1  0.499795  0.999577  0.250000  1
  Pr  Pr4  1  0.000447  0.500222  0.250000  1
  Lu  Lu5  1  0.501028  0.498976  0.750000  1
  Lu  Lu6  1  0.997943  0.498979  0.750000  1
  Lu  Lu7  1  0.501027  0.002059  0.750000  1
  Si  Si8  1  0.832334  0.167668  0.506469  1
  Si  Si9  1  0.832331  0.664662  0.506448  1
  Si  Si10  1  0.335331  0.167666  0.506456  1
  Si  Si11  1  0.832334  0.167668  0.993531  1
  Si  Si12  1  0.832331  0.664662  0.993552  1
  Si  Si13  1  0.335331  0.167666  0.993544  1
  Si  Si14  1  0.168048  0.831956  0.992625  1
  Si  Si15  1  0.663912  0.831957  0.992613  1
  Si  Si16  1  0.168042  0.336085  0.992600  1
  Si  Si17  1  0.168048  0.831956  0.507375  1
  Si  Si18  1  0.663912  0.831957  0.507387  1
  Si  Si19  1  0.168042  0.336085  0.507400  1
  Rh  Rh20  1  0.666665  0.333332  0.539694  1
  Rh  Rh21  1  0.666665  0.333332  0.960306  1
  Rh  Rh22  1  0.333335  0.666665  0.957118  1
  Rh  Rh23  1  0.333335  0.666665  0.542882  1
