# generated using pymatgen
data_Gd4Dy3YSb20
_symmetry_space_group_name_H-M   'P 1'
_cell_length_a   4.31169800
_cell_length_b   13.39402091
_cell_length_c   14.59839900
_cell_angle_alpha   78.72399044
_cell_angle_beta   90.00000000
_cell_angle_gamma   90.00000000
_symmetry_Int_Tables_number   1
_chemical_formula_structural   Gd4Dy3YSb20
_chemical_formula_sum   'Gd4 Dy3 Y1 Sb20'
_cell_volume   826.79761245
_cell_formula_units_Z   1
loop_
 _symmetry_equiv_pos_site_id
 _symmetry_equiv_pos_as_xyz
  1  'x, y, z'
loop_
 _atom_site_type_symbol
 _atom_site_label
 _atom_site_symmetry_multiplicity
 _atom_site_fract_x
 _atom_site_fract_y
 _atom_site_fract_z
 _atom_site_occupancy
  Gd  Gd0  1  0.250000  0.400106  0.770106  1
  Gd  Gd1  1  0.750000  0.599673  0.229877  1
  Gd  Gd2  1  0.250000  0.667832  0.855515  1
  Gd  Gd3  1  0.750000  0.332360  0.145183  1
  Dy  Dy4  1  0.750000  0.327727  0.422887  1
  Dy  Dy5  1  0.250000  0.950988  0.361531  1
  Dy  Dy6  1  0.750000  0.049280  0.638516  1
  Y  Y7  1  0.250000  0.672321  0.577271  1
  Sb  Sb8  1  0.250000  0.147367  0.775831  1
  Sb  Sb9  1  0.750000  0.852683  0.223831  1
  Sb  Sb10  1  0.250000  0.143271  0.481437  1
  Sb  Sb11  1  0.750000  0.857358  0.518502  1
  Sb  Sb12  1  0.250000  0.147915  0.175459  1
  Sb  Sb13  1  0.750000  0.851965  0.824618  1
  Sb  Sb14  1  0.250000  0.420856  0.977541  1
  Sb  Sb15  1  0.750000  0.579009  0.022222  1
  Sb  Sb16  1  0.750000  0.039462  0.893008  1
  Sb  Sb17  1  0.250000  0.960641  0.106729  1
  Sb  Sb18  1  0.750000  0.134720  0.323651  1
  Sb  Sb19  1  0.250000  0.865720  0.676352  1
  Sb  Sb20  1  0.750000  0.286227  0.935054  1
  Sb  Sb21  1  0.250000  0.713533  0.064652  1
  Sb  Sb22  1  0.750000  0.294341  0.646868  1
  Sb  Sb23  1  0.250000  0.705589  0.353019  1
  Sb  Sb24  1  0.750000  0.580271  0.733912  1
  Sb  Sb25  1  0.250000  0.419244  0.266717  1
  Sb  Sb26  1  0.750000  0.575067  0.447721  1
  Sb  Sb27  1  0.250000  0.424472  0.551993  1
