# generated using pymatgen
data_Hf4Si4Ni
_symmetry_space_group_name_H-M   'P 1'
_cell_length_a   5.20316708
_cell_length_b   5.20316659
_cell_length_c   8.59760649
_cell_angle_alpha   72.27331126
_cell_angle_beta   72.27331583
_cell_angle_gamma   41.61846314
_symmetry_Int_Tables_number   1
_chemical_formula_structural   Hf4Si4Ni
_chemical_formula_sum   'Hf4 Si4 Ni1'
_cell_volume   146.16245536
_cell_formula_units_Z   1
loop_
 _symmetry_equiv_pos_site_id
 _symmetry_equiv_pos_as_xyz
  1  'x, y, z'
loop_
 _atom_site_type_symbol
 _atom_site_label
 _atom_site_symmetry_multiplicity
 _atom_site_fract_x
 _atom_site_fract_y
 _atom_site_fract_z
 _atom_site_occupancy
  Hf  Hf0  1  0.108952  0.108952  0.620531  1
  Hf  Hf1  1  0.891048  0.891048  0.379469  1
  Hf  Hf2  1  0.753820  0.753820  0.845223  1
  Hf  Hf3  1  0.246180  0.246180  0.154777  1
  Si  Si4  1  0.386898  0.386898  0.615116  1
  Si  Si5  1  0.613102  0.613102  0.384884  1
  Si  Si6  1  0.464900  0.464900  0.855982  1
  Si  Si7  1  0.535100  0.535100  0.144018  1
  Ni  Ni8  1  0.000000  0.000000  0.000000  1
