# generated using pymatgen
data_Ca8In3Hg4Pb
_symmetry_space_group_name_H-M   'P 1'
_cell_length_a   7.76667700
_cell_length_b   7.76098700
_cell_length_c   7.48804100
_cell_angle_alpha   90.00000819
_cell_angle_beta   90.00003771
_cell_angle_gamma   89.99985979
_symmetry_Int_Tables_number   1
_chemical_formula_structural   Ca8In3Hg4Pb
_chemical_formula_sum   'Ca8 In3 Hg4 Pb1'
_cell_volume   451.35724064
_cell_formula_units_Z   1
loop_
 _symmetry_equiv_pos_site_id
 _symmetry_equiv_pos_as_xyz
  1  'x, y, z'
loop_
 _atom_site_type_symbol
 _atom_site_label
 _atom_site_symmetry_multiplicity
 _atom_site_fract_x
 _atom_site_fract_y
 _atom_site_fract_z
 _atom_site_occupancy
  Ca  Ca0  1  0.497845  0.497904  0.246942  1
  Ca  Ca1  1  0.497855  0.002114  0.246950  1
  Ca  Ca2  1  0.002178  0.497920  0.248791  1
  Ca  Ca3  1  0.002184  0.002065  0.248794  1
  Ca  Ca4  1  0.002200  0.497918  0.751209  1
  Ca  Ca5  1  0.002196  0.002103  0.751209  1
  Ca  Ca6  1  0.497903  0.002137  0.753059  1
  Ca  Ca7  1  0.497911  0.497842  0.753058  1
  In  In8  1  0.249180  0.250000  0.000001  1
  In  In9  1  0.751024  0.750000  0.000001  1
  In  In10  1  0.250887  0.250000  0.499965  1
  Hg  Hg11  1  0.751887  0.249999  0.000017  1
  Hg  Hg12  1  0.248218  0.750000  0.999992  1
  Hg  Hg13  1  0.748223  0.250000  0.499945  1
  Hg  Hg14  1  0.251677  0.750001  0.500066  1
  Pb  Pb15  1  0.748636  0.750000  0.500003  1
