# generated using pymatgen
data_Nd2DyRuI3
_symmetry_space_group_name_H-M   'P 1'
_cell_length_a   4.32188400
_cell_length_b   9.02483416
_cell_length_c   12.52893042
_cell_angle_alpha   86.14622022
_cell_angle_beta   90.00000000
_cell_angle_gamma   90.00000000
_symmetry_Int_Tables_number   1
_chemical_formula_structural   Nd2DyRuI3
_chemical_formula_sum   'Nd4 Dy2 Ru2 I6'
_cell_volume   487.57699288
_cell_formula_units_Z   2
loop_
 _symmetry_equiv_pos_site_id
 _symmetry_equiv_pos_as_xyz
  1  'x, y, z'
loop_
 _atom_site_type_symbol
 _atom_site_label
 _atom_site_symmetry_multiplicity
 _atom_site_fract_x
 _atom_site_fract_y
 _atom_site_fract_z
 _atom_site_occupancy
  Nd  Nd0  1  0.750000  0.092356  0.681787  1
  Nd  Nd1  1  0.250000  0.907644  0.318213  1
  Nd  Nd2  1  0.250000  0.269825  0.900496  1
  Nd  Nd3  1  0.750000  0.730175  0.099504  1
  Dy  Dy4  1  0.750000  0.124676  0.121152  1
  Dy  Dy5  1  0.250000  0.875324  0.878848  1
  Ru  Ru6  1  0.750000  0.054074  0.907031  1
  Ru  Ru7  1  0.250000  0.945926  0.092969  1
  I  I8  1  0.250000  0.422485  0.135383  1
  I  I9  1  0.750000  0.577515  0.864617  1
  I  I10  1  0.250000  0.350979  0.640084  1
  I  I11  1  0.750000  0.649021  0.359916  1
  I  I12  1  0.750000  0.152819  0.389185  1
  I  I13  1  0.250000  0.847181  0.610815  1
