# generated using pymatgen
data_Hf5Sc8Ta(Si8W3)2
_symmetry_space_group_name_H-M   'P 1'
_cell_length_a   6.66966216
_cell_length_b   6.88126839
_cell_length_c   13.18376342
_cell_angle_alpha   89.87188857
_cell_angle_beta   90.03983411
_cell_angle_gamma   89.86091052
_symmetry_Int_Tables_number   1
_chemical_formula_structural   Hf5Sc8Ta(Si8W3)2
_chemical_formula_sum   'Hf5 Sc8 Ta1 Si16 W6'
_cell_volume   605.07507337
_cell_formula_units_Z   1
loop_
 _symmetry_equiv_pos_site_id
 _symmetry_equiv_pos_as_xyz
  1  'x, y, z'
loop_
 _atom_site_type_symbol
 _atom_site_label
 _atom_site_symmetry_multiplicity
 _atom_site_fract_x
 _atom_site_fract_y
 _atom_site_fract_z
 _atom_site_occupancy
  Hf  Hf0  1  0.664594  0.173675  0.625364  1
  Hf  Hf1  1  0.163877  0.327896  0.875798  1
  Hf  Hf2  1  0.336414  0.828260  0.122792  1
  Hf  Hf3  1  0.834498  0.669356  0.374978  1
  Hf  Hf4  1  0.329918  0.825819  0.375325  1
  Sc  Sc5  1  0.500856  0.673853  0.596575  1
  Sc  Sc6  1  0.000611  0.825909  0.906755  1
  Sc  Sc7  1  0.499141  0.324182  0.092424  1
  Sc  Sc8  1  0.997217  0.176921  0.405445  1
  Sc  Sc9  1  0.500076  0.326194  0.404531  1
  Sc  Sc10  1  0.997249  0.176161  0.094396  1
  Sc  Sc11  1  0.501322  0.675419  0.904896  1
  Sc  Sc12  1  0.001580  0.825732  0.595257  1
  Ta  Ta13  1  0.826094  0.670930  0.123511  1
  Si  Si14  1  0.668980  0.972328  0.457197  1
  Si  Si15  1  0.161579  0.528525  0.043883  1
  Si  Si16  1  0.343165  0.029792  0.954041  1
  Si  Si17  1  0.841146  0.470322  0.545648  1
  Si  Si18  1  0.322723  0.038815  0.542882  1
  Si  Si19  1  0.822216  0.462774  0.959701  1
  Si  Si20  1  0.675840  0.968626  0.035992  1
  Si  Si21  1  0.172996  0.528108  0.466409  1
  Si  Si22  1  0.467193  0.390292  0.752664  1
  Si  Si23  1  0.967687  0.108837  0.749077  1
  Si  Si24  1  0.532998  0.603814  0.248520  1
  Si  Si25  1  0.030002  0.892644  0.247241  1
  Si  Si26  1  0.704208  0.857751  0.750521  1
  Si  Si27  1  0.203056  0.643969  0.750732  1
  Si  Si28  1  0.294194  0.145811  0.249898  1
  Si  Si29  1  0.795569  0.354908  0.247900  1
  W  W30  1  0.673412  0.170856  0.872466  1
  W  W31  1  0.170504  0.329507  0.630250  1
  W  W32  1  0.839852  0.494715  0.750524  1
  W  W33  1  0.340427  0.007015  0.751094  1
  W  W34  1  0.158897  0.504573  0.247953  1
  W  W35  1  0.659908  0.995713  0.247359  1
