# generated using pymatgen
data_RbEr10(C2I9)2
_symmetry_space_group_name_H-M   'P 1'
_cell_length_a   11.45754216
_cell_length_b   11.46175713
_cell_length_c   11.47720989
_cell_angle_alpha   113.45206669
_cell_angle_beta   86.66850707
_cell_angle_gamma   120.12784971
_symmetry_Int_Tables_number   1
_chemical_formula_structural   RbEr10(C2I9)2
_chemical_formula_sum   'Rb1 Er10 C4 I18'
_cell_volume   1176.71537390
_cell_formula_units_Z   1
loop_
 _symmetry_equiv_pos_site_id
 _symmetry_equiv_pos_as_xyz
  1  'x, y, z'
loop_
 _atom_site_type_symbol
 _atom_site_label
 _atom_site_symmetry_multiplicity
 _atom_site_fract_x
 _atom_site_fract_y
 _atom_site_fract_z
 _atom_site_occupancy
  Rb  Rb0  1  0.500000  0.000000  0.500000  1
  Er  Er1  1  0.683542  0.727541  0.715580  1
  Er  Er2  1  0.275258  0.350337  0.015891  1
  Er  Er3  1  0.093144  0.384950  0.288176  1
  Er  Er4  1  0.965039  0.037451  0.320911  1
  Er  Er5  1  0.906856  0.615050  0.711824  1
  Er  Er6  1  0.102676  0.945109  0.000614  1
  Er  Er7  1  0.034961  0.962549  0.679089  1
  Er  Er8  1  0.316458  0.272459  0.284420  1
  Er  Er9  1  0.724742  0.649663  0.984109  1
  Er  Er10  1  0.897324  0.054891  0.999386  1
  C  C11  1  0.150237  0.217157  0.117590  1
  C  C12  1  0.849763  0.782843  0.882410  1
  C  C13  1  0.926276  0.859863  0.806117  1
  C  C14  1  0.073724  0.140137  0.193883  1
  I  I15  1  0.453104  0.531934  0.832933  1
  I  I16  1  0.381056  0.041685  0.157638  1
  I  I17  1  0.779771  0.857504  0.504805  1
  I  I18  1  0.840641  0.308504  0.152495  1
  I  I19  1  0.546896  0.468066  0.167067  1
  I  I20  1  0.220229  0.142496  0.495195  1
  I  I21  1  0.315390  0.096531  0.829333  1
  I  I22  1  0.684610  0.903469  0.170667  1
  I  I23  1  0.972869  0.756394  0.167994  1
  I  I24  1  0.935366  0.296847  0.496991  1
  I  I25  1  0.027131  0.243606  0.832006  1
  I  I26  1  0.064634  0.703153  0.503009  1
  I  I27  1  0.260735  0.619760  0.185658  1
  I  I28  1  0.739265  0.380240  0.814342  1
  I  I29  1  0.645856  0.439802  0.504767  1
  I  I30  1  0.159359  0.691496  0.847505  1
  I  I31  1  0.618944  0.958315  0.842362  1
  I  I32  1  0.354144  0.560198  0.495233  1
