# generated using pymatgen
data_Pr5Ho3(Si3Ir)4
_symmetry_space_group_name_H-M   'P 1'
_cell_length_a   8.24542800
_cell_length_b   8.24544242
_cell_length_c   8.27823200
_cell_angle_alpha   90.00000000
_cell_angle_beta   90.00000000
_cell_angle_gamma   119.99968175
_symmetry_Int_Tables_number   1
_chemical_formula_structural   Pr5Ho3(Si3Ir)4
_chemical_formula_sum   'Pr5 Ho3 Si12 Ir4'
_cell_volume   487.41263701
_cell_formula_units_Z   1
loop_
 _symmetry_equiv_pos_site_id
 _symmetry_equiv_pos_as_xyz
  1  'x, y, z'
loop_
 _atom_site_type_symbol
 _atom_site_label
 _atom_site_symmetry_multiplicity
 _atom_site_fract_x
 _atom_site_fract_y
 _atom_site_fract_z
 _atom_site_occupancy
  Pr  Pr0  1  0.999999  0.000000  0.250000  1
  Pr  Pr1  1  0.999999  0.000000  0.750000  1
  Pr  Pr2  1  0.505108  0.494894  0.250000  1
  Pr  Pr3  1  0.505106  0.010215  0.250000  1
  Pr  Pr4  1  0.989786  0.494893  0.250000  1
  Ho  Ho5  1  0.491576  0.508424  0.750000  1
  Ho  Ho6  1  0.491577  0.983154  0.750000  1
  Ho  Ho7  1  0.016848  0.508425  0.750000  1
  Si  Si8  1  0.167081  0.832919  0.507956  1
  Si  Si9  1  0.167079  0.334159  0.507958  1
  Si  Si10  1  0.665838  0.832919  0.507957  1
  Si  Si11  1  0.831161  0.168838  0.505454  1
  Si  Si12  1  0.831164  0.662328  0.505454  1
  Si  Si13  1  0.337673  0.168836  0.505454  1
  Si  Si14  1  0.831161  0.168838  0.994546  1
  Si  Si15  1  0.831164  0.662328  0.994546  1
  Si  Si16  1  0.337673  0.168836  0.994546  1
  Si  Si17  1  0.167081  0.832919  0.992044  1
  Si  Si18  1  0.167079  0.334159  0.992042  1
  Si  Si19  1  0.665838  0.832919  0.992043  1
  Ir  Ir20  1  0.333333  0.666671  0.494064  1
  Ir  Ir21  1  0.666669  0.333330  0.547471  1
  Ir  Ir22  1  0.666669  0.333330  0.952529  1
  Ir  Ir23  1  0.333333  0.666671  0.005936  1
