# generated using pymatgen
data_DyEr3Co4(P3Rh4)4
_symmetry_space_group_name_H-M   'P 1'
_cell_length_a   3.84035800
_cell_length_b   10.75513806
_cell_length_c   12.39184307
_cell_angle_alpha   89.98769217
_cell_angle_beta   90.00000000
_cell_angle_gamma   90.00000000
_symmetry_Int_Tables_number   1
_chemical_formula_structural   DyEr3Co4(P3Rh4)4
_chemical_formula_sum   'Dy1 Er3 Co4 P12 Rh16'
_cell_volume   511.82747601
_cell_formula_units_Z   1
loop_
 _symmetry_equiv_pos_site_id
 _symmetry_equiv_pos_as_xyz
  1  'x, y, z'
loop_
 _atom_site_type_symbol
 _atom_site_label
 _atom_site_symmetry_multiplicity
 _atom_site_fract_x
 _atom_site_fract_y
 _atom_site_fract_z
 _atom_site_occupancy
  Dy  Dy0  1  0.750000  0.085161  0.792470  1
  Er  Er1  1  0.250000  0.585196  0.707549  1
  Er  Er2  1  0.250000  0.914805  0.207463  1
  Er  Er3  1  0.750000  0.414794  0.292476  1
  Co  Co4  1  0.250000  0.464424  0.933730  1
  Co  Co5  1  0.250000  0.035621  0.433662  1
  Co  Co6  1  0.750000  0.535614  0.066306  1
  Co  Co7  1  0.750000  0.964319  0.566139  1
  P  P8  1  0.250000  0.423877  0.106258  1
  P  P9  1  0.250000  0.076072  0.606034  1
  P  P10  1  0.750000  0.576128  0.893735  1
  P  P11  1  0.750000  0.923864  0.393727  1
  P  P12  1  0.250000  0.272154  0.872685  1
  P  P13  1  0.250000  0.228205  0.372547  1
  P  P14  1  0.750000  0.728200  0.127453  1
  P  P15  1  0.750000  0.771845  0.627470  1
  P  P16  1  0.250000  0.599197  0.387950  1
  P  P17  1  0.250000  0.900533  0.888089  1
  P  P18  1  0.750000  0.400784  0.612070  1
  P  P19  1  0.750000  0.099207  0.112005  1
  Rh  Rh20  1  0.250000  0.716191  0.987675  1
  Rh  Rh21  1  0.250000  0.783745  0.487634  1
  Rh  Rh22  1  0.750000  0.283771  0.012347  1
  Rh  Rh23  1  0.750000  0.216231  0.512351  1
  Rh  Rh24  1  0.250000  0.408201  0.479748  1
  Rh  Rh25  1  0.250000  0.091796  0.980281  1
  Rh  Rh26  1  0.750000  0.591747  0.520262  1
  Rh  Rh27  1  0.750000  0.908262  0.020280  1
  Rh  Rh28  1  0.250000  0.227768  0.178376  1
  Rh  Rh29  1  0.250000  0.272617  0.678083  1
  Rh  Rh30  1  0.750000  0.772194  0.821646  1
  Rh  Rh31  1  0.750000  0.727796  0.321667  1
  Rh  Rh32  1  0.250000  0.886724  0.698850  1
  Rh  Rh33  1  0.250000  0.612887  0.199032  1
  Rh  Rh34  1  0.750000  0.112880  0.300970  1
  Rh  Rh35  1  0.750000  0.387191  0.800979  1
