# generated using pymatgen
data_Tm8Ta12Si15Sn
_symmetry_space_group_name_H-M   'P 1'
_cell_length_a   6.84864417
_cell_length_b   7.03083260
_cell_length_c   13.39855454
_cell_angle_alpha   90.16350069
_cell_angle_beta   89.74431346
_cell_angle_gamma   89.97361495
_symmetry_Int_Tables_number   1
_chemical_formula_structural   Tm8Ta12Si15Sn
_chemical_formula_sum   'Tm8 Ta12 Si15 Sn1'
_cell_volume   645.15366304
_cell_formula_units_Z   1
loop_
 _symmetry_equiv_pos_site_id
 _symmetry_equiv_pos_as_xyz
  1  'x, y, z'
loop_
 _atom_site_type_symbol
 _atom_site_label
 _atom_site_symmetry_multiplicity
 _atom_site_fract_x
 _atom_site_fract_y
 _atom_site_fract_z
 _atom_site_occupancy
  Tm  Tm0  1  0.003867  0.172785  0.094704  1
  Tm  Tm1  1  0.995339  0.828329  0.906192  1
  Tm  Tm2  1  0.495615  0.671500  0.905979  1
  Tm  Tm3  1  0.995412  0.834945  0.597324  1
  Tm  Tm4  1  0.503259  0.328687  0.095290  1
  Tm  Tm5  1  0.998872  0.166509  0.400515  1
  Tm  Tm6  1  0.508149  0.323489  0.399845  1
  Tm  Tm7  1  0.509672  0.680543  0.599181  1
  Ta  Ta8  1  0.159663  0.489517  0.756482  1
  Ta  Ta9  1  0.839444  0.509472  0.248665  1
  Ta  Ta10  1  0.338584  0.992434  0.248611  1
  Ta  Ta11  1  0.660641  0.007586  0.751626  1
  Ta  Ta12  1  0.345909  0.159293  0.630547  1
  Ta  Ta13  1  0.664611  0.827473  0.372705  1
  Ta  Ta14  1  0.159584  0.685128  0.368329  1
  Ta  Ta15  1  0.662435  0.824157  0.123812  1
  Ta  Ta16  1  0.826955  0.322854  0.627588  1
  Ta  Ta17  1  0.334592  0.173920  0.876261  1
  Ta  Ta18  1  0.834123  0.325117  0.876169  1
  Ta  Ta19  1  0.165760  0.674763  0.124189  1
  Si  Si20  1  0.038664  0.122103  0.751181  1
  Si  Si21  1  0.958057  0.880822  0.245628  1
  Si  Si22  1  0.460836  0.621502  0.249157  1
  Si  Si23  1  0.537382  0.380405  0.752206  1
  Si  Si24  1  0.291229  0.865049  0.753143  1
  Si  Si25  1  0.706056  0.129689  0.247115  1
  Si  Si26  1  0.206282  0.370948  0.248879  1
  Si  Si27  1  0.795376  0.629732  0.751813  1
  Si  Si28  1  0.826516  0.537485  0.457634  1
  Si  Si29  1  0.335208  0.963337  0.459822  1
  Si  Si30  1  0.836300  0.534758  0.041446  1
  Si  Si31  1  0.667180  0.037312  0.538171  1
  Si  Si32  1  0.163144  0.464695  0.960130  1
  Si  Si33  1  0.662970  0.034999  0.959381  1
  Si  Si34  1  0.335244  0.965755  0.041098  1
  Sn  Sn35  1  0.177070  0.462908  0.539180  1
