# generated using pymatgen
data_La6Cd4Pd12Au
_symmetry_space_group_name_H-M   'P 1'
_cell_length_a   8.66473547
_cell_length_b   8.66473576
_cell_length_c   8.66473600
_cell_angle_alpha   109.47121886
_cell_angle_beta   109.47121953
_cell_angle_gamma   109.47122436
_symmetry_Int_Tables_number   1
_chemical_formula_structural   La6Cd4Pd12Au
_chemical_formula_sum   'La6 Cd4 Pd12 Au1'
_cell_volume   500.77665069
_cell_formula_units_Z   1
loop_
 _symmetry_equiv_pos_site_id
 _symmetry_equiv_pos_as_xyz
  1  'x, y, z'
loop_
 _atom_site_type_symbol
 _atom_site_label
 _atom_site_symmetry_multiplicity
 _atom_site_fract_x
 _atom_site_fract_y
 _atom_site_fract_z
 _atom_site_occupancy
  La  La0  1  0.306350  0.306350  0.000000  1
  La  La1  1  0.693651  0.693651  0.000000  1
  La  La2  1  0.306350  0.000000  0.306350  1
  La  La3  1  0.000000  0.306350  0.306350  1
  La  La4  1  0.693651  0.000000  0.693651  1
  La  La5  1  0.000000  0.693651  0.693651  1
  Cd  Cd6  1  0.500000  0.000000  0.000000  1
  Cd  Cd7  1  0.000000  0.500000  0.000000  1
  Cd  Cd8  1  0.000000  0.000000  0.500000  1
  Cd  Cd9  1  0.500000  0.500000  0.500000  1
  Pd  Pd10  1  0.657593  0.342407  0.000000  1
  Pd  Pd11  1  0.342407  0.657593  0.000000  1
  Pd  Pd12  1  0.657593  0.657593  0.315186  1
  Pd  Pd13  1  0.684813  0.342407  0.342407  1
  Pd  Pd14  1  0.342407  0.684813  0.342407  1
  Pd  Pd15  1  0.657593  0.000000  0.342407  1
  Pd  Pd16  1  0.000000  0.657593  0.342407  1
  Pd  Pd17  1  0.342407  0.000000  0.657593  1
  Pd  Pd18  1  0.657593  0.315186  0.657593  1
  Pd  Pd19  1  0.000000  0.342407  0.657593  1
  Pd  Pd20  1  0.315186  0.657593  0.657593  1
  Pd  Pd21  1  0.342407  0.342407  0.684813  1
  Au  Au22  1  0.000000  0.000000  0.000000  1
