# generated using pymatgen
data_YbYOsC2
_symmetry_space_group_name_H-M   'P 1'
_cell_length_a   5.11690600
_cell_length_b   6.42578000
_cell_length_c   10.09557800
_cell_angle_alpha   90.00000000
_cell_angle_beta   90.00000000
_cell_angle_gamma   90.00000000
_symmetry_Int_Tables_number   1
_chemical_formula_structural   YbYOsC2
_chemical_formula_sum   'Yb4 Y4 Os4 C8'
_cell_volume   331.94373773
_cell_formula_units_Z   4
loop_
 _symmetry_equiv_pos_site_id
 _symmetry_equiv_pos_as_xyz
  1  'x, y, z'
loop_
 _atom_site_type_symbol
 _atom_site_label
 _atom_site_symmetry_multiplicity
 _atom_site_fract_x
 _atom_site_fract_y
 _atom_site_fract_z
 _atom_site_occupancy
  Yb  Yb0  1  0.250000  0.529420  0.221749  1
  Yb  Yb1  1  0.750000  0.470580  0.778251  1
  Yb  Yb2  1  0.750000  0.970580  0.721749  1
  Yb  Yb3  1  0.250000  0.029420  0.278251  1
  Y  Y4  1  0.250000  0.686161  0.558082  1
  Y  Y5  1  0.750000  0.313839  0.441918  1
  Y  Y6  1  0.750000  0.813839  0.058082  1
  Y  Y7  1  0.250000  0.186161  0.941918  1
  Os  Os8  1  0.250000  0.724753  0.860043  1
  Os  Os9  1  0.750000  0.275247  0.139957  1
  Os  Os10  1  0.750000  0.775247  0.360043  1
  Os  Os11  1  0.250000  0.224753  0.639957  1
  C  C12  1  0.250000  0.462348  0.757675  1
  C  C13  1  0.750000  0.537652  0.242325  1
  C  C14  1  0.750000  0.037652  0.257675  1
  C  C15  1  0.250000  0.962348  0.742325  1
  C  C16  1  0.250000  0.814160  0.038975  1
  C  C17  1  0.750000  0.185840  0.961025  1
  C  C18  1  0.750000  0.685840  0.538975  1
  C  C19  1  0.250000  0.314160  0.461025  1
