# generated using pymatgen
data_Pr10CdSi4As
_symmetry_space_group_name_H-M   'P 1'
_cell_length_a   7.82875000
_cell_length_b   9.26701804
_cell_length_c   7.82875000
_cell_angle_alpha   114.98611779
_cell_angle_beta   90.00000000
_cell_angle_gamma   114.98611779
_symmetry_Int_Tables_number   1
_chemical_formula_structural   Pr10CdSi4As
_chemical_formula_sum   'Pr10 Cd1 Si4 As1'
_cell_volume   455.49534932
_cell_formula_units_Z   1
loop_
 _symmetry_equiv_pos_site_id
 _symmetry_equiv_pos_as_xyz
  1  'x, y, z'
loop_
 _atom_site_type_symbol
 _atom_site_label
 _atom_site_symmetry_multiplicity
 _atom_site_fract_x
 _atom_site_fract_y
 _atom_site_fract_z
 _atom_site_occupancy
  Pr  Pr0  1  0.975726  0.951452  0.975726  1
  Pr  Pr1  1  0.524274  0.048548  0.524274  1
  Pr  Pr2  1  0.522197  0.721215  0.673415  1
  Pr  Pr3  1  0.199019  0.721215  0.047801  1
  Pr  Pr4  1  0.673415  0.721215  0.199019  1
  Pr  Pr5  1  0.047801  0.721215  0.522197  1
  Pr  Pr6  1  0.452199  0.278785  0.300981  1
  Pr  Pr7  1  0.826585  0.278785  0.977803  1
  Pr  Pr8  1  0.300981  0.278785  0.826585  1
  Pr  Pr9  1  0.977803  0.278785  0.452199  1
  Cd  Cd10  1  0.750000  0.500000  0.750000  1
  Si  Si11  1  0.884044  0.000000  0.615956  1
  Si  Si12  1  0.115956  0.000000  0.384044  1
  Si  Si13  1  0.615956  0.000000  0.115956  1
  Si  Si14  1  0.384044  0.000000  0.884044  1
  As  As15  1  0.250000  0.500000  0.250000  1
