# generated using pymatgen
data_Zr10ZnSn(BiPb)3
_symmetry_space_group_name_H-M   'P 1'
_cell_length_a   8.92655530
_cell_length_b   8.91792037
_cell_length_c   5.99716320
_cell_angle_alpha   90.01479047
_cell_angle_beta   89.97044126
_cell_angle_gamma   120.03203890
_symmetry_Int_Tables_number   1
_chemical_formula_structural   Zr10ZnSn(BiPb)3
_chemical_formula_sum   'Zr10 Zn1 Sn1 Bi3 Pb3'
_cell_volume   413.31734454
_cell_formula_units_Z   1
loop_
 _symmetry_equiv_pos_site_id
 _symmetry_equiv_pos_as_xyz
  1  'x, y, z'
loop_
 _atom_site_type_symbol
 _atom_site_label
 _atom_site_symmetry_multiplicity
 _atom_site_fract_x
 _atom_site_fract_y
 _atom_site_fract_z
 _atom_site_occupancy
  Zr  Zr0  1  0.333577  0.666817  0.000695  1
  Zr  Zr1  1  0.666713  0.333178  0.499397  1
  Zr  Zr2  1  0.666761  0.333183  0.000695  1
  Zr  Zr3  1  0.333534  0.666822  0.499397  1
  Zr  Zr4  1  0.272945  0.000000  0.265168  1
  Zr  Zr5  1  0.272506  0.271731  0.735080  1
  Zr  Zr6  1  0.000775  0.728269  0.735080  1
  Zr  Zr7  1  0.000951  0.273413  0.264601  1
  Zr  Zr8  1  0.727538  0.726587  0.264601  1
  Zr  Zr9  1  0.727419  0.000000  0.735428  1
  Zn  Zn10  1  0.000583  0.000000  0.499637  1
  Sn  Sn11  1  0.000767  0.000000  0.000301  1
  Bi  Bi12  1  0.612670  0.000000  0.247795  1
  Bi  Bi13  1  0.612740  0.611922  0.752323  1
  Bi  Bi14  1  0.000818  0.388078  0.752323  1
  Pb  Pb15  1  0.000486  0.615511  0.247299  1
  Pb  Pb16  1  0.384975  0.384489  0.247299  1
  Pb  Pb17  1  0.384242  0.000000  0.752883  1
