# generated using pymatgen
data_Nd2P24IrRu7
_symmetry_space_group_name_H-M   'P 1'
_cell_length_a   8.10956170
_cell_length_b   8.10956138
_cell_length_c   8.10956200
_cell_angle_alpha   89.94530111
_cell_angle_beta   89.94530111
_cell_angle_gamma   89.94530544
_symmetry_Int_Tables_number   1
_chemical_formula_structural   Nd2P24IrRu7
_chemical_formula_sum   'Nd2 P24 Ir1 Ru7'
_cell_volume   533.32452195
_cell_formula_units_Z   1
loop_
 _symmetry_equiv_pos_site_id
 _symmetry_equiv_pos_as_xyz
  1  'x, y, z'
loop_
 _atom_site_type_symbol
 _atom_site_label
 _atom_site_symmetry_multiplicity
 _atom_site_fract_x
 _atom_site_fract_y
 _atom_site_fract_z
 _atom_site_occupancy
  Nd  Nd0  1  0.996816  0.996816  0.996816  1
  Nd  Nd1  1  0.503184  0.503184  0.503184  1
  P  P2  1  0.357254  0.142068  0.997550  1
  P  P3  1  0.643002  0.143722  0.000083  1
  P  P4  1  0.356391  0.856671  0.999757  1
  P  P5  1  0.642853  0.856406  0.999900  1
  P  P6  1  0.357931  0.502449  0.142746  1
  P  P7  1  0.643329  0.500243  0.143609  1
  P  P8  1  0.997550  0.357254  0.142068  1
  P  P9  1  0.000083  0.643002  0.143722  1
  P  P10  1  0.502449  0.142746  0.357931  1
  P  P11  1  0.499917  0.856998  0.356278  1
  P  P12  1  0.142068  0.997550  0.357254  1
  P  P13  1  0.856671  0.999757  0.356391  1
  P  P14  1  0.142746  0.357931  0.502449  1
  P  P15  1  0.856998  0.356278  0.499917  1
  P  P16  1  0.143609  0.643329  0.500243  1
  P  P17  1  0.857147  0.643595  0.500099  1
  P  P18  1  0.143722  0.000083  0.643002  1
  P  P19  1  0.856406  0.999900  0.642853  1
  P  P20  1  0.500243  0.143609  0.643329  1
  P  P21  1  0.500099  0.857147  0.643595  1
  P  P22  1  0.999757  0.356391  0.856671  1
  P  P23  1  0.999900  0.642853  0.856406  1
  P  P24  1  0.356278  0.499917  0.856998  1
  P  P25  1  0.643595  0.500099  0.857147  1
  Ir  Ir26  1  0.250000  0.250000  0.250000  1
  Ru  Ru27  1  0.750000  0.250000  0.250000  1
  Ru  Ru28  1  0.250000  0.750000  0.250000  1
  Ru  Ru29  1  0.750000  0.750000  0.250000  1
  Ru  Ru30  1  0.250000  0.250000  0.750000  1
  Ru  Ru31  1  0.750000  0.250000  0.750000  1
  Ru  Ru32  1  0.250000  0.750000  0.750000  1
  Ru  Ru33  1  0.750000  0.750000  0.750000  1
