# generated using pymatgen
data_Tm9Th3Ru4
_symmetry_space_group_name_H-M   'P 1'
_cell_length_a   6.26932068
_cell_length_b   7.19578987
_cell_length_c   9.36909400
_cell_angle_alpha   90.00000000
_cell_angle_beta   90.00000000
_cell_angle_gamma   89.54442305
_symmetry_Int_Tables_number   1
_chemical_formula_structural   Tm9Th3Ru4
_chemical_formula_sum   'Tm9 Th3 Ru4'
_cell_volume   422.65189924
_cell_formula_units_Z   1
loop_
 _symmetry_equiv_pos_site_id
 _symmetry_equiv_pos_as_xyz
  1  'x, y, z'
loop_
 _atom_site_type_symbol
 _atom_site_label
 _atom_site_symmetry_multiplicity
 _atom_site_fract_x
 _atom_site_fract_y
 _atom_site_fract_z
 _atom_site_occupancy
  Tm  Tm0  1  0.861458  0.536220  0.250000  1
  Tm  Tm1  1  0.166978  0.175733  0.066674  1
  Tm  Tm2  1  0.835733  0.822630  0.937337  1
  Tm  Tm3  1  0.664300  0.325565  0.936202  1
  Tm  Tm4  1  0.835733  0.822630  0.562663  1
  Tm  Tm5  1  0.329749  0.676263  0.069062  1
  Tm  Tm6  1  0.166978  0.175733  0.433326  1
  Tm  Tm7  1  0.329749  0.676263  0.430938  1
  Tm  Tm8  1  0.664300  0.325565  0.563798  1
  Th  Th9  1  0.649715  0.046035  0.250000  1
  Th  Th10  1  0.352436  0.953024  0.750000  1
  Th  Th11  1  0.146026  0.454620  0.750000  1
  Ru  Ru12  1  0.459879  0.368136  0.250000  1
  Ru  Ru13  1  0.539815  0.629821  0.750000  1
  Ru  Ru14  1  0.962529  0.130783  0.750000  1
  Ru  Ru15  1  0.034621  0.880978  0.250000  1
