# generated using pymatgen
data_Sc3Cu2SiC
_symmetry_space_group_name_H-M   'P 1'
_cell_length_a   8.49767662
_cell_length_b   8.49767627
_cell_length_c   8.49767700
_cell_angle_alpha   60.00000105
_cell_angle_beta   60.00000240
_cell_angle_gamma   60.00000699
_symmetry_Int_Tables_number   1
_chemical_formula_structural   Sc3Cu2SiC
_chemical_formula_sum   'Sc12 Cu8 Si4 C4'
_cell_volume   433.89599110
_cell_formula_units_Z   4
loop_
 _symmetry_equiv_pos_site_id
 _symmetry_equiv_pos_as_xyz
  1  'x, y, z'
loop_
 _atom_site_type_symbol
 _atom_site_label
 _atom_site_symmetry_multiplicity
 _atom_site_fract_x
 _atom_site_fract_y
 _atom_site_fract_z
 _atom_site_occupancy
  Sc  Sc0  1  0.699250  0.300750  0.300750  1
  Sc  Sc1  1  0.949250  0.949250  0.550750  1
  Sc  Sc2  1  0.699250  0.699250  0.300750  1
  Sc  Sc3  1  0.699250  0.300750  0.699250  1
  Sc  Sc4  1  0.300750  0.699250  0.300750  1
  Sc  Sc5  1  0.550750  0.949250  0.550750  1
  Sc  Sc6  1  0.550750  0.949250  0.949250  1
  Sc  Sc7  1  0.949250  0.550750  0.550750  1
  Sc  Sc8  1  0.949250  0.550750  0.949250  1
  Sc  Sc9  1  0.300750  0.300750  0.699250  1
  Sc  Sc10  1  0.550750  0.550750  0.949250  1
  Sc  Sc11  1  0.300750  0.699250  0.699250  1
  Cu  Cu12  1  0.921135  0.921135  0.236594  1
  Cu  Cu13  1  0.328865  0.328865  0.328865  1
  Cu  Cu14  1  0.236594  0.921135  0.921135  1
  Cu  Cu15  1  0.328865  0.013406  0.328865  1
  Cu  Cu16  1  0.013406  0.328865  0.328865  1
  Cu  Cu17  1  0.328865  0.328865  0.013406  1
  Cu  Cu18  1  0.921135  0.921135  0.921135  1
  Cu  Cu19  1  0.921135  0.236594  0.921135  1
  Si  Si20  1  0.125000  0.125000  0.125000  1
  Si  Si21  1  0.625000  0.125000  0.125000  1
  Si  Si22  1  0.125000  0.125000  0.625000  1
  Si  Si23  1  0.125000  0.625000  0.125000  1
  C  C24  1  0.625000  0.625000  0.625000  1
  C  C25  1  0.625000  0.625000  0.125000  1
  C  C26  1  0.125000  0.625000  0.625000  1
  C  C27  1  0.625000  0.125000  0.625000  1
