# generated using pymatgen
data_LiTl3Ni(SO4)6
_symmetry_space_group_name_H-M   'P 1'
_cell_length_a   8.60979067
_cell_length_b   8.58084706
_cell_length_c   9.36215213
_cell_angle_alpha   62.39363311
_cell_angle_beta   62.59258703
_cell_angle_gamma   59.88361266
_symmetry_Int_Tables_number   1
_chemical_formula_structural   LiTl3Ni(SO4)6
_chemical_formula_sum   'Li1 Tl3 Ni1 S6 O24'
_cell_volume   506.23006769
_cell_formula_units_Z   1
loop_
 _symmetry_equiv_pos_site_id
 _symmetry_equiv_pos_as_xyz
  1  'x, y, z'
loop_
 _atom_site_type_symbol
 _atom_site_label
 _atom_site_symmetry_multiplicity
 _atom_site_fract_x
 _atom_site_fract_y
 _atom_site_fract_z
 _atom_site_occupancy
  Li  Li0  1  0.779517  0.418621  0.632918  1
  Tl  Tl1  1  0.352187  0.346208  0.943853  1
  Tl  Tl2  1  0.640986  0.649160  0.064926  1
  Tl  Tl3  1  0.848989  0.854431  0.454100  1
  Ni  Ni4  1  0.166142  0.153868  0.525528  1
  S  S5  1  0.043516  0.447206  0.748019  1
  S  S6  1  0.536369  0.255667  0.253207  1
  S  S7  1  0.254088  0.955355  0.250109  1
  S  S8  1  0.771554  0.041384  0.744956  1
  S  S9  1  0.446494  0.756847  0.747244  1
  S  S10  1  0.943214  0.545378  0.261208  1
  O  O11  1  0.325865  0.065968  0.070162  1
  O  O12  1  0.069403  0.500711  0.101431  1
  O  O13  1  0.016898  0.338281  0.680610  1
  O  O14  1  0.029950  0.641307  0.628609  1
  O  O15  1  0.346153  0.294936  0.373368  1
  O  O16  1  0.048623  0.008670  0.286211  1
  O  O17  1  0.531338  0.317354  0.076404  1
  O  O18  1  0.234944  0.347245  0.768952  1
  O  O19  1  0.653435  0.048888  0.296231  1
  O  O20  1  0.357199  0.751946  0.256205  1
  O  O21  1  0.632257  0.361829  0.251244  1
  O  O22  1  0.289807  0.993249  0.367457  1
  O  O23  1  0.701567  0.027836  0.633125  1
  O  O24  1  0.349810  0.638123  0.771225  1
  O  O25  1  0.653576  0.238513  0.764108  1
  O  O26  1  0.350737  0.954797  0.665177  1
  O  O27  1  0.745777  0.643212  0.253085  1
  O  O28  1  0.449226  0.735439  0.913118  1
  O  O29  1  0.969210  0.022194  0.673032  1
  O  O30  1  0.647215  0.682426  0.636696  1
  O  O31  1  0.952217  0.371157  0.409998  1
  O  O32  1  0.997318  0.673359  0.280915  1
  O  O33  1  0.897531  0.455341  0.914604  1
  O  O34  1  0.741088  0.900195  0.914567  1
