# generated using pymatgen
data_Y10In8IrPt3
_symmetry_space_group_name_H-M   'P 1'
_cell_length_a   3.65581400
_cell_length_b   8.16154846
_cell_length_c   18.28258919
_cell_angle_alpha   89.97247484
_cell_angle_beta   90.00000000
_cell_angle_gamma   90.00000000
_symmetry_Int_Tables_number   1
_chemical_formula_structural   Y10In8IrPt3
_chemical_formula_sum   'Y10 In8 Ir1 Pt3'
_cell_volume   545.49943615
_cell_formula_units_Z   1
loop_
 _symmetry_equiv_pos_site_id
 _symmetry_equiv_pos_as_xyz
  1  'x, y, z'
loop_
 _atom_site_type_symbol
 _atom_site_label
 _atom_site_symmetry_multiplicity
 _atom_site_fract_x
 _atom_site_fract_y
 _atom_site_fract_z
 _atom_site_occupancy
  Y  Y0  1  0.000000  0.114238  0.412762  1
  Y  Y1  1  0.000000  0.883783  0.584525  1
  Y  Y2  1  0.000000  0.383848  0.915762  1
  Y  Y3  1  0.000000  0.616228  0.085852  1
  Y  Y4  1  0.000000  0.234542  0.222238  1
  Y  Y5  1  0.000000  0.758989  0.779939  1
  Y  Y6  1  0.000000  0.258654  0.720853  1
  Y  Y7  1  0.000000  0.750282  0.278682  1
  Y  Y8  1  0.000000  0.000065  0.000171  1
  Y  Y9  1  0.000000  0.500999  0.499282  1
  In  In10  1  0.500000  0.423678  0.350821  1
  In  In11  1  0.500000  0.577267  0.648881  1
  In  In12  1  0.500000  0.077466  0.851376  1
  In  In13  1  0.500000  0.926811  0.148837  1
  In  In14  1  0.500000  0.291947  0.067553  1
  In  In15  1  0.500000  0.707586  0.933330  1
  In  In16  1  0.500000  0.208547  0.567007  1
  In  In17  1  0.500000  0.792794  0.430990  1
  Ir  Ir18  1  0.500000  0.018666  0.303737  1
  Pt  Pt19  1  0.500000  0.977025  0.696619  1
  Pt  Pt20  1  0.500000  0.477285  0.803670  1
  Pt  Pt21  1  0.500000  0.519299  0.197114  1
