# generated using pymatgen
data_Sm2CI3
_symmetry_space_group_name_H-M   'P 1'
_cell_length_a   13.81642500
_cell_length_b   8.51061834
_cell_length_c   16.83971400
_cell_angle_alpha   59.77007430
_cell_angle_beta   90.00000000
_cell_angle_gamma   90.00000000
_symmetry_Int_Tables_number   1
_chemical_formula_structural   Sm2CI3
_chemical_formula_sum   'Sm16 C8 I24'
_cell_volume   1710.84735382
_cell_formula_units_Z   8
loop_
 _symmetry_equiv_pos_site_id
 _symmetry_equiv_pos_as_xyz
  1  'x, y, z'
loop_
 _atom_site_type_symbol
 _atom_site_label
 _atom_site_symmetry_multiplicity
 _atom_site_fract_x
 _atom_site_fract_y
 _atom_site_fract_z
 _atom_site_occupancy
  Sm  Sm0  1  0.600622  0.137420  0.575763  1
  Sm  Sm1  1  0.405360  0.288836  0.428863  1
  Sm  Sm2  1  0.100622  0.862580  0.924237  1
  Sm  Sm3  1  0.905360  0.711164  0.071137  1
  Sm  Sm4  1  0.399378  0.862580  0.424237  1
  Sm  Sm5  1  0.594640  0.711164  0.571137  1
  Sm  Sm6  1  0.899378  0.137420  0.075763  1
  Sm  Sm7  1  0.094640  0.288836  0.928863  1
  Sm  Sm8  1  0.608232  0.628879  0.370362  1
  Sm  Sm9  1  0.391768  0.371121  0.629638  1
  Sm  Sm10  1  0.108232  0.371121  0.129638  1
  Sm  Sm11  1  0.891768  0.628879  0.870362  1
  Sm  Sm12  1  0.366036  0.839992  0.660325  1
  Sm  Sm13  1  0.633964  0.160008  0.339675  1
  Sm  Sm14  1  0.866036  0.160008  0.839675  1
  Sm  Sm15  1  0.133964  0.839992  0.160325  1
  C  C16  1  0.468536  0.962598  0.537556  1
  C  C17  1  0.531464  0.037402  0.462444  1
  C  C18  1  0.968536  0.037402  0.962444  1
  C  C19  1  0.031464  0.962598  0.037556  1
  C  C20  1  0.518296  0.414567  0.513550  1
  C  C21  1  0.018296  0.585433  0.986450  1
  C  C22  1  0.481704  0.585433  0.486450  1
  C  C23  1  0.981704  0.414567  0.013550  1
  I  I24  1  0.768774  0.325907  0.427164  1
  I  I25  1  0.232824  0.185200  0.571618  1
  I  I26  1  0.268774  0.674093  0.072836  1
  I  I27  1  0.732824  0.814800  0.928382  1
  I  I28  1  0.231226  0.674093  0.572836  1
  I  I29  1  0.767176  0.814800  0.428382  1
  I  I30  1  0.731226  0.325907  0.927164  1
  I  I31  1  0.267176  0.185200  0.071618  1
  I  I32  1  0.726254  0.338021  0.664561  1
  I  I33  1  0.273746  0.661979  0.335439  1
  I  I34  1  0.226254  0.661979  0.835439  1
  I  I35  1  0.773746  0.338021  0.164561  1
  I  I36  1  0.486304  0.988577  0.765390  1
  I  I37  1  0.511422  0.518198  0.237087  1
  I  I38  1  0.986304  0.011423  0.734610  1
  I  I39  1  0.011422  0.481802  0.262913  1
  I  I40  1  0.513696  0.011423  0.234610  1
  I  I41  1  0.488578  0.481802  0.762913  1
  I  I42  1  0.013696  0.988577  0.265390  1
  I  I43  1  0.988578  0.518198  0.737087  1
  I  I44  1  0.745975  0.812443  0.680366  1
  I  I45  1  0.254025  0.187557  0.319634  1
  I  I46  1  0.245975  0.187557  0.819634  1
  I  I47  1  0.754025  0.812443  0.180366  1
