# generated using pymatgen
data_Lu2P7Ru12
_symmetry_space_group_name_H-M   'P 1'
_cell_length_a   9.38752000
_cell_length_b   9.38751881
_cell_length_c   3.94561100
_cell_angle_alpha   90.00000000
_cell_angle_beta   90.00000000
_cell_angle_gamma   119.99999715
_symmetry_Int_Tables_number   1
_chemical_formula_structural   Lu2P7Ru12
_chemical_formula_sum   'Lu2 P7 Ru12'
_cell_volume   301.12485597
_cell_formula_units_Z   1
loop_
 _symmetry_equiv_pos_site_id
 _symmetry_equiv_pos_as_xyz
  1  'x, y, z'
loop_
 _atom_site_type_symbol
 _atom_site_label
 _atom_site_symmetry_multiplicity
 _atom_site_fract_x
 _atom_site_fract_y
 _atom_site_fract_z
 _atom_site_occupancy
  Lu  Lu0  1  0.666667  0.333333  0.500000  1
  Lu  Lu1  1  0.333333  0.666667  0.000000  1
  P  P2  1  0.598722  0.718288  0.500000  1
  P  P3  1  0.000000  0.000000  0.000000  1
  P  P4  1  0.281712  0.880434  0.500000  1
  P  P5  1  0.119566  0.401278  0.500000  1
  P  P6  1  0.883507  0.574318  0.000000  1
  P  P7  1  0.425682  0.309190  0.000000  1
  P  P8  1  0.690810  0.116493  0.000000  1
  Ru  Ru9  1  0.554786  0.947630  0.500000  1
  Ru  Ru10  1  0.392845  0.445214  0.500000  1
  Ru  Ru11  1  0.914453  0.123111  0.500000  1
  Ru  Ru12  1  0.208658  0.085547  0.500000  1
  Ru  Ru13  1  0.876889  0.791342  0.500000  1
  Ru  Ru14  1  0.727206  0.891718  0.000000  1
  Ru  Ru15  1  0.108282  0.835486  0.000000  1
  Ru  Ru16  1  0.164514  0.272794  0.000000  1
  Ru  Ru17  1  0.426168  0.066967  0.000000  1
  Ru  Ru18  1  0.933033  0.359202  0.000000  1
  Ru  Ru19  1  0.640798  0.573832  0.000000  1
  Ru  Ru20  1  0.052370  0.607155  0.500000  1
