# generated using pymatgen
data_LiSi3Tc4
_symmetry_space_group_name_H-M   'P 1'
_cell_length_a   7.08727800
_cell_length_b   7.08727818
_cell_length_c   4.80961800
_cell_angle_alpha   90.00000000
_cell_angle_beta   90.00000000
_cell_angle_gamma   119.99999916
_symmetry_Int_Tables_number   1
_chemical_formula_structural   LiSi3Tc4
_chemical_formula_sum   'Li2 Si6 Tc8'
_cell_volume   209.21854017
_cell_formula_units_Z   2
loop_
 _symmetry_equiv_pos_site_id
 _symmetry_equiv_pos_as_xyz
  1  'x, y, z'
loop_
 _atom_site_type_symbol
 _atom_site_label
 _atom_site_symmetry_multiplicity
 _atom_site_fract_x
 _atom_site_fract_y
 _atom_site_fract_z
 _atom_site_occupancy
  Li  Li0  1  0.666667  0.333333  0.000000  1
  Li  Li1  1  0.333333  0.666666  0.000000  1
  Si  Si2  1  0.599952  0.000000  0.248944  1
  Si  Si3  1  0.400048  0.400048  0.248944  1
  Si  Si4  1  0.000000  0.599952  0.248944  1
  Si  Si5  1  0.400047  0.000000  0.751055  1
  Si  Si6  1  0.000000  0.400048  0.751055  1
  Si  Si7  1  0.599952  0.599952  0.751055  1
  Tc  Tc8  1  0.242406  0.000000  0.239821  1
  Tc  Tc9  1  0.000000  0.242405  0.239821  1
  Tc  Tc10  1  0.757595  0.757594  0.239821  1
  Tc  Tc11  1  0.666667  0.333333  0.500001  1
  Tc  Tc12  1  0.333333  0.666666  0.500001  1
  Tc  Tc13  1  0.757595  0.000000  0.760178  1
  Tc  Tc14  1  0.242405  0.242405  0.760178  1
  Tc  Tc15  1  0.000000  0.757594  0.760178  1
