# generated using pymatgen
data_Lu5Al2PbC4
_symmetry_space_group_name_H-M   'P 1'
_cell_length_a   10.82427800
_cell_length_b   10.82427800
_cell_length_c   3.46089500
_cell_angle_alpha   90.00000000
_cell_angle_beta   90.00000000
_cell_angle_gamma   90.00000000
_symmetry_Int_Tables_number   1
_chemical_formula_structural   Lu5Al2PbC4
_chemical_formula_sum   'Lu10 Al4 Pb2 C8'
_cell_volume   405.49574268
_cell_formula_units_Z   2
loop_
 _symmetry_equiv_pos_site_id
 _symmetry_equiv_pos_as_xyz
  1  'x, y, z'
loop_
 _atom_site_type_symbol
 _atom_site_label
 _atom_site_symmetry_multiplicity
 _atom_site_fract_x
 _atom_site_fract_y
 _atom_site_fract_z
 _atom_site_occupancy
  Lu  Lu0  1  0.549732  0.738519  0.500000  1
  Lu  Lu1  1  0.450268  0.261481  0.500000  1
  Lu  Lu2  1  0.049732  0.761481  0.500000  1
  Lu  Lu3  1  0.950268  0.238519  0.500000  1
  Lu  Lu4  1  0.261481  0.549732  0.500000  1
  Lu  Lu5  1  0.738519  0.450268  0.500000  1
  Lu  Lu6  1  0.238519  0.049732  0.500000  1
  Lu  Lu7  1  0.761481  0.950268  0.500000  1
  Lu  Lu8  1  0.500000  0.000000  0.000000  1
  Lu  Lu9  1  0.000000  0.500000  0.000000  1
  Al  Al10  1  0.702703  0.202703  0.000000  1
  Al  Al11  1  0.297297  0.797297  0.000000  1
  Al  Al12  1  0.202703  0.297297  0.000000  1
  Al  Al13  1  0.797297  0.702703  0.000000  1
  Pb  Pb14  1  0.500000  0.500000  0.000000  1
  Pb  Pb15  1  0.000000  0.000000  0.000000  1
  C  C16  1  0.627808  0.127808  0.500000  1
  C  C17  1  0.372192  0.872192  0.500000  1
  C  C18  1  0.127808  0.372192  0.500000  1
  C  C19  1  0.872192  0.627808  0.500000  1
  C  C20  1  0.161588  0.661588  0.000000  1
  C  C21  1  0.838412  0.338412  0.000000  1
  C  C22  1  0.661588  0.838412  0.000000  1
  C  C23  1  0.338412  0.161588  0.000000  1
