# generated using pymatgen
data_Nb12Zn7PtN4
_symmetry_space_group_name_H-M   'P 1'
_cell_length_a   7.04327242
_cell_length_b   7.04327188
_cell_length_c   7.04327196
_cell_angle_alpha   89.89949098
_cell_angle_beta   89.89948643
_cell_angle_gamma   89.89948710
_symmetry_Int_Tables_number   1
_chemical_formula_structural   Nb12Zn7PtN4
_chemical_formula_sum   'Nb12 Zn7 Pt1 N4'
_cell_volume   349.39878927
_cell_formula_units_Z   1
loop_
 _symmetry_equiv_pos_site_id
 _symmetry_equiv_pos_as_xyz
  1  'x, y, z'
loop_
 _atom_site_type_symbol
 _atom_site_label
 _atom_site_symmetry_multiplicity
 _atom_site_fract_x
 _atom_site_fract_y
 _atom_site_fract_z
 _atom_site_occupancy
  Nb  Nb0  1  0.795808  0.960950  0.370955  1
  Nb  Nb1  1  0.709011  0.039644  0.874421  1
  Nb  Nb2  1  0.209419  0.456831  0.123050  1
  Nb  Nb3  1  0.291773  0.542499  0.624924  1
  Nb  Nb4  1  0.960950  0.370955  0.795808  1
  Nb  Nb5  1  0.039644  0.874421  0.709011  1
  Nb  Nb6  1  0.456831  0.123050  0.209419  1
  Nb  Nb7  1  0.542499  0.624924  0.291773  1
  Nb  Nb8  1  0.370955  0.795808  0.960950  1
  Nb  Nb9  1  0.874421  0.709011  0.039644  1
  Nb  Nb10  1  0.123050  0.209419  0.456831  1
  Nb  Nb11  1  0.624924  0.291773  0.542499  1
  Zn  Zn12  1  0.179507  0.818222  0.325329  1
  Zn  Zn13  1  0.325329  0.179507  0.818222  1
  Zn  Zn14  1  0.818222  0.325329  0.179507  1
  Zn  Zn15  1  0.678504  0.678504  0.678504  1
  Zn  Zn16  1  0.571854  0.428793  0.927896  1
  Zn  Zn17  1  0.428793  0.927896  0.571854  1
  Zn  Zn18  1  0.927896  0.571854  0.428793  1
  Pt  Pt19  1  0.071533  0.071533  0.071533  1
  N  N20  1  0.875432  0.124624  0.624938  1
  N  N21  1  0.624938  0.875432  0.124624  1
  N  N22  1  0.124624  0.624938  0.875432  1
  N  N23  1  0.374082  0.374082  0.374082  1
