# generated using pymatgen
data_TmTe19
_symmetry_space_group_name_H-M   'P 1'
_cell_length_a   8.01800484
_cell_length_b   9.02478963
_cell_length_c   10.16484400
_cell_angle_alpha   104.08862850
_cell_angle_beta   97.23290686
_cell_angle_gamma   106.97193268
_symmetry_Int_Tables_number   1
_chemical_formula_structural   TmTe19
_chemical_formula_sum   'Tm1 Te19'
_cell_volume   666.78472118
_cell_formula_units_Z   1
loop_
 _symmetry_equiv_pos_site_id
 _symmetry_equiv_pos_as_xyz
  1  'x, y, z'
loop_
 _atom_site_type_symbol
 _atom_site_label
 _atom_site_symmetry_multiplicity
 _atom_site_fract_x
 _atom_site_fract_y
 _atom_site_fract_z
 _atom_site_occupancy
  Tm  Tm0  1  0.000000  0.500000  0.000000  1
  Te  Te1  1  0.781207  0.587562  0.619909  1
  Te  Te2  1  0.649976  0.209851  0.211209  1
  Te  Te3  1  0.350024  0.790149  0.788791  1
  Te  Te4  1  0.603000  0.693166  0.198552  1
  Te  Te5  1  0.218793  0.412438  0.380091  1
  Te  Te6  1  0.397000  0.306834  0.801448  1
  Te  Te7  1  0.000000  0.000000  0.000000  1
  Te  Te8  1  0.193981  0.902843  0.393295  1
  Te  Te9  1  0.806019  0.097157  0.606705  1
  Te  Te10  1  0.698871  0.636658  0.909327  1
  Te  Te11  1  0.517056  0.259278  0.498040  1
  Te  Te12  1  0.722318  0.155425  0.908899  1
  Te  Te13  1  0.277682  0.844575  0.091101  1
  Te  Te14  1  0.482944  0.740722  0.501960  1
  Te  Te15  1  0.089902  0.458725  0.707555  1
  Te  Te16  1  0.301129  0.363342  0.090673  1
  Te  Te17  1  0.912795  0.044340  0.302589  1
  Te  Te18  1  0.087205  0.955660  0.697411  1
  Te  Te19  1  0.910098  0.541275  0.292445  1
