# generated using pymatgen
data_Ba4GeSb3Pt4
_symmetry_space_group_name_H-M   'P 1'
_cell_length_a   7.08958284
_cell_length_b   7.08958284
_cell_length_c   7.08958284
_cell_angle_alpha   90.18162895
_cell_angle_beta   90.18162895
_cell_angle_gamma   90.18162895
_symmetry_Int_Tables_number   1
_chemical_formula_structural   Ba4GeSb3Pt4
_chemical_formula_sum   'Ba4 Ge1 Sb3 Pt4'
_cell_volume   356.33254040
_cell_formula_units_Z   1
loop_
 _symmetry_equiv_pos_site_id
 _symmetry_equiv_pos_as_xyz
  1  'x, y, z'
loop_
 _atom_site_type_symbol
 _atom_site_label
 _atom_site_symmetry_multiplicity
 _atom_site_fract_x
 _atom_site_fract_y
 _atom_site_fract_z
 _atom_site_occupancy
  Ba  Ba0  1  0.132724  0.132724  0.132724  1
  Ba  Ba1  1  0.633260  0.370601  0.868276  1
  Ba  Ba2  1  0.370601  0.868276  0.633260  1
  Ba  Ba3  1  0.868276  0.633260  0.370601  1
  Ge  Ge4  1  0.838899  0.838899  0.838899  1
  Sb  Sb5  1  0.330668  0.671902  0.163647  1
  Sb  Sb6  1  0.163647  0.330668  0.671902  1
  Sb  Sb7  1  0.671902  0.163647  0.330668  1
  Pt  Pt8  1  0.410913  0.410913  0.410913  1
  Pt  Pt9  1  0.070844  0.599867  0.908398  1
  Pt  Pt10  1  0.908398  0.070844  0.599867  1
  Pt  Pt11  1  0.599867  0.908398  0.070844  1
