# generated using pymatgen
data_Pr6DyPBr12
_symmetry_space_group_name_H-M   'P 1'
_cell_length_a   9.53899227
_cell_length_b   9.53899158
_cell_length_c   9.53899284
_cell_angle_alpha   107.69148847
_cell_angle_beta   107.69149149
_cell_angle_gamma   107.69146476
_symmetry_Int_Tables_number   1
_chemical_formula_structural   Pr6DyPBr12
_chemical_formula_sum   'Pr6 Dy1 P1 Br12'
_cell_volume   708.78122813
_cell_formula_units_Z   1
loop_
 _symmetry_equiv_pos_site_id
 _symmetry_equiv_pos_as_xyz
  1  'x, y, z'
loop_
 _atom_site_type_symbol
 _atom_site_label
 _atom_site_symmetry_multiplicity
 _atom_site_fract_x
 _atom_site_fract_y
 _atom_site_fract_z
 _atom_site_occupancy
  Pr  Pr0  1  0.105872  0.314704  0.028708  1
  Pr  Pr1  1  0.314704  0.028709  0.105871  1
  Pr  Pr2  1  0.028709  0.105871  0.314705  1
  Pr  Pr3  1  0.971292  0.894129  0.685296  1
  Pr  Pr4  1  0.685296  0.971292  0.894129  1
  Pr  Pr5  1  0.894128  0.685296  0.971292  1
  Dy  Dy6  1  0.500000  0.500000  0.500000  1
  P  P7  1  0.000000  0.000000  0.000000  1
  Br  Br8  1  0.222989  0.685793  0.075084  1
  Br  Br9  1  0.468854  0.390054  0.174482  1
  Br  Br10  1  0.685794  0.075084  0.222989  1
  Br  Br11  1  0.924917  0.777011  0.314207  1
  Br  Br12  1  0.174482  0.468854  0.390054  1
  Br  Br13  1  0.390054  0.174482  0.468854  1
  Br  Br14  1  0.609946  0.825518  0.531147  1
  Br  Br15  1  0.825519  0.531146  0.609946  1
  Br  Br16  1  0.075084  0.222989  0.685794  1
  Br  Br17  1  0.314207  0.924917  0.777011  1
  Br  Br18  1  0.531146  0.609946  0.825519  1
  Br  Br19  1  0.777011  0.314207  0.924916  1
