# generated using pymatgen
data_MgZr3ScRe24
_symmetry_space_group_name_H-M   'P 1'
_cell_length_a   8.47096779
_cell_length_b   8.46395513
_cell_length_c   8.46395536
_cell_angle_alpha   109.45443666
_cell_angle_beta   109.48800244
_cell_angle_gamma   109.48800507
_symmetry_Int_Tables_number   1
_chemical_formula_structural   MgZr3ScRe24
_chemical_formula_sum   'Mg1 Zr3 Sc1 Re24'
_cell_volume   467.05479756
_cell_formula_units_Z   1
loop_
 _symmetry_equiv_pos_site_id
 _symmetry_equiv_pos_as_xyz
  1  'x, y, z'
loop_
 _atom_site_type_symbol
 _atom_site_label
 _atom_site_symmetry_multiplicity
 _atom_site_fract_x
 _atom_site_fract_y
 _atom_site_fract_z
 _atom_site_occupancy
  Mg  Mg0  1  0.998445  0.000000  0.000000  1
  Zr  Zr1  1  0.000051  0.634518  0.000000  1
  Zr  Zr2  1  0.000051  0.000000  0.634518  1
  Zr  Zr3  1  0.365533  0.365482  0.365482  1
  Sc  Sc4  1  0.633914  0.000000  0.000000  1
  Re  Re5  1  0.396595  0.676116  0.000000  1
  Re  Re6  1  0.720479  0.323884  0.323884  1
  Re  Re7  1  0.396595  0.000000  0.676116  1
  Re  Re8  1  0.676308  0.395732  0.000000  1
  Re  Re9  1  0.999089  0.395985  0.675479  1
  Re  Re10  1  0.323610  0.720505  0.324521  1
  Re  Re11  1  0.323610  0.324521  0.720505  1
  Re  Re12  1  0.999089  0.675479  0.395985  1
  Re  Re13  1  0.676308  0.000000  0.395732  1
  Re  Re14  1  0.603105  0.604015  0.279495  1
  Re  Re15  1  0.280576  0.604268  0.604268  1
  Re  Re16  1  0.603105  0.279495  0.604015  1
  Re  Re17  1  0.377001  0.192376  0.000000  1
  Re  Re18  1  0.184624  0.807624  0.807624  1
  Re  Re19  1  0.377001  0.000000  0.192376  1
  Re  Re20  1  0.193881  0.376744  0.000000  1
  Re  Re21  1  0.999033  0.375386  0.191707  1
  Re  Re22  1  0.807326  0.183679  0.808293  1
  Re  Re23  1  0.807326  0.808293  0.183679  1
  Re  Re24  1  0.999033  0.191707  0.375386  1
  Re  Re25  1  0.193881  0.000000  0.376744  1
  Re  Re26  1  0.623647  0.624614  0.816321  1
  Re  Re27  1  0.817137  0.623256  0.623256  1
  Re  Re28  1  0.623647  0.816321  0.624614  1
