# generated using pymatgen
data_Tb4Dy12MgCd3Pt4
_symmetry_space_group_name_H-M   'P 1'
_cell_length_a   9.71048661
_cell_length_b   9.70912219
_cell_length_c   9.70912205
_cell_angle_alpha   60.05867390
_cell_angle_beta   60.04935752
_cell_angle_gamma   60.04935130
_symmetry_Int_Tables_number   1
_chemical_formula_structural   Tb4Dy12MgCd3Pt4
_chemical_formula_sum   'Tb4 Dy12 Mg1 Cd3 Pt4'
_cell_volume   648.04027281
_cell_formula_units_Z   1
loop_
 _symmetry_equiv_pos_site_id
 _symmetry_equiv_pos_as_xyz
  1  'x, y, z'
loop_
 _atom_site_type_symbol
 _atom_site_label
 _atom_site_symmetry_multiplicity
 _atom_site_fract_x
 _atom_site_fract_y
 _atom_site_fract_z
 _atom_site_occupancy
  Tb  Tb0  1  0.566157  0.935964  0.566158  1
  Tb  Tb1  1  0.936481  0.563470  0.936432  1
  Tb  Tb2  1  0.566157  0.566158  0.935964  1
  Tb  Tb3  1  0.936481  0.936432  0.563470  1
  Dy  Dy4  1  0.349648  0.349806  0.349806  1
  Dy  Dy5  1  0.352368  0.352255  0.945165  1
  Dy  Dy6  1  0.352368  0.945165  0.352255  1
  Dy  Dy7  1  0.945123  0.352401  0.352401  1
  Dy  Dy8  1  0.809875  0.191085  0.191085  1
  Dy  Dy9  1  0.188374  0.811734  0.811734  1
  Dy  Dy10  1  0.191101  0.809854  0.191093  1
  Dy  Dy11  1  0.811725  0.188387  0.811696  1
  Dy  Dy12  1  0.191101  0.191093  0.809854  1
  Dy  Dy13  1  0.811725  0.811696  0.188387  1
  Dy  Dy14  1  0.936230  0.565931  0.565931  1
  Dy  Dy15  1  0.563332  0.936627  0.936627  1
  Mg  Mg16  1  0.576427  0.576306  0.576306  1
  Cd  Cd17  1  0.581312  0.581470  0.253944  1
  Cd  Cd18  1  0.581312  0.253944  0.581470  1
  Cd  Cd19  1  0.253841  0.581370  0.581370  1
  Pt  Pt20  1  0.143880  0.143773  0.143773  1
  Pt  Pt21  1  0.141744  0.141876  0.571477  1
  Pt  Pt22  1  0.141744  0.571477  0.141876  1
  Pt  Pt23  1  0.571496  0.141724  0.141724  1
