# generated using pymatgen
data_TbPr12ThPt6
_symmetry_space_group_name_H-M   'P 1'
_cell_length_a   6.52967200
_cell_length_b   10.25783526
_cell_length_c   10.25786403
_cell_angle_alpha   120.00012168
_cell_angle_beta   90.00120313
_cell_angle_gamma   89.99885401
_symmetry_Int_Tables_number   1
_chemical_formula_structural   TbPr12ThPt6
_chemical_formula_sum   'Tb1 Pr12 Th1 Pt6'
_cell_volume   595.02350721
_cell_formula_units_Z   1
loop_
 _symmetry_equiv_pos_site_id
 _symmetry_equiv_pos_as_xyz
  1  'x, y, z'
loop_
 _atom_site_type_symbol
 _atom_site_label
 _atom_site_symmetry_multiplicity
 _atom_site_fract_x
 _atom_site_fract_y
 _atom_site_fract_z
 _atom_site_occupancy
  Tb  Tb0  1  0.467336  0.333354  0.666644  1
  Pr  Pr1  1  0.248910  0.128816  0.871184  1
  Pr  Pr2  1  0.248916  0.742586  0.871308  1
  Pr  Pr3  1  0.248917  0.128692  0.257414  1
  Pr  Pr4  1  0.745948  0.871966  0.128034  1
  Pr  Pr5  1  0.745954  0.255843  0.127905  1
  Pr  Pr6  1  0.745956  0.872096  0.744157  1
  Pr  Pr7  1  0.445853  0.537563  0.462437  1
  Pr  Pr8  1  0.445842  0.924884  0.462488  1
  Pr  Pr9  1  0.445843  0.537512  0.075117  1
  Pr  Pr10  1  0.944572  0.461300  0.538700  1
  Pr  Pr11  1  0.944562  0.077402  0.538658  1
  Pr  Pr12  1  0.944562  0.461342  0.922597  1
  Th  Th13  1  0.965591  0.666634  0.333366  1
  Pt  Pt14  1  0.182475  0.808593  0.191407  1
  Pt  Pt15  1  0.182371  0.382731  0.191387  1
  Pt  Pt16  1  0.182371  0.808613  0.617269  1
  Pt  Pt17  1  0.683402  0.191069  0.808931  1
  Pt  Pt18  1  0.683308  0.617940  0.808936  1
  Pt  Pt19  1  0.683308  0.191065  0.382060  1
