# generated using pymatgen
data_La10SnBi5C2
_symmetry_space_group_name_H-M   'P 1'
_cell_length_a   9.64072551
_cell_length_b   9.63532009
_cell_length_c   6.88506500
_cell_angle_alpha   90.00000000
_cell_angle_beta   90.00000000
_cell_angle_gamma   119.98145127
_symmetry_Int_Tables_number   1
_chemical_formula_structural   La10SnBi5C2
_chemical_formula_sum   'La10 Sn1 Bi5 C2'
_cell_volume   553.98203860
_cell_formula_units_Z   1
loop_
 _symmetry_equiv_pos_site_id
 _symmetry_equiv_pos_as_xyz
  1  'x, y, z'
loop_
 _atom_site_type_symbol
 _atom_site_label
 _atom_site_symmetry_multiplicity
 _atom_site_fract_x
 _atom_site_fract_y
 _atom_site_fract_z
 _atom_site_occupancy
  La  La0  1  0.670972  0.334052  0.501897  1
  La  La1  1  0.329028  0.663081  0.501897  1
  La  La2  1  0.329028  0.663081  0.998103  1
  La  La3  1  0.670972  0.334052  0.998103  1
  La  La4  1  0.789053  0.789714  0.250000  1
  La  La5  1  0.210947  0.000661  0.250000  1
  La  La6  1  0.000000  0.213571  0.250000  1
  La  La7  1  0.209114  0.212723  0.750000  1
  La  La8  1  0.790886  0.003609  0.750000  1
  La  La9  1  0.000000  0.787967  0.750000  1
  Sn  Sn10  1  0.000000  0.403775  0.750000  1
  Bi  Bi11  1  0.402491  0.401248  0.250000  1
  Bi  Bi12  1  0.597509  0.998757  0.250000  1
  Bi  Bi13  1  0.000000  0.597682  0.250000  1
  Bi  Bi14  1  0.598011  0.598385  0.750000  1
  Bi  Bi15  1  0.401989  0.000374  0.750000  1
  C  C16  1  0.000000  0.998634  0.498951  1
  C  C17  1  0.000000  0.998634  0.001049  1
