# generated using pymatgen
data_Dy2YZn11
_symmetry_space_group_name_H-M   'P 1'
_cell_length_a   8.14632741
_cell_length_b   8.14632824
_cell_length_c   8.14632737
_cell_angle_alpha   148.37559358
_cell_angle_beta   115.55988818
_cell_angle_gamma   73.56317397
_symmetry_Int_Tables_number   1
_chemical_formula_structural   Dy2YZn11
_chemical_formula_sum   'Dy2 Y1 Zn11'
_cell_volume   251.62131017
_cell_formula_units_Z   1
loop_
 _symmetry_equiv_pos_site_id
 _symmetry_equiv_pos_as_xyz
  1  'x, y, z'
loop_
 _atom_site_type_symbol
 _atom_site_label
 _atom_site_symmetry_multiplicity
 _atom_site_fract_x
 _atom_site_fract_y
 _atom_site_fract_z
 _atom_site_occupancy
  Dy  Dy0  1  0.293350  0.293350  0.000000  1
  Dy  Dy1  1  0.706650  0.706650  0.000000  1
  Y  Y2  1  0.000000  0.000000  0.000000  1
  Zn  Zn3  1  0.500000  0.000000  0.500000  1
  Zn  Zn4  1  0.681261  0.500000  0.181261  1
  Zn  Zn5  1  0.318739  0.500000  0.818739  1
  Zn  Zn6  1  0.699576  0.341221  0.358355  1
  Zn  Zn7  1  0.300424  0.658779  0.641645  1
  Zn  Zn8  1  0.982866  0.341221  0.641645  1
  Zn  Zn9  1  0.017134  0.658779  0.358355  1
  Zn  Zn10  1  0.421479  0.139228  0.282252  1
  Zn  Zn11  1  0.578521  0.860772  0.717748  1
  Zn  Zn12  1  0.856976  0.139228  0.717748  1
  Zn  Zn13  1  0.143024  0.860772  0.282252  1
