# generated using pymatgen
data_Ba2Rh7O18
_symmetry_space_group_name_H-M   'P 1'
_cell_length_a   6.82422704
_cell_length_b   7.17867258
_cell_length_c   7.60790858
_cell_angle_alpha   93.13542421
_cell_angle_beta   95.06546994
_cell_angle_gamma   115.03633739
_symmetry_Int_Tables_number   1
_chemical_formula_structural   Ba2Rh7O18
_chemical_formula_sum   'Ba2 Rh7 O18'
_cell_volume   334.61024596
_cell_formula_units_Z   1
loop_
 _symmetry_equiv_pos_site_id
 _symmetry_equiv_pos_as_xyz
  1  'x, y, z'
loop_
 _atom_site_type_symbol
 _atom_site_label
 _atom_site_symmetry_multiplicity
 _atom_site_fract_x
 _atom_site_fract_y
 _atom_site_fract_z
 _atom_site_occupancy
  Ba  Ba0  1  0.317049  0.686881  0.623185  1
  Ba  Ba1  1  0.682951  0.313119  0.376815  1
  Rh  Rh2  1  0.397768  0.281382  0.883868  1
  Rh  Rh3  1  0.808667  0.130161  0.817075  1
  Rh  Rh4  1  0.191333  0.869839  0.182925  1
  Rh  Rh5  1  0.602232  0.718618  0.116132  1
  Rh  Rh6  1  0.000000  0.000000  0.500000  1
  Rh  Rh7  1  0.826100  0.624084  0.802372  1
  Rh  Rh8  1  0.173900  0.375916  0.197628  1
  O  O9  1  0.919711  0.723630  0.576626  1
  O  O10  1  0.284266  0.167876  0.114155  1
  O  O11  1  0.316460  0.508061  0.983349  1
  O  O12  1  0.473761  0.557838  0.311512  1
  O  O13  1  0.494067  0.920006  0.167841  1
  O  O14  1  0.908014  0.402026  0.725139  1
  O  O15  1  0.715734  0.832124  0.885845  1
  O  O16  1  0.897622  0.230833  0.060954  1
  O  O17  1  0.683540  0.491939  0.016651  1
  O  O18  1  0.080289  0.276370  0.423374  1
  O  O19  1  0.100361  0.127615  0.751056  1
  O  O20  1  0.725558  0.999691  0.570469  1
  O  O21  1  0.091986  0.597974  0.274861  1
  O  O22  1  0.899639  0.872385  0.248944  1
  O  O23  1  0.102378  0.769167  0.939046  1
  O  O24  1  0.505933  0.079994  0.832159  1
  O  O25  1  0.274442  0.000309  0.429531  1
  O  O26  1  0.526239  0.442162  0.688488  1
