# generated using pymatgen
data_Ho3TaIn2Ir3
_symmetry_space_group_name_H-M   'P 1'
_cell_length_a   7.36320359
_cell_length_b   7.11796071
_cell_length_c   4.18939000
_cell_angle_alpha   90.00000000
_cell_angle_beta   90.00000000
_cell_angle_gamma   118.90420469
_symmetry_Int_Tables_number   1
_chemical_formula_structural   Ho3TaIn2Ir3
_chemical_formula_sum   'Ho3 Ta1 In2 Ir3'
_cell_volume   192.21804016
_cell_formula_units_Z   1
loop_
 _symmetry_equiv_pos_site_id
 _symmetry_equiv_pos_as_xyz
  1  'x, y, z'
loop_
 _atom_site_type_symbol
 _atom_site_label
 _atom_site_symmetry_multiplicity
 _atom_site_fract_x
 _atom_site_fract_y
 _atom_site_fract_z
 _atom_site_occupancy
  Ho  Ho0  1  0.589182  0.587152  0.000000  1
  Ho  Ho1  1  0.410818  0.997970  0.000000  1
  Ho  Ho2  1  0.000000  0.400706  0.000000  1
  Ta  Ta3  1  0.000000  0.751490  0.500000  1
  In  In4  1  0.252223  0.253226  0.500000  1
  In  In5  1  0.747777  0.001003  0.500000  1
  Ir  Ir6  1  0.000000  0.962665  0.000000  1
  Ir  Ir7  1  0.688756  0.367271  0.500000  1
  Ir  Ir8  1  0.311244  0.678517  0.500000  1
