# generated using pymatgen
data_PuAlSiH
_symmetry_space_group_name_H-M   'P 1'
_cell_length_a   4.20999400
_cell_length_b   4.20999421
_cell_length_c   4.02704600
_cell_angle_alpha   90.00000000
_cell_angle_beta   90.00000000
_cell_angle_gamma   119.99999832
_symmetry_Int_Tables_number   1
_chemical_formula_structural   PuAlSiH
_chemical_formula_sum   'Pu1 Al1 Si1 H1'
_cell_volume   61.81305456
_cell_formula_units_Z   1
loop_
 _symmetry_equiv_pos_site_id
 _symmetry_equiv_pos_as_xyz
  1  'x, y, z'
loop_
 _atom_site_type_symbol
 _atom_site_label
 _atom_site_symmetry_multiplicity
 _atom_site_fract_x
 _atom_site_fract_y
 _atom_site_fract_z
 _atom_site_occupancy
  Pu  Pu0  1  0.000000  0.000000  0.027029  1
  Al  Al1  1  0.333334  0.666668  0.524492  1
  Si  Si2  1  0.666666  0.333334  0.529524  1
  H  H3  1  0.333334  0.666668  0.025736  1
