# generated using pymatgen
data_La10(YS3)9
_symmetry_space_group_name_H-M   'P 1'
_cell_length_a   3.94341030
_cell_length_b   15.00534703
_cell_length_c   18.87704700
_cell_angle_alpha   79.25266186
_cell_angle_beta   83.98890569
_cell_angle_gamma   82.45325744
_symmetry_Int_Tables_number   1
_chemical_formula_structural   La10(YS3)9
_chemical_formula_sum   'La10 Y9 S27'
_cell_volume   1084.20091328
_cell_formula_units_Z   1
loop_
 _symmetry_equiv_pos_site_id
 _symmetry_equiv_pos_as_xyz
  1  'x, y, z'
loop_
 _atom_site_type_symbol
 _atom_site_label
 _atom_site_symmetry_multiplicity
 _atom_site_fract_x
 _atom_site_fract_y
 _atom_site_fract_z
 _atom_site_occupancy
  La  La0  1  0.127631  0.953505  0.791018  1
  La  La1  1  0.040181  0.606743  0.306697  1
  La  La2  1  0.115463  0.159304  0.608245  1
  La  La3  1  0.957485  0.393091  0.693422  1
  La  La4  1  0.869081  0.045958  0.209994  1
  La  La5  1  0.819614  0.464487  0.896918  1
  La  La6  1  0.797144  0.677221  0.720683  1
  La  La7  1  0.877225  0.840111  0.392237  1
  La  La8  1  0.198396  0.321460  0.279814  1
  La  La9  1  0.180932  0.534355  0.103379  1
  Y  Y10  1  0.178825  0.715787  0.924224  1
  Y  Y11  1  0.820892  0.283736  0.076500  1
  Y  Y12  1  0.571024  0.380930  0.471473  1
  Y  Y13  1  0.999399  0.000721  0.000190  1
  Y  Y14  1  0.747023  0.907115  0.587831  1
  Y  Y15  1  0.242201  0.091447  0.412885  1
  Y  Y16  1  0.424179  0.617459  0.528448  1
  Y  Y17  1  0.531093  0.805927  0.140673  1
  Y  Y18  1  0.471646  0.194033  0.859612  1
  S  S19  1  0.676671  0.805013  0.839786  1
  S  S20  1  0.321892  0.194307  0.160562  1
  S  S21  1  0.296292  0.911746  0.484448  1
  S  S22  1  0.605733  0.454732  0.330885  1
  S  S23  1  0.451549  0.994712  0.102761  1
  S  S24  1  0.454524  0.697342  0.384779  1
  S  S25  1  0.242057  0.825868  0.681558  1
  S  S26  1  0.541283  0.301921  0.615630  1
  S  S27  1  0.855221  0.729003  0.553314  1
  S  S28  1  0.750334  0.172739  0.318981  1
  S  S29  1  0.595065  0.623288  0.186238  1
  S  S30  1  0.139742  0.269780  0.446099  1
  S  S31  1  0.080123  0.812704  0.036364  1
  S  S32  1  0.547902  0.005228  0.897964  1
  S  S33  1  0.715029  0.400205  0.169948  1
  S  S34  1  0.391668  0.544972  0.669376  1
  S  S35  1  0.282825  0.599191  0.830656  1
  S  S36  1  0.693559  0.087209  0.516300  1
  S  S37  1  0.300192  0.394371  0.006779  1
  S  S38  1  0.922604  0.188386  0.963610  1
  S  S39  1  0.700320  0.604440  0.993370  1
  S  S40  1  0.026260  0.181439  0.764292  1
  S  S41  1  0.642494  0.026540  0.685971  1
  S  S42  1  0.405848  0.376443  0.813579  1
  S  S43  1  0.997636  0.498844  0.500511  1
  S  S44  1  0.975567  0.816516  0.236592  1
  S  S45  1  0.352752  0.972286  0.314596  1
