# generated using pymatgen
data_AgBi3PtRh3O14
_symmetry_space_group_name_H-M   'P 1'
_cell_length_a   7.39772762
_cell_length_b   7.40292283
_cell_length_c   7.23068522
_cell_angle_alpha   59.20884895
_cell_angle_beta   59.14355014
_cell_angle_gamma   59.97676101
_symmetry_Int_Tables_number   1
_chemical_formula_structural   AgBi3PtRh3O14
_chemical_formula_sum   'Ag1 Bi3 Pt1 Rh3 O14'
_cell_volume   276.42027471
_cell_formula_units_Z   1
loop_
 _symmetry_equiv_pos_site_id
 _symmetry_equiv_pos_as_xyz
  1  'x, y, z'
loop_
 _atom_site_type_symbol
 _atom_site_label
 _atom_site_symmetry_multiplicity
 _atom_site_fract_x
 _atom_site_fract_y
 _atom_site_fract_z
 _atom_site_occupancy
  Ag  Ag0  1  0.125000  0.125000  0.625000  1
  Bi  Bi1  1  0.125000  0.625000  0.125000  1
  Bi  Bi2  1  0.625000  0.125000  0.125000  1
  Bi  Bi3  1  0.125000  0.125000  0.125000  1
  Pt  Pt4  1  0.125000  0.625000  0.625000  1
  Rh  Rh5  1  0.625000  0.625000  0.125000  1
  Rh  Rh6  1  0.625000  0.125000  0.625000  1
  Rh  Rh7  1  0.625000  0.625000  0.625000  1
  O  O8  1  0.245773  0.245654  0.262918  1
  O  O9  1  0.004227  0.004346  0.987082  1
  O  O10  1  0.554011  0.952053  0.541883  1
  O  O11  1  0.292960  0.710074  0.286892  1
  O  O12  1  0.541040  0.540761  0.961668  1
  O  O13  1  0.953578  0.550424  0.541219  1
  O  O14  1  0.541040  0.956530  0.961668  1
  O  O15  1  0.953578  0.954779  0.541219  1
  O  O16  1  0.957040  0.539926  0.963108  1
  O  O17  1  0.708960  0.293470  0.288332  1
  O  O18  1  0.296422  0.699576  0.708781  1
  O  O19  1  0.695989  0.297947  0.708117  1
  O  O20  1  0.296422  0.295221  0.708781  1
  O  O21  1  0.708960  0.709239  0.288332  1
