# generated using pymatgen
data_DyEr5GaTcNi
_symmetry_space_group_name_H-M   'P 1'
_cell_length_a   8.29246379
_cell_length_b   8.29394902
_cell_length_c   8.29394901
_cell_angle_alpha   113.21840040
_cell_angle_beta   111.23557460
_cell_angle_gamma   104.10313277
_symmetry_Int_Tables_number   1
_chemical_formula_structural   DyEr5GaTcNi
_chemical_formula_sum   'Dy2 Er10 Ga2 Tc2 Ni2'
_cell_volume   436.08382798
_cell_formula_units_Z   2
loop_
 _symmetry_equiv_pos_site_id
 _symmetry_equiv_pos_as_xyz
  1  'x, y, z'
loop_
 _atom_site_type_symbol
 _atom_site_label
 _atom_site_symmetry_multiplicity
 _atom_site_fract_x
 _atom_site_fract_y
 _atom_site_fract_z
 _atom_site_occupancy
  Dy  Dy0  1  0.053777  0.744258  0.309519  1
  Dy  Dy1  1  0.946223  0.255742  0.690481  1
  Er  Er2  1  0.564932  0.256219  0.308712  1
  Er  Er3  1  0.435068  0.743781  0.691288  1
  Er  Er4  1  0.666648  0.852029  0.184236  1
  Er  Er5  1  0.333352  0.517588  0.185380  1
  Er  Er6  1  0.333352  0.147971  0.815764  1
  Er  Er7  1  0.666648  0.482412  0.814620  1
  Er  Er8  1  0.180263  0.218896  0.398215  1
  Er  Er9  1  0.819737  0.217952  0.038633  1
  Er  Er10  1  0.180263  0.782048  0.961367  1
  Er  Er11  1  0.819737  0.781104  0.601785  1
  Ga  Ga12  1  0.000000  0.500000  0.500000  1
  Ga  Ga13  1  0.500000  0.000000  0.500000  1
  Tc  Tc14  1  0.679228  0.499623  0.179605  1
  Tc  Tc15  1  0.320772  0.500377  0.820395  1
  Ni  Ni16  1  0.881980  0.882485  0.999495  1
  Ni  Ni17  1  0.118020  0.117515  0.000505  1
