# generated using pymatgen
data_CeSiPdRh
_symmetry_space_group_name_H-M   'P 1'
_cell_length_a   9.50168414
_cell_length_b   9.50168325
_cell_length_c   4.09317900
_cell_angle_alpha   90.00000000
_cell_angle_beta   90.00000000
_cell_angle_gamma   155.59649995
_symmetry_Int_Tables_number   1
_chemical_formula_structural   CeSiPdRh
_chemical_formula_sum   'Ce2 Si2 Pd2 Rh2'
_cell_volume   152.67931658
_cell_formula_units_Z   2
loop_
 _symmetry_equiv_pos_site_id
 _symmetry_equiv_pos_as_xyz
  1  'x, y, z'
loop_
 _atom_site_type_symbol
 _atom_site_label
 _atom_site_symmetry_multiplicity
 _atom_site_fract_x
 _atom_site_fract_y
 _atom_site_fract_z
 _atom_site_occupancy
  Ce  Ce0  1  0.105428  0.894572  0.750000  1
  Ce  Ce1  1  0.894572  0.105428  0.250000  1
  Si  Si2  1  0.319065  0.680935  0.750000  1
  Si  Si3  1  0.680935  0.319065  0.250000  1
  Pd  Pd4  1  0.549370  0.450630  0.250000  1
  Pd  Pd5  1  0.450630  0.549370  0.750000  1
  Rh  Rh6  1  0.250510  0.749490  0.250000  1
  Rh  Rh7  1  0.749490  0.250510  0.750000  1
