# generated using pymatgen
data_TbPa3(AlOs)4
_symmetry_space_group_name_H-M   'P 1'
_cell_length_a   4.19327500
_cell_length_b   6.77678209
_cell_length_c   8.09579863
_cell_angle_alpha   90.36954605
_cell_angle_beta   90.00000000
_cell_angle_gamma   90.00000000
_symmetry_Int_Tables_number   1
_chemical_formula_structural   TbPa3(AlOs)4
_chemical_formula_sum   'Tb1 Pa3 Al4 Os4'
_cell_volume   230.05280326
_cell_formula_units_Z   1
loop_
 _symmetry_equiv_pos_site_id
 _symmetry_equiv_pos_as_xyz
  1  'x, y, z'
loop_
 _atom_site_type_symbol
 _atom_site_label
 _atom_site_symmetry_multiplicity
 _atom_site_fract_x
 _atom_site_fract_y
 _atom_site_fract_z
 _atom_site_occupancy
  Tb  Tb0  1  0.750000  0.462454  0.181597  1
  Pa  Pa1  1  0.250000  0.035281  0.685067  1
  Pa  Pa2  1  0.250000  0.538214  0.820125  1
  Pa  Pa3  1  0.750000  0.959549  0.317038  1
  Al  Al4  1  0.250000  0.142225  0.058792  1
  Al  Al5  1  0.250000  0.625760  0.439227  1
  Al  Al6  1  0.750000  0.870343  0.945269  1
  Al  Al7  1  0.750000  0.365336  0.552628  1
  Os  Os8  1  0.250000  0.235334  0.383441  1
  Os  Os9  1  0.250000  0.766155  0.125267  1
  Os  Os10  1  0.750000  0.748507  0.629103  1
  Os  Os11  1  0.750000  0.250843  0.862446  1
