# generated using pymatgen
data_Y2GaP(Ru2C)2
_symmetry_space_group_name_H-M   'P 1'
_cell_length_a   5.87966125
_cell_length_b   5.87966032
_cell_length_c   7.23795700
_cell_angle_alpha   90.00000000
_cell_angle_beta   90.00000000
_cell_angle_gamma   142.01685206
_symmetry_Int_Tables_number   1
_chemical_formula_structural   Y2GaP(Ru2C)2
_chemical_formula_sum   'Y2 Ga1 P1 Ru4 C2'
_cell_volume   153.99228914
_cell_formula_units_Z   1
loop_
 _symmetry_equiv_pos_site_id
 _symmetry_equiv_pos_as_xyz
  1  'x, y, z'
loop_
 _atom_site_type_symbol
 _atom_site_label
 _atom_site_symmetry_multiplicity
 _atom_site_fract_x
 _atom_site_fract_y
 _atom_site_fract_z
 _atom_site_occupancy
  Y  Y0  1  0.546062  0.453938  0.250000  1
  Y  Y1  1  0.454011  0.545989  0.750000  1
  Ga  Ga2  1  0.732466  0.267534  0.750000  1
  P  P3  1  0.266945  0.733055  0.250000  1
  Ru  Ru4  1  0.837293  0.162707  0.066751  1
  Ru  Ru5  1  0.164200  0.835800  0.956162  1
  Ru  Ru6  1  0.164200  0.835800  0.543838  1
  Ru  Ru7  1  0.837293  0.162707  0.433249  1
  C  C8  1  0.998765  0.001235  0.997658  1
  C  C9  1  0.998765  0.001235  0.502342  1
