# generated using pymatgen
data_Nb4TcP4IrRu2
_symmetry_space_group_name_H-M   'P 1'
_cell_length_a   3.76171400
_cell_length_b   6.39651501
_cell_length_c   7.22991501
_cell_angle_alpha   89.99900466
_cell_angle_beta   90.00000000
_cell_angle_gamma   90.00000000
_symmetry_Int_Tables_number   1
_chemical_formula_structural   Nb4TcP4IrRu2
_chemical_formula_sum   'Nb4 Tc1 P4 Ir1 Ru2'
_cell_volume   173.96520315
_cell_formula_units_Z   1
loop_
 _symmetry_equiv_pos_site_id
 _symmetry_equiv_pos_as_xyz
  1  'x, y, z'
loop_
 _atom_site_type_symbol
 _atom_site_label
 _atom_site_symmetry_multiplicity
 _atom_site_fract_x
 _atom_site_fract_y
 _atom_site_fract_z
 _atom_site_occupancy
  Nb  Nb0  1  0.250000  0.026735  0.828225  1
  Nb  Nb1  1  0.250000  0.523130  0.670968  1
  Nb  Nb2  1  0.750000  0.980066  0.170603  1
  Nb  Nb3  1  0.750000  0.472500  0.328803  1
  Tc  Tc4  1  0.250000  0.141451  0.440491  1
  P  P5  1  0.250000  0.272281  0.124887  1
  P  P6  1  0.250000  0.769684  0.369712  1
  P  P7  1  0.750000  0.730255  0.879886  1
  P  P8  1  0.750000  0.234016  0.624608  1
  Ir  Ir9  1  0.750000  0.848973  0.564583  1
  Ru  Ru10  1  0.250000  0.645181  0.060954  1
  Ru  Ru11  1  0.750000  0.355729  0.936279  1
