# generated using pymatgen
data_Zr24GeAs3Se8
_symmetry_space_group_name_H-M   'P 1'
_cell_length_a   3.73292600
_cell_length_b   12.64960076
_cell_length_c   15.66102372
_cell_angle_alpha   89.99629035
_cell_angle_beta   90.00000000
_cell_angle_gamma   90.00000000
_symmetry_Int_Tables_number   1
_chemical_formula_structural   Zr24GeAs3Se8
_chemical_formula_sum   'Zr24 Ge1 As3 Se8'
_cell_volume   739.51390738
_cell_formula_units_Z   1
loop_
 _symmetry_equiv_pos_site_id
 _symmetry_equiv_pos_as_xyz
  1  'x, y, z'
loop_
 _atom_site_type_symbol
 _atom_site_label
 _atom_site_symmetry_multiplicity
 _atom_site_fract_x
 _atom_site_fract_y
 _atom_site_fract_z
 _atom_site_occupancy
  Zr  Zr0  1  0.000000  0.346475  0.478589  1
  Zr  Zr1  1  0.000000  0.652106  0.519976  1
  Zr  Zr2  1  0.500000  0.152515  0.978834  1
  Zr  Zr3  1  0.500000  0.848667  0.020981  1
  Zr  Zr4  1  0.000000  0.083497  0.577795  1
  Zr  Zr5  1  0.000000  0.918031  0.423986  1
  Zr  Zr6  1  0.500000  0.416000  0.077541  1
  Zr  Zr7  1  0.500000  0.583925  0.923138  1
  Zr  Zr8  1  0.000000  0.692936  0.293971  1
  Zr  Zr9  1  0.000000  0.306764  0.704828  1
  Zr  Zr10  1  0.500000  0.806598  0.795182  1
  Zr  Zr11  1  0.500000  0.193297  0.204409  1
  Zr  Zr12  1  0.000000  0.030675  0.108835  1
  Zr  Zr13  1  0.000000  0.969750  0.890483  1
  Zr  Zr14  1  0.500000  0.469485  0.608695  1
  Zr  Zr15  1  0.500000  0.529731  0.391138  1
  Zr  Zr16  1  0.000000  0.618717  0.077517  1
  Zr  Zr17  1  0.000000  0.381369  0.923220  1
  Zr  Zr18  1  0.500000  0.881355  0.578193  1
  Zr  Zr19  1  0.500000  0.118761  0.423109  1
  Zr  Zr20  1  0.000000  0.410925  0.242742  1
  Zr  Zr21  1  0.000000  0.588364  0.757282  1
  Zr  Zr22  1  0.500000  0.088048  0.743380  1
  Zr  Zr23  1  0.500000  0.911857  0.256819  1
  Ge  Ge24  1  0.500000  0.757969  0.412854  1
  As  As25  1  0.000000  0.256406  0.085725  1
  As  As26  1  0.000000  0.743874  0.914220  1
  As  As27  1  0.500000  0.243400  0.586087  1
  Se  Se28  1  0.000000  0.815447  0.150953  1
  Se  Se29  1  0.000000  0.185254  0.849264  1
  Se  Se30  1  0.500000  0.684531  0.650622  1
  Se  Se31  1  0.500000  0.314143  0.349082  1
  Se  Se32  1  0.000000  0.069652  0.292022  1
  Se  Se33  1  0.000000  0.930234  0.708064  1
  Se  Se34  1  0.500000  0.430571  0.792229  1
  Se  Se35  1  0.500000  0.568668  0.208236  1
