# generated using pymatgen
data_K2Zr11Ti(BI14)2
_symmetry_space_group_name_H-M   'P 1'
_cell_length_a   10.98170034
_cell_length_b   10.98169997
_cell_length_c   13.06884670
_cell_angle_alpha   89.68695801
_cell_angle_beta   89.68695680
_cell_angle_gamma   94.65419692
_symmetry_Int_Tables_number   1
_chemical_formula_structural   K2Zr11Ti(BI14)2
_chemical_formula_sum   'K2 Zr11 Ti1 B2 I28'
_cell_volume   1570.82533105
_cell_formula_units_Z   1
loop_
 _symmetry_equiv_pos_site_id
 _symmetry_equiv_pos_as_xyz
  1  'x, y, z'
loop_
 _atom_site_type_symbol
 _atom_site_label
 _atom_site_symmetry_multiplicity
 _atom_site_fract_x
 _atom_site_fract_y
 _atom_site_fract_z
 _atom_site_occupancy
  K  K0  1  0.499750  0.499750  0.000640  1
  K  K1  1  0.000237  0.000237  0.499365  1
  Zr  Zr2  1  0.631652  0.631652  0.597614  1
  Zr  Zr3  1  0.131621  0.131621  0.901568  1
  Zr  Zr4  1  0.867725  0.867725  0.097882  1
  Zr  Zr5  1  0.956029  0.167544  0.108359  1
  Zr  Zr6  1  0.043243  0.831311  0.890734  1
  Zr  Zr7  1  0.542619  0.330994  0.609024  1
  Zr  Zr8  1  0.668820  0.457137  0.390764  1
  Zr  Zr9  1  0.457137  0.668820  0.390764  1
  Zr  Zr10  1  0.330994  0.542619  0.609024  1
  Zr  Zr11  1  0.831311  0.043243  0.890734  1
  Zr  Zr12  1  0.167544  0.956029  0.108359  1
  Ti  Ti13  1  0.377907  0.377907  0.409019  1
  B  B14  1  0.999546  0.999546  0.999488  1
  B  B15  1  0.500996  0.500996  0.500683  1
  I  I16  1  0.111744  0.360235  0.006930  1
  I  I17  1  0.887820  0.639248  0.992649  1
  I  I18  1  0.386990  0.149421  0.502455  1
  I  I19  1  0.861022  0.611373  0.492132  1
  I  I20  1  0.611373  0.861022  0.492132  1
  I  I21  1  0.149421  0.386990  0.502455  1
  I  I22  1  0.639248  0.887820  0.992649  1
  I  I23  1  0.360235  0.111744  0.006930  1
  I  I24  1  0.749019  0.249421  0.000046  1
  I  I25  1  0.249421  0.749019  0.000046  1
  I  I26  1  0.749980  0.250465  0.500191  1
  I  I27  1  0.250465  0.749980  0.500191  1
  I  I28  1  0.896232  0.397454  0.249563  1
  I  I29  1  0.101986  0.600825  0.749298  1
  I  I30  1  0.600825  0.101986  0.749298  1
  I  I31  1  0.397454  0.896232  0.249563  1
  I  I32  1  0.149073  0.149073  0.260591  1
  I  I33  1  0.848224  0.848224  0.737218  1
  I  I34  1  0.346682  0.346682  0.763097  1
  I  I35  1  0.653023  0.653023  0.236630  1
  I  I36  1  0.292299  0.528433  0.256514  1
  I  I37  1  0.710028  0.463563  0.750369  1
  I  I38  1  0.211658  0.964887  0.748988  1
  I  I39  1  0.034582  0.787185  0.250088  1
  I  I40  1  0.787185  0.034582  0.250088  1
  I  I41  1  0.964887  0.211658  0.748988  1
  I  I42  1  0.463563  0.710028  0.750369  1
  I  I43  1  0.528433  0.292299  0.256514  1
