# generated using pymatgen
data_LaThZn5Si
_symmetry_space_group_name_H-M   'P 1'
_cell_length_a   8.38229187
_cell_length_b   8.38229166
_cell_length_c   8.89065900
_cell_angle_alpha   90.00000000
_cell_angle_beta   90.00000000
_cell_angle_gamma   149.14668489
_symmetry_Int_Tables_number   1
_chemical_formula_structural   LaThZn5Si
_chemical_formula_sum   'La2 Th2 Zn10 Si2'
_cell_volume   320.36349480
_cell_formula_units_Z   2
loop_
 _symmetry_equiv_pos_site_id
 _symmetry_equiv_pos_as_xyz
  1  'x, y, z'
loop_
 _atom_site_type_symbol
 _atom_site_label
 _atom_site_symmetry_multiplicity
 _atom_site_fract_x
 _atom_site_fract_y
 _atom_site_fract_z
 _atom_site_occupancy
  La  La0  1  0.000000  0.000000  0.500000  1
  La  La1  1  0.000000  0.000000  0.000000  1
  Th  Th2  1  0.203111  0.796889  0.250000  1
  Th  Th3  1  0.796889  0.203111  0.750000  1
  Zn  Zn4  1  0.813924  0.186076  0.392694  1
  Zn  Zn5  1  0.186076  0.813924  0.607306  1
  Zn  Zn6  1  0.813924  0.186076  0.107306  1
  Zn  Zn7  1  0.186076  0.813924  0.892694  1
  Zn  Zn8  1  0.652164  0.347836  0.478244  1
  Zn  Zn9  1  0.347836  0.652164  0.521756  1
  Zn  Zn10  1  0.652164  0.347836  0.021756  1
  Zn  Zn11  1  0.347836  0.652164  0.978244  1
  Zn  Zn12  1  0.406029  0.593971  0.250000  1
  Zn  Zn13  1  0.593971  0.406029  0.750000  1
  Si  Si14  1  0.560882  0.439118  0.250000  1
  Si  Si15  1  0.439118  0.560882  0.750000  1
