# generated using pymatgen
data_ScNb(SiTc)2
_symmetry_space_group_name_H-M   'P 1'
_cell_length_a   3.33823100
_cell_length_b   6.95476084
_cell_length_c   11.95923864
_cell_angle_alpha   89.57227202
_cell_angle_beta   90.00000000
_cell_angle_gamma   90.00000000
_symmetry_Int_Tables_number   1
_chemical_formula_structural   ScNb(SiTc)2
_chemical_formula_sum   'Sc3 Nb3 Si6 Tc6'
_cell_volume   277.64510191
_cell_formula_units_Z   3
loop_
 _symmetry_equiv_pos_site_id
 _symmetry_equiv_pos_as_xyz
  1  'x, y, z'
loop_
 _atom_site_type_symbol
 _atom_site_label
 _atom_site_symmetry_multiplicity
 _atom_site_fract_x
 _atom_site_fract_y
 _atom_site_fract_z
 _atom_site_occupancy
  Sc  Sc0  1  0.500000  0.298412  0.299839  1
  Sc  Sc1  1  0.500000  0.297226  0.699566  1
  Sc  Sc2  1  0.500000  0.800431  0.201103  1
  Nb  Nb3  1  0.500000  0.405747  0.999160  1
  Nb  Nb4  1  0.500000  0.900922  0.502735  1
  Nb  Nb5  1  0.500000  0.795621  0.799426  1
  Si  Si6  1  0.000000  0.997171  0.668060  1
  Si  Si7  1  0.000000  0.500635  0.165047  1
  Si  Si8  1  0.000000  0.498170  0.832223  1
  Si  Si9  1  0.000000  0.998466  0.335816  1
  Si  Si10  1  0.500000  0.004137  0.000991  1
  Si  Si11  1  0.500000  0.498049  0.498385  1
  Tc  Tc12  1  0.000000  0.742367  0.994967  1
  Tc  Tc13  1  0.000000  0.237656  0.502011  1
  Tc  Tc14  1  0.000000  0.631249  0.628753  1
  Tc  Tc15  1  0.000000  0.134907  0.124988  1
  Tc  Tc16  1  0.000000  0.125634  0.871879  1
  Tc  Tc17  1  0.000000  0.633396  0.375050  1
