# generated using pymatgen
data_Yb12CuRu2Pt
_symmetry_space_group_name_H-M   'P 1'
_cell_length_a   6.28014800
_cell_length_b   7.46900186
_cell_length_c   9.45252100
_cell_angle_alpha   90.00000000
_cell_angle_beta   90.00000000
_cell_angle_gamma   90.39429218
_symmetry_Int_Tables_number   1
_chemical_formula_structural   Yb12CuRu2Pt
_chemical_formula_sum   'Yb12 Cu1 Ru2 Pt1'
_cell_volume   443.37358268
_cell_formula_units_Z   1
loop_
 _symmetry_equiv_pos_site_id
 _symmetry_equiv_pos_as_xyz
  1  'x, y, z'
loop_
 _atom_site_type_symbol
 _atom_site_label
 _atom_site_symmetry_multiplicity
 _atom_site_fract_x
 _atom_site_fract_y
 _atom_site_fract_z
 _atom_site_occupancy
  Yb  Yb0  1  0.345306  0.660236  0.064271  1
  Yb  Yb1  1  0.159058  0.179267  0.436272  1
  Yb  Yb2  1  0.661526  0.322689  0.567291  1
  Yb  Yb3  1  0.839046  0.835761  0.928736  1
  Yb  Yb4  1  0.661526  0.322689  0.932709  1
  Yb  Yb5  1  0.839046  0.835761  0.571264  1
  Yb  Yb6  1  0.345306  0.660236  0.435729  1
  Yb  Yb7  1  0.159058  0.179267  0.063728  1
  Yb  Yb8  1  0.858113  0.534383  0.250000  1
  Yb  Yb9  1  0.625418  0.044402  0.250000  1
  Yb  Yb10  1  0.129112  0.461040  0.750000  1
  Yb  Yb11  1  0.359521  0.962323  0.750000  1
  Cu  Cu12  1  0.054747  0.882066  0.250000  1
  Ru  Ru13  1  0.451784  0.379880  0.250000  1
  Ru  Ru14  1  0.959657  0.119714  0.750000  1
  Pt  Pt15  1  0.551776  0.620282  0.750000  1
