# generated using pymatgen
data_Er8Re3Si16Mo9
_symmetry_space_group_name_H-M   'P 1'
_cell_length_a   6.68809042
_cell_length_b   6.90133505
_cell_length_c   12.86921400
_cell_angle_alpha   90.00000000
_cell_angle_beta   90.00000000
_cell_angle_gamma   90.02680936
_symmetry_Int_Tables_number   1
_chemical_formula_structural   Er8Re3Si16Mo9
_chemical_formula_sum   'Er8 Re3 Si16 Mo9'
_cell_volume   594.00106401
_cell_formula_units_Z   1
loop_
 _symmetry_equiv_pos_site_id
 _symmetry_equiv_pos_as_xyz
  1  'x, y, z'
loop_
 _atom_site_type_symbol
 _atom_site_label
 _atom_site_symmetry_multiplicity
 _atom_site_fract_x
 _atom_site_fract_y
 _atom_site_fract_z
 _atom_site_occupancy
  Er  Er0  1  0.497439  0.333023  0.093786  1
  Er  Er1  1  0.995653  0.166887  0.406318  1
  Er  Er2  1  0.504537  0.666911  0.593750  1
  Er  Er3  1  0.004381  0.833899  0.906461  1
  Er  Er4  1  0.504537  0.666911  0.906250  1
  Er  Er5  1  0.004381  0.833899  0.593539  1
  Er  Er6  1  0.497439  0.333023  0.406214  1
  Er  Er7  1  0.995653  0.166887  0.093682  1
  Re  Re8  1  0.668273  0.985449  0.750000  1
  Re  Re9  1  0.168830  0.515004  0.750000  1
  Re  Re10  1  0.332590  0.010109  0.250000  1
  Si  Si11  1  0.657666  0.042603  0.547839  1
  Si  Si12  1  0.157781  0.457761  0.951797  1
  Si  Si13  1  0.341466  0.957346  0.047582  1
  Si  Si14  1  0.841691  0.541742  0.454107  1
  Si  Si15  1  0.341466  0.957346  0.452418  1
  Si  Si16  1  0.841691  0.541742  0.045893  1
  Si  Si17  1  0.657666  0.042603  0.952161  1
  Si  Si18  1  0.157781  0.457761  0.548203  1
  Si  Si19  1  0.528994  0.363810  0.750000  1
  Si  Si20  1  0.029813  0.136267  0.750000  1
  Si  Si21  1  0.467436  0.636030  0.250000  1
  Si  Si22  1  0.969898  0.864996  0.250000  1
  Si  Si23  1  0.806832  0.632977  0.750000  1
  Si  Si24  1  0.306398  0.867630  0.750000  1
  Si  Si25  1  0.196959  0.366488  0.250000  1
  Si  Si26  1  0.693557  0.130234  0.250000  1
  Mo  Mo27  1  0.827809  0.337600  0.625901  1
  Mo  Mo28  1  0.328163  0.162353  0.875120  1
  Mo  Mo29  1  0.170488  0.662537  0.123846  1
  Mo  Mo30  1  0.671350  0.836328  0.376193  1
  Mo  Mo31  1  0.170488  0.662537  0.376154  1
  Mo  Mo32  1  0.671350  0.836328  0.123807  1
  Mo  Mo33  1  0.827809  0.337600  0.874099  1
  Mo  Mo34  1  0.328163  0.162353  0.624880  1
  Mo  Mo35  1  0.833578  0.493026  0.250000  1
