# generated using pymatgen
data_YU3(NbN2)4
_symmetry_space_group_name_H-M   'P 1'
_cell_length_a   3.26748900
_cell_length_b   5.69290565
_cell_length_c   10.95099618
_cell_angle_alpha   90.09796171
_cell_angle_beta   90.00000000
_cell_angle_gamma   90.00000000
_symmetry_Int_Tables_number   1
_chemical_formula_structural   YU3(NbN2)4
_chemical_formula_sum   'Y1 U3 Nb4 N8'
_cell_volume   203.70472979
_cell_formula_units_Z   1
loop_
 _symmetry_equiv_pos_site_id
 _symmetry_equiv_pos_as_xyz
  1  'x, y, z'
loop_
 _atom_site_type_symbol
 _atom_site_label
 _atom_site_symmetry_multiplicity
 _atom_site_fract_x
 _atom_site_fract_y
 _atom_site_fract_z
 _atom_site_occupancy
  Y  Y0  1  0.250000  0.578404  0.854599  1
  U  U1  1  0.750000  0.424912  0.140455  1
  U  U2  1  0.750000  0.924308  0.356335  1
  U  U3  1  0.250000  0.079584  0.645046  1
  Nb  Nb4  1  0.250000  0.922035  0.099943  1
  Nb  Nb5  1  0.750000  0.073341  0.903578  1
  Nb  Nb6  1  0.750000  0.577325  0.599993  1
  Nb  Nb7  1  0.250000  0.424800  0.400469  1
  N  N8  1  0.250000  0.659147  0.244838  1
  N  N9  1  0.750000  0.331102  0.750979  1
  N  N10  1  0.750000  0.846212  0.742363  1
  N  N11  1  0.250000  0.159538  0.256111  1
  N  N12  1  0.250000  0.767292  0.504404  1
  N  N13  1  0.750000  0.233449  0.496261  1
  N  N14  1  0.750000  0.733202  0.005167  1
  N  N15  1  0.250000  0.265347  0.999458  1
