# generated using pymatgen
data_Nb3Al2CoC
_symmetry_space_group_name_H-M   'P 1'
_cell_length_a   8.24639427
_cell_length_b   8.24639443
_cell_length_c   8.24639500
_cell_angle_alpha   60.00000174
_cell_angle_beta   60.00000106
_cell_angle_gamma   60.00000138
_symmetry_Int_Tables_number   1
_chemical_formula_structural   Nb3Al2CoC
_chemical_formula_sum   'Nb12 Al8 Co4 C4'
_cell_volume   396.53118509
_cell_formula_units_Z   4
loop_
 _symmetry_equiv_pos_site_id
 _symmetry_equiv_pos_as_xyz
  1  'x, y, z'
loop_
 _atom_site_type_symbol
 _atom_site_label
 _atom_site_symmetry_multiplicity
 _atom_site_fract_x
 _atom_site_fract_y
 _atom_site_fract_z
 _atom_site_occupancy
  Nb  Nb0  1  0.689162  0.310838  0.689162  1
  Nb  Nb1  1  0.939162  0.560838  0.560838  1
  Nb  Nb2  1  0.560838  0.939162  0.939162  1
  Nb  Nb3  1  0.939162  0.560838  0.939162  1
  Nb  Nb4  1  0.560838  0.560838  0.939162  1
  Nb  Nb5  1  0.939162  0.939162  0.560838  1
  Nb  Nb6  1  0.689162  0.689162  0.310838  1
  Nb  Nb7  1  0.310838  0.689162  0.689162  1
  Nb  Nb8  1  0.689162  0.310838  0.310838  1
  Nb  Nb9  1  0.310838  0.310838  0.689162  1
  Nb  Nb10  1  0.560838  0.939162  0.560838  1
  Nb  Nb11  1  0.310838  0.689162  0.310838  1
  Al  Al12  1  0.331731  0.331731  0.331731  1
  Al  Al13  1  0.245191  0.918269  0.918269  1
  Al  Al14  1  0.918269  0.245191  0.918269  1
  Al  Al15  1  0.918269  0.918269  0.245191  1
  Al  Al16  1  0.331731  0.004809  0.331731  1
  Al  Al17  1  0.331731  0.331731  0.004809  1
  Al  Al18  1  0.004809  0.331731  0.331731  1
  Al  Al19  1  0.918269  0.918269  0.918269  1
  Co  Co20  1  0.125000  0.125000  0.125000  1
  Co  Co21  1  0.625000  0.125000  0.125000  1
  Co  Co22  1  0.125000  0.625000  0.125000  1
  Co  Co23  1  0.125000  0.125000  0.625000  1
  C  C24  1  0.625000  0.625000  0.625000  1
  C  C25  1  0.125000  0.625000  0.625000  1
  C  C26  1  0.625000  0.125000  0.625000  1
  C  C27  1  0.625000  0.625000  0.125000  1
