# generated using pymatgen
data_NdPa7Zn8IrRh7
_symmetry_space_group_name_H-M   'P 1'
_cell_length_a   3.82594100
_cell_length_b   7.41201805
_cell_length_c   16.37587904
_cell_angle_alpha   90.49766783
_cell_angle_beta   90.00000000
_cell_angle_gamma   90.00000000
_symmetry_Int_Tables_number   1
_chemical_formula_structural   NdPa7Zn8IrRh7
_chemical_formula_sum   'Nd1 Pa7 Zn8 Ir1 Rh7'
_cell_volume   464.36873900
_cell_formula_units_Z   1
loop_
 _symmetry_equiv_pos_site_id
 _symmetry_equiv_pos_as_xyz
  1  'x, y, z'
loop_
 _atom_site_type_symbol
 _atom_site_label
 _atom_site_symmetry_multiplicity
 _atom_site_fract_x
 _atom_site_fract_y
 _atom_site_fract_z
 _atom_site_occupancy
  Nd  Nd0  1  0.250000  0.554460  0.786863  1
  Pa  Pa1  1  0.250000  0.167748  0.939891  1
  Pa  Pa2  1  0.250000  0.676656  0.560273  1
  Pa  Pa3  1  0.750000  0.335363  0.439421  1
  Pa  Pa4  1  0.750000  0.943084  0.285204  1
  Pa  Pa5  1  0.750000  0.829489  0.061927  1
  Pa  Pa6  1  0.750000  0.439484  0.215798  1
  Pa  Pa7  1  0.250000  0.053850  0.714797  1
  Zn  Zn8  1  0.750000  0.015078  0.556801  1
  Zn  Zn9  1  0.250000  0.613550  0.343774  1
  Zn  Zn10  1  0.750000  0.389751  0.656598  1
  Zn  Zn11  1  0.250000  0.492048  0.062419  1
  Zn  Zn12  1  0.750000  0.502225  0.939829  1
  Zn  Zn13  1  0.250000  0.997071  0.438851  1
  Zn  Zn14  1  0.250000  0.112539  0.155481  1
  Zn  Zn15  1  0.750000  0.874807  0.845063  1
  Ir  Ir16  1  0.250000  0.241109  0.314247  1
  Rh  Rh17  1  0.750000  0.736969  0.440665  1
  Rh  Rh18  1  0.750000  0.224873  0.815989  1
  Rh  Rh19  1  0.750000  0.780497  0.675644  1
  Rh  Rh20  1  0.250000  0.273037  0.557457  1
  Rh  Rh21  1  0.250000  0.743357  0.186768  1
  Rh  Rh22  1  0.750000  0.233827  0.057315  1
  Rh  Rh23  1  0.250000  0.769129  0.948925  1
