# generated using pymatgen
data_Nd2GdY3Ta2O14
_symmetry_space_group_name_H-M   'P 1'
_cell_length_a   6.53665801
_cell_length_b   6.52687087
_cell_length_c   7.63494100
_cell_angle_alpha   90.00000000
_cell_angle_beta   90.00000000
_cell_angle_gamma   109.49298341
_symmetry_Int_Tables_number   1
_chemical_formula_structural   Nd2GdY3Ta2O14
_chemical_formula_sum   'Nd2 Gd1 Y3 Ta2 O14'
_cell_volume   307.06608456
_cell_formula_units_Z   1
loop_
 _symmetry_equiv_pos_site_id
 _symmetry_equiv_pos_as_xyz
  1  'x, y, z'
loop_
 _atom_site_type_symbol
 _atom_site_label
 _atom_site_symmetry_multiplicity
 _atom_site_fract_x
 _atom_site_fract_y
 _atom_site_fract_z
 _atom_site_occupancy
  Nd  Nd0  1  0.499097  0.499001  0.499219  1
  Nd  Nd1  1  0.499097  0.499001  0.000781  1
  Gd  Gd2  1  0.532896  0.000332  0.750000  1
  Y  Y3  1  0.000473  0.532972  0.250000  1
  Y  Y4  1  0.466168  0.999730  0.250000  1
  Y  Y5  1  0.999432  0.467196  0.750000  1
  Ta  Ta6  1  0.999544  0.999885  0.499389  1
  Ta  Ta7  1  0.999544  0.999885  0.000611  1
  O  O8  1  0.681798  0.930503  0.465962  1
  O  O9  1  0.931742  0.681018  0.531853  1
  O  O10  1  0.681798  0.930503  0.034038  1
  O  O11  1  0.931742  0.681018  0.968147  1
  O  O12  1  0.320366  0.071342  0.528736  1
  O  O13  1  0.068029  0.319498  0.468173  1
  O  O14  1  0.320366  0.071342  0.971264  1
  O  O15  1  0.068029  0.319498  0.031827  1
  O  O16  1  0.939884  0.062363  0.750000  1
  O  O17  1  0.062332  0.936620  0.250000  1
  O  O18  1  0.362517  0.631077  0.750000  1
  O  O19  1  0.635989  0.364862  0.250000  1
  O  O20  1  0.642140  0.360259  0.750000  1
  O  O21  1  0.357017  0.642095  0.250000  1
