# generated using pymatgen
data_Tb8HfZr10Si16Os
_symmetry_space_group_name_H-M   'P 1'
_cell_length_a   7.31669913
_cell_length_b   7.31744432
_cell_length_c   13.39881481
_cell_angle_alpha   89.84780867
_cell_angle_beta   90.07492400
_cell_angle_gamma   89.98923448
_symmetry_Int_Tables_number   1
_chemical_formula_structural   Tb8HfZr10Si16Os
_chemical_formula_sum   'Tb8 Hf1 Zr10 Si16 Os1'
_cell_volume   717.36320460
_cell_formula_units_Z   1
loop_
 _symmetry_equiv_pos_site_id
 _symmetry_equiv_pos_as_xyz
  1  'x, y, z'
loop_
 _atom_site_type_symbol
 _atom_site_label
 _atom_site_symmetry_multiplicity
 _atom_site_fract_x
 _atom_site_fract_y
 _atom_site_fract_z
 _atom_site_occupancy
  Tb  Tb0  1  0.999400  0.344564  0.210202  1
  Tb  Tb1  1  0.004938  0.653035  0.716942  1
  Tb  Tb2  1  0.154198  0.495515  0.463758  1
  Tb  Tb3  1  0.501594  0.848173  0.033785  1
  Tb  Tb4  1  0.848248  0.501246  0.966386  1
  Tb  Tb5  1  0.495276  0.154260  0.536108  1
  Tb  Tb6  1  0.345083  0.998974  0.789987  1
  Tb  Tb7  1  0.653252  0.005165  0.282838  1
  Hf  Hf8  1  0.005770  0.854134  0.121482  1
  Zr  Zr9  1  0.824483  0.824167  0.499711  1
  Zr  Zr10  1  0.323906  0.676094  0.247186  1
  Zr  Zr11  1  0.675999  0.323741  0.752618  1
  Zr  Zr12  1  0.144553  0.997897  0.371334  1
  Zr  Zr13  1  0.853510  0.005054  0.878700  1
  Zr  Zr14  1  0.502339  0.646003  0.626132  1
  Zr  Zr15  1  0.352726  0.497392  0.876781  1
  Zr  Zr16  1  0.496958  0.353377  0.123569  1
  Zr  Zr17  1  0.646231  0.502735  0.373617  1
  Zr  Zr18  1  0.997973  0.144884  0.628301  1
  Si  Si19  1  0.359392  0.293726  0.314720  1
  Si  Si20  1  0.640789  0.706138  0.818193  1
  Si  Si21  1  0.206632  0.860380  0.566109  1
  Si  Si22  1  0.136942  0.795016  0.932682  1
  Si  Si23  1  0.796131  0.136478  0.068372  1
  Si  Si24  1  0.860399  0.206819  0.433623  1
  Si  Si25  1  0.293580  0.359409  0.685412  1
  Si  Si26  1  0.707669  0.641320  0.181281  1
  Si  Si27  1  0.291425  0.056599  0.179060  1
  Si  Si28  1  0.703988  0.948195  0.687609  1
  Si  Si29  1  0.447203  0.796474  0.435833  1
  Si  Si30  1  0.205423  0.548652  0.062948  1
  Si  Si31  1  0.546989  0.206231  0.937602  1
  Si  Si32  1  0.796494  0.447421  0.563999  1
  Si  Si33  1  0.057254  0.292051  0.820646  1
  Si  Si34  1  0.948643  0.704533  0.311708  1
  Os  Os35  1  0.174611  0.174152  0.000764  1
