# generated using pymatgen
data_Dy3Er2Co14P12Os5
_symmetry_space_group_name_H-M   'P 1'
_cell_length_a   12.05573528
_cell_length_b   12.05595788
_cell_length_c   3.74255100
_cell_angle_alpha   90.00000000
_cell_angle_beta   90.00000000
_cell_angle_gamma   119.80778510
_symmetry_Int_Tables_number   1
_chemical_formula_structural   Dy3Er2Co14P12Os5
_chemical_formula_sum   'Dy3 Er2 Co14 P12 Os5'
_cell_volume   471.98881615
_cell_formula_units_Z   1
loop_
 _symmetry_equiv_pos_site_id
 _symmetry_equiv_pos_as_xyz
  1  'x, y, z'
loop_
 _atom_site_type_symbol
 _atom_site_label
 _atom_site_symmetry_multiplicity
 _atom_site_fract_x
 _atom_site_fract_y
 _atom_site_fract_z
 _atom_site_occupancy
  Dy  Dy0  1  0.661769  0.334083  0.000000  1
  Dy  Dy1  1  0.333179  0.666269  0.000000  1
  Dy  Dy2  1  0.000569  0.819532  0.500000  1
  Er  Er3  1  0.184975  0.183782  0.500000  1
  Er  Er4  1  0.818165  0.000657  0.500000  1
  Co  Co5  1  0.828218  0.199108  0.000000  1
  Co  Co6  1  0.801382  0.629068  0.000000  1
  Co  Co7  1  0.375288  0.178912  0.000000  1
  Co  Co8  1  0.194449  0.818858  0.000000  1
  Co  Co9  1  0.623640  0.803716  0.000000  1
  Co  Co10  1  0.181586  0.374977  0.000000  1
  Co  Co11  1  0.480549  0.359483  0.500000  1
  Co  Co12  1  0.130906  0.642016  0.500000  1
  Co  Co13  1  0.510896  0.867851  0.500000  1
  Co  Co14  1  0.358257  0.484294  0.500000  1
  Co  Co15  1  0.715917  0.717677  0.500000  1
  Co  Co16  1  0.282278  0.998897  0.500000  1
  Co  Co17  1  0.003101  0.283816  0.500000  1
  Co  Co18  1  0.999975  0.000283  0.000000  1
  P  P19  1  0.362089  0.361445  0.000000  1
  P  P20  1  0.635247  0.995197  0.000000  1
  P  P21  1  0.003873  0.640097  0.000000  1
  P  P22  1  0.837691  0.312976  0.500000  1
  P  P23  1  0.681320  0.522254  0.500000  1
  P  P24  1  0.473739  0.167358  0.500000  1
  P  P25  1  0.310839  0.833121  0.500000  1
  P  P26  1  0.520755  0.686659  0.500000  1
  P  P27  1  0.168363  0.477802  0.500000  1
  P  P28  1  0.820393  0.823707  0.000000  1
  P  P29  1  0.179241  0.000632  0.000000  1
  P  P30  1  0.003068  0.178708  0.000000  1
  Os  Os31  1  0.552206  0.553122  0.000000  1
  Os  Os32  1  0.439949  0.990528  0.000000  1
  Os  Os33  1  0.009193  0.449720  0.000000  1
  Os  Os34  1  0.641815  0.123558  0.500000  1
  Os  Os35  1  0.875122  0.519838  0.500000  1
