# generated using pymatgen
data_Nd2Dy3ErTa2O14
_symmetry_space_group_name_H-M   'P 1'
_cell_length_a   6.49864769
_cell_length_b   6.49969597
_cell_length_c   7.59890500
_cell_angle_alpha   90.00000000
_cell_angle_beta   90.00000000
_cell_angle_gamma   109.27720848
_symmetry_Int_Tables_number   1
_chemical_formula_structural   Nd2Dy3ErTa2O14
_chemical_formula_sum   'Nd2 Dy3 Er1 Ta2 O14'
_cell_volume   302.97578670
_cell_formula_units_Z   1
loop_
 _symmetry_equiv_pos_site_id
 _symmetry_equiv_pos_as_xyz
  1  'x, y, z'
loop_
 _atom_site_type_symbol
 _atom_site_label
 _atom_site_symmetry_multiplicity
 _atom_site_fract_x
 _atom_site_fract_y
 _atom_site_fract_z
 _atom_site_occupancy
  Nd  Nd0  1  0.504217  0.503606  0.499626  1
  Nd  Nd1  1  0.504217  0.503606  0.000374  1
  Dy  Dy2  1  0.001135  0.534385  0.250000  1
  Dy  Dy3  1  0.999628  0.465666  0.750000  1
  Dy  Dy4  1  0.532906  0.001009  0.750000  1
  Er  Er5  1  0.467300  0.998987  0.250000  1
  Ta  Ta6  1  0.000468  0.000692  0.499551  1
  Ta  Ta7  1  0.000468  0.000692  0.000449  1
  O  O8  1  0.935566  0.064212  0.750000  1
  O  O9  1  0.064783  0.935138  0.250000  1
  O  O10  1  0.357919  0.644914  0.250000  1
  O  O11  1  0.642257  0.357507  0.750000  1
  O  O12  1  0.364253  0.635832  0.750000  1
  O  O13  1  0.634777  0.360911  0.250000  1
  O  O14  1  0.319833  0.067796  0.968759  1
  O  O15  1  0.679064  0.930137  0.466206  1
  O  O16  1  0.319833  0.067796  0.531241  1
  O  O17  1  0.679064  0.930137  0.033794  1
  O  O18  1  0.066754  0.319144  0.466892  1
  O  O19  1  0.929399  0.679345  0.967615  1
  O  O20  1  0.929399  0.679345  0.532385  1
  O  O21  1  0.066754  0.319144  0.033108  1
