# generated using pymatgen
data_Dy3ThHgRu
_symmetry_space_group_name_H-M   'P 1'
_cell_length_a   9.67683467
_cell_length_b   9.67683584
_cell_length_c   9.67683200
_cell_angle_alpha   60.00001995
_cell_angle_beta   60.00001596
_cell_angle_gamma   59.99997910
_symmetry_Int_Tables_number   1
_chemical_formula_structural   Dy3ThHgRu
_chemical_formula_sum   'Dy12 Th4 Hg4 Ru4'
_cell_volume   640.74458903
_cell_formula_units_Z   4
loop_
 _symmetry_equiv_pos_site_id
 _symmetry_equiv_pos_as_xyz
  1  'x, y, z'
loop_
 _atom_site_type_symbol
 _atom_site_label
 _atom_site_symmetry_multiplicity
 _atom_site_fract_x
 _atom_site_fract_y
 _atom_site_fract_z
 _atom_site_occupancy
  Dy  Dy0  1  0.061448  0.438552  0.438552  1
  Dy  Dy1  1  0.438552  0.061448  0.061448  1
  Dy  Dy2  1  0.438552  0.061448  0.438552  1
  Dy  Dy3  1  0.061448  0.438552  0.061448  1
  Dy  Dy4  1  0.438552  0.438552  0.061448  1
  Dy  Dy5  1  0.061448  0.061448  0.438552  1
  Dy  Dy6  1  0.186339  0.813661  0.813661  1
  Dy  Dy7  1  0.813661  0.186339  0.186339  1
  Dy  Dy8  1  0.813661  0.186339  0.813661  1
  Dy  Dy9  1  0.186339  0.813661  0.186339  1
  Dy  Dy10  1  0.813661  0.813661  0.186339  1
  Dy  Dy11  1  0.186339  0.186339  0.813661  1
  Th  Th12  1  0.598872  0.598872  0.598873  1
  Th  Th13  1  0.598872  0.598872  0.203382  1
  Th  Th14  1  0.598873  0.203382  0.598872  1
  Th  Th15  1  0.203382  0.598873  0.598872  1
  Hg  Hg16  1  0.835186  0.835186  0.835186  1
  Hg  Hg17  1  0.835186  0.835186  0.494443  1
  Hg  Hg18  1  0.835186  0.494443  0.835186  1
  Hg  Hg19  1  0.494443  0.835186  0.835186  1
  Ru  Ru20  1  0.393510  0.393510  0.393510  1
  Ru  Ru21  1  0.393510  0.393510  0.819470  1
  Ru  Ru22  1  0.393510  0.819470  0.393510  1
  Ru  Ru23  1  0.819470  0.393510  0.393510  1
