# generated using pymatgen
data_TmTi4SnRh10
_symmetry_space_group_name_H-M   'P 1'
_cell_length_a   4.09303600
_cell_length_b   5.53641810
_cell_length_c   10.93283332
_cell_angle_alpha   90.35441698
_cell_angle_beta   90.00000000
_cell_angle_gamma   90.00000000
_symmetry_Int_Tables_number   1
_chemical_formula_structural   TmTi4SnRh10
_chemical_formula_sum   'Tm1 Ti4 Sn1 Rh10'
_cell_volume   247.74155682
_cell_formula_units_Z   1
loop_
 _symmetry_equiv_pos_site_id
 _symmetry_equiv_pos_as_xyz
  1  'x, y, z'
loop_
 _atom_site_type_symbol
 _atom_site_label
 _atom_site_symmetry_multiplicity
 _atom_site_fract_x
 _atom_site_fract_y
 _atom_site_fract_z
 _atom_site_occupancy
  Tm  Tm0  1  0.500000  0.319972  0.142524  1
  Ti  Ti1  1  0.000000  0.504698  0.501514  1
  Ti  Ti2  1  0.500000  0.672581  0.851928  1
  Ti  Ti3  1  0.500000  0.832012  0.358455  1
  Ti  Ti4  1  0.500000  0.164731  0.639130  1
  Sn  Sn5  1  0.000000  0.999429  0.995739  1
  Rh  Rh6  1  0.000000  0.998296  0.503851  1
  Rh  Rh7  1  0.000000  0.511815  0.986655  1
  Rh  Rh8  1  0.000000  0.059730  0.258685  1
  Rh  Rh9  1  0.000000  0.923734  0.750202  1
  Rh  Rh10  1  0.000000  0.577999  0.269788  1
  Rh  Rh11  1  0.000000  0.423625  0.735270  1
  Rh  Rh12  1  0.500000  0.307229  0.405572  1
  Rh  Rh13  1  0.500000  0.691740  0.608145  1
  Rh  Rh14  1  0.500000  0.803999  0.120807  1
  Rh  Rh15  1  0.500000  0.208411  0.871736  1
