# generated using pymatgen
data_Zr6Nb2Fe9Co7P12
_symmetry_space_group_name_H-M   'P 1'
_cell_length_a   12.09948343
_cell_length_b   12.06711446
_cell_length_c   3.65745200
_cell_angle_alpha   90.00000000
_cell_angle_beta   90.00000000
_cell_angle_gamma   119.82630320
_symmetry_Int_Tables_number   1
_chemical_formula_structural   Zr6Nb2Fe9Co7P12
_chemical_formula_sum   'Zr6 Nb2 Fe9 Co7 P12'
_cell_volume   463.27302057
_cell_formula_units_Z   1
loop_
 _symmetry_equiv_pos_site_id
 _symmetry_equiv_pos_as_xyz
  1  'x, y, z'
loop_
 _atom_site_type_symbol
 _atom_site_label
 _atom_site_symmetry_multiplicity
 _atom_site_fract_x
 _atom_site_fract_y
 _atom_site_fract_z
 _atom_site_occupancy
  Zr  Zr0  1  0.000348  0.557957  0.000000  1
  Zr  Zr1  1  0.664859  0.334039  0.000000  1
  Zr  Zr2  1  0.335614  0.668452  0.000000  1
  Zr  Zr3  1  0.815003  0.815769  0.500000  1
  Zr  Zr4  1  0.184802  0.000609  0.500000  1
  Zr  Zr5  1  0.999303  0.179105  0.500000  1
  Nb  Nb6  1  0.441376  0.441683  0.000000  1
  Nb  Nb7  1  0.557889  0.000413  0.000000  1
  Fe  Fe8  1  0.195371  0.372028  0.000000  1
  Fe  Fe9  1  0.180185  0.807548  0.000000  1
  Fe  Fe10  1  0.819203  0.627632  0.000000  1
  Fe  Fe11  1  0.803408  0.174862  0.000000  1
  Fe  Fe12  1  0.373770  0.194722  0.000000  1
  Fe  Fe13  1  0.126555  0.478901  0.500000  1
  Fe  Fe14  1  0.357773  0.878901  0.500000  1
  Fe  Fe15  1  0.517081  0.645384  0.500000  1
  Fe  Fe16  1  0.641684  0.519666  0.500000  1
  Co  Co17  1  0.871866  0.354182  0.500000  1
  Co  Co18  1  0.486572  0.129048  0.500000  1
  Co  Co19  1  0.000192  0.999536  0.000000  1
  Co  Co20  1  0.721429  0.997416  0.500000  1
  Co  Co21  1  0.999536  0.724536  0.500000  1
  Co  Co22  1  0.628916  0.822891  0.000000  1
  Co  Co23  1  0.277168  0.276247  0.500000  1
  P  P24  1  0.646395  0.647042  0.000000  1
  P  P25  1  0.352290  0.000407  0.000000  1
  P  P26  1  0.998131  0.344883  0.000000  1
  P  P27  1  0.480212  0.309146  0.500000  1
  P  P28  1  0.692025  0.171677  0.500000  1
  P  P29  1  0.824085  0.519589  0.500000  1
  P  P30  1  0.517458  0.829119  0.500000  1
  P  P31  1  0.176211  0.695880  0.500000  1
  P  P32  1  0.824344  0.000247  0.000000  1
  P  P33  1  0.000538  0.823104  0.000000  1
  P  P34  1  0.310607  0.481446  0.500000  1
  P  P35  1  0.177802  0.175934  0.000000  1
