# generated using pymatgen
data_Sr3(GaRh)2
_symmetry_space_group_name_H-M   'P 1'
_cell_length_a   6.14795800
_cell_length_b   8.16666300
_cell_length_c   14.17673300
_cell_angle_alpha   90.00000000
_cell_angle_beta   90.00000000
_cell_angle_gamma   90.00000000
_symmetry_Int_Tables_number   1
_chemical_formula_structural   Sr3(GaRh)2
_chemical_formula_sum   'Sr12 Ga8 Rh8'
_cell_volume   711.78967942
_cell_formula_units_Z   4
loop_
 _symmetry_equiv_pos_site_id
 _symmetry_equiv_pos_as_xyz
  1  'x, y, z'
loop_
 _atom_site_type_symbol
 _atom_site_label
 _atom_site_symmetry_multiplicity
 _atom_site_fract_x
 _atom_site_fract_y
 _atom_site_fract_z
 _atom_site_occupancy
  Sr  Sr0  1  0.635285  0.243564  0.250000  1
  Sr  Sr1  1  0.364715  0.756436  0.750000  1
  Sr  Sr2  1  0.364715  0.743564  0.250000  1
  Sr  Sr3  1  0.635285  0.256436  0.750000  1
  Sr  Sr4  1  0.144133  0.399598  0.097027  1
  Sr  Sr5  1  0.855867  0.600402  0.902973  1
  Sr  Sr6  1  0.855867  0.600402  0.597027  1
  Sr  Sr7  1  0.855867  0.899598  0.402973  1
  Sr  Sr8  1  0.144133  0.399598  0.402973  1
  Sr  Sr9  1  0.144133  0.100402  0.597027  1
  Sr  Sr10  1  0.144133  0.100402  0.902973  1
  Sr  Sr11  1  0.855867  0.899598  0.097027  1
  Ga  Ga12  1  0.172255  0.092902  0.250000  1
  Ga  Ga13  1  0.827745  0.907098  0.750000  1
  Ga  Ga14  1  0.827745  0.592902  0.250000  1
  Ga  Ga15  1  0.172255  0.407098  0.750000  1
  Ga  Ga16  1  0.592318  0.250000  0.000000  1
  Ga  Ga17  1  0.407682  0.750000  0.000000  1
  Ga  Ga18  1  0.407682  0.750000  0.500000  1
  Ga  Ga19  1  0.592318  0.250000  0.500000  1
  Rh  Rh20  1  0.367424  0.027498  0.092257  1
  Rh  Rh21  1  0.632576  0.972502  0.907743  1
  Rh  Rh22  1  0.632576  0.972502  0.592257  1
  Rh  Rh23  1  0.632576  0.527498  0.407743  1
  Rh  Rh24  1  0.367424  0.027498  0.407743  1
  Rh  Rh25  1  0.367424  0.472502  0.592257  1
  Rh  Rh26  1  0.367424  0.472502  0.907743  1
  Rh  Rh27  1  0.632576  0.527498  0.092257  1
