# generated using pymatgen
data_Tb8Re3B24Ru
_symmetry_space_group_name_H-M   'P 1'
_cell_length_a   3.69513400
_cell_length_b   9.19519572
_cell_length_c   11.57930996
_cell_angle_alpha   90.11619404
_cell_angle_beta   90.00000000
_cell_angle_gamma   90.00000000
_symmetry_Int_Tables_number   1
_chemical_formula_structural   Tb8Re3B24Ru
_chemical_formula_sum   'Tb8 Re3 B24 Ru1'
_cell_volume   393.43496756
_cell_formula_units_Z   1
loop_
 _symmetry_equiv_pos_site_id
 _symmetry_equiv_pos_as_xyz
  1  'x, y, z'
loop_
 _atom_site_type_symbol
 _atom_site_label
 _atom_site_symmetry_multiplicity
 _atom_site_fract_x
 _atom_site_fract_y
 _atom_site_fract_z
 _atom_site_occupancy
  Tb  Tb0  1  0.000000  0.322590  0.414074  1
  Tb  Tb1  1  0.000000  0.676650  0.587819  1
  Tb  Tb2  1  0.000000  0.825421  0.084316  1
  Tb  Tb3  1  0.000000  0.176159  0.913731  1
  Tb  Tb4  1  0.000000  0.941792  0.369370  1
  Tb  Tb5  1  0.000000  0.056238  0.629504  1
  Tb  Tb6  1  0.000000  0.443324  0.130835  1
  Tb  Tb7  1  0.000000  0.556652  0.870869  1
  Re  Re8  1  0.000000  0.361938  0.677966  1
  Re  Re9  1  0.000000  0.138520  0.179413  1
  Re  Re10  1  0.000000  0.861492  0.820993  1
  B  B11  1  0.500000  0.554129  0.432467  1
  B  B12  1  0.500000  0.446900  0.566985  1
  B  B13  1  0.500000  0.053410  0.066969  1
  B  B14  1  0.500000  0.946711  0.932702  1
  B  B15  1  0.500000  0.747971  0.418383  1
  B  B16  1  0.500000  0.251232  0.581206  1
  B  B17  1  0.500000  0.248895  0.081396  1
  B  B18  1  0.500000  0.751833  0.918648  1
  B  B19  1  0.500000  0.790638  0.265915  1
  B  B20  1  0.500000  0.208197  0.733849  1
  B  B21  1  0.500000  0.291609  0.234412  1
  B  B22  1  0.500000  0.708077  0.766252  1
  B  B23  1  0.500000  0.632228  0.186364  1
  B  B24  1  0.500000  0.368631  0.813490  1
  B  B25  1  0.500000  0.131773  0.314364  1
  B  B26  1  0.500000  0.867970  0.686100  1
  B  B27  1  0.500000  0.983692  0.211656  1
  B  B28  1  0.500000  0.016350  0.787836  1
  B  B29  1  0.500000  0.484796  0.288367  1
  B  B30  1  0.500000  0.516998  0.711905  1
  B  B31  1  0.500000  0.603098  0.029267  1
  B  B32  1  0.500000  0.397357  0.971810  1
  B  B33  1  0.500000  0.101874  0.471016  1
  B  B34  1  0.500000  0.896282  0.528501  1
  Ru  Ru35  1  0.000000  0.638572  0.321251  1
