# generated using pymatgen
data_Sr6CdCo2PbO12
_symmetry_space_group_name_H-M   'P 1'
_cell_length_a   6.76602260
_cell_length_b   6.76647419
_cell_length_c   6.76594008
_cell_angle_alpha   91.27376165
_cell_angle_beta   91.31553659
_cell_angle_gamma   91.30871532
_symmetry_Int_Tables_number   1
_chemical_formula_structural   Sr6CdCo2PbO12
_chemical_formula_sum   'Sr6 Cd1 Co2 Pb1 O12'
_cell_volume   309.51639627
_cell_formula_units_Z   1
loop_
 _symmetry_equiv_pos_site_id
 _symmetry_equiv_pos_as_xyz
  1  'x, y, z'
loop_
 _atom_site_type_symbol
 _atom_site_label
 _atom_site_symmetry_multiplicity
 _atom_site_fract_x
 _atom_site_fract_y
 _atom_site_fract_z
 _atom_site_occupancy
  Sr  Sr0  1  0.889389  0.249935  0.610631  1
  Sr  Sr1  1  0.249998  0.610733  0.889211  1
  Sr  Sr2  1  0.610696  0.889357  0.250071  1
  Sr  Sr3  1  0.750000  0.376590  0.123446  1
  Sr  Sr4  1  0.376574  0.123398  0.749943  1
  Sr  Sr5  1  0.123390  0.750056  0.376604  1
  Cd  Cd6  1  0.250101  0.250117  0.249790  1
  Co  Co7  1  0.000019  0.000072  0.000081  1
  Co  Co8  1  0.499963  0.499906  0.499933  1
  Pb  Pb9  1  0.749956  0.749946  0.750103  1
  O  O10  1  0.225434  0.422642  0.553299  1
  O  O11  1  0.423054  0.553673  0.225371  1
  O  O12  1  0.553720  0.225520  0.422833  1
  O  O13  1  0.909063  0.717941  0.041974  1
  O  O14  1  0.717915  0.041722  0.909042  1
  O  O15  1  0.041808  0.909011  0.718027  1
  O  O16  1  0.782064  0.591069  0.458374  1
  O  O17  1  0.590780  0.458044  0.782101  1
  O  O18  1  0.458048  0.781932  0.591072  1
  O  O19  1  0.077085  0.274613  0.946330  1
  O  O20  1  0.274546  0.946585  0.077218  1
  O  O21  1  0.946401  0.077138  0.274544  1
