# generated using pymatgen
data_Pa7Bi
_symmetry_space_group_name_H-M   'P 1'
_cell_length_a   6.57177517
_cell_length_b   6.57177539
_cell_length_c   6.57177400
_cell_angle_alpha   59.99999692
_cell_angle_beta   59.99999580
_cell_angle_gamma   59.99999833
_symmetry_Int_Tables_number   1
_chemical_formula_structural   Pa7Bi
_chemical_formula_sum   'Pa7 Bi1'
_cell_volume   200.69335869
_cell_formula_units_Z   1
loop_
 _symmetry_equiv_pos_site_id
 _symmetry_equiv_pos_as_xyz
  1  'x, y, z'
loop_
 _atom_site_type_symbol
 _atom_site_label
 _atom_site_symmetry_multiplicity
 _atom_site_fract_x
 _atom_site_fract_y
 _atom_site_fract_z
 _atom_site_occupancy
  Pa  Pa0  1  0.499999  0.000000  0.000000  1
  Pa  Pa1  1  0.000000  0.499999  0.000000  1
  Pa  Pa2  1  0.500001  0.500001  0.000000  1
  Pa  Pa3  1  0.000000  0.000000  0.499999  1
  Pa  Pa4  1  0.500001  0.000000  0.500001  1
  Pa  Pa5  1  0.000000  0.500001  0.500001  1
  Pa  Pa6  1  0.500001  0.500001  0.500001  1
  Bi  Bi7  1  0.000000  0.000000  0.000000  1
