# generated using pymatgen
data_Nd3ThAl12(GaIr)6
_symmetry_space_group_name_H-M   'P 1'
_cell_length_a   7.60799989
_cell_length_b   7.61425414
_cell_length_c   9.67676600
_cell_angle_alpha   90.00000000
_cell_angle_beta   90.00000000
_cell_angle_gamma   119.55784314
_symmetry_Int_Tables_number   1
_chemical_formula_structural   Nd3ThAl12(GaIr)6
_chemical_formula_sum   'Nd3 Th1 Al12 Ga6 Ir6'
_cell_volume   487.61440736
_cell_formula_units_Z   1
loop_
 _symmetry_equiv_pos_site_id
 _symmetry_equiv_pos_as_xyz
  1  'x, y, z'
loop_
 _atom_site_type_symbol
 _atom_site_label
 _atom_site_symmetry_multiplicity
 _atom_site_fract_x
 _atom_site_fract_y
 _atom_site_fract_z
 _atom_site_occupancy
  Nd  Nd0  1  0.002623  0.330056  0.750000  1
  Nd  Nd1  1  0.671152  0.996514  0.250000  1
  Nd  Nd2  1  0.329921  0.002974  0.750000  1
  Th  Th3  1  0.996938  0.670351  0.250000  1
  Al  Al4  1  0.002791  0.332182  0.071088  1
  Al  Al5  1  0.997043  0.664930  0.925101  1
  Al  Al6  1  0.997043  0.664930  0.574899  1
  Al  Al7  1  0.337961  0.005172  0.429093  1
  Al  Al8  1  0.002791  0.332182  0.428912  1
  Al  Al9  1  0.665178  0.997835  0.571933  1
  Al  Al10  1  0.665178  0.997835  0.928067  1
  Al  Al11  1  0.337961  0.005172  0.070907  1
  Al  Al12  1  0.333587  0.333574  0.552819  1
  Al  Al13  1  0.663196  0.665323  0.451633  1
  Al  Al14  1  0.663196  0.665323  0.048367  1
  Al  Al15  1  0.333587  0.333574  0.947181  1
  Ga  Ga16  1  0.132883  0.133841  0.250000  1
  Ga  Ga17  1  0.870027  0.871533  0.750000  1
  Ga  Ga18  1  0.344104  0.547062  0.250000  1
  Ga  Ga19  1  0.657884  0.452353  0.750000  1
  Ga  Ga20  1  0.544105  0.340048  0.250000  1
  Ga  Ga21  1  0.452441  0.660108  0.750000  1
  Ir  Ir22  1  0.672141  0.331005  0.001533  1
  Ir  Ir23  1  0.327289  0.670089  0.001615  1
  Ir  Ir24  1  0.327289  0.670089  0.498385  1
  Ir  Ir25  1  0.672141  0.331005  0.498467  1
  Ir  Ir26  1  0.999775  0.997471  0.002344  1
  Ir  Ir27  1  0.999775  0.997471  0.497656  1
