# generated using pymatgen
data_Ca7LuBi6
_symmetry_space_group_name_H-M   'P 1'
_cell_length_a   8.36691317
_cell_length_b   8.36691129
_cell_length_c   8.28039300
_cell_angle_alpha   109.26187880
_cell_angle_beta   109.26187431
_cell_angle_gamma   109.67974749
_symmetry_Int_Tables_number   1
_chemical_formula_structural   Ca7LuBi6
_chemical_formula_sum   'Ca7 Lu1 Bi6'
_cell_volume   447.37841280
_cell_formula_units_Z   1
loop_
 _symmetry_equiv_pos_site_id
 _symmetry_equiv_pos_as_xyz
  1  'x, y, z'
loop_
 _atom_site_type_symbol
 _atom_site_label
 _atom_site_symmetry_multiplicity
 _atom_site_fract_x
 _atom_site_fract_y
 _atom_site_fract_z
 _atom_site_occupancy
  Ca  Ca0  1  0.148351  0.501302  0.999090  1
  Ca  Ca1  1  0.352951  0.351649  0.350739  1
  Ca  Ca2  1  0.998698  0.147049  0.497787  1
  Ca  Ca3  1  0.860491  0.856150  0.859438  1
  Ca  Ca4  1  0.995660  0.639509  0.498947  1
  Ca  Ca5  1  0.500000  0.000000  0.146552  1
  Ca  Ca6  1  0.643850  0.504340  0.003287  1
  Lu  Lu7  1  0.500000  0.000000  0.646576  1
  Bi  Bi8  1  0.865873  0.243867  0.111592  1
  Bi  Bi9  1  0.132855  0.875390  0.260264  1
  Bi  Bi10  1  0.377994  0.634127  0.745719  1
  Bi  Bi11  1  0.256133  0.122006  0.867725  1
  Bi  Bi12  1  0.742535  0.367145  0.627408  1
  Bi  Bi13  1  0.624610  0.757465  0.384875  1
