# generated using pymatgen
data_Rb2Lu2GaAgTe6
_symmetry_space_group_name_H-M   'P 1'
_cell_length_a   8.65952208
_cell_length_b   8.65952119
_cell_length_c   11.55736000
_cell_angle_alpha   90.00000000
_cell_angle_beta   90.00000000
_cell_angle_gamma   150.32000637
_symmetry_Int_Tables_number   1
_chemical_formula_structural   Rb2Lu2GaAgTe6
_chemical_formula_sum   'Rb2 Lu2 Ga1 Ag1 Te6'
_cell_volume   429.12903930
_cell_formula_units_Z   1
loop_
 _symmetry_equiv_pos_site_id
 _symmetry_equiv_pos_as_xyz
  1  'x, y, z'
loop_
 _atom_site_type_symbol
 _atom_site_label
 _atom_site_symmetry_multiplicity
 _atom_site_fract_x
 _atom_site_fract_y
 _atom_site_fract_z
 _atom_site_occupancy
  Rb  Rb0  1  0.241777  0.758223  0.250000  1
  Rb  Rb1  1  0.750656  0.249344  0.750000  1
  Lu  Lu2  1  0.005031  0.994969  0.021258  1
  Lu  Lu3  1  0.005031  0.994969  0.478742  1
  Ga  Ga4  1  0.463710  0.536291  0.750000  1
  Ag  Ag5  1  0.533319  0.466682  0.250000  1
  Te  Te6  1  0.624644  0.375356  0.044995  1
  Te  Te7  1  0.923894  0.076107  0.250000  1
  Te  Te8  1  0.624644  0.375356  0.455005  1
  Te  Te9  1  0.383428  0.616572  0.557017  1
  Te  Te10  1  0.060441  0.939560  0.750000  1
  Te  Te11  1  0.383428  0.616572  0.942984  1
