# generated using pymatgen
data_LuTeRhO6
_symmetry_space_group_name_H-M   'P 1'
_cell_length_a   5.23188901
_cell_length_b   5.23054553
_cell_length_c   9.47780400
_cell_angle_alpha   90.00138610
_cell_angle_beta   89.99931512
_cell_angle_gamma   119.99149613
_symmetry_Int_Tables_number   1
_chemical_formula_structural   LuTeRhO6
_chemical_formula_sum   'Lu2 Te2 Rh2 O12'
_cell_volume   224.63688753
_cell_formula_units_Z   2
loop_
 _symmetry_equiv_pos_site_id
 _symmetry_equiv_pos_as_xyz
  1  'x, y, z'
loop_
 _atom_site_type_symbol
 _atom_site_label
 _atom_site_symmetry_multiplicity
 _atom_site_fract_x
 _atom_site_fract_y
 _atom_site_fract_z
 _atom_site_occupancy
  Lu  Lu0  1  0.000000  0.000000  0.000000  1
  Lu  Lu1  1  0.000000  0.000000  0.500000  1
  Te  Te2  1  0.333641  0.666821  0.750000  1
  Te  Te3  1  0.666359  0.333179  0.250000  1
  Rh  Rh4  1  0.333071  0.666536  0.250000  1
  Rh  Rh5  1  0.666929  0.333464  0.750000  1
  O  O6  1  0.356849  0.345953  0.135968  1
  O  O7  1  0.653720  0.010798  0.136008  1
  O  O8  1  0.988824  0.642886  0.135953  1
  O  O9  1  0.643151  0.654047  0.864032  1
  O  O10  1  0.346280  0.989202  0.863992  1
  O  O11  1  0.011176  0.357114  0.864047  1
  O  O12  1  0.653720  0.642923  0.363992  1
  O  O13  1  0.356849  0.010895  0.364032  1
  O  O14  1  0.988824  0.345939  0.364047  1
  O  O15  1  0.346280  0.357077  0.636008  1
  O  O16  1  0.643151  0.989105  0.635968  1
  O  O17  1  0.011176  0.654061  0.635953  1
