# generated using pymatgen
data_Dy9Er3(ThSn2)8
_symmetry_space_group_name_H-M   'P 1'
_cell_length_a   8.11526602
_cell_length_b   8.22946102
_cell_length_c   15.55886700
_cell_angle_alpha   90.00000000
_cell_angle_beta   90.00000000
_cell_angle_gamma   89.99108197
_symmetry_Int_Tables_number   1
_chemical_formula_structural   Dy9Er3(ThSn2)8
_chemical_formula_sum   'Dy9 Er3 Th8 Sn16'
_cell_volume   1039.08749134
_cell_formula_units_Z   1
loop_
 _symmetry_equiv_pos_site_id
 _symmetry_equiv_pos_as_xyz
  1  'x, y, z'
loop_
 _atom_site_type_symbol
 _atom_site_label
 _atom_site_symmetry_multiplicity
 _atom_site_fract_x
 _atom_site_fract_y
 _atom_site_fract_z
 _atom_site_occupancy
  Dy  Dy0  1  0.362665  0.836849  0.876367  1
  Dy  Dy1  1  0.862481  0.663235  0.623614  1
  Dy  Dy2  1  0.637463  0.163153  0.376340  1
  Dy  Dy3  1  0.137465  0.336815  0.123727  1
  Dy  Dy4  1  0.637463  0.163153  0.123660  1
  Dy  Dy5  1  0.137465  0.336815  0.376273  1
  Dy  Dy6  1  0.362665  0.836849  0.623633  1
  Dy  Dy7  1  0.862481  0.663235  0.876386  1
  Dy  Dy8  1  0.191508  0.497688  0.750000  1
  Er  Er9  1  0.691732  0.002225  0.750000  1
  Er  Er10  1  0.808306  0.502151  0.250000  1
  Er  Er11  1  0.308253  0.997830  0.250000  1
  Th  Th12  1  0.518871  0.320671  0.903527  1
  Th  Th13  1  0.018895  0.179264  0.596498  1
  Th  Th14  1  0.481067  0.679243  0.403507  1
  Th  Th15  1  0.981084  0.820861  0.096497  1
  Th  Th16  1  0.481067  0.679243  0.096493  1
  Th  Th17  1  0.981084  0.820861  0.403503  1
  Th  Th18  1  0.518871  0.320671  0.596473  1
  Th  Th19  1  0.018895  0.179264  0.903502  1
  Sn  Sn20  1  0.297415  0.038702  0.042583  1
  Sn  Sn21  1  0.797432  0.461307  0.457435  1
  Sn  Sn22  1  0.702594  0.961196  0.542459  1
  Sn  Sn23  1  0.202637  0.538832  0.957836  1
  Sn  Sn24  1  0.702594  0.961196  0.957541  1
  Sn  Sn25  1  0.202637  0.538832  0.542164  1
  Sn  Sn26  1  0.297415  0.038702  0.457417  1
  Sn  Sn27  1  0.797432  0.461307  0.042565  1
  Sn  Sn28  1  0.558601  0.621812  0.750000  1
  Sn  Sn29  1  0.057732  0.878849  0.750000  1
  Sn  Sn30  1  0.442208  0.378350  0.250000  1
  Sn  Sn31  1  0.942155  0.121662  0.250000  1
  Sn  Sn32  1  0.325998  0.142505  0.750000  1
  Sn  Sn33  1  0.825120  0.356606  0.750000  1
  Sn  Sn34  1  0.674138  0.856738  0.250000  1
  Sn  Sn35  1  0.174111  0.643328  0.250000  1
