# generated using pymatgen
data_SrCo3NiO8
_symmetry_space_group_name_H-M   'P 1'
_cell_length_a   5.66775792
_cell_length_b   5.66775826
_cell_length_c   6.73086427
_cell_angle_alpha   65.15741880
_cell_angle_beta   65.15742032
_cell_angle_gamma   60.64073386
_symmetry_Int_Tables_number   1
_chemical_formula_structural   SrCo3NiO8
_chemical_formula_sum   'Sr1 Co3 Ni1 O8'
_cell_volume   164.62263736
_cell_formula_units_Z   1
loop_
 _symmetry_equiv_pos_site_id
 _symmetry_equiv_pos_as_xyz
  1  'x, y, z'
loop_
 _atom_site_type_symbol
 _atom_site_label
 _atom_site_symmetry_multiplicity
 _atom_site_fract_x
 _atom_site_fract_y
 _atom_site_fract_z
 _atom_site_occupancy
  Sr  Sr0  1  0.500000  0.500000  0.500000  1
  Co  Co1  1  0.000000  0.000000  0.000000  1
  Co  Co2  1  0.500000  0.000000  0.000000  1
  Co  Co3  1  0.000000  0.500000  0.000000  1
  Ni  Ni4  1  0.500000  0.500000  0.000000  1
  O  O5  1  0.276644  0.276644  0.160890  1
  O  O6  1  0.792443  0.273279  0.168939  1
  O  O7  1  0.273279  0.792443  0.168939  1
  O  O8  1  0.774877  0.774877  0.170543  1
  O  O9  1  0.225123  0.225123  0.829457  1
  O  O10  1  0.726721  0.207557  0.831061  1
  O  O11  1  0.207557  0.726721  0.831061  1
  O  O12  1  0.723356  0.723356  0.839110  1
