# generated using pymatgen
data_LaCe3(HgRh2)2
_symmetry_space_group_name_H-M   'P 1'
_cell_length_a   7.72377511
_cell_length_b   7.72377584
_cell_length_c   3.74510200
_cell_angle_alpha   90.00000000
_cell_angle_beta   90.00000000
_cell_angle_gamma   91.10236649
_symmetry_Int_Tables_number   1
_chemical_formula_structural   LaCe3(HgRh2)2
_chemical_formula_sum   'La1 Ce3 Hg2 Rh4'
_cell_volume   223.37910380
_cell_formula_units_Z   1
loop_
 _symmetry_equiv_pos_site_id
 _symmetry_equiv_pos_as_xyz
  1  'x, y, z'
loop_
 _atom_site_type_symbol
 _atom_site_label
 _atom_site_symmetry_multiplicity
 _atom_site_fract_x
 _atom_site_fract_y
 _atom_site_fract_z
 _atom_site_occupancy
  La  La0  1  0.831281  0.668719  0.500000  1
  Ce  Ce1  1  0.670683  0.168781  0.500000  1
  Ce  Ce2  1  0.331219  0.829317  0.500000  1
  Ce  Ce3  1  0.172079  0.327921  0.500000  1
  Hg  Hg4  1  0.001154  0.996449  0.000000  1
  Hg  Hg5  1  0.503551  0.498846  0.000000  1
  Rh  Rh6  1  0.147924  0.631715  0.000000  1
  Rh  Rh7  1  0.868285  0.352076  0.000000  1
  Rh  Rh8  1  0.618188  0.881812  0.000000  1
  Rh  Rh9  1  0.355637  0.144363  0.000000  1
