# generated using pymatgen
data_Gd3TiMnC6
_symmetry_space_group_name_H-M   'P 1'
_cell_length_a   8.28683900
_cell_length_b   8.28683854
_cell_length_c   5.09032100
_cell_angle_alpha   90.00000000
_cell_angle_beta   90.00000000
_cell_angle_gamma   119.99998880
_symmetry_Int_Tables_number   1
_chemical_formula_structural   Gd3TiMnC6
_chemical_formula_sum   'Gd6 Ti2 Mn2 C12'
_cell_volume   302.72872319
_cell_formula_units_Z   2
loop_
 _symmetry_equiv_pos_site_id
 _symmetry_equiv_pos_as_xyz
  1  'x, y, z'
loop_
 _atom_site_type_symbol
 _atom_site_label
 _atom_site_symmetry_multiplicity
 _atom_site_fract_x
 _atom_site_fract_y
 _atom_site_fract_z
 _atom_site_occupancy
  Gd  Gd0  1  0.617147  0.680866  0.750000  1
  Gd  Gd1  1  0.936282  0.617147  0.250000  1
  Gd  Gd2  1  0.680866  0.063718  0.250000  1
  Gd  Gd3  1  0.319134  0.936282  0.750000  1
  Gd  Gd4  1  0.063718  0.382853  0.750000  1
  Gd  Gd5  1  0.382853  0.319134  0.250000  1
  Ti  Ti6  1  0.000000  0.000000  0.500000  1
  Ti  Ti7  1  0.000000  0.000000  0.000000  1
  Mn  Mn8  1  0.666667  0.333333  0.750000  1
  Mn  Mn9  1  0.333333  0.666667  0.250000  1
  C  C10  1  0.959327  0.761089  0.750000  1
  C  C11  1  0.198238  0.959327  0.250000  1
  C  C12  1  0.761089  0.801762  0.250000  1
  C  C13  1  0.238911  0.198238  0.750000  1
  C  C14  1  0.801762  0.040673  0.750000  1
  C  C15  1  0.040673  0.238911  0.250000  1
  C  C16  1  0.858830  0.570278  0.750000  1
  C  C17  1  0.288551  0.858830  0.250000  1
  C  C18  1  0.570278  0.711449  0.250000  1
  C  C19  1  0.429722  0.288551  0.750000  1
  C  C20  1  0.141170  0.429722  0.250000  1
  C  C21  1  0.711449  0.141170  0.750000  1
