# generated using pymatgen
data_Ba3(AcSi2)2
_symmetry_space_group_name_H-M   'P 1'
_cell_length_a   8.62580900
_cell_length_b   8.62580900
_cell_length_c   16.37501600
_cell_angle_alpha   90.00000000
_cell_angle_beta   90.00000000
_cell_angle_gamma   90.00000000
_symmetry_Int_Tables_number   1
_chemical_formula_structural   Ba3(AcSi2)2
_chemical_formula_sum   'Ba12 Ac8 Si16'
_cell_volume   1218.37620278
_cell_formula_units_Z   4
loop_
 _symmetry_equiv_pos_site_id
 _symmetry_equiv_pos_as_xyz
  1  'x, y, z'
loop_
 _atom_site_type_symbol
 _atom_site_label
 _atom_site_symmetry_multiplicity
 _atom_site_fract_x
 _atom_site_fract_y
 _atom_site_fract_z
 _atom_site_occupancy
  Ba  Ba0  1  0.308415  0.308415  0.000000  1
  Ba  Ba1  1  0.191585  0.808415  0.250000  1
  Ba  Ba2  1  0.808415  0.191585  0.750000  1
  Ba  Ba3  1  0.691585  0.691585  0.500000  1
  Ba  Ba4  1  0.372586  0.014683  0.453542  1
  Ba  Ba5  1  0.485317  0.872586  0.703542  1
  Ba  Ba6  1  0.514683  0.127414  0.203542  1
  Ba  Ba7  1  0.872586  0.485317  0.296458  1
  Ba  Ba8  1  0.127414  0.514683  0.796458  1
  Ba  Ba9  1  0.627414  0.985317  0.953542  1
  Ba  Ba10  1  0.014683  0.372586  0.546458  1
  Ba  Ba11  1  0.985317  0.627414  0.046458  1
  Ac  Ac12  1  0.127057  0.987496  0.874679  1
  Ac  Ac13  1  0.512504  0.627057  0.124679  1
  Ac  Ac14  1  0.487496  0.372943  0.624679  1
  Ac  Ac15  1  0.627057  0.512504  0.875321  1
  Ac  Ac16  1  0.372943  0.487496  0.375321  1
  Ac  Ac17  1  0.872943  0.012504  0.374679  1
  Ac  Ac18  1  0.987496  0.127057  0.125321  1
  Ac  Ac19  1  0.012504  0.872943  0.625321  1
  Si  Si20  1  0.211621  0.156278  0.698128  1
  Si  Si21  1  0.343722  0.711621  0.948128  1
  Si  Si22  1  0.656278  0.288379  0.448128  1
  Si  Si23  1  0.711621  0.343722  0.051872  1
  Si  Si24  1  0.288379  0.656278  0.551872  1
  Si  Si25  1  0.788379  0.843722  0.198128  1
  Si  Si26  1  0.156278  0.211621  0.301872  1
  Si  Si27  1  0.843722  0.788379  0.801872  1
  Si  Si28  1  0.277719  0.908043  0.052422  1
  Si  Si29  1  0.591957  0.777719  0.302422  1
  Si  Si30  1  0.408043  0.222281  0.802422  1
  Si  Si31  1  0.777719  0.591957  0.697578  1
  Si  Si32  1  0.222281  0.408043  0.197578  1
  Si  Si33  1  0.722281  0.091957  0.552422  1
  Si  Si34  1  0.908043  0.277719  0.947578  1
  Si  Si35  1  0.091957  0.722281  0.447578  1
