# generated using pymatgen
data_NaSnO2F5
_symmetry_space_group_name_H-M   'P 1'
_cell_length_a   7.99893717
_cell_length_b   7.99897545
_cell_length_c   7.99897541
_cell_angle_alpha   131.37894292
_cell_angle_beta   119.62266711
_cell_angle_gamma   81.06462826
_symmetry_Int_Tables_number   1
_chemical_formula_structural   NaSnO2F5
_chemical_formula_sum   'Na2 Sn2 O4 F10'
_cell_volume   322.10426192
_cell_formula_units_Z   2
loop_
 _symmetry_equiv_pos_site_id
 _symmetry_equiv_pos_as_xyz
  1  'x, y, z'
loop_
 _atom_site_type_symbol
 _atom_site_label
 _atom_site_symmetry_multiplicity
 _atom_site_fract_x
 _atom_site_fract_y
 _atom_site_fract_z
 _atom_site_occupancy
  Na  Na0  1  0.500000  0.500000  0.000000  1
  Na  Na1  1  0.000000  0.000000  0.000000  1
  Sn  Sn2  1  0.000000  0.000000  0.500000  1
  Sn  Sn3  1  0.500000  0.000000  0.000000  1
  O  O4  1  0.026037  0.446073  0.420034  1
  O  O5  1  0.973963  0.553927  0.579966  1
  O  O6  1  0.473963  0.893998  0.420036  1
  O  O7  1  0.526037  0.106002  0.579964  1
  F  F8  1  0.826874  0.686836  0.245237  1
  F  F9  1  0.173126  0.313164  0.754763  1
  F  F10  1  0.673126  0.918364  0.859962  1
  F  F11  1  0.941600  0.081643  0.754766  1
  F  F12  1  0.326874  0.081636  0.140038  1
  F  F13  1  0.058400  0.918357  0.245234  1
  F  F14  1  0.558400  0.313166  0.140042  1
  F  F15  1  0.441600  0.686834  0.859958  1
  F  F16  1  0.750000  0.098904  0.348904  1
  F  F17  1  0.250000  0.901096  0.651096  1
