# generated using pymatgen
data_Ti4Ga2B4Ru3Rh7
_symmetry_space_group_name_H-M   'P 1'
_cell_length_a   9.28382770
_cell_length_b   2.98526100
_cell_length_c   9.24037572
_cell_angle_alpha   90.00000000
_cell_angle_beta   89.87274004
_cell_angle_gamma   90.00000000
_symmetry_Int_Tables_number   1
_chemical_formula_structural   Ti4Ga2B4Ru3Rh7
_chemical_formula_sum   'Ti4 Ga2 B4 Ru3 Rh7'
_cell_volume   256.09313592
_cell_formula_units_Z   1
loop_
 _symmetry_equiv_pos_site_id
 _symmetry_equiv_pos_as_xyz
  1  'x, y, z'
loop_
 _atom_site_type_symbol
 _atom_site_label
 _atom_site_symmetry_multiplicity
 _atom_site_fract_x
 _atom_site_fract_y
 _atom_site_fract_z
 _atom_site_occupancy
  Ti  Ti0  1  0.670640  0.000000  0.171575  1
  Ti  Ti1  1  0.171345  0.000000  0.322261  1
  Ti  Ti2  1  0.828925  0.000000  0.670636  1
  Ti  Ti3  1  0.324709  0.000000  0.835113  1
  Ga  Ga4  1  0.002198  0.000000  0.000411  1
  Ga  Ga5  1  0.499728  0.000000  0.500566  1
  B  B6  1  0.372428  0.000000  0.123628  1
  B  B7  1  0.875473  0.000000  0.374879  1
  B  B8  1  0.124888  0.000000  0.624728  1
  B  B9  1  0.625343  0.000000  0.875572  1
  Ru  Ru10  1  0.502105  0.500001  0.001032  1
  Ru  Ru11  1  0.214682  0.500001  0.074047  1
  Ru  Ru12  1  0.001222  0.500001  0.498268  1
  Rh  Rh13  1  0.923678  0.500001  0.212994  1
  Rh  Rh14  1  0.427945  0.500001  0.287176  1
  Rh  Rh15  1  0.714220  0.500001  0.427063  1
  Rh  Rh16  1  0.286278  0.500001  0.574897  1
  Rh  Rh17  1  0.574030  0.500001  0.714197  1
  Rh  Rh18  1  0.072675  0.500001  0.785299  1
  Rh  Rh19  1  0.787487  0.500001  0.925659  1
