# generated using pymatgen
data_Li8Y7Ho(Sn3Sb)2
_symmetry_space_group_name_H-M   'P 1'
_cell_length_a   9.38783172
_cell_length_b   9.39012969
_cell_length_c   7.25007190
_cell_angle_alpha   90.00000060
_cell_angle_beta   90.07833355
_cell_angle_gamma   120.00810418
_symmetry_Int_Tables_number   1
_chemical_formula_structural   Li8Y7Ho(Sn3Sb)2
_chemical_formula_sum   'Li8 Y7 Ho1 Sn6 Sb2'
_cell_volume   553.44417218
_cell_formula_units_Z   1
loop_
 _symmetry_equiv_pos_site_id
 _symmetry_equiv_pos_as_xyz
  1  'x, y, z'
loop_
 _atom_site_type_symbol
 _atom_site_label
 _atom_site_symmetry_multiplicity
 _atom_site_fract_x
 _atom_site_fract_y
 _atom_site_fract_z
 _atom_site_occupancy
  Li  Li0  1  0.167268  0.333995  0.285409  1
  Li  Li1  1  0.167268  0.833273  0.285409  1
  Li  Li2  1  0.666045  0.833023  0.285577  1
  Li  Li3  1  0.832205  0.666025  0.786044  1
  Li  Li4  1  0.832205  0.166179  0.786044  1
  Li  Li5  1  0.334298  0.167148  0.787210  1
  Li  Li6  1  0.334323  0.667162  0.673706  1
  Li  Li7  1  0.666507  0.333253  0.175802  1
  Y  Y8  1  0.513809  0.023929  0.492038  1
  Y  Y9  1  0.513809  0.489879  0.492038  1
  Y  Y10  1  0.975470  0.487734  0.490989  1
  Y  Y11  1  0.490322  0.978242  0.995168  1
  Y  Y12  1  0.490322  0.512081  0.995168  1
  Y  Y13  1  0.020022  0.510012  0.996280  1
  Y  Y14  1  0.998119  0.999059  0.496961  1
  Ho  Ho15  1  0.997967  0.998984  0.002742  1
  Sn  Sn16  1  0.666939  0.833470  0.732208  1
  Sn  Sn17  1  0.834061  0.667055  0.231851  1
  Sn  Sn18  1  0.834061  0.167005  0.231851  1
  Sn  Sn19  1  0.333006  0.166502  0.231721  1
  Sn  Sn20  1  0.332637  0.666320  0.260015  1
  Sn  Sn21  1  0.667221  0.333609  0.760510  1
  Sb  Sb22  1  0.166058  0.333170  0.733613  1
  Sb  Sb23  1  0.166058  0.832890  0.733613  1
