# generated using pymatgen
data_Pr5Ga2Hg
_symmetry_space_group_name_H-M   'P 1'
_cell_length_a   8.00469200
_cell_length_b   8.00469200
_cell_length_c   14.95101600
_cell_angle_alpha   90.00000000
_cell_angle_beta   90.00000000
_cell_angle_gamma   90.00000000
_symmetry_Int_Tables_number   1
_chemical_formula_structural   Pr5Ga2Hg
_chemical_formula_sum   'Pr20 Ga8 Hg4'
_cell_volume   957.98775582
_cell_formula_units_Z   4
loop_
 _symmetry_equiv_pos_site_id
 _symmetry_equiv_pos_as_xyz
  1  'x, y, z'
loop_
 _atom_site_type_symbol
 _atom_site_label
 _atom_site_symmetry_multiplicity
 _atom_site_fract_x
 _atom_site_fract_y
 _atom_site_fract_z
 _atom_site_occupancy
  Pr  Pr0  1  0.819528  0.843853  0.606395  1
  Pr  Pr1  1  0.180472  0.843853  0.106395  1
  Pr  Pr2  1  0.156147  0.819528  0.393605  1
  Pr  Pr3  1  0.000000  0.500000  0.718505  1
  Pr  Pr4  1  0.843853  0.180472  0.393605  1
  Pr  Pr5  1  0.680472  0.656147  0.393605  1
  Pr  Pr6  1  0.656147  0.319528  0.606395  1
  Pr  Pr7  1  0.343853  0.680472  0.606395  1
  Pr  Pr8  1  0.000000  0.500000  0.218505  1
  Pr  Pr9  1  0.656147  0.680472  0.106395  1
  Pr  Pr10  1  0.680472  0.343853  0.893605  1
  Pr  Pr11  1  0.843853  0.819528  0.893605  1
  Pr  Pr12  1  0.319528  0.343853  0.393605  1
  Pr  Pr13  1  0.180472  0.156147  0.606395  1
  Pr  Pr14  1  0.819528  0.156147  0.106395  1
  Pr  Pr15  1  0.319528  0.656147  0.893605  1
  Pr  Pr16  1  0.343853  0.319528  0.106395  1
  Pr  Pr17  1  0.500000  0.000000  0.281495  1
  Pr  Pr18  1  0.156147  0.180472  0.893605  1
  Pr  Pr19  1  0.500000  0.000000  0.781495  1
  Ga  Ga20  1  0.622228  0.377772  0.250000  1
  Ga  Ga21  1  0.122228  0.877772  0.750000  1
  Ga  Ga22  1  0.377772  0.377772  0.750000  1
  Ga  Ga23  1  0.377772  0.622228  0.250000  1
  Ga  Ga24  1  0.877772  0.877772  0.250000  1
  Ga  Ga25  1  0.622228  0.622228  0.750000  1
  Ga  Ga26  1  0.877772  0.122228  0.750000  1
  Ga  Ga27  1  0.122228  0.122228  0.250000  1
  Hg  Hg28  1  0.000000  0.500000  0.502272  1
  Hg  Hg29  1  0.500000  0.000000  0.497728  1
  Hg  Hg30  1  0.500000  0.000000  0.997728  1
  Hg  Hg31  1  0.000000  0.500000  0.002272  1
