# generated using pymatgen
data_Ho2Ga3Cu7
_symmetry_space_group_name_H-M   'P 1'
_cell_length_a   4.17232800
_cell_length_b   5.06036349
_cell_length_c   8.81262895
_cell_angle_alpha   90.51606059
_cell_angle_beta   90.00000000
_cell_angle_gamma   90.00000000
_symmetry_Int_Tables_number   1
_chemical_formula_structural   Ho2Ga3Cu7
_chemical_formula_sum   'Ho2 Ga3 Cu7'
_cell_volume   186.05786143
_cell_formula_units_Z   1
loop_
 _symmetry_equiv_pos_site_id
 _symmetry_equiv_pos_as_xyz
  1  'x, y, z'
loop_
 _atom_site_type_symbol
 _atom_site_label
 _atom_site_symmetry_multiplicity
 _atom_site_fract_x
 _atom_site_fract_y
 _atom_site_fract_z
 _atom_site_occupancy
  Ho  Ho0  1  0.000000  0.000598  0.000780  1
  Ho  Ho1  1  0.000000  0.499465  0.499092  1
  Ga  Ga2  1  0.500000  0.516125  0.995077  1
  Ga  Ga3  1  0.500000  0.984106  0.505413  1
  Ga  Ga4  1  0.500000  0.249509  0.249651  1
  Cu  Cu5  1  0.000000  0.997006  0.333371  1
  Cu  Cu6  1  0.000000  0.499430  0.830900  1
  Cu  Cu7  1  0.000000  0.502805  0.166646  1
  Cu  Cu8  1  0.000000  0.001034  0.668842  1
  Cu  Cu9  1  0.500000  0.750616  0.750078  1
  Cu  Cu10  1  0.500000  0.749029  0.250311  1
  Cu  Cu11  1  0.500000  0.250075  0.749835  1
