# generated using pymatgen
data_Tm3Al2AgC
_symmetry_space_group_name_H-M   'P 1'
_cell_length_a   9.19976954
_cell_length_b   9.19976996
_cell_length_c   9.19977000
_cell_angle_alpha   59.99999986
_cell_angle_beta   59.99999835
_cell_angle_gamma   60.00000456
_symmetry_Int_Tables_number   1
_chemical_formula_structural   Tm3Al2AgC
_chemical_formula_sum   'Tm12 Al8 Ag4 C4'
_cell_volume   550.57425184
_cell_formula_units_Z   4
loop_
 _symmetry_equiv_pos_site_id
 _symmetry_equiv_pos_as_xyz
  1  'x, y, z'
loop_
 _atom_site_type_symbol
 _atom_site_label
 _atom_site_symmetry_multiplicity
 _atom_site_fract_x
 _atom_site_fract_y
 _atom_site_fract_z
 _atom_site_occupancy
  Tm  Tm0  1  0.941928  0.941928  0.558072  1
  Tm  Tm1  1  0.691928  0.308072  0.308072  1
  Tm  Tm2  1  0.308072  0.691928  0.691928  1
  Tm  Tm3  1  0.691928  0.691928  0.308072  1
  Tm  Tm4  1  0.691928  0.308072  0.691928  1
  Tm  Tm5  1  0.308072  0.691928  0.308072  1
  Tm  Tm6  1  0.558072  0.941928  0.558072  1
  Tm  Tm7  1  0.558072  0.941928  0.941928  1
  Tm  Tm8  1  0.941928  0.558072  0.558072  1
  Tm  Tm9  1  0.941928  0.558072  0.941928  1
  Tm  Tm10  1  0.308072  0.308072  0.691928  1
  Tm  Tm11  1  0.558072  0.558072  0.941928  1
  Al  Al12  1  0.922561  0.232317  0.922561  1
  Al  Al13  1  0.327439  0.327439  0.017683  1
  Al  Al14  1  0.017683  0.327439  0.327439  1
  Al  Al15  1  0.327439  0.327439  0.327439  1
  Al  Al16  1  0.232317  0.922561  0.922561  1
  Al  Al17  1  0.922561  0.922561  0.922561  1
  Al  Al18  1  0.922561  0.922561  0.232317  1
  Al  Al19  1  0.327439  0.017683  0.327439  1
  Ag  Ag20  1  0.125000  0.625000  0.125000  1
  Ag  Ag21  1  0.125000  0.125000  0.625000  1
  Ag  Ag22  1  0.625000  0.125000  0.125000  1
  Ag  Ag23  1  0.125000  0.125000  0.125000  1
  C  C24  1  0.625000  0.125000  0.625000  1
  C  C25  1  0.625000  0.625000  0.125000  1
  C  C26  1  0.125000  0.625000  0.625000  1
  C  C27  1  0.625000  0.625000  0.625000  1
