# generated using pymatgen
data_Tb4Er(ReO6)2
_symmetry_space_group_name_H-M   'P 1'
_cell_length_a   6.86174134
_cell_length_b   6.86174137
_cell_length_c   7.56372731
_cell_angle_alpha   73.72853700
_cell_angle_beta   73.72853743
_cell_angle_gamma   48.97813587
_symmetry_Int_Tables_number   1
_chemical_formula_structural   Tb4Er(ReO6)2
_chemical_formula_sum   'Tb4 Er1 Re2 O12'
_cell_volume   255.63132249
_cell_formula_units_Z   1
loop_
 _symmetry_equiv_pos_site_id
 _symmetry_equiv_pos_as_xyz
  1  'x, y, z'
loop_
 _atom_site_type_symbol
 _atom_site_label
 _atom_site_symmetry_multiplicity
 _atom_site_fract_x
 _atom_site_fract_y
 _atom_site_fract_z
 _atom_site_occupancy
  Tb  Tb0  1  0.696407  0.696407  0.641316  1
  Tb  Tb1  1  0.303593  0.303593  0.358684  1
  Tb  Tb2  1  0.685161  0.685161  0.175697  1
  Tb  Tb3  1  0.314839  0.314839  0.824303  1
  Er  Er4  1  0.000000  0.000000  0.500000  1
  Re  Re5  1  0.785742  0.214258  0.000000  1
  Re  Re6  1  0.214258  0.785742  0.000000  1
  O  O7  1  0.001050  0.001050  0.206902  1
  O  O8  1  0.998950  0.998950  0.793098  1
  O  O9  1  0.582254  0.087800  0.084913  1
  O  O10  1  0.417746  0.912200  0.915087  1
  O  O11  1  0.912200  0.417746  0.915087  1
  O  O12  1  0.087800  0.582254  0.084913  1
  O  O13  1  0.498930  0.498930  0.176148  1
  O  O14  1  0.501070  0.501070  0.823852  1
  O  O15  1  0.402702  0.901936  0.427123  1
  O  O16  1  0.597298  0.098064  0.572877  1
  O  O17  1  0.098064  0.597298  0.572877  1
  O  O18  1  0.901936  0.402702  0.427123  1
