# generated using pymatgen
data_Pr8HoLu3In20
_symmetry_space_group_name_H-M   'P 1'
_cell_length_a   6.68585247
_cell_length_b   10.54140300
_cell_length_c   12.47257600
_cell_angle_alpha   90.00000000
_cell_angle_beta   90.02144140
_cell_angle_gamma   90.00000000
_symmetry_Int_Tables_number   1
_chemical_formula_structural   Pr8HoLu3In20
_chemical_formula_sum   'Pr8 Ho1 Lu3 In20'
_cell_volume   879.04545832
_cell_formula_units_Z   1
loop_
 _symmetry_equiv_pos_site_id
 _symmetry_equiv_pos_as_xyz
  1  'x, y, z'
loop_
 _atom_site_type_symbol
 _atom_site_label
 _atom_site_symmetry_multiplicity
 _atom_site_fract_x
 _atom_site_fract_y
 _atom_site_fract_z
 _atom_site_occupancy
  Pr  Pr0  1  0.888645  0.488693  0.143415  1
  Pr  Pr1  1  0.610953  0.010799  0.643819  1
  Pr  Pr2  1  0.111499  0.988635  0.856695  1
  Pr  Pr3  1  0.388470  0.510871  0.356754  1
  Pr  Pr4  1  0.111499  0.511365  0.856695  1
  Pr  Pr5  1  0.388470  0.989129  0.356754  1
  Pr  Pr6  1  0.888645  0.011307  0.143415  1
  Pr  Pr7  1  0.610953  0.489201  0.643819  1
  Ho  Ho8  1  0.850477  0.250000  0.440507  1
  Lu  Lu9  1  0.348806  0.750000  0.059076  1
  Lu  Lu10  1  0.151176  0.750000  0.559281  1
  Lu  Lu11  1  0.651301  0.250000  0.941027  1
  In  In12  1  0.614721  0.750000  0.503260  1
  In  In13  1  0.885083  0.750000  0.003418  1
  In  In14  1  0.382964  0.250000  0.497225  1
  In  In15  1  0.114971  0.250000  0.996351  1
  In  In16  1  0.653046  0.750000  0.241989  1
  In  In17  1  0.846761  0.750000  0.742319  1
  In  In18  1  0.346908  0.250000  0.758179  1
  In  In19  1  0.154973  0.250000  0.256458  1
  In  In20  1  0.109974  0.750000  0.282330  1
  In  In21  1  0.390560  0.750000  0.782592  1
  In  In22  1  0.890244  0.250000  0.717926  1
  In  In23  1  0.609530  0.250000  0.216162  1
  In  In24  1  0.874234  0.545426  0.404843  1
  In  In25  1  0.625764  0.955749  0.904704  1
  In  In26  1  0.125357  0.044031  0.595488  1
  In  In27  1  0.374328  0.455750  0.095232  1
  In  In28  1  0.125357  0.455969  0.595488  1
  In  In29  1  0.374328  0.044250  0.095232  1
  In  In30  1  0.874234  0.954574  0.404843  1
  In  In31  1  0.625764  0.544251  0.904704  1
