# generated using pymatgen
data_Y4ErB4Pt15
_symmetry_space_group_name_H-M   'P 1'
_cell_length_a   4.03535700
_cell_length_b   4.03535700
_cell_length_c   24.14240000
_cell_angle_alpha   90.00000000
_cell_angle_beta   90.00000000
_cell_angle_gamma   90.00000000
_symmetry_Int_Tables_number   1
_chemical_formula_structural   Y4ErB4Pt15
_chemical_formula_sum   'Y4 Er1 B4 Pt15'
_cell_volume   393.13740353
_cell_formula_units_Z   1
loop_
 _symmetry_equiv_pos_site_id
 _symmetry_equiv_pos_as_xyz
  1  'x, y, z'
loop_
 _atom_site_type_symbol
 _atom_site_label
 _atom_site_symmetry_multiplicity
 _atom_site_fract_x
 _atom_site_fract_y
 _atom_site_fract_z
 _atom_site_occupancy
  Y  Y0  1  0.000000  0.000000  0.901028  1
  Y  Y1  1  0.000000  0.000000  0.098972  1
  Y  Y2  1  0.000000  0.000000  0.305155  1
  Y  Y3  1  0.000000  0.000000  0.694845  1
  Er  Er4  1  0.000000  0.000000  0.500000  1
  B  B5  1  0.500000  0.500000  0.163315  1
  B  B6  1  0.500000  0.500000  0.370877  1
  B  B7  1  0.500000  0.500000  0.629123  1
  B  B8  1  0.500000  0.500000  0.836685  1
  Pt  Pt9  1  0.500000  0.500000  0.920964  1
  Pt  Pt10  1  0.500000  0.500000  0.079036  1
  Pt  Pt11  1  0.500000  0.500000  0.285448  1
  Pt  Pt12  1  0.500000  0.500000  0.500000  1
  Pt  Pt13  1  0.500000  0.500000  0.714552  1
  Pt  Pt14  1  0.500000  0.000000  0.000000  1
  Pt  Pt15  1  0.500000  0.000000  0.201978  1
  Pt  Pt16  1  0.500000  0.000000  0.409568  1
  Pt  Pt17  1  0.500000  0.000000  0.590432  1
  Pt  Pt18  1  0.500000  0.000000  0.798022  1
  Pt  Pt19  1  0.000000  0.500000  0.000000  1
  Pt  Pt20  1  0.000000  0.500000  0.201978  1
  Pt  Pt21  1  0.000000  0.500000  0.409568  1
  Pt  Pt22  1  0.000000  0.500000  0.590432  1
  Pt  Pt23  1  0.000000  0.500000  0.798022  1
