# generated using pymatgen
data_ZrSe35
_symmetry_space_group_name_H-M   'P 1'
_cell_length_a   18.78481941
_cell_length_b   7.07215110
_cell_length_c   9.21893451
_cell_angle_alpha   67.29982545
_cell_angle_beta   88.53005074
_cell_angle_gamma   93.72801081
_symmetry_Int_Tables_number   1
_chemical_formula_structural   ZrSe35
_chemical_formula_sum   'Zr1 Se35'
_cell_volume   1125.75084778
_cell_formula_units_Z   1
loop_
 _symmetry_equiv_pos_site_id
 _symmetry_equiv_pos_as_xyz
  1  'x, y, z'
loop_
 _atom_site_type_symbol
 _atom_site_label
 _atom_site_symmetry_multiplicity
 _atom_site_fract_x
 _atom_site_fract_y
 _atom_site_fract_z
 _atom_site_occupancy
  Zr  Zr0  1  0.821280  0.189529  0.137815  1
  Se  Se1  1  0.357992  0.786445  0.751131  1
  Se  Se2  1  0.351143  0.826084  0.278477  1
  Se  Se3  1  0.838746  0.210383  0.815684  1
  Se  Se4  1  0.997847  0.830385  0.963205  1
  Se  Se5  1  0.550769  0.327285  0.910045  1
  Se  Se6  1  0.999352  0.403469  0.268059  1
  Se  Se7  1  0.553206  0.850089  0.569822  1
  Se  Se8  1  0.735471  0.597482  0.352274  1
  Se  Se9  1  0.257980  0.336634  0.678034  1
  Se  Se10  1  0.189772  0.839194  0.046194  1
  Se  Se11  1  0.720013  0.893556  0.111925  1
  Se  Se12  1  0.808850  0.899589  0.450261  1
  Se  Se13  1  0.538090  0.048889  0.167984  1
  Se  Se14  1  0.690102  0.287205  0.274790  1
  Se  Se15  1  0.211396  0.574803  0.773308  1
  Se  Se16  1  0.974179  0.107553  0.209866  1
  Se  Se17  1  0.468159  0.984955  0.713374  1
  Se  Se18  1  0.902381  0.477479  0.862953  1
  Se  Se19  1  0.288358  0.067983  0.463414  1
  Se  Se20  1  0.435748  0.302088  0.460846  1
  Se  Se21  1  0.409627  0.596205  0.176473  1
  Se  Se22  1  0.736665  0.503832  0.963800  1
  Se  Se23  1  0.241058  0.303632  0.217751  1
  Se  Se24  1  0.934077  0.847790  0.459753  1
  Se  Se25  1  0.185422  0.571876  0.285802  1
  Se  Se26  1  0.663084  0.025715  0.562822  1
  Se  Se27  1  0.173933  0.856652  0.557659  1
  Se  Se28  1  0.032460  0.403049  0.830367  1
  Se  Se29  1  0.536060  0.738578  0.136762  1
  Se  Se30  1  0.862868  0.853030  0.039299  1
  Se  Se31  1  0.308038  0.044520  0.045007  1
  Se  Se32  1  0.873092  0.482224  0.277567  1
  Se  Se33  1  0.387346  0.466485  0.620674  1
  Se  Se34  1  0.669884  0.322829  0.830102  1
  Se  Se35  1  0.019311  0.142501  0.736701  1
