# generated using pymatgen
data_Li5TcO6
_symmetry_space_group_name_H-M   'P 1'
_cell_length_a   5.06563997
_cell_length_b   5.06563995
_cell_length_c   5.04648033
_cell_angle_alpha   99.86284527
_cell_angle_beta   99.86285039
_cell_angle_gamma   119.85021402
_symmetry_Int_Tables_number   1
_chemical_formula_structural   Li5TcO6
_chemical_formula_sum   'Li5 Tc1 O6'
_cell_volume   105.55116492
_cell_formula_units_Z   1
loop_
 _symmetry_equiv_pos_site_id
 _symmetry_equiv_pos_as_xyz
  1  'x, y, z'
loop_
 _atom_site_type_symbol
 _atom_site_label
 _atom_site_symmetry_multiplicity
 _atom_site_fract_x
 _atom_site_fract_y
 _atom_site_fract_z
 _atom_site_occupancy
  Li  Li0  1  0.499680  0.500319  0.000000  1
  Li  Li1  1  0.994349  0.005650  0.499999  1
  Li  Li2  1  0.666362  0.333638  0.500001  1
  Li  Li3  1  0.341945  0.658055  0.500001  1
  Li  Li4  1  0.833374  0.166624  0.000000  1
  Tc  Tc5  1  0.166450  0.833549  0.000000  1
  O  O6  1  0.936316  0.604136  0.228416  1
  O  O7  1  0.551918  0.910741  0.234720  1
  O  O8  1  0.244004  0.219523  0.234909  1
  O  O9  1  0.780478  0.755997  0.765091  1
  O  O10  1  0.089261  0.448084  0.765282  1
  O  O11  1  0.395865  0.063684  0.771586  1
