# generated using pymatgen
data_Er2Tm6Tc(B8Ru)3
_symmetry_space_group_name_H-M   'P 1'
_cell_length_a   3.62793000
_cell_length_b   9.07283335
_cell_length_c   11.45258703
_cell_angle_alpha   89.91730909
_cell_angle_beta   90.00000000
_cell_angle_gamma   90.00000000
_symmetry_Int_Tables_number   1
_chemical_formula_structural   Er2Tm6Tc(B8Ru)3
_chemical_formula_sum   'Er2 Tm6 Tc1 B24 Ru3'
_cell_volume   376.96842989
_cell_formula_units_Z   1
loop_
 _symmetry_equiv_pos_site_id
 _symmetry_equiv_pos_as_xyz
  1  'x, y, z'
loop_
 _atom_site_type_symbol
 _atom_site_label
 _atom_site_symmetry_multiplicity
 _atom_site_fract_x
 _atom_site_fract_y
 _atom_site_fract_z
 _atom_site_occupancy
  Er  Er0  1  0.000000  0.323929  0.413258  1
  Er  Er1  1  0.000000  0.677389  0.583327  1
  Tm  Tm2  1  0.000000  0.819914  0.088082  1
  Tm  Tm3  1  0.000000  0.177615  0.915125  1
  Tm  Tm4  1  0.000000  0.943361  0.372351  1
  Tm  Tm5  1  0.000000  0.057054  0.628198  1
  Tm  Tm6  1  0.000000  0.444293  0.128005  1
  Tm  Tm7  1  0.000000  0.556660  0.871628  1
  Tc  Tc8  1  0.000000  0.637966  0.320771  1
  B  B9  1  0.500000  0.552915  0.433406  1
  B  B10  1  0.500000  0.446339  0.567182  1
  B  B11  1  0.500000  0.053569  0.066659  1
  B  B12  1  0.500000  0.946264  0.933583  1
  B  B13  1  0.500000  0.748977  0.419674  1
  B  B14  1  0.500000  0.251400  0.580321  1
  B  B15  1  0.500000  0.248675  0.079930  1
  B  B16  1  0.500000  0.751203  0.919969  1
  B  B17  1  0.500000  0.792188  0.265613  1
  B  B18  1  0.500000  0.208405  0.734421  1
  B  B19  1  0.500000  0.291434  0.233483  1
  B  B20  1  0.500000  0.708861  0.765734  1
  B  B21  1  0.500000  0.631372  0.184983  1
  B  B22  1  0.500000  0.368281  0.815391  1
  B  B23  1  0.500000  0.131379  0.314735  1
  B  B24  1  0.500000  0.869042  0.684858  1
  B  B25  1  0.500000  0.982474  0.212639  1
  B  B26  1  0.500000  0.017543  0.787761  1
  B  B27  1  0.500000  0.481768  0.287169  1
  B  B28  1  0.500000  0.517168  0.712781  1
  B  B29  1  0.500000  0.606305  0.028782  1
  B  B30  1  0.500000  0.393198  0.970239  1
  B  B31  1  0.500000  0.106704  0.470870  1
  B  B32  1  0.500000  0.894764  0.529708  1
  Ru  Ru33  1  0.000000  0.361596  0.679822  1
  Ru  Ru34  1  0.000000  0.137685  0.178434  1
  Ru  Ru35  1  0.000000  0.862311  0.821107  1
