# generated using pymatgen
data_LiLaEu(H6Ir)2
_symmetry_space_group_name_H-M   'P 1'
_cell_length_a   4.94309200
_cell_length_b   4.94309079
_cell_length_c   8.40908600
_cell_angle_alpha   90.00000000
_cell_angle_beta   90.00000000
_cell_angle_gamma   119.99998134
_symmetry_Int_Tables_number   1
_chemical_formula_structural   LiLaEu(H6Ir)2
_chemical_formula_sum   'Li1 La1 Eu1 H12 Ir2'
_cell_volume   177.94131183
_cell_formula_units_Z   1
loop_
 _symmetry_equiv_pos_site_id
 _symmetry_equiv_pos_as_xyz
  1  'x, y, z'
loop_
 _atom_site_type_symbol
 _atom_site_label
 _atom_site_symmetry_multiplicity
 _atom_site_fract_x
 _atom_site_fract_y
 _atom_site_fract_z
 _atom_site_occupancy
  Li  Li0  1  0.666667  0.333333  0.316393  1
  La  La1  1  0.333333  0.666667  0.617485  1
  Eu  Eu2  1  0.000000  0.000000  0.043359  1
  H  H3  1  0.168385  0.831615  0.362827  1
  H  H4  1  0.663232  0.831615  0.362827  1
  H  H5  1  0.168385  0.336768  0.362827  1
  H  H6  1  0.829241  0.170759  0.635432  1
  H  H7  1  0.341518  0.170759  0.635432  1
  H  H8  1  0.829241  0.658482  0.635432  1
  H  H9  1  0.510490  0.020977  0.869004  1
  H  H10  1  0.510490  0.489510  0.869004  1
  H  H11  1  0.979023  0.489510  0.869004  1
  H  H12  1  0.493366  0.986734  0.138893  1
  H  H13  1  0.493366  0.506634  0.138893  1
  H  H14  1  0.013266  0.506634  0.138893  1
  Ir  Ir15  1  0.666667  0.333333  0.748948  1
  Ir  Ir16  1  0.333333  0.666667  0.255346  1
