# generated using pymatgen
data_Ho19ErPb16
_symmetry_space_group_name_H-M   'P 1'
_cell_length_a   8.18985703
_cell_length_b   8.26266303
_cell_length_c   15.60637100
_cell_angle_alpha   90.00000000
_cell_angle_beta   90.00000000
_cell_angle_gamma   90.00942366
_symmetry_Int_Tables_number   1
_chemical_formula_structural   Ho19ErPb16
_chemical_formula_sum   'Ho19 Er1 Pb16'
_cell_volume   1056.08356179
_cell_formula_units_Z   1
loop_
 _symmetry_equiv_pos_site_id
 _symmetry_equiv_pos_as_xyz
  1  'x, y, z'
loop_
 _atom_site_type_symbol
 _atom_site_label
 _atom_site_symmetry_multiplicity
 _atom_site_fract_x
 _atom_site_fract_y
 _atom_site_fract_z
 _atom_site_occupancy
  Ho  Ho0  1  0.377520  0.840667  0.879403  1
  Ho  Ho1  1  0.877534  0.659342  0.620630  1
  Ho  Ho2  1  0.622380  0.159272  0.379371  1
  Ho  Ho3  1  0.122545  0.340633  0.120617  1
  Ho  Ho4  1  0.622380  0.159272  0.120629  1
  Ho  Ho5  1  0.122545  0.340633  0.379383  1
  Ho  Ho6  1  0.377520  0.840667  0.620597  1
  Ho  Ho7  1  0.877534  0.659342  0.879370  1
  Ho  Ho8  1  0.535077  0.323355  0.899958  1
  Ho  Ho9  1  0.035065  0.176656  0.600012  1
  Ho  Ho10  1  0.464892  0.676719  0.399973  1
  Ho  Ho11  1  0.964981  0.823397  0.100029  1
  Ho  Ho12  1  0.464892  0.676719  0.100027  1
  Ho  Ho13  1  0.964981  0.823397  0.399971  1
  Ho  Ho14  1  0.535077  0.323355  0.600042  1
  Ho  Ho15  1  0.035065  0.176656  0.899988  1
  Ho  Ho16  1  0.208832  0.503893  0.750000  1
  Ho  Ho17  1  0.708830  0.996154  0.750000  1
  Ho  Ho18  1  0.791166  0.496148  0.250000  1
  Er  Er19  1  0.290968  0.003879  0.250000  1
  Pb  Pb20  1  0.280895  0.033472  0.042801  1
  Pb  Pb21  1  0.780864  0.466519  0.457361  1
  Pb  Pb22  1  0.719168  0.966480  0.542619  1
  Pb  Pb23  1  0.219140  0.533495  0.957373  1
  Pb  Pb24  1  0.719168  0.966480  0.957381  1
  Pb  Pb25  1  0.219140  0.533495  0.542627  1
  Pb  Pb26  1  0.280895  0.033472  0.457199  1
  Pb  Pb27  1  0.780864  0.466519  0.042639  1
  Pb  Pb28  1  0.572556  0.626212  0.750000  1
  Pb  Pb29  1  0.072602  0.873837  0.750000  1
  Pb  Pb30  1  0.427222  0.373643  0.250000  1
  Pb  Pb31  1  0.927662  0.125830  0.250000  1
  Pb  Pb32  1  0.347292  0.153223  0.750000  1
  Pb  Pb33  1  0.847331  0.346693  0.750000  1
  Pb  Pb34  1  0.652583  0.846861  0.250000  1
  Pb  Pb35  1  0.152834  0.653614  0.250000  1
