# generated using pymatgen
data_Hf3ZnCu2N
_symmetry_space_group_name_H-M   'P 1'
_cell_length_a   8.38813835
_cell_length_b   8.38813722
_cell_length_c   8.38813800
_cell_angle_alpha   59.99999694
_cell_angle_beta   60.00000137
_cell_angle_gamma   59.99999648
_symmetry_Int_Tables_number   1
_chemical_formula_structural   Hf3ZnCu2N
_chemical_formula_sum   'Hf12 Zn4 Cu8 N4'
_cell_volume   417.33197755
_cell_formula_units_Z   4
loop_
 _symmetry_equiv_pos_site_id
 _symmetry_equiv_pos_as_xyz
  1  'x, y, z'
loop_
 _atom_site_type_symbol
 _atom_site_label
 _atom_site_symmetry_multiplicity
 _atom_site_fract_x
 _atom_site_fract_y
 _atom_site_fract_z
 _atom_site_occupancy
  Hf  Hf0  1  0.811056  0.188944  0.188944  1
  Hf  Hf1  1  0.188944  0.811056  0.188944  1
  Hf  Hf2  1  0.811056  0.811056  0.188944  1
  Hf  Hf3  1  0.188944  0.811056  0.811056  1
  Hf  Hf4  1  0.811056  0.188944  0.811056  1
  Hf  Hf5  1  0.188944  0.188944  0.811056  1
  Hf  Hf6  1  0.438944  0.061056  0.061056  1
  Hf  Hf7  1  0.061056  0.438944  0.061056  1
  Hf  Hf8  1  0.438944  0.438944  0.061056  1
  Hf  Hf9  1  0.061056  0.438944  0.438944  1
  Hf  Hf10  1  0.438944  0.061056  0.438944  1
  Hf  Hf11  1  0.061056  0.061056  0.438944  1
  Zn  Zn12  1  0.625000  0.625000  0.125000  1
  Zn  Zn13  1  0.625000  0.625000  0.625000  1
  Zn  Zn14  1  0.125000  0.625000  0.625000  1
  Zn  Zn15  1  0.625000  0.125000  0.625000  1
  Cu  Cu16  1  0.416703  0.416703  0.749890  1
  Cu  Cu17  1  0.416703  0.416703  0.416703  1
  Cu  Cu18  1  0.749890  0.416703  0.416703  1
  Cu  Cu19  1  0.416703  0.749890  0.416703  1
  Cu  Cu20  1  0.833297  0.833297  0.500110  1
  Cu  Cu21  1  0.833297  0.833297  0.833297  1
  Cu  Cu22  1  0.500110  0.833297  0.833297  1
  Cu  Cu23  1  0.833297  0.500110  0.833297  1
  N  N24  1  0.125000  0.125000  0.625000  1
  N  N25  1  0.125000  0.125000  0.125000  1
  N  N26  1  0.625000  0.125000  0.125000  1
  N  N27  1  0.125000  0.625000  0.125000  1
