# generated using pymatgen
data_HoTm2Ni9
_symmetry_space_group_name_H-M   'P 1'
_cell_length_a   8.56251476
_cell_length_b   8.56251492
_cell_length_c   8.56251511
_cell_angle_alpha   33.51698846
_cell_angle_beta   33.51698876
_cell_angle_gamma   33.51698942
_symmetry_Int_Tables_number   1
_chemical_formula_structural   HoTm2Ni9
_chemical_formula_sum   'Ho1 Tm2 Ni9'
_cell_volume   170.48499271
_cell_formula_units_Z   1
loop_
 _symmetry_equiv_pos_site_id
 _symmetry_equiv_pos_as_xyz
  1  'x, y, z'
loop_
 _atom_site_type_symbol
 _atom_site_label
 _atom_site_symmetry_multiplicity
 _atom_site_fract_x
 _atom_site_fract_y
 _atom_site_fract_z
 _atom_site_occupancy
  Ho  Ho0  1  0.000000  0.000000  0.000000  1
  Tm  Tm1  1  0.860914  0.860914  0.860914  1
  Tm  Tm2  1  0.139086  0.139086  0.139086  1
  Ni  Ni3  1  0.415991  0.415991  0.919553  1
  Ni  Ni4  1  0.919553  0.415991  0.415991  1
  Ni  Ni5  1  0.415991  0.919553  0.415991  1
  Ni  Ni6  1  0.500000  0.500000  0.500000  1
  Ni  Ni7  1  0.333252  0.333252  0.333252  1
  Ni  Ni8  1  0.666748  0.666748  0.666748  1
  Ni  Ni9  1  0.080447  0.584009  0.584009  1
  Ni  Ni10  1  0.584009  0.584009  0.080447  1
  Ni  Ni11  1  0.584009  0.080447  0.584009  1
