# generated using pymatgen
data_Dy5Nb2P12Ir10Rh7
_symmetry_space_group_name_H-M   'P 1'
_cell_length_a   12.60580725
_cell_length_b   12.77857146
_cell_length_c   3.97093400
_cell_angle_alpha   90.00000000
_cell_angle_beta   90.00000000
_cell_angle_gamma   119.53094941
_symmetry_Int_Tables_number   1
_chemical_formula_structural   Dy5Nb2P12Ir10Rh7
_chemical_formula_sum   'Dy5 Nb2 P12 Ir10 Rh7'
_cell_volume   556.55694091
_cell_formula_units_Z   1
loop_
 _symmetry_equiv_pos_site_id
 _symmetry_equiv_pos_as_xyz
  1  'x, y, z'
loop_
 _atom_site_type_symbol
 _atom_site_label
 _atom_site_symmetry_multiplicity
 _atom_site_fract_x
 _atom_site_fract_y
 _atom_site_fract_z
 _atom_site_occupancy
  Dy  Dy0  1  0.330025  0.661108  0.500000  1
  Dy  Dy1  1  0.668050  0.338410  0.500000  1
  Dy  Dy2  1  0.999500  0.812517  0.000000  1
  Dy  Dy3  1  0.186600  0.187122  0.000000  1
  Dy  Dy4  1  0.812274  0.999995  0.000000  1
  Nb  Nb5  1  0.997751  0.448911  0.500000  1
  Nb  Nb6  1  0.548838  0.551664  0.500000  1
  P  P7  1  0.002859  0.641202  0.500000  1
  P  P8  1  0.361389  0.359138  0.500000  1
  P  P9  1  0.640047  0.999171  0.500000  1
  P  P10  1  0.515446  0.683359  0.000000  1
  P  P11  1  0.311933  0.827122  0.000000  1
  P  P12  1  0.163195  0.481570  0.000000  1
  P  P13  1  0.483955  0.171978  0.000000  1
  P  P14  1  0.681655  0.518766  0.000000  1
  P  P15  1  0.831786  0.316869  0.000000  1
  P  P16  1  0.999694  0.175161  0.500000  1
  P  P17  1  0.824412  0.824420  0.500000  1
  P  P18  1  0.182562  0.999357  0.500000  1
  Ir  Ir19  1  0.126130  0.642525  0.000000  1
  Ir  Ir20  1  0.354075  0.490793  0.000000  1
  Ir  Ir21  1  0.484144  0.356911  0.000000  1
  Ir  Ir22  1  0.862503  0.507913  0.000000  1
  Ir  Ir23  1  0.644081  0.137544  0.000000  1
  Ir  Ir24  1  0.997983  0.281122  0.000000  1
  Ir  Ir25  1  0.718185  0.719681  0.000000  1
  Ir  Ir26  1  0.288074  0.999988  0.000000  1
  Ir  Ir27  1  0.818687  0.192125  0.500000  1
  Ir  Ir28  1  0.004092  0.000125  0.500000  1
  Rh  Rh29  1  0.506880  0.863155  0.000000  1
  Rh  Rh30  1  0.461538  0.003591  0.500000  1
  Rh  Rh31  1  0.626076  0.807178  0.500000  1
  Rh  Rh32  1  0.202465  0.823256  0.500000  1
  Rh  Rh33  1  0.177180  0.369164  0.500000  1
  Rh  Rh34  1  0.377919  0.177005  0.500000  1
  Rh  Rh35  1  0.808016  0.630083  0.500000  1
