# generated using pymatgen
data_Pr9NdSn4(BiBr)2
_symmetry_space_group_name_H-M   'P 1'
_cell_length_a   9.67425670
_cell_length_b   9.67425593
_cell_length_c   6.82257801
_cell_angle_alpha   90.00333756
_cell_angle_beta   90.00334023
_cell_angle_gamma   120.42868089
_symmetry_Int_Tables_number   1
_chemical_formula_structural   Pr9NdSn4(BiBr)2
_chemical_formula_sum   'Pr9 Nd1 Sn4 Bi2 Br2'
_cell_volume   550.58205665
_cell_formula_units_Z   1
loop_
 _symmetry_equiv_pos_site_id
 _symmetry_equiv_pos_as_xyz
  1  'x, y, z'
loop_
 _atom_site_type_symbol
 _atom_site_label
 _atom_site_symmetry_multiplicity
 _atom_site_fract_x
 _atom_site_fract_y
 _atom_site_fract_z
 _atom_site_occupancy
  Pr  Pr0  1  0.269162  0.995311  0.749884  1
  Pr  Pr1  1  0.730825  0.004576  0.250098  1
  Pr  Pr2  1  0.995424  0.269175  0.749902  1
  Pr  Pr3  1  0.004689  0.730838  0.250116  1
  Pr  Pr4  1  0.734143  0.734172  0.749909  1
  Pr  Pr5  1  0.265828  0.265857  0.250091  1
  Pr  Pr6  1  0.669624  0.330376  0.500000  1
  Pr  Pr7  1  0.669655  0.330345  0.000000  1
  Pr  Pr8  1  0.330344  0.669656  0.000000  1
  Nd  Nd9  1  0.330278  0.669722  0.500000  1
  Sn  Sn10  1  0.613671  0.998734  0.749746  1
  Sn  Sn11  1  0.385982  0.000564  0.250260  1
  Sn  Sn12  1  0.999436  0.614018  0.749740  1
  Sn  Sn13  1  0.001266  0.386329  0.250254  1
  Bi  Bi14  1  0.384475  0.384811  0.749804  1
  Bi  Bi15  1  0.615189  0.615525  0.250196  1
  Br  Br16  1  0.000006  0.999994  0.500000  1
  Br  Br17  1  0.000005  0.999995  0.000000  1
