# generated using pymatgen
data_Nd2Hg2Rh
_symmetry_space_group_name_H-M   'P 1'
_cell_length_a   7.89537400
_cell_length_b   8.38079300
_cell_length_c   3.88306300
_cell_angle_alpha   90.00000000
_cell_angle_beta   90.00000000
_cell_angle_gamma   90.00000000
_symmetry_Int_Tables_number   1
_chemical_formula_structural   Nd2Hg2Rh
_chemical_formula_sum   'Nd4 Hg4 Rh2'
_cell_volume   256.94031835
_cell_formula_units_Z   2
loop_
 _symmetry_equiv_pos_site_id
 _symmetry_equiv_pos_as_xyz
  1  'x, y, z'
loop_
 _atom_site_type_symbol
 _atom_site_label
 _atom_site_symmetry_multiplicity
 _atom_site_fract_x
 _atom_site_fract_y
 _atom_site_fract_z
 _atom_site_occupancy
  Nd  Nd0  1  0.828990  0.698192  0.500000  1
  Nd  Nd1  1  0.328990  0.801808  0.500000  1
  Nd  Nd2  1  0.687845  0.128890  0.500000  1
  Nd  Nd3  1  0.187845  0.371110  0.500000  1
  Hg  Hg4  1  0.997932  0.982962  0.000000  1
  Hg  Hg5  1  0.497932  0.517038  0.000000  1
  Hg  Hg6  1  0.861726  0.383615  0.000000  1
  Hg  Hg7  1  0.361726  0.116385  0.000000  1
  Rh  Rh8  1  0.623508  0.876758  0.000000  1
  Rh  Rh9  1  0.123508  0.623242  0.000000  1
