# generated using pymatgen
data_TbZrCrB6
_symmetry_space_group_name_H-M   'P 1'
_cell_length_a   3.48989800
_cell_length_b   9.05020100
_cell_length_c   11.44007600
_cell_angle_alpha   90.00000000
_cell_angle_beta   90.00000000
_cell_angle_gamma   90.00000000
_symmetry_Int_Tables_number   1
_chemical_formula_structural   TbZrCrB6
_chemical_formula_sum   'Tb4 Zr4 Cr4 B24'
_cell_volume   361.32654495
_cell_formula_units_Z   4
loop_
 _symmetry_equiv_pos_site_id
 _symmetry_equiv_pos_as_xyz
  1  'x, y, z'
loop_
 _atom_site_type_symbol
 _atom_site_label
 _atom_site_symmetry_multiplicity
 _atom_site_fract_x
 _atom_site_fract_y
 _atom_site_fract_z
 _atom_site_occupancy
  Tb  Tb0  1  0.000000  0.822394  0.085325  1
  Tb  Tb1  1  0.000000  0.177606  0.914675  1
  Tb  Tb2  1  0.000000  0.322394  0.414675  1
  Tb  Tb3  1  0.000000  0.677606  0.585325  1
  Zr  Zr4  1  0.000000  0.443935  0.129654  1
  Zr  Zr5  1  0.000000  0.556065  0.870346  1
  Zr  Zr6  1  0.000000  0.943935  0.370346  1
  Zr  Zr7  1  0.000000  0.056065  0.629654  1
  Cr  Cr8  1  0.000000  0.141941  0.182548  1
  Cr  Cr9  1  0.000000  0.858059  0.817452  1
  Cr  Cr10  1  0.000000  0.641941  0.317452  1
  Cr  Cr11  1  0.000000  0.358059  0.682548  1
  B  B12  1  0.500000  0.054486  0.067783  1
  B  B13  1  0.500000  0.945514  0.932217  1
  B  B14  1  0.500000  0.554486  0.432217  1
  B  B15  1  0.500000  0.445514  0.567783  1
  B  B16  1  0.500000  0.251228  0.082941  1
  B  B17  1  0.500000  0.748772  0.917059  1
  B  B18  1  0.500000  0.751228  0.417059  1
  B  B19  1  0.500000  0.248772  0.582941  1
  B  B20  1  0.500000  0.294439  0.235785  1
  B  B21  1  0.500000  0.705561  0.764215  1
  B  B22  1  0.500000  0.794439  0.264215  1
  B  B23  1  0.500000  0.205561  0.735785  1
  B  B24  1  0.500000  0.130388  0.315932  1
  B  B25  1  0.500000  0.869612  0.684068  1
  B  B26  1  0.500000  0.630388  0.184068  1
  B  B27  1  0.500000  0.369612  0.815932  1
  B  B28  1  0.500000  0.482924  0.287509  1
  B  B29  1  0.500000  0.517076  0.712491  1
  B  B30  1  0.500000  0.982924  0.212491  1
  B  B31  1  0.500000  0.017076  0.787509  1
  B  B32  1  0.500000  0.099558  0.473307  1
  B  B33  1  0.500000  0.900442  0.526693  1
  B  B34  1  0.500000  0.599558  0.026693  1
  B  B35  1  0.500000  0.400442  0.973307  1
