# generated using pymatgen
data_SmEr2Ga4Pd7
_symmetry_space_group_name_H-M   'P 1'
_cell_length_a   8.07353951
_cell_length_b   8.07353978
_cell_length_c   9.66536678
_cell_angle_alpha   56.34628435
_cell_angle_beta   56.34628175
_cell_angle_gamma   29.48150191
_symmetry_Int_Tables_number   1
_chemical_formula_structural   SmEr2Ga4Pd7
_chemical_formula_sum   'Sm1 Er2 Ga4 Pd7'
_cell_volume   254.09931949
_cell_formula_units_Z   1
loop_
 _symmetry_equiv_pos_site_id
 _symmetry_equiv_pos_as_xyz
  1  'x, y, z'
loop_
 _atom_site_type_symbol
 _atom_site_label
 _atom_site_symmetry_multiplicity
 _atom_site_fract_x
 _atom_site_fract_y
 _atom_site_fract_z
 _atom_site_occupancy
  Sm  Sm0  1  0.500000  0.500000  0.500000  1
  Er  Er1  1  0.827828  0.827828  0.165700  1
  Er  Er2  1  0.172172  0.172172  0.834300  1
  Ga  Ga3  1  0.386589  0.386589  0.333310  1
  Ga  Ga4  1  0.613411  0.613411  0.666690  1
  Ga  Ga5  1  0.837137  0.837137  0.769640  1
  Ga  Ga6  1  0.162863  0.162863  0.230360  1
  Pd  Pd7  1  0.663890  0.663890  0.071321  1
  Pd  Pd8  1  0.007153  0.007153  0.208463  1
  Pd  Pd9  1  0.992847  0.992847  0.791537  1
  Pd  Pd10  1  0.500000  0.500000  0.000000  1
  Pd  Pd11  1  0.190891  0.190891  0.463281  1
  Pd  Pd12  1  0.809109  0.809109  0.536719  1
  Pd  Pd13  1  0.336110  0.336110  0.928679  1
