# generated using pymatgen
data_Ba8LuUS12
_symmetry_space_group_name_H-M   'P 1'
_cell_length_a   8.60769336
_cell_length_b   8.60769350
_cell_length_c   8.60769400
_cell_angle_alpha   89.51344860
_cell_angle_beta   89.51344859
_cell_angle_gamma   89.51345461
_symmetry_Int_Tables_number   1
_chemical_formula_structural   Ba8LuUS12
_chemical_formula_sum   'Ba8 Lu1 U1 S12'
_cell_volume   637.69599047
_cell_formula_units_Z   1
loop_
 _symmetry_equiv_pos_site_id
 _symmetry_equiv_pos_as_xyz
  1  'x, y, z'
loop_
 _atom_site_type_symbol
 _atom_site_label
 _atom_site_symmetry_multiplicity
 _atom_site_fract_x
 _atom_site_fract_y
 _atom_site_fract_z
 _atom_site_occupancy
  Ba  Ba0  1  0.873007  0.619870  0.258418  1
  Ba  Ba1  1  0.258418  0.873007  0.619870  1
  Ba  Ba2  1  0.619870  0.258418  0.873007  1
  Ba  Ba3  1  0.741582  0.126993  0.380130  1
  Ba  Ba4  1  0.380130  0.741582  0.126993  1
  Ba  Ba5  1  0.126993  0.380130  0.741582  1
  Ba  Ba6  1  0.255087  0.255087  0.255087  1
  Ba  Ba7  1  0.744913  0.744913  0.744913  1
  Lu  Lu8  1  0.500000  0.500000  0.500000  1
  U  U9  1  0.000000  0.000000  0.000000  1
  S  S10  1  0.203543  0.564617  0.421236  1
  S  S11  1  0.421236  0.203543  0.564617  1
  S  S12  1  0.564617  0.421236  0.203543  1
  S  S13  1  0.928463  0.058022  0.708631  1
  S  S14  1  0.708631  0.928463  0.058022  1
  S  S15  1  0.058022  0.708631  0.928463  1
  S  S16  1  0.796457  0.435383  0.578764  1
  S  S17  1  0.578764  0.796457  0.435383  1
  S  S18  1  0.435383  0.578764  0.796457  1
  S  S19  1  0.071537  0.941978  0.291369  1
  S  S20  1  0.291369  0.071537  0.941978  1
  S  S21  1  0.941978  0.291369  0.071537  1
