# generated using pymatgen
data_Sc3Al3Ga2Au
_symmetry_space_group_name_H-M   'P 1'
_cell_length_a   6.76040800
_cell_length_b   6.76040794
_cell_length_c   8.31419200
_cell_angle_alpha   90.00000000
_cell_angle_beta   90.00000000
_cell_angle_gamma   120.00000029
_symmetry_Int_Tables_number   1
_chemical_formula_structural   Sc3Al3Ga2Au
_chemical_formula_sum   'Sc6 Al6 Ga4 Au2'
_cell_volume   329.07621249
_cell_formula_units_Z   2
loop_
 _symmetry_equiv_pos_site_id
 _symmetry_equiv_pos_as_xyz
  1  'x, y, z'
loop_
 _atom_site_type_symbol
 _atom_site_label
 _atom_site_symmetry_multiplicity
 _atom_site_fract_x
 _atom_site_fract_y
 _atom_site_fract_z
 _atom_site_occupancy
  Sc  Sc0  1  0.574728  0.999253  0.750000  1
  Sc  Sc1  1  0.000747  0.575474  0.750000  1
  Sc  Sc2  1  0.424526  0.425272  0.750000  1
  Sc  Sc3  1  0.999253  0.574728  0.250000  1
  Sc  Sc4  1  0.575474  0.000747  0.250000  1
  Sc  Sc5  1  0.425272  0.424526  0.250000  1
  Al  Al6  1  0.753318  0.753318  0.000000  1
  Al  Al7  1  0.246682  0.000000  0.000000  1
  Al  Al8  1  0.000000  0.246682  0.000000  1
  Al  Al9  1  0.753318  0.753318  0.500000  1
  Al  Al10  1  0.246682  0.000000  0.500000  1
  Al  Al11  1  0.000000  0.246682  0.500000  1
  Ga  Ga12  1  0.666667  0.333333  0.999307  1
  Ga  Ga13  1  0.666667  0.333333  0.500693  1
  Ga  Ga14  1  0.333333  0.666667  0.499307  1
  Ga  Ga15  1  0.333333  0.666667  0.000693  1
  Au  Au16  1  0.000000  0.000000  0.750000  1
  Au  Au17  1  0.000000  0.000000  0.250000  1
