# generated using pymatgen
data_YbDyPa2(B4Os)4
_symmetry_space_group_name_H-M   'P 1'
_cell_length_a   3.58010600
_cell_length_b   5.97791044
_cell_length_c   11.58874547
_cell_angle_alpha   90.11265695
_cell_angle_beta   90.00000000
_cell_angle_gamma   90.00000000
_symmetry_Int_Tables_number   1
_chemical_formula_structural   YbDyPa2(B4Os)4
_chemical_formula_sum   'Yb1 Dy1 Pa2 B16 Os4'
_cell_volume   248.01667140
_cell_formula_units_Z   1
loop_
 _symmetry_equiv_pos_site_id
 _symmetry_equiv_pos_as_xyz
  1  'x, y, z'
loop_
 _atom_site_type_symbol
 _atom_site_label
 _atom_site_symmetry_multiplicity
 _atom_site_fract_x
 _atom_site_fract_y
 _atom_site_fract_z
 _atom_site_occupancy
  Yb  Yb0  1  0.000000  0.371221  0.147454  1
  Dy  Dy1  1  0.000000  0.627881  0.852865  1
  Pa  Pa2  1  0.000000  0.128838  0.651036  1
  Pa  Pa3  1  0.000000  0.871003  0.347614  1
  B  B4  1  0.500000  0.474167  0.692097  1
  B  B5  1  0.500000  0.525403  0.308014  1
  B  B6  1  0.500000  0.971044  0.810232  1
  B  B7  1  0.500000  0.027424  0.189720  1
  B  B8  1  0.500000  0.289660  0.814625  1
  B  B9  1  0.500000  0.710850  0.185279  1
  B  B10  1  0.500000  0.789094  0.688500  1
  B  B11  1  0.500000  0.211628  0.312003  1
  B  B12  1  0.500000  0.362826  0.969709  1
  B  B13  1  0.500000  0.636647  0.031240  1
  B  B14  1  0.500000  0.865631  0.531457  1
  B  B15  1  0.500000  0.133785  0.467485  1
  B  B16  1  0.500000  0.386808  0.546297  1
  B  B17  1  0.500000  0.612454  0.452969  1
  B  B18  1  0.500000  0.887044  0.955551  1
  B  B19  1  0.500000  0.114675  0.046004  1
  Os  Os20  1  0.000000  0.139085  0.904473  1
  Os  Os21  1  0.000000  0.861488  0.094380  1
  Os  Os22  1  0.000000  0.643816  0.594995  1
  Os  Os23  1  0.000000  0.357526  0.406002  1
