# generated using pymatgen
data_Zr10BeSn5GeSb
_symmetry_space_group_name_H-M   'P 1'
_cell_length_a   8.68511661
_cell_length_b   8.69089662
_cell_length_c   5.85816630
_cell_angle_alpha   90.07629191
_cell_angle_beta   89.96183596
_cell_angle_gamma   120.02201701
_symmetry_Int_Tables_number   1
_chemical_formula_structural   Zr10BeSn5GeSb
_chemical_formula_sum   'Zr10 Be1 Sn5 Ge1 Sb1'
_cell_volume   382.85628992
_cell_formula_units_Z   1
loop_
 _symmetry_equiv_pos_site_id
 _symmetry_equiv_pos_as_xyz
  1  'x, y, z'
loop_
 _atom_site_type_symbol
 _atom_site_label
 _atom_site_symmetry_multiplicity
 _atom_site_fract_x
 _atom_site_fract_y
 _atom_site_fract_z
 _atom_site_occupancy
  Zr  Zr0  1  0.667836  0.333388  0.999585  1
  Zr  Zr1  1  0.332164  0.665554  0.999585  1
  Zr  Zr2  1  0.332199  0.665579  0.500234  1
  Zr  Zr3  1  0.667801  0.333380  0.500234  1
  Zr  Zr4  1  0.741429  0.741389  0.760936  1
  Zr  Zr5  1  0.258571  0.999960  0.760936  1
  Zr  Zr6  1  0.000000  0.259490  0.761302  1
  Zr  Zr7  1  0.256811  0.257898  0.239105  1
  Zr  Zr8  1  0.743189  0.001087  0.239105  1
  Zr  Zr9  1  0.000000  0.741132  0.239944  1
  Be  Be10  1  0.000000  0.999210  0.998042  1
  Sn  Sn11  1  0.391880  0.390938  0.749621  1
  Sn  Sn12  1  0.608120  0.999058  0.749621  1
  Sn  Sn13  1  0.000000  0.610715  0.749360  1
  Sn  Sn14  1  0.608746  0.608825  0.250584  1
  Sn  Sn15  1  0.391254  0.000078  0.250584  1
  Ge  Ge16  1  0.000000  0.999681  0.501730  1
  Sb  Sb17  1  0.000000  0.392639  0.249492  1
