# generated using pymatgen
data_Tb2Gd6LuPt6
_symmetry_space_group_name_H-M   'P 1'
_cell_length_a   7.55314885
_cell_length_b   7.55314820
_cell_length_c   7.55314900
_cell_angle_alpha   71.08114280
_cell_angle_beta   71.08114448
_cell_angle_gamma   71.08115352
_symmetry_Int_Tables_number   1
_chemical_formula_structural   Tb2Gd6LuPt6
_chemical_formula_sum   'Tb2 Gd6 Lu1 Pt6'
_cell_volume   373.87179749
_cell_formula_units_Z   1
loop_
 _symmetry_equiv_pos_site_id
 _symmetry_equiv_pos_as_xyz
  1  'x, y, z'
loop_
 _atom_site_type_symbol
 _atom_site_label
 _atom_site_symmetry_multiplicity
 _atom_site_fract_x
 _atom_site_fract_y
 _atom_site_fract_z
 _atom_site_occupancy
  Tb  Tb0  1  0.802854  0.802854  0.802854  1
  Tb  Tb1  1  0.197146  0.197146  0.197146  1
  Gd  Gd2  1  0.331363  0.605189  0.840393  1
  Gd  Gd3  1  0.840393  0.331363  0.605189  1
  Gd  Gd4  1  0.605189  0.840393  0.331363  1
  Gd  Gd5  1  0.668637  0.394811  0.159607  1
  Gd  Gd6  1  0.159607  0.668637  0.394811  1
  Gd  Gd7  1  0.394811  0.159607  0.668637  1
  Lu  Lu8  1  0.000000  0.000000  0.000000  1
  Pt  Pt9  1  0.162379  0.960477  0.594180  1
  Pt  Pt10  1  0.594180  0.162379  0.960477  1
  Pt  Pt11  1  0.960477  0.594180  0.162379  1
  Pt  Pt12  1  0.837621  0.039523  0.405820  1
  Pt  Pt13  1  0.405820  0.837621  0.039523  1
  Pt  Pt14  1  0.039523  0.405820  0.837621  1
