# generated using pymatgen
data_ThTa2(Nb2Sn3)2
_symmetry_space_group_name_H-M   'P 1'
_cell_length_a   5.82992929
_cell_length_b   5.83111550
_cell_length_c   9.61940300
_cell_angle_alpha   90.00000000
_cell_angle_beta   90.00000000
_cell_angle_gamma   120.00673549
_symmetry_Int_Tables_number   1
_chemical_formula_structural   ThTa2(Nb2Sn3)2
_chemical_formula_sum   'Th1 Ta2 Nb4 Sn6'
_cell_volume   283.18105973
_cell_formula_units_Z   1
loop_
 _symmetry_equiv_pos_site_id
 _symmetry_equiv_pos_as_xyz
  1  'x, y, z'
loop_
 _atom_site_type_symbol
 _atom_site_label
 _atom_site_symmetry_multiplicity
 _atom_site_fract_x
 _atom_site_fract_y
 _atom_site_fract_z
 _atom_site_occupancy
  Th  Th0  1  0.000000  0.000000  0.998797  1
  Ta  Ta1  1  0.500000  0.500000  0.751521  1
  Ta  Ta2  1  0.500000  0.000000  0.751521  1
  Nb  Nb3  1  0.000000  0.500000  0.752011  1
  Nb  Nb4  1  0.000000  0.500000  0.250349  1
  Nb  Nb5  1  0.500000  0.500000  0.248484  1
  Nb  Nb6  1  0.500000  0.000000  0.248484  1
  Sn  Sn7  1  0.666176  0.333087  0.500071  1
  Sn  Sn8  1  0.333824  0.666913  0.500071  1
  Sn  Sn9  1  0.667839  0.333920  0.000330  1
  Sn  Sn10  1  0.332161  0.666080  0.000330  1
  Sn  Sn11  1  0.000000  0.000000  0.654370  1
  Sn  Sn12  1  0.000000  0.000000  0.343660  1
