# generated using pymatgen
data_Er(Cd10Rh)2
_symmetry_space_group_name_H-M   'P 1'
_cell_length_a   11.00718403
_cell_length_b   11.00718382
_cell_length_c   11.00718400
_cell_angle_alpha   59.99999947
_cell_angle_beta   60.00000008
_cell_angle_gamma   60.00000118
_symmetry_Int_Tables_number   1
_chemical_formula_structural   Er(Cd10Rh)2
_chemical_formula_sum   'Er2 Cd40 Rh4'
_cell_volume   943.00431021
_cell_formula_units_Z   2
loop_
 _symmetry_equiv_pos_site_id
 _symmetry_equiv_pos_as_xyz
  1  'x, y, z'
loop_
 _atom_site_type_symbol
 _atom_site_label
 _atom_site_symmetry_multiplicity
 _atom_site_fract_x
 _atom_site_fract_y
 _atom_site_fract_z
 _atom_site_occupancy
  Er  Er0  1  0.750000  0.750000  0.750000  1
  Er  Er1  1  0.500000  0.500000  0.500000  1
  Cd  Cd2  1  0.568225  0.301609  0.301609  1
  Cd  Cd3  1  0.421443  0.948391  0.681775  1
  Cd  Cd4  1  0.948391  0.681775  0.421443  1
  Cd  Cd5  1  0.948391  0.421443  0.948391  1
  Cd  Cd6  1  0.948391  0.948391  0.681775  1
  Cd  Cd7  1  0.301609  0.828557  0.568225  1
  Cd  Cd8  1  0.625000  0.125000  0.625000  1
  Cd  Cd9  1  0.828557  0.301609  0.301609  1
  Cd  Cd10  1  0.137289  0.137289  0.862711  1
  Cd  Cd11  1  0.568225  0.828557  0.301609  1
  Cd  Cd12  1  0.625000  0.625000  0.125000  1
  Cd  Cd13  1  0.387289  0.112711  0.387289  1
  Cd  Cd14  1  0.387289  0.112711  0.112711  1
  Cd  Cd15  1  0.862711  0.137289  0.137289  1
  Cd  Cd16  1  0.387289  0.387289  0.112711  1
  Cd  Cd17  1  0.948391  0.421443  0.681775  1
  Cd  Cd18  1  0.112711  0.387289  0.387289  1
  Cd  Cd19  1  0.681775  0.421443  0.948391  1
  Cd  Cd20  1  0.421443  0.948391  0.948391  1
  Cd  Cd21  1  0.828557  0.301609  0.568225  1
  Cd  Cd22  1  0.948391  0.681775  0.948391  1
  Cd  Cd23  1  0.301609  0.568225  0.828557  1
  Cd  Cd24  1  0.421443  0.681775  0.948391  1
  Cd  Cd25  1  0.137289  0.862711  0.862711  1
  Cd  Cd26  1  0.681775  0.948391  0.948391  1
  Cd  Cd27  1  0.828557  0.568225  0.301609  1
  Cd  Cd28  1  0.681775  0.948391  0.421443  1
  Cd  Cd29  1  0.125000  0.625000  0.625000  1
  Cd  Cd30  1  0.301609  0.301609  0.568225  1
  Cd  Cd31  1  0.862711  0.862711  0.137289  1
  Cd  Cd32  1  0.862711  0.137289  0.862711  1
  Cd  Cd33  1  0.301609  0.828557  0.301609  1
  Cd  Cd34  1  0.112711  0.387289  0.112711  1
  Cd  Cd35  1  0.112711  0.112711  0.387289  1
  Cd  Cd36  1  0.301609  0.301609  0.828557  1
  Cd  Cd37  1  0.137289  0.862711  0.137289  1
  Cd  Cd38  1  0.625000  0.625000  0.625000  1
  Cd  Cd39  1  0.301609  0.568225  0.301609  1
  Cd  Cd40  1  0.948391  0.948391  0.421443  1
  Cd  Cd41  1  0.568225  0.301609  0.828557  1
  Rh  Rh42  1  0.125000  0.125000  0.125000  1
  Rh  Rh43  1  0.625000  0.125000  0.125000  1
  Rh  Rh44  1  0.125000  0.625000  0.125000  1
  Rh  Rh45  1  0.125000  0.125000  0.625000  1
