# generated using pymatgen
data_Pr12Zn(GeBr4)3
_symmetry_space_group_name_H-M   'P 1'
_cell_length_a   10.52558526
_cell_length_b   10.52558600
_cell_length_c   10.52558567
_cell_angle_alpha   109.42452883
_cell_angle_beta   109.42452726
_cell_angle_gamma   109.42451480
_symmetry_Int_Tables_number   1
_chemical_formula_structural   Pr12Zn(GeBr4)3
_chemical_formula_sum   'Pr12 Zn1 Ge3 Br12'
_cell_volume   899.21907021
_cell_formula_units_Z   1
loop_
 _symmetry_equiv_pos_site_id
 _symmetry_equiv_pos_as_xyz
  1  'x, y, z'
loop_
 _atom_site_type_symbol
 _atom_site_label
 _atom_site_symmetry_multiplicity
 _atom_site_fract_x
 _atom_site_fract_y
 _atom_site_fract_z
 _atom_site_occupancy
  Pr  Pr0  1  0.482332  0.490284  0.241096  1
  Pr  Pr1  1  0.750000  0.240288  0.259712  1
  Pr  Pr2  1  0.750000  0.009890  0.490110  1
  Pr  Pr3  1  0.241096  0.482332  0.490284  1
  Pr  Pr4  1  0.259712  0.750000  0.240288  1
  Pr  Pr5  1  0.017668  0.258904  0.009716  1
  Pr  Pr6  1  0.009716  0.017668  0.258904  1
  Pr  Pr7  1  0.490110  0.750000  0.009890  1
  Pr  Pr8  1  0.490284  0.241096  0.482332  1
  Pr  Pr9  1  0.009890  0.490110  0.750000  1
  Pr  Pr10  1  0.258904  0.009716  0.017668  1
  Pr  Pr11  1  0.240288  0.259712  0.750000  1
  Zn  Zn12  1  0.250000  0.250000  0.250000  1
  Ge  Ge13  1  0.499245  0.000755  0.250000  1
  Ge  Ge14  1  0.000755  0.250000  0.499245  1
  Ge  Ge15  1  0.250000  0.499245  0.000755  1
  Br  Br16  1  0.250000  0.753485  0.746515  1
  Br  Br17  1  0.508345  0.504512  0.755258  1
  Br  Br18  1  0.991655  0.744742  0.995488  1
  Br  Br19  1  0.746515  0.250000  0.753485  1
  Br  Br20  1  0.995488  0.991655  0.744742  1
  Br  Br21  1  0.250000  0.994399  0.505601  1
  Br  Br22  1  0.755258  0.508345  0.504512  1
  Br  Br23  1  0.505601  0.250000  0.994399  1
  Br  Br24  1  0.753485  0.746515  0.250000  1
  Br  Br25  1  0.744742  0.995488  0.991655  1
  Br  Br26  1  0.994399  0.505601  0.250000  1
  Br  Br27  1  0.504512  0.755258  0.508345  1
