# generated using pymatgen
data_TbEr3(TcB6)2
_symmetry_space_group_name_H-M   'P 1'
_cell_length_a   3.66953300
_cell_length_b   9.13117200
_cell_length_c   11.51459903
_cell_angle_alpha   89.99699358
_cell_angle_beta   90.00000000
_cell_angle_gamma   90.00000000
_symmetry_Int_Tables_number   1
_chemical_formula_structural   TbEr3(TcB6)2
_chemical_formula_sum   'Tb2 Er6 Tc4 B24'
_cell_volume   385.82124648
_cell_formula_units_Z   2
loop_
 _symmetry_equiv_pos_site_id
 _symmetry_equiv_pos_as_xyz
  1  'x, y, z'
loop_
 _atom_site_type_symbol
 _atom_site_label
 _atom_site_symmetry_multiplicity
 _atom_site_fract_x
 _atom_site_fract_y
 _atom_site_fract_z
 _atom_site_occupancy
  Tb  Tb0  1  0.000000  0.323544  0.413971  1
  Tb  Tb1  1  0.000000  0.676456  0.586029  1
  Er  Er2  1  0.000000  0.824004  0.085723  1
  Er  Er3  1  0.000000  0.175996  0.914277  1
  Er  Er4  1  0.000000  0.942732  0.368935  1
  Er  Er5  1  0.000000  0.057268  0.631065  1
  Er  Er6  1  0.000000  0.442695  0.130129  1
  Er  Er7  1  0.000000  0.557305  0.869871  1
  Tc  Tc8  1  0.000000  0.639323  0.319484  1
  Tc  Tc9  1  0.000000  0.360677  0.680516  1
  Tc  Tc10  1  0.000000  0.138463  0.179050  1
  Tc  Tc11  1  0.000000  0.861537  0.820950  1
  B  B12  1  0.500000  0.553660  0.432279  1
  B  B13  1  0.500000  0.446340  0.567721  1
  B  B14  1  0.500000  0.053169  0.066650  1
  B  B15  1  0.500000  0.946831  0.933350  1
  B  B16  1  0.500000  0.749706  0.417814  1
  B  B17  1  0.500000  0.250294  0.582186  1
  B  B18  1  0.500000  0.249235  0.080769  1
  B  B19  1  0.500000  0.750765  0.919231  1
  B  B20  1  0.500000  0.792371  0.264263  1
  B  B21  1  0.500000  0.207629  0.735737  1
  B  B22  1  0.500000  0.291814  0.234154  1
  B  B23  1  0.500000  0.708186  0.765846  1
  B  B24  1  0.500000  0.630875  0.184534  1
  B  B25  1  0.500000  0.369125  0.815466  1
  B  B26  1  0.500000  0.130123  0.314173  1
  B  B27  1  0.500000  0.869877  0.685827  1
  B  B28  1  0.500000  0.981574  0.211257  1
  B  B29  1  0.500000  0.018426  0.788743  1
  B  B30  1  0.500000  0.482275  0.287373  1
  B  B31  1  0.500000  0.517725  0.712627  1
  B  B32  1  0.500000  0.599947  0.027796  1
  B  B33  1  0.500000  0.400053  0.972204  1
  B  B34  1  0.500000  0.098569  0.472481  1
  B  B35  1  0.500000  0.901431  0.527519  1
