# generated using pymatgen
data_Lu5Mn3(P3Ir4)4
_symmetry_space_group_name_H-M   'P 1'
_cell_length_a   12.64110900
_cell_length_b   12.64110829
_cell_length_c   3.94150600
_cell_angle_alpha   90.00000000
_cell_angle_beta   90.00000000
_cell_angle_gamma   119.99999923
_symmetry_Int_Tables_number   1
_chemical_formula_structural   Lu5Mn3(P3Ir4)4
_chemical_formula_sum   'Lu5 Mn3 P12 Ir16'
_cell_volume   545.46031013
_cell_formula_units_Z   1
loop_
 _symmetry_equiv_pos_site_id
 _symmetry_equiv_pos_as_xyz
  1  'x, y, z'
loop_
 _atom_site_type_symbol
 _atom_site_label
 _atom_site_symmetry_multiplicity
 _atom_site_fract_x
 _atom_site_fract_y
 _atom_site_fract_z
 _atom_site_occupancy
  Lu  Lu0  1  0.333333  0.666667  0.500000  1
  Lu  Lu1  1  0.666667  0.333333  0.500000  1
  Lu  Lu2  1  0.000000  0.810128  0.000000  1
  Lu  Lu3  1  0.189872  0.189872  0.000000  1
  Lu  Lu4  1  0.810128  0.000000  0.000000  1
  Mn  Mn5  1  0.000000  0.458004  0.500000  1
  Mn  Mn6  1  0.541996  0.541996  0.500000  1
  Mn  Mn7  1  0.458004  0.000000  0.500000  1
  P  P8  1  0.000000  0.636189  0.500000  1
  P  P9  1  0.363811  0.363811  0.500000  1
  P  P10  1  0.636189  0.000000  0.500000  1
  P  P11  1  0.516416  0.685727  0.000000  1
  P  P12  1  0.314273  0.830688  0.000000  1
  P  P13  1  0.169312  0.483584  0.000000  1
  P  P14  1  0.483584  0.169312  0.000000  1
  P  P15  1  0.685727  0.516416  0.000000  1
  P  P16  1  0.830688  0.314273  0.000000  1
  P  P17  1  0.000000  0.177893  0.500000  1
  P  P18  1  0.822107  0.822107  0.500000  1
  P  P19  1  0.177893  0.000000  0.500000  1
  Ir  Ir20  1  0.507268  0.866828  0.000000  1
  Ir  Ir21  1  0.133172  0.640441  0.000000  1
  Ir  Ir22  1  0.359559  0.492732  0.000000  1
  Ir  Ir23  1  0.492732  0.359559  0.000000  1
  Ir  Ir24  1  0.866828  0.507268  0.000000  1
  Ir  Ir25  1  0.640441  0.133172  0.000000  1
  Ir  Ir26  1  0.000000  0.281643  0.000000  1
  Ir  Ir27  1  0.718357  0.718357  0.000000  1
  Ir  Ir28  1  0.281643  0.000000  0.000000  1
  Ir  Ir29  1  0.624796  0.804097  0.500000  1
  Ir  Ir30  1  0.195903  0.820699  0.500000  1
  Ir  Ir31  1  0.179301  0.375204  0.500000  1
  Ir  Ir32  1  0.375204  0.179301  0.500000  1
  Ir  Ir33  1  0.804097  0.624796  0.500000  1
  Ir  Ir34  1  0.820699  0.195903  0.500000  1
  Ir  Ir35  1  0.000000  0.000000  0.500000  1
