# generated using pymatgen
data_Hf10Ga2(SnSb)3
_symmetry_space_group_name_H-M   'P 1'
_cell_length_a   8.63946800
_cell_length_b   8.63946957
_cell_length_c   5.80062300
_cell_angle_alpha   90.00000000
_cell_angle_beta   90.00000000
_cell_angle_gamma   120.00000164
_symmetry_Int_Tables_number   1
_chemical_formula_structural   Hf10Ga2(SnSb)3
_chemical_formula_sum   'Hf10 Ga2 Sn3 Sb3'
_cell_volume   374.95516857
_cell_formula_units_Z   1
loop_
 _symmetry_equiv_pos_site_id
 _symmetry_equiv_pos_as_xyz
  1  'x, y, z'
loop_
 _atom_site_type_symbol
 _atom_site_label
 _atom_site_symmetry_multiplicity
 _atom_site_fract_x
 _atom_site_fract_y
 _atom_site_fract_z
 _atom_site_occupancy
  Hf  Hf0  1  0.732836  0.732836  0.750000  1
  Hf  Hf1  1  0.267164  0.000000  0.750000  1
  Hf  Hf2  1  0.000000  0.267164  0.750000  1
  Hf  Hf3  1  0.270519  0.270519  0.250000  1
  Hf  Hf4  1  0.729481  0.000000  0.250000  1
  Hf  Hf5  1  0.000000  0.729481  0.250000  1
  Hf  Hf6  1  0.666667  0.333333  0.001542  1
  Hf  Hf7  1  0.333333  0.666667  0.001542  1
  Hf  Hf8  1  0.333333  0.666667  0.498458  1
  Hf  Hf9  1  0.666667  0.333333  0.498458  1
  Ga  Ga10  1  0.000000  0.000000  0.002991  1
  Ga  Ga11  1  0.000000  0.000000  0.497009  1
  Sn  Sn12  1  0.613092  0.613092  0.250000  1
  Sn  Sn13  1  0.386908  0.000000  0.250000  1
  Sn  Sn14  1  0.000000  0.386908  0.250000  1
  Sb  Sb15  1  0.391162  0.391162  0.750000  1
  Sb  Sb16  1  0.608838  0.000000  0.750000  1
  Sb  Sb17  1  0.000000  0.608838  0.750000  1
