# generated using pymatgen
data_TbZrTa3Si4
_symmetry_space_group_name_H-M   'P 1'
_cell_length_a   6.96494589
_cell_length_b   6.96533930
_cell_length_c   12.89430479
_cell_angle_alpha   89.97338819
_cell_angle_beta   90.05421076
_cell_angle_gamma   89.86125714
_symmetry_Int_Tables_number   1
_chemical_formula_structural   TbZrTa3Si4
_chemical_formula_sum   'Tb4 Zr4 Ta12 Si16'
_cell_volume   625.54195025
_cell_formula_units_Z   4
loop_
 _symmetry_equiv_pos_site_id
 _symmetry_equiv_pos_as_xyz
  1  'x, y, z'
loop_
 _atom_site_type_symbol
 _atom_site_label
 _atom_site_symmetry_multiplicity
 _atom_site_fract_x
 _atom_site_fract_y
 _atom_site_fract_z
 _atom_site_occupancy
  Tb  Tb0  1  0.997628  0.659254  0.032251  1
  Tb  Tb1  1  0.003201  0.338376  0.530706  1
  Tb  Tb2  1  0.660694  0.997566  0.969914  1
  Tb  Tb3  1  0.161862  0.502901  0.780556  1
  Zr  Zr4  1  0.841795  0.502166  0.282737  1
  Zr  Zr5  1  0.497808  0.159769  0.219512  1
  Zr  Zr6  1  0.504323  0.844785  0.717051  1
  Zr  Zr7  1  0.344300  0.996450  0.467651  1
  Ta  Ta8  1  0.347898  0.507138  0.374799  1
  Ta  Ta9  1  0.845091  0.996305  0.373496  1
  Ta  Ta10  1  0.005815  0.154495  0.128942  1
  Ta  Ta11  1  0.992156  0.847472  0.623239  1
  Ta  Ta12  1  0.651633  0.492125  0.875114  1
  Ta  Ta13  1  0.503614  0.345192  0.621489  1
  Ta  Ta14  1  0.494264  0.651663  0.127390  1
  Ta  Ta15  1  0.155154  0.004243  0.873091  1
  Ta  Ta16  1  0.667528  0.671952  0.498744  1
  Ta  Ta17  1  0.828424  0.166801  0.748690  1
  Ta  Ta18  1  0.169273  0.831504  0.251453  1
  Ta  Ta19  1  0.330904  0.329913  0.001581  1
  Si  Si20  1  0.044212  0.705609  0.435706  1
  Si  Si21  1  0.956295  0.293574  0.936972  1
  Si  Si22  1  0.700279  0.044383  0.562647  1
  Si  Si23  1  0.203197  0.454521  0.187939  1
  Si  Si24  1  0.792133  0.544037  0.685905  1
  Si  Si25  1  0.456325  0.201356  0.812801  1
  Si  Si26  1  0.543929  0.799199  0.313930  1
  Si  Si27  1  0.296399  0.957830  0.065114  1
  Si  Si28  1  0.863772  0.794803  0.816863  1
  Si  Si29  1  0.136479  0.205879  0.321343  1
  Si  Si30  1  0.791567  0.867589  0.182570  1
  Si  Si31  1  0.297372  0.639265  0.569691  1
  Si  Si32  1  0.704324  0.364800  0.073661  1
  Si  Si33  1  0.631744  0.293090  0.426483  1
  Si  Si34  1  0.368340  0.705932  0.930983  1
  Si  Si35  1  0.210268  0.128065  0.678986  1
