# generated using pymatgen
data_Pa6Fe17CoP12
_symmetry_space_group_name_H-M   'P 1'
_cell_length_a   3.73063500
_cell_length_b   10.57093500
_cell_length_c   12.18284800
_cell_angle_alpha   90.00000000
_cell_angle_beta   90.00000000
_cell_angle_gamma   90.00000000
_symmetry_Int_Tables_number   1
_chemical_formula_structural   Pa6Fe17CoP12
_chemical_formula_sum   'Pa6 Fe17 Co1 P12'
_cell_volume   480.44644972
_cell_formula_units_Z   1
loop_
 _symmetry_equiv_pos_site_id
 _symmetry_equiv_pos_as_xyz
  1  'x, y, z'
loop_
 _atom_site_type_symbol
 _atom_site_label
 _atom_site_symmetry_multiplicity
 _atom_site_fract_x
 _atom_site_fract_y
 _atom_site_fract_z
 _atom_site_occupancy
  Pa  Pa0  1  0.000000  0.500000  0.525347  1
  Pa  Pa1  1  0.500000  0.000000  0.476315  1
  Pa  Pa2  1  0.500000  0.815781  0.205173  1
  Pa  Pa3  1  0.500000  0.184219  0.205173  1
  Pa  Pa4  1  0.000000  0.682285  0.793589  1
  Pa  Pa5  1  0.000000  0.317715  0.793589  1
  Fe  Fe6  1  0.500000  0.500000  0.152105  1
  Fe  Fe7  1  0.000000  0.000000  0.848851  1
  Fe  Fe8  1  0.500000  0.500000  0.700388  1
  Fe  Fe9  1  0.000000  0.500000  0.985186  1
  Fe  Fe10  1  0.500000  0.000000  0.014753  1
  Fe  Fe11  1  0.500000  0.333325  0.993352  1
  Fe  Fe12  1  0.500000  0.666675  0.993352  1
  Fe  Fe13  1  0.000000  0.166649  0.007348  1
  Fe  Fe14  1  0.000000  0.833351  0.007348  1
  Fe  Fe15  1  0.500000  0.301965  0.427876  1
  Fe  Fe16  1  0.500000  0.698035  0.427876  1
  Fe  Fe17  1  0.000000  0.196291  0.571256  1
  Fe  Fe18  1  0.000000  0.803709  0.571256  1
  Fe  Fe19  1  0.500000  0.880041  0.716389  1
  Fe  Fe20  1  0.500000  0.119959  0.716389  1
  Fe  Fe21  1  0.000000  0.620548  0.283774  1
  Fe  Fe22  1  0.000000  0.379452  0.283774  1
  Co  Co23  1  0.000000  0.000000  0.299136  1
  P  P24  1  0.500000  0.500000  0.885343  1
  P  P25  1  0.000000  0.000000  0.114489  1
  P  P26  1  0.500000  0.500000  0.338645  1
  P  P27  1  0.000000  0.000000  0.662513  1
  P  P28  1  0.500000  0.303366  0.612491  1
  P  P29  1  0.500000  0.696634  0.612491  1
  P  P30  1  0.000000  0.196286  0.387353  1
  P  P31  1  0.000000  0.803714  0.387353  1
  P  P32  1  0.500000  0.847523  0.898093  1
  P  P33  1  0.500000  0.152477  0.898093  1
  P  P34  1  0.000000  0.651560  0.101771  1
  P  P35  1  0.000000  0.348440  0.101771  1
