# generated using pymatgen
data_Na12FeMo3S8(O4F)8
_symmetry_space_group_name_H-M   'P 1'
_cell_length_a   6.73968800
_cell_length_b   8.94933400
_cell_length_c   14.24180400
_cell_angle_alpha   90.00000000
_cell_angle_beta   90.00000000
_cell_angle_gamma   90.00000000
_symmetry_Int_Tables_number   1
_chemical_formula_structural   Na12FeMo3S8(O4F)8
_chemical_formula_sum   'Na12 Fe1 Mo3 S8 O32 F8'
_cell_volume   859.00464766
_cell_formula_units_Z   1
loop_
 _symmetry_equiv_pos_site_id
 _symmetry_equiv_pos_as_xyz
  1  'x, y, z'
loop_
 _atom_site_type_symbol
 _atom_site_label
 _atom_site_symmetry_multiplicity
 _atom_site_fract_x
 _atom_site_fract_y
 _atom_site_fract_z
 _atom_site_occupancy
  Na  Na0  1  0.518106  0.669664  0.910442  1
  Na  Na1  1  0.017793  0.828057  0.591545  1
  Na  Na2  1  0.482207  0.171943  0.591545  1
  Na  Na3  1  0.981894  0.330336  0.910442  1
  Na  Na4  1  0.479977  0.334195  0.094754  1
  Na  Na5  1  0.983640  0.171753  0.402737  1
  Na  Na6  1  0.516360  0.828247  0.402737  1
  Na  Na7  1  0.020023  0.665805  0.094754  1
  Na  Na8  1  0.750000  0.000000  0.048873  1
  Na  Na9  1  0.250000  0.500000  0.448559  1
  Na  Na10  1  0.250000  0.000000  0.951157  1
  Na  Na11  1  0.750000  0.500000  0.544101  1
  Fe  Fe12  1  0.750000  0.500000  0.304288  1
  Mo  Mo13  1  0.750000  0.000000  0.801965  1
  Mo  Mo14  1  0.250000  0.500000  0.696616  1
  Mo  Mo15  1  0.250000  0.000000  0.197210  1
  S  S16  1  0.998111  0.687426  0.861668  1
  S  S17  1  0.496923  0.811518  0.637578  1
  S  S18  1  0.003077  0.188482  0.637578  1
  S  S19  1  0.501889  0.312574  0.861668  1
  S  S20  1  0.996257  0.313157  0.143427  1
  S  S21  1  0.506420  0.194197  0.360122  1
  S  S22  1  0.993580  0.805803  0.360122  1
  S  S23  1  0.503743  0.686843  0.143427  1
  O  O24  1  0.456896  0.455900  0.809163  1
  O  O25  1  0.956637  0.044910  0.689584  1
  O  O26  1  0.543363  0.955090  0.689584  1
  O  O27  1  0.043104  0.544100  0.809163  1
  O  O28  1  0.553710  0.548086  0.199178  1
  O  O29  1  0.036865  0.947974  0.305823  1
  O  O30  1  0.463135  0.052026  0.305823  1
  O  O31  1  0.946290  0.451914  0.199178  1
  O  O32  1  0.182069  0.761726  0.890142  1
  O  O33  1  0.679919  0.733966  0.611570  1
  O  O34  1  0.820081  0.266034  0.611570  1
  O  O35  1  0.317931  0.238274  0.890142  1
  O  O36  1  0.816019  0.235769  0.113306  1
  O  O37  1  0.320604  0.265776  0.388361  1
  O  O38  1  0.179396  0.734224  0.388361  1
  O  O39  1  0.683981  0.764231  0.113306  1
  O  O40  1  0.872249  0.646629  0.942221  1
  O  O41  1  0.374519  0.852581  0.555891  1
  O  O42  1  0.125481  0.147419  0.555891  1
  O  O43  1  0.627751  0.353371  0.942221  1
  O  O44  1  0.120384  0.361415  0.063658  1
  O  O45  1  0.631248  0.151081  0.440508  1
  O  O46  1  0.868752  0.848919  0.440508  1
  O  O47  1  0.379616  0.638585  0.063658  1
  O  O48  1  0.375508  0.719864  0.705555  1
  O  O49  1  0.882167  0.782109  0.793343  1
  O  O50  1  0.617833  0.217891  0.793343  1
  O  O51  1  0.124492  0.280136  0.705555  1
  O  O52  1  0.623094  0.293542  0.294646  1
  O  O53  1  0.117266  0.217092  0.209067  1
  O  O54  1  0.382734  0.782908  0.209067  1
  O  O55  1  0.876906  0.706458  0.294646  1
  F  F56  1  0.566855  0.926780  0.910560  1
  F  F57  1  0.066387  0.570675  0.587377  1
  F  F58  1  0.433613  0.429325  0.587377  1
  F  F59  1  0.933145  0.073220  0.910560  1
  F  F60  1  0.431812  0.075897  0.089138  1
  F  F61  1  0.926102  0.429281  0.402256  1
  F  F62  1  0.573898  0.570719  0.402256  1
  F  F63  1  0.068188  0.924103  0.089138  1
