# generated using pymatgen
data_Pr9Er7(MgSn4)4
_symmetry_space_group_name_H-M   'P 1'
_cell_length_a   7.84093950
_cell_length_b   8.39569704
_cell_length_c   15.48307681
_cell_angle_alpha   89.94466515
_cell_angle_beta   89.99892190
_cell_angle_gamma   90.15865448
_symmetry_Int_Tables_number   1
_chemical_formula_structural   Pr9Er7(MgSn4)4
_chemical_formula_sum   'Pr9 Er7 Mg4 Sn16'
_cell_volume   1019.24892521
_cell_formula_units_Z   1
loop_
 _symmetry_equiv_pos_site_id
 _symmetry_equiv_pos_as_xyz
  1  'x, y, z'
loop_
 _atom_site_type_symbol
 _atom_site_label
 _atom_site_symmetry_multiplicity
 _atom_site_fract_x
 _atom_site_fract_y
 _atom_site_fract_z
 _atom_site_occupancy
  Pr  Pr0  1  0.000900  0.181961  0.094577  1
  Pr  Pr1  1  0.998705  0.818049  0.907107  1
  Pr  Pr2  1  0.500104  0.682264  0.906979  1
  Pr  Pr3  1  0.998706  0.818996  0.593930  1
  Pr  Pr4  1  0.500472  0.317907  0.094762  1
  Pr  Pr5  1  0.001089  0.181420  0.404450  1
  Pr  Pr6  1  0.501652  0.317496  0.403811  1
  Pr  Pr7  1  0.499133  0.682340  0.594579  1
  Pr  Pr8  1  0.335319  0.172319  0.627309  1
  Er  Er9  1  0.665480  0.829453  0.371326  1
  Er  Er10  1  0.163975  0.670420  0.370035  1
  Er  Er11  1  0.665396  0.830145  0.127647  1
  Er  Er12  1  0.835104  0.329220  0.628503  1
  Er  Er13  1  0.334003  0.169795  0.873156  1
  Er  Er14  1  0.836289  0.329279  0.872738  1
  Er  Er15  1  0.164893  0.670249  0.127880  1
  Mg  Mg16  1  0.160710  0.505603  0.751132  1
  Mg  Mg17  1  0.838567  0.496060  0.249759  1
  Mg  Mg18  1  0.338846  0.003357  0.249668  1
  Mg  Mg19  1  0.661048  0.993675  0.751535  1
  Sn  Sn20  1  0.020403  0.099637  0.752718  1
  Sn  Sn21  1  0.975203  0.896582  0.249565  1
  Sn  Sn22  1  0.475700  0.603240  0.249412  1
  Sn  Sn23  1  0.526897  0.402027  0.752740  1
  Sn  Sn24  1  0.172027  0.464901  0.536466  1
  Sn  Sn25  1  0.823258  0.539905  0.460787  1
  Sn  Sn26  1  0.324209  0.957696  0.457670  1
  Sn  Sn27  1  0.823743  0.539689  0.038963  1
  Sn  Sn28  1  0.681805  0.038501  0.537022  1
  Sn  Sn29  1  0.176231  0.460282  0.961502  1
  Sn  Sn30  1  0.675379  0.039528  0.961453  1
  Sn  Sn31  1  0.323674  0.960585  0.039331  1
  Sn  Sn32  1  0.299611  0.855554  0.751708  1
  Sn  Sn33  1  0.699290  0.140385  0.249451  1
  Sn  Sn34  1  0.199700  0.360404  0.249657  1
  Sn  Sn35  1  0.802481  0.641080  0.750672  1
