# generated using pymatgen
data_Er4Al18ZnOs5
_symmetry_space_group_name_H-M   'P 1'
_cell_length_a   7.55996495
_cell_length_b   7.55996530
_cell_length_c   9.52761407
_cell_angle_alpha   90.20515280
_cell_angle_beta   90.20514613
_cell_angle_gamma   119.20998425
_symmetry_Int_Tables_number   1
_chemical_formula_structural   Er4Al18ZnOs5
_chemical_formula_sum   'Er4 Al18 Zn1 Os5'
_cell_volume   475.27617008
_cell_formula_units_Z   1
loop_
 _symmetry_equiv_pos_site_id
 _symmetry_equiv_pos_as_xyz
  1  'x, y, z'
loop_
 _atom_site_type_symbol
 _atom_site_label
 _atom_site_symmetry_multiplicity
 _atom_site_fract_x
 _atom_site_fract_y
 _atom_site_fract_z
 _atom_site_occupancy
  Er  Er0  1  0.997450  0.675899  0.751375  1
  Er  Er1  1  0.002550  0.324101  0.248625  1
  Er  Er2  1  0.675899  0.997450  0.751375  1
  Er  Er3  1  0.324101  0.002550  0.248625  1
  Al  Al4  1  0.136027  0.136027  0.755327  1
  Al  Al5  1  0.863973  0.863973  0.244673  1
  Al  Al6  1  0.003631  0.345651  0.576824  1
  Al  Al7  1  0.996369  0.654349  0.423176  1
  Al  Al8  1  0.997347  0.662483  0.071591  1
  Al  Al9  1  0.337517  0.002653  0.928409  1
  Al  Al10  1  0.002653  0.337517  0.928409  1
  Al  Al11  1  0.662483  0.997347  0.071591  1
  Al  Al12  1  0.654349  0.996369  0.423176  1
  Al  Al13  1  0.345651  0.003631  0.576824  1
  Al  Al14  1  0.334846  0.334846  0.046191  1
  Al  Al15  1  0.665154  0.665154  0.953809  1
  Al  Al16  1  0.657469  0.657469  0.551408  1
  Al  Al17  1  0.342531  0.342531  0.448592  1
  Al  Al18  1  0.337305  0.552071  0.749891  1
  Al  Al19  1  0.662695  0.447929  0.250109  1
  Al  Al20  1  0.552071  0.337305  0.749891  1
  Al  Al21  1  0.447929  0.662695  0.250109  1
  Zn  Zn22  1  0.000000  0.000000  0.500000  1
  Os  Os23  1  0.672453  0.327547  0.500000  1
  Os  Os24  1  0.327547  0.672453  0.500000  1
  Os  Os25  1  0.327652  0.672348  0.000000  1
  Os  Os26  1  0.672348  0.327652  0.000000  1
  Os  Os27  1  0.000000  0.000000  0.000000  1
