# generated using pymatgen
data_Ce3Dy2Hf3(Co4P3)4
_symmetry_space_group_name_H-M   'P 1'
_cell_length_a   12.29186900
_cell_length_b   12.29186791
_cell_length_c   3.74778400
_cell_angle_alpha   90.00000000
_cell_angle_beta   90.00000000
_cell_angle_gamma   119.99998947
_symmetry_Int_Tables_number   1
_chemical_formula_structural   Ce3Dy2Hf3(Co4P3)4
_chemical_formula_sum   'Ce3 Dy2 Hf3 Co16 P12'
_cell_volume   490.38935959
_cell_formula_units_Z   1
loop_
 _symmetry_equiv_pos_site_id
 _symmetry_equiv_pos_as_xyz
  1  'x, y, z'
loop_
 _atom_site_type_symbol
 _atom_site_label
 _atom_site_symmetry_multiplicity
 _atom_site_fract_x
 _atom_site_fract_y
 _atom_site_fract_z
 _atom_site_occupancy
  Ce  Ce0  1  0.181225  0.181225  0.500000  1
  Ce  Ce1  1  0.818775  0.000000  0.500000  1
  Ce  Ce2  1  0.000000  0.818775  0.500000  1
  Dy  Dy3  1  0.666667  0.333333  0.000000  1
  Dy  Dy4  1  0.333333  0.666667  0.000000  1
  Hf  Hf5  1  0.560727  0.560727  0.000000  1
  Hf  Hf6  1  0.439273  0.000000  0.000000  1
  Hf  Hf7  1  0.000000  0.439273  0.000000  1
  Co  Co8  1  0.821087  0.195275  0.000000  1
  Co  Co9  1  0.804725  0.625812  0.000000  1
  Co  Co10  1  0.374188  0.178913  0.000000  1
  Co  Co11  1  0.195275  0.821087  0.000000  1
  Co  Co12  1  0.625812  0.804725  0.000000  1
  Co  Co13  1  0.178913  0.374188  0.000000  1
  Co  Co14  1  0.644234  0.124463  0.500000  1
  Co  Co15  1  0.875537  0.519770  0.500000  1
  Co  Co16  1  0.480230  0.355766  0.500000  1
  Co  Co17  1  0.124463  0.644234  0.500000  1
  Co  Co18  1  0.519770  0.875537  0.500000  1
  Co  Co19  1  0.355766  0.480230  0.500000  1
  Co  Co20  1  0.719235  0.719235  0.500000  1
  Co  Co21  1  0.280765  0.000000  0.500000  1
  Co  Co22  1  0.000000  0.280765  0.500000  1
  Co  Co23  1  0.000000  0.000000  0.000000  1
  P  P24  1  0.354857  0.354857  0.000000  1
  P  P25  1  0.645143  0.000000  0.000000  1
  P  P26  1  0.000000  0.645143  0.000000  1
  P  P27  1  0.828218  0.307947  0.500000  1
  P  P28  1  0.692053  0.520271  0.500000  1
  P  P29  1  0.479729  0.171782  0.500000  1
  P  P30  1  0.307947  0.828218  0.500000  1
  P  P31  1  0.520271  0.692053  0.500000  1
  P  P32  1  0.171782  0.479729  0.500000  1
  P  P33  1  0.818244  0.818244  0.000000  1
  P  P34  1  0.181756  0.000000  0.000000  1
  P  P35  1  0.000000  0.181756  0.000000  1
