# generated using pymatgen
data_Tm10Si16Ag
_symmetry_space_group_name_H-M   'P 1'
_cell_length_a   11.02293809
_cell_length_b   11.02057738
_cell_length_c   11.02306871
_cell_angle_alpha   144.70516366
_cell_angle_beta   136.77113954
_cell_angle_gamma   56.99241938
_symmetry_Int_Tables_number   1
_chemical_formula_structural   Tm10Si16Ag
_chemical_formula_sum   'Tm10 Si16 Ag1'
_cell_volume   525.67730588
_cell_formula_units_Z   1
loop_
 _symmetry_equiv_pos_site_id
 _symmetry_equiv_pos_as_xyz
  1  'x, y, z'
loop_
 _atom_site_type_symbol
 _atom_site_label
 _atom_site_symmetry_multiplicity
 _atom_site_fract_x
 _atom_site_fract_y
 _atom_site_fract_z
 _atom_site_occupancy
  Tm  Tm0  1  0.053372  0.566100  0.021920  1
  Tm  Tm1  1  0.352718  0.370056  0.521054  1
  Tm  Tm2  1  0.154528  0.165592  0.521810  1
  Tm  Tm3  1  0.451145  0.963141  0.014448  1
  Tm  Tm4  1  0.643778  0.165570  0.011038  1
  Tm  Tm5  1  0.948710  0.963145  0.512012  1
  Tm  Tm6  1  0.849015  0.370060  0.017356  1
  Tm  Tm7  1  0.544160  0.566114  0.512736  1
  Tm  Tm8  1  0.251911  0.765328  0.013356  1
  Tm  Tm9  1  0.751975  0.765344  0.513421  1
  Si  Si10  1  0.118529  0.080163  0.961643  1
  Si  Si11  1  0.797292  0.168378  0.371091  1
  Si  Si12  1  0.300364  0.899385  0.599021  1
  Si  Si13  1  0.399840  0.501391  0.101552  1
  Si  Si14  1  0.880366  0.854938  0.974584  1
  Si  Si15  1  0.104728  0.711219  0.606504  1
  Si  Si16  1  0.199844  0.580475  0.380632  1
  Si  Si17  1  0.699396  0.295389  0.595999  1
  Si  Si18  1  0.002029  0.432337  0.430332  1
  Si  Si19  1  0.714893  0.669562  0.954677  1
  Si  Si20  1  0.601017  0.702648  0.101639  1
  Si  Si21  1  0.999504  0.080850  0.081352  1
  Si  Si22  1  0.501111  0.389558  0.888457  1
  Si  Si23  1  0.284435  0.241503  0.957080  1
  Si  Si24  1  0.583447  0.041512  0.458066  1
  Si  Si25  1  0.416326  0.874137  0.457811  1
  Ag  Ag26  1  0.895566  0.505023  0.609328  1
