# generated using pymatgen
data_Sr4Tb3Gd(BO4)4
_symmetry_space_group_name_H-M   'P 1'
_cell_length_a   3.70644600
_cell_length_b   9.77428882
_cell_length_c   10.99340902
_cell_angle_alpha   89.93035236
_cell_angle_beta   90.00000000
_cell_angle_gamma   90.00000000
_symmetry_Int_Tables_number   1
_chemical_formula_structural   Sr4Tb3Gd(BO4)4
_chemical_formula_sum   'Sr4 Tb3 Gd1 B4 O16'
_cell_volume   398.26753905
_cell_formula_units_Z   1
loop_
 _symmetry_equiv_pos_site_id
 _symmetry_equiv_pos_as_xyz
  1  'x, y, z'
loop_
 _atom_site_type_symbol
 _atom_site_label
 _atom_site_symmetry_multiplicity
 _atom_site_fract_x
 _atom_site_fract_y
 _atom_site_fract_z
 _atom_site_occupancy
  Sr  Sr0  1  0.250000  0.659478  0.083354  1
  Sr  Sr1  1  0.750000  0.340551  0.916327  1
  Sr  Sr2  1  0.750000  0.160102  0.417120  1
  Sr  Sr3  1  0.250000  0.839991  0.583362  1
  Tb  Tb4  1  0.750000  0.916710  0.888561  1
  Tb  Tb5  1  0.750000  0.582743  0.389602  1
  Tb  Tb6  1  0.250000  0.417201  0.610471  1
  Gd  Gd7  1  0.250000  0.082210  0.110723  1
  B  B8  1  0.250000  0.364571  0.205205  1
  B  B9  1  0.750000  0.636344  0.795209  1
  B  B10  1  0.750000  0.862996  0.295697  1
  B  B11  1  0.250000  0.136475  0.704851  1
  O  O12  1  0.250000  0.491321  0.261903  1
  O  O13  1  0.750000  0.509691  0.738194  1
  O  O14  1  0.750000  0.990060  0.239269  1
  O  O15  1  0.250000  0.009489  0.761656  1
  O  O16  1  0.250000  0.243385  0.272656  1
  O  O17  1  0.750000  0.758042  0.728375  1
  O  O18  1  0.750000  0.741773  0.228719  1
  O  O19  1  0.250000  0.258166  0.771282  1
  O  O20  1  0.250000  0.356509  0.077612  1
  O  O21  1  0.750000  0.644259  0.922669  1
  O  O22  1  0.750000  0.854810  0.423190  1
  O  O23  1  0.250000  0.144555  0.577327  1
  O  O24  1  0.250000  0.612695  0.500545  1
  O  O25  1  0.750000  0.387432  0.499562  1
  O  O26  1  0.750000  0.112438  0.997114  1
  O  O27  1  0.250000  0.886003  0.999444  1
