# generated using pymatgen
data_Dy7Ho3(FeBi2)2
_symmetry_space_group_name_H-M   'P 1'
_cell_length_a   7.99768010
_cell_length_b   8.88309877
_cell_length_c   12.41093000
_cell_angle_alpha   90.01683444
_cell_angle_beta   89.99078703
_cell_angle_gamma   90.01681135
_symmetry_Int_Tables_number   1
_chemical_formula_structural   Dy7Ho3(FeBi2)2
_chemical_formula_sum   'Dy14 Ho6 Fe4 Bi8'
_cell_volume   881.72428547
_cell_formula_units_Z   2
loop_
 _symmetry_equiv_pos_site_id
 _symmetry_equiv_pos_as_xyz
  1  'x, y, z'
loop_
 _atom_site_type_symbol
 _atom_site_label
 _atom_site_symmetry_multiplicity
 _atom_site_fract_x
 _atom_site_fract_y
 _atom_site_fract_z
 _atom_site_occupancy
  Dy  Dy0  1  0.348187  0.750409  0.699875  1
  Dy  Dy1  1  0.651813  0.249591  0.300125  1
  Dy  Dy2  1  0.848493  0.250027  0.800514  1
  Dy  Dy3  1  0.151507  0.749973  0.199486  1
  Dy  Dy4  1  0.884305  0.749819  0.813337  1
  Dy  Dy5  1  0.115695  0.250181  0.186663  1
  Dy  Dy6  1  0.384101  0.249156  0.687302  1
  Dy  Dy7  1  0.615899  0.750844  0.312698  1
  Dy  Dy8  1  0.674191  0.535284  0.563177  1
  Dy  Dy9  1  0.325809  0.464716  0.436823  1
  Dy  Dy10  1  0.054732  0.750587  0.495341  1
  Dy  Dy11  1  0.945268  0.249413  0.504659  1
  Dy  Dy12  1  0.554782  0.249864  0.004678  1
  Dy  Dy13  1  0.445218  0.750136  0.995322  1
  Ho  Ho14  1  0.173559  0.463876  0.936802  1
  Ho  Ho15  1  0.326738  0.036776  0.436978  1
  Ho  Ho16  1  0.826441  0.536124  0.063198  1
  Ho  Ho17  1  0.673262  0.963224  0.563022  1
  Ho  Ho18  1  0.826727  0.963883  0.063273  1
  Ho  Ho19  1  0.173273  0.036117  0.936727  1
  Fe  Fe20  1  0.069187  0.749756  0.991608  1
  Fe  Fe21  1  0.930813  0.250244  0.008392  1
  Fe  Fe22  1  0.570238  0.249921  0.508698  1
  Fe  Fe23  1  0.429762  0.750079  0.491302  1
  Bi  Bi24  1  0.570559  0.506752  0.826822  1
  Bi  Bi25  1  0.429441  0.493248  0.173178  1
  Bi  Bi26  1  0.071346  0.493062  0.673177  1
  Bi  Bi27  1  0.428758  0.006991  0.173125  1
  Bi  Bi28  1  0.928654  0.506938  0.326823  1
  Bi  Bi29  1  0.571242  0.993009  0.826875  1
  Bi  Bi30  1  0.929668  0.993181  0.326546  1
  Bi  Bi31  1  0.070332  0.006819  0.673454  1
