# generated using pymatgen
data_Tb4Er2Co17TcP12
_symmetry_space_group_name_H-M   'P 1'
_cell_length_a   3.70272700
_cell_length_b   10.51724700
_cell_length_c   12.21515900
_cell_angle_alpha   90.00000000
_cell_angle_beta   90.00000000
_cell_angle_gamma   90.00000000
_symmetry_Int_Tables_number   1
_chemical_formula_structural   Tb4Er2Co17TcP12
_chemical_formula_sum   'Tb4 Er2 Co17 Tc1 P12'
_cell_volume   475.68876135
_cell_formula_units_Z   1
loop_
 _symmetry_equiv_pos_site_id
 _symmetry_equiv_pos_as_xyz
  1  'x, y, z'
loop_
 _atom_site_type_symbol
 _atom_site_label
 _atom_site_symmetry_multiplicity
 _atom_site_fract_x
 _atom_site_fract_y
 _atom_site_fract_z
 _atom_site_occupancy
  Tb  Tb0  1  0.000000  0.500000  0.523616  1
  Tb  Tb1  1  0.500000  0.000000  0.477636  1
  Tb  Tb2  1  0.000000  0.683091  0.795092  1
  Tb  Tb3  1  0.000000  0.316909  0.795092  1
  Er  Er4  1  0.500000  0.817758  0.206779  1
  Er  Er5  1  0.500000  0.182242  0.206779  1
  Co  Co6  1  0.000000  0.000000  0.840137  1
  Co  Co7  1  0.500000  0.500000  0.703682  1
  Co  Co8  1  0.000000  0.000000  0.295335  1
  Co  Co9  1  0.000000  0.500000  0.988511  1
  Co  Co10  1  0.500000  0.000000  0.015838  1
  Co  Co11  1  0.500000  0.331422  0.992200  1
  Co  Co12  1  0.500000  0.668578  0.992200  1
  Co  Co13  1  0.000000  0.165934  0.006469  1
  Co  Co14  1  0.000000  0.834066  0.006469  1
  Co  Co15  1  0.500000  0.296439  0.429668  1
  Co  Co16  1  0.500000  0.703561  0.429668  1
  Co  Co17  1  0.000000  0.203231  0.568324  1
  Co  Co18  1  0.000000  0.796769  0.568324  1
  Co  Co19  1  0.500000  0.879453  0.708955  1
  Co  Co20  1  0.500000  0.120547  0.708955  1
  Co  Co21  1  0.000000  0.621159  0.291028  1
  Co  Co22  1  0.000000  0.378841  0.291028  1
  Tc  Tc23  1  0.500000  0.500000  0.156805  1
  P  P24  1  0.500000  0.500000  0.882707  1
  P  P25  1  0.000000  0.000000  0.118079  1
  P  P26  1  0.500000  0.500000  0.348262  1
  P  P27  1  0.000000  0.000000  0.656017  1
  P  P28  1  0.500000  0.310376  0.615796  1
  P  P29  1  0.500000  0.689624  0.615796  1
  P  P30  1  0.000000  0.188598  0.383111  1
  P  P31  1  0.000000  0.811402  0.383111  1
  P  P32  1  0.500000  0.850296  0.892567  1
  P  P33  1  0.500000  0.149704  0.892567  1
  P  P34  1  0.000000  0.656534  0.106701  1
  P  P35  1  0.000000  0.343466  0.106701  1
