# generated using pymatgen
data_BaCu3P2
_symmetry_space_group_name_H-M   'P 1'
_cell_length_a   7.84235427
_cell_length_b   7.84235449
_cell_length_c   7.93544002
_cell_angle_alpha   67.58773321
_cell_angle_beta   67.58773165
_cell_angle_gamma   29.07172423
_symmetry_Int_Tables_number   1
_chemical_formula_structural   BaCu3P2
_chemical_formula_sum   'Ba2 Cu6 P4'
_cell_volume   217.97531914
_cell_formula_units_Z   2
loop_
 _symmetry_equiv_pos_site_id
 _symmetry_equiv_pos_as_xyz
  1  'x, y, z'
loop_
 _atom_site_type_symbol
 _atom_site_label
 _atom_site_symmetry_multiplicity
 _atom_site_fract_x
 _atom_site_fract_y
 _atom_site_fract_z
 _atom_site_occupancy
  Ba  Ba0  1  0.863356  0.863356  0.047574  1
  Ba  Ba1  1  0.136644  0.136644  0.952426  1
  Cu  Cu2  1  0.404609  0.404609  0.637337  1
  Cu  Cu3  1  0.310814  0.310814  0.439355  1
  Cu  Cu4  1  0.058672  0.058672  0.593641  1
  Cu  Cu5  1  0.941328  0.941328  0.406359  1
  Cu  Cu6  1  0.689186  0.689186  0.560645  1
  Cu  Cu7  1  0.595391  0.595391  0.362663  1
  P  P8  1  0.804878  0.804878  0.681230  1
  P  P9  1  0.195122  0.195122  0.318770  1
  P  P10  1  0.523492  0.523492  0.756018  1
  P  P11  1  0.476508  0.476508  0.243982  1
