# generated using pymatgen
data_NdTi2(GaPd)2
_symmetry_space_group_name_H-M   'P 1'
_cell_length_a   5.59379374
_cell_length_b   5.59379237
_cell_length_c   5.59379494
_cell_angle_alpha   100.64738604
_cell_angle_beta   102.71365925
_cell_angle_gamma   126.52382790
_symmetry_Int_Tables_number   1
_chemical_formula_structural   NdTi2(GaPd)2
_chemical_formula_sum   'Nd1 Ti2 Ga2 Pd2'
_cell_volume   125.58697969
_cell_formula_units_Z   1
loop_
 _symmetry_equiv_pos_site_id
 _symmetry_equiv_pos_as_xyz
  1  'x, y, z'
loop_
 _atom_site_type_symbol
 _atom_site_label
 _atom_site_symmetry_multiplicity
 _atom_site_fract_x
 _atom_site_fract_y
 _atom_site_fract_z
 _atom_site_occupancy
  Nd  Nd0  1  0.001437  0.000000  0.001437  1
  Ti  Ti1  1  0.248794  0.749787  0.499008  1
  Ti  Ti2  1  0.749221  0.250213  0.499008  1
  Ga  Ga3  1  0.306806  0.300700  0.607503  1
  Ga  Ga4  1  0.306806  0.699300  0.006105  1
  Pd  Pd5  1  0.693470  0.299637  0.993106  1
  Pd  Pd6  1  0.693470  0.700363  0.393834  1
