# generated using pymatgen
data_RbBa(LiTe2)2
_symmetry_space_group_name_H-M   'P 1'
_cell_length_a   13.02683643
_cell_length_b   13.02683649
_cell_length_c   13.02683749
_cell_angle_alpha   159.81349799
_cell_angle_beta   159.81350218
_cell_angle_gamma   28.69969631
_symmetry_Int_Tables_number   1
_chemical_formula_structural   RbBa(LiTe2)2
_chemical_formula_sum   'Rb1 Ba1 Li2 Te4'
_cell_volume   263.10613311
_cell_formula_units_Z   1
loop_
 _symmetry_equiv_pos_site_id
 _symmetry_equiv_pos_as_xyz
  1  'x, y, z'
loop_
 _atom_site_type_symbol
 _atom_site_label
 _atom_site_symmetry_multiplicity
 _atom_site_fract_x
 _atom_site_fract_y
 _atom_site_fract_z
 _atom_site_occupancy
  Rb  Rb0  1  0.880578  0.880578  0.000000  1
  Ba  Ba1  1  0.121430  0.121430  0.000000  1
  Li  Li2  1  0.248476  0.748476  0.500000  1
  Li  Li3  1  0.748476  0.248476  0.500000  1
  Te  Te4  1  0.509037  0.009037  0.500000  1
  Te  Te5  1  0.009037  0.509037  0.500000  1
  Te  Te6  1  0.305917  0.305917  0.000000  1
  Te  Te7  1  0.677050  0.677050  0.000000  1
