# generated using pymatgen
data_Ho4MgNi2Ag
_symmetry_space_group_name_H-M   'P 1'
_cell_length_a   8.46612201
_cell_length_b   8.46612190
_cell_length_c   8.46612150
_cell_angle_alpha   128.29137106
_cell_angle_beta   128.29138032
_cell_angle_gamma   76.15349089
_symmetry_Int_Tables_number   1
_chemical_formula_structural   Ho4MgNi2Ag
_chemical_formula_sum   'Ho8 Mg2 Ni4 Ag2'
_cell_volume   363.35533059
_cell_formula_units_Z   2
loop_
 _symmetry_equiv_pos_site_id
 _symmetry_equiv_pos_as_xyz
  1  'x, y, z'
loop_
 _atom_site_type_symbol
 _atom_site_label
 _atom_site_symmetry_multiplicity
 _atom_site_fract_x
 _atom_site_fract_y
 _atom_site_fract_z
 _atom_site_occupancy
  Ho  Ho0  1  0.038822  0.538822  0.837385  1
  Ho  Ho1  1  0.701437  0.201437  0.162615  1
  Ho  Ho2  1  0.538822  0.701437  0.500000  1
  Ho  Ho3  1  0.201437  0.038822  0.500000  1
  Ho  Ho4  1  0.961178  0.461178  0.162615  1
  Ho  Ho5  1  0.298563  0.798563  0.837385  1
  Ho  Ho6  1  0.461178  0.298563  0.500000  1
  Ho  Ho7  1  0.798563  0.961178  0.500000  1
  Mg  Mg8  1  0.000000  0.000000  0.000000  1
  Mg  Mg9  1  0.500000  0.500000  0.000000  1
  Ni  Ni10  1  0.372727  0.872727  0.245452  1
  Ni  Ni11  1  0.627273  0.127273  0.754548  1
  Ni  Ni12  1  0.872727  0.627273  0.500000  1
  Ni  Ni13  1  0.127273  0.372727  0.500000  1
  Ag  Ag14  1  0.750000  0.750000  0.000000  1
  Ag  Ag15  1  0.250000  0.250000  0.000000  1
