# generated using pymatgen
data_KSc(InCl3)2
_symmetry_space_group_name_H-M   'P 1'
_cell_length_a   15.91296660
_cell_length_b   15.91296656
_cell_length_c   15.91296661
_cell_angle_alpha   26.99360254
_cell_angle_beta   26.99360349
_cell_angle_gamma   26.99360216
_symmetry_Int_Tables_number   1
_chemical_formula_structural   KSc(InCl3)2
_chemical_formula_sum   'K2 Sc2 In4 Cl12'
_cell_volume   732.21639128
_cell_formula_units_Z   2
loop_
 _symmetry_equiv_pos_site_id
 _symmetry_equiv_pos_as_xyz
  1  'x, y, z'
loop_
 _atom_site_type_symbol
 _atom_site_label
 _atom_site_symmetry_multiplicity
 _atom_site_fract_x
 _atom_site_fract_y
 _atom_site_fract_z
 _atom_site_occupancy
  K  K0  1  0.000000  0.000000  0.000000  1
  K  K1  1  0.500000  0.500000  0.500000  1
  Sc  Sc2  1  0.412538  0.412538  0.412538  1
  Sc  Sc3  1  0.587462  0.587462  0.587462  1
  In  In4  1  0.094461  0.094461  0.094461  1
  In  In5  1  0.265307  0.265307  0.265307  1
  In  In6  1  0.734693  0.734693  0.734693  1
  In  In7  1  0.905539  0.905539  0.905539  1
  Cl  Cl8  1  0.602775  0.602775  0.129365  1
  Cl  Cl9  1  0.705973  0.220480  0.220481  1
  Cl  Cl10  1  0.220480  0.705973  0.220481  1
  Cl  Cl11  1  0.779519  0.779519  0.294028  1
  Cl  Cl12  1  0.870635  0.397226  0.397225  1
  Cl  Cl13  1  0.397226  0.870635  0.397225  1
  Cl  Cl14  1  0.602774  0.129365  0.602775  1
  Cl  Cl15  1  0.129365  0.602774  0.602775  1
  Cl  Cl16  1  0.220481  0.220481  0.705972  1
  Cl  Cl17  1  0.779520  0.294027  0.779519  1
  Cl  Cl18  1  0.294027  0.779520  0.779519  1
  Cl  Cl19  1  0.397225  0.397225  0.870635  1
