# generated using pymatgen
data_Pr2CoOsBr
_symmetry_space_group_name_H-M   'P 1'
_cell_length_a   4.13990200
_cell_length_b   4.13990174
_cell_length_c   17.19122100
_cell_angle_alpha   90.00000000
_cell_angle_beta   90.00000000
_cell_angle_gamma   120.00000208
_symmetry_Int_Tables_number   1
_chemical_formula_structural   Pr2CoOsBr
_chemical_formula_sum   'Pr4 Co2 Os2 Br2'
_cell_volume   255.16284736
_cell_formula_units_Z   2
loop_
 _symmetry_equiv_pos_site_id
 _symmetry_equiv_pos_as_xyz
  1  'x, y, z'
loop_
 _atom_site_type_symbol
 _atom_site_label
 _atom_site_symmetry_multiplicity
 _atom_site_fract_x
 _atom_site_fract_y
 _atom_site_fract_z
 _atom_site_occupancy
  Pr  Pr0  1  0.000000  0.000000  0.611310  1
  Pr  Pr1  1  0.000000  0.000000  0.388661  1
  Pr  Pr2  1  0.000000  0.000000  0.111310  1
  Pr  Pr3  1  0.000000  0.000000  0.888661  1
  Co  Co4  1  0.666667  0.333333  0.999348  1
  Co  Co5  1  0.333333  0.666667  0.499348  1
  Os  Os6  1  0.666667  0.333333  0.500815  1
  Os  Os7  1  0.333333  0.666667  0.000815  1
  Br  Br8  1  0.666667  0.333333  0.249866  1
  Br  Br9  1  0.333333  0.666667  0.749866  1
