# generated using pymatgen
data_La7Pr3(InSi2)2
_symmetry_space_group_name_H-M   'P 1'
_cell_length_a   8.07385042
_cell_length_b   9.24838888
_cell_length_c   8.07424500
_cell_angle_alpha   115.72117207
_cell_angle_beta   90.35205774
_cell_angle_gamma   115.67394927
_symmetry_Int_Tables_number   1
_chemical_formula_structural   La7Pr3(InSi2)2
_chemical_formula_sum   'La7 Pr3 In2 Si4'
_cell_volume   475.33887622
_cell_formula_units_Z   1
loop_
 _symmetry_equiv_pos_site_id
 _symmetry_equiv_pos_as_xyz
  1  'x, y, z'
loop_
 _atom_site_type_symbol
 _atom_site_label
 _atom_site_symmetry_multiplicity
 _atom_site_fract_x
 _atom_site_fract_y
 _atom_site_fract_z
 _atom_site_occupancy
  La  La0  1  0.999427  0.999633  0.999891  1
  La  La1  1  0.499539  0.999224  0.499879  1
  La  La2  1  0.535924  0.720470  0.685131  1
  La  La3  1  0.683910  0.719438  0.183509  1
  La  La4  1  0.035246  0.719018  0.535070  1
  La  La5  1  0.316745  0.280810  0.816848  1
  La  La6  1  0.964448  0.281192  0.464532  1
  Pr  Pr7  1  0.186455  0.723274  0.037372  1
  Pr  Pr8  1  0.463938  0.278954  0.314318  1
  Pr  Pr9  1  0.813318  0.277026  0.963333  1
  In  In10  1  0.751653  0.498507  0.750765  1
  In  In11  1  0.247762  0.498370  0.246921  1
  Si  Si12  1  0.885719  0.000565  0.614876  1
  Si  Si13  1  0.116186  0.000973  0.384771  1
  Si  Si14  1  0.613035  0.001291  0.114718  1
  Si  Si15  1  0.386696  0.001254  0.888064  1
