# generated using pymatgen
data_SrLa2B10O19
_symmetry_space_group_name_H-M   'P 1'
_cell_length_a   6.53734155
_cell_length_b   6.53734859
_cell_length_c   9.28098822
_cell_angle_alpha   91.55475184
_cell_angle_beta   91.55470385
_cell_angle_gamma   60.94839670
_symmetry_Int_Tables_number   1
_chemical_formula_structural   SrLa2B10O19
_chemical_formula_sum   'Sr1 La2 B10 O19'
_cell_volume   346.56439920
_cell_formula_units_Z   1
loop_
 _symmetry_equiv_pos_site_id
 _symmetry_equiv_pos_as_xyz
  1  'x, y, z'
loop_
 _atom_site_type_symbol
 _atom_site_label
 _atom_site_symmetry_multiplicity
 _atom_site_fract_x
 _atom_site_fract_y
 _atom_site_fract_z
 _atom_site_occupancy
  Sr  Sr0  1  0.187336  0.812667  0.500000  1
  La  La1  1  0.167622  0.159776  0.147076  1
  La  La2  1  0.840223  0.832382  0.852923  1
  B  B3  1  0.241582  0.627395  0.124689  1
  B  B4  1  0.637279  0.283598  0.159925  1
  B  B5  1  0.812783  0.840425  0.206394  1
  B  B6  1  0.559531  0.671750  0.265698  1
  B  B7  1  0.743914  0.787598  0.467803  1
  B  B8  1  0.212400  0.256088  0.532197  1
  B  B9  1  0.328249  0.440470  0.734301  1
  B  B10  1  0.159574  0.187217  0.793606  1
  B  B11  1  0.716401  0.362720  0.840074  1
  B  B12  1  0.372605  0.758417  0.875312  1
  O  O13  1  0.233198  0.766802  0.000001  1
  O  O14  1  0.409678  0.368139  0.114263  1
  O  O15  1  0.802151  0.051614  0.134199  1
  O  O16  1  0.012461  0.637074  0.137290  1
  O  O17  1  0.593692  0.836994  0.177945  1
  O  O18  1  0.720637  0.423219  0.218308  1
  O  O19  1  0.311980  0.726875  0.248499  1
  O  O20  1  0.845924  0.858026  0.362161  1
  O  O21  1  0.193699  0.202155  0.391795  1
  O  O22  1  0.601647  0.695365  0.421190  1
  O  O23  1  0.304629  0.398360  0.578808  1
  O  O24  1  0.797843  0.806302  0.608205  1
  O  O25  1  0.141975  0.154077  0.637840  1
  O  O26  1  0.273126  0.688020  0.751502  1
  O  O27  1  0.576781  0.279363  0.781689  1
  O  O28  1  0.163006  0.406308  0.822055  1
  O  O29  1  0.362925  0.987538  0.862711  1
  O  O30  1  0.948384  0.197847  0.865801  1
  O  O31  1  0.631861  0.590321  0.885738  1
