# generated using pymatgen
data_La10SnBi5Se2
_symmetry_space_group_name_H-M   'P 1'
_cell_length_a   9.76989770
_cell_length_b   9.76989776
_cell_length_c   6.93984600
_cell_angle_alpha   90.00000000
_cell_angle_beta   90.00000000
_cell_angle_gamma   119.80120930
_symmetry_Int_Tables_number   1
_chemical_formula_structural   La10SnBi5Se2
_chemical_formula_sum   'La10 Sn1 Bi5 Se2'
_cell_volume   574.81352111
_cell_formula_units_Z   1
loop_
 _symmetry_equiv_pos_site_id
 _symmetry_equiv_pos_as_xyz
  1  'x, y, z'
loop_
 _atom_site_type_symbol
 _atom_site_label
 _atom_site_symmetry_multiplicity
 _atom_site_fract_x
 _atom_site_fract_y
 _atom_site_fract_z
 _atom_site_occupancy
  La  La0  1  0.745151  0.745151  0.750000  1
  La  La1  1  0.254526  0.003442  0.750000  1
  La  La2  1  0.003442  0.254526  0.750000  1
  La  La3  1  0.254202  0.254202  0.250000  1
  La  La4  1  0.746788  0.999989  0.250000  1
  La  La5  1  0.999989  0.746788  0.250000  1
  La  La6  1  0.665203  0.333625  0.998781  1
  La  La7  1  0.333625  0.665203  0.998781  1
  La  La8  1  0.333625  0.665203  0.501219  1
  La  La9  1  0.665203  0.333625  0.501219  1
  Sn  Sn10  1  0.390893  0.390893  0.750000  1
  Bi  Bi11  1  0.609581  0.000147  0.750000  1
  Bi  Bi12  1  0.000147  0.609581  0.750000  1
  Bi  Bi13  1  0.608425  0.608425  0.250000  1
  Bi  Bi14  1  0.390657  0.000033  0.250000  1
  Bi  Bi15  1  0.000033  0.390657  0.250000  1
  Se  Se16  1  0.999255  0.999255  0.000349  1
  Se  Se17  1  0.999255  0.999255  0.499651  1
