# generated using pymatgen
data_Yb6Ga5N
_symmetry_space_group_name_H-M   'P 1'
_cell_length_a   13.36517808
_cell_length_b   13.36517781
_cell_length_c   13.36517781
_cell_angle_alpha   30.65797854
_cell_angle_beta   30.65798143
_cell_angle_gamma   30.65798077
_symmetry_Int_Tables_number   1
_chemical_formula_structural   Yb6Ga5N
_chemical_formula_sum   'Yb12 Ga10 N2'
_cell_volume   550.38905905
_cell_formula_units_Z   2
loop_
 _symmetry_equiv_pos_site_id
 _symmetry_equiv_pos_as_xyz
  1  'x, y, z'
loop_
 _atom_site_type_symbol
 _atom_site_label
 _atom_site_symmetry_multiplicity
 _atom_site_fract_x
 _atom_site_fract_y
 _atom_site_fract_z
 _atom_site_occupancy
  Yb  Yb0  1  0.782032  0.244400  0.367233  1
  Yb  Yb1  1  0.244400  0.367233  0.782032  1
  Yb  Yb2  1  0.367233  0.782032  0.244400  1
  Yb  Yb3  1  0.717968  0.132767  0.255600  1
  Yb  Yb4  1  0.132767  0.255600  0.717968  1
  Yb  Yb5  1  0.255600  0.717968  0.132767  1
  Yb  Yb6  1  0.217968  0.755600  0.632767  1
  Yb  Yb7  1  0.755600  0.632767  0.217968  1
  Yb  Yb8  1  0.632767  0.217968  0.755600  1
  Yb  Yb9  1  0.282032  0.867233  0.744400  1
  Yb  Yb10  1  0.867233  0.744400  0.282032  1
  Yb  Yb11  1  0.744400  0.282032  0.867233  1
  Ga  Ga12  1  0.250000  0.471118  0.028882  1
  Ga  Ga13  1  0.191697  0.191697  0.191697  1
  Ga  Ga14  1  0.691697  0.691697  0.691697  1
  Ga  Ga15  1  0.308303  0.308303  0.308303  1
  Ga  Ga16  1  0.808303  0.808303  0.808303  1
  Ga  Ga17  1  0.471118  0.028882  0.250000  1
  Ga  Ga18  1  0.028882  0.250000  0.471118  1
  Ga  Ga19  1  0.750000  0.528882  0.971118  1
  Ga  Ga20  1  0.528882  0.971118  0.750000  1
  Ga  Ga21  1  0.971118  0.750000  0.528882  1
  N  N22  1  0.500000  0.500000  0.500000  1
  N  N23  1  0.000000  0.000000  0.000000  1
