# generated using pymatgen
data_ThGe3AsRh6
_symmetry_space_group_name_H-M   'P 1'
_cell_length_a   7.21066000
_cell_length_b   7.26115507
_cell_length_c   3.90551400
_cell_angle_alpha   90.00000000
_cell_angle_beta   90.00000000
_cell_angle_gamma   119.77022438
_symmetry_Int_Tables_number   1
_chemical_formula_structural   ThGe3AsRh6
_chemical_formula_sum   'Th1 Ge3 As1 Rh6'
_cell_volume   177.49677400
_cell_formula_units_Z   1
loop_
 _symmetry_equiv_pos_site_id
 _symmetry_equiv_pos_as_xyz
  1  'x, y, z'
loop_
 _atom_site_type_symbol
 _atom_site_label
 _atom_site_symmetry_multiplicity
 _atom_site_fract_x
 _atom_site_fract_y
 _atom_site_fract_z
 _atom_site_occupancy
  Th  Th0  1  0.000972  0.001944  0.000000  1
  Ge  Ge1  1  0.799998  0.197521  0.500000  1
  Ge  Ge2  1  0.397523  0.197521  0.500000  1
  Ge  Ge3  1  0.333355  0.666711  0.000000  1
  As  As4  1  0.803226  0.606451  0.500000  1
  Rh  Rh5  1  0.197384  0.802111  0.500000  1
  Rh  Rh6  1  0.197281  0.394561  0.500000  1
  Rh  Rh7  1  0.533104  0.066208  0.000000  1
  Rh  Rh8  1  0.932910  0.465764  0.000000  1
  Rh  Rh9  1  0.532854  0.465764  0.000000  1
  Rh  Rh10  1  0.604727  0.802111  0.500000  1
