# generated using pymatgen
data_SmPuReB6
_symmetry_space_group_name_H-M   'P 1'
_cell_length_a   3.71757200
_cell_length_b   9.30467100
_cell_length_c   11.46645100
_cell_angle_alpha   90.00000000
_cell_angle_beta   90.00000000
_cell_angle_gamma   90.00000000
_symmetry_Int_Tables_number   1
_chemical_formula_structural   SmPuReB6
_chemical_formula_sum   'Sm4 Pu4 Re4 B24'
_cell_volume   396.63353413
_cell_formula_units_Z   4
loop_
 _symmetry_equiv_pos_site_id
 _symmetry_equiv_pos_as_xyz
  1  'x, y, z'
loop_
 _atom_site_type_symbol
 _atom_site_label
 _atom_site_symmetry_multiplicity
 _atom_site_fract_x
 _atom_site_fract_y
 _atom_site_fract_z
 _atom_site_occupancy
  Sm  Sm0  1  0.000000  0.335573  0.409211  1
  Sm  Sm1  1  0.000000  0.664427  0.590789  1
  Sm  Sm2  1  0.000000  0.835573  0.090789  1
  Sm  Sm3  1  0.000000  0.164427  0.909211  1
  Pu  Pu4  1  0.000000  0.954027  0.388241  1
  Pu  Pu5  1  0.000000  0.045973  0.611759  1
  Pu  Pu6  1  0.000000  0.454027  0.111759  1
  Pu  Pu7  1  0.000000  0.545973  0.888241  1
  Re  Re8  1  0.000000  0.646730  0.317946  1
  Re  Re9  1  0.000000  0.353270  0.682054  1
  Re  Re10  1  0.000000  0.146730  0.182054  1
  Re  Re11  1  0.000000  0.853270  0.817946  1
  B  B12  1  0.500000  0.555371  0.430228  1
  B  B13  1  0.500000  0.444629  0.569772  1
  B  B14  1  0.500000  0.055371  0.069772  1
  B  B15  1  0.500000  0.944629  0.930228  1
  B  B16  1  0.500000  0.747675  0.420552  1
  B  B17  1  0.500000  0.252325  0.579448  1
  B  B18  1  0.500000  0.247675  0.079448  1
  B  B19  1  0.500000  0.752325  0.920552  1
  B  B20  1  0.500000  0.802532  0.271898  1
  B  B21  1  0.500000  0.197468  0.728102  1
  B  B22  1  0.500000  0.302532  0.228102  1
  B  B23  1  0.500000  0.697468  0.771898  1
  B  B24  1  0.500000  0.641644  0.187417  1
  B  B25  1  0.500000  0.358356  0.812583  1
  B  B26  1  0.500000  0.141644  0.312583  1
  B  B27  1  0.500000  0.858356  0.687417  1
  B  B28  1  0.500000  0.990025  0.218455  1
  B  B29  1  0.500000  0.009975  0.781545  1
  B  B30  1  0.500000  0.490025  0.281545  1
  B  B31  1  0.500000  0.509975  0.718455  1
  B  B32  1  0.500000  0.631031  0.035887  1
  B  B33  1  0.500000  0.368969  0.964113  1
  B  B34  1  0.500000  0.131031  0.464113  1
  B  B35  1  0.500000  0.868969  0.535887  1
