# generated using pymatgen
data_Ca3Tm(Si4Tc3)2
_symmetry_space_group_name_H-M   'P 1'
_cell_length_a   6.81568319
_cell_length_b   6.70344076
_cell_length_c   6.79219700
_cell_angle_alpha   70.52205479
_cell_angle_beta   90.01341671
_cell_angle_gamma   89.85789731
_symmetry_Int_Tables_number   1
_chemical_formula_structural   Ca3Tm(Si4Tc3)2
_chemical_formula_sum   'Ca3 Tm1 Si8 Tc6'
_cell_volume   292.56444662
_cell_formula_units_Z   1
loop_
 _symmetry_equiv_pos_site_id
 _symmetry_equiv_pos_as_xyz
  1  'x, y, z'
loop_
 _atom_site_type_symbol
 _atom_site_label
 _atom_site_symmetry_multiplicity
 _atom_site_fract_x
 _atom_site_fract_y
 _atom_site_fract_z
 _atom_site_occupancy
  Ca  Ca0  1  0.664587  0.444205  0.183963  1
  Ca  Ca1  1  0.166381  0.056841  0.813122  1
  Ca  Ca2  1  0.334817  0.555586  0.815385  1
  Tm  Tm3  1  0.832740  0.941774  0.193167  1
  Si  Si4  1  0.451675  0.118726  0.102579  1
  Si  Si5  1  0.952704  0.380927  0.895518  1
  Si  Si6  1  0.547971  0.880997  0.897101  1
  Si  Si7  1  0.046618  0.620602  0.102124  1
  Si  Si8  1  0.861426  0.134992  0.507377  1
  Si  Si9  1  0.361098  0.368029  0.491875  1
  Si  Si10  1  0.140820  0.866797  0.494088  1
  Si  Si11  1  0.637702  0.630099  0.509245  1
  Tc  Tc12  1  0.503458  0.000077  0.496170  1
  Tc  Tc13  1  0.998966  0.502939  0.497734  1
  Tc  Tc14  1  0.154681  0.242095  0.243265  1
  Tc  Tc15  1  0.659719  0.252802  0.759141  1
  Tc  Tc16  1  0.842889  0.758417  0.755342  1
  Tc  Tc17  1  0.341748  0.744092  0.242804  1
