# generated using pymatgen
data_Cs4Na2SmTlSb4
_symmetry_space_group_name_H-M   'P 1'
_cell_length_a   10.46589840
_cell_length_b   10.46589907
_cell_length_c   10.46589884
_cell_angle_alpha   137.44925067
_cell_angle_beta   61.08027002
_cell_angle_gamma   138.32300378
_symmetry_Int_Tables_number   1
_chemical_formula_structural   Cs4Na2SmTlSb4
_chemical_formula_sum   'Cs4 Na2 Sm1 Tl1 Sb4'
_cell_volume   509.78291353
_cell_formula_units_Z   1
loop_
 _symmetry_equiv_pos_site_id
 _symmetry_equiv_pos_as_xyz
  1  'x, y, z'
loop_
 _atom_site_type_symbol
 _atom_site_label
 _atom_site_symmetry_multiplicity
 _atom_site_fract_x
 _atom_site_fract_y
 _atom_site_fract_z
 _atom_site_occupancy
  Cs  Cs0  1  0.833129  0.240947  0.058820  1
  Cs  Cs1  1  0.666871  0.725690  0.407818  1
  Cs  Cs2  1  0.317873  0.259053  0.592182  1
  Cs  Cs3  1  0.182127  0.774310  0.941180  1
  Na  Na4  1  0.250001  0.250001  0.000000  1
  Na  Na5  1  0.750001  0.750001  0.000000  1
  Sm  Sm6  1  0.750001  0.250001  0.500000  1
  Tl  Tl7  1  0.250001  0.750001  0.500000  1
  Sb  Sb8  1  0.400596  0.769361  0.176972  1
  Sb  Sb9  1  0.099404  0.276377  0.368765  1
  Sb  Sb10  1  0.907612  0.730639  0.631235  1
  Sb  Sb11  1  0.592388  0.223623  0.823028  1
