# generated using pymatgen
data_Pr10Zn4(RuRh)3
_symmetry_space_group_name_H-M   'P 1'
_cell_length_a   8.61897972
_cell_length_b   8.58524150
_cell_length_c   8.61897930
_cell_angle_alpha   109.48110485
_cell_angle_beta   109.62978406
_cell_angle_gamma   109.46143629
_symmetry_Int_Tables_number   1
_chemical_formula_structural   Pr10Zn4(RuRh)3
_chemical_formula_sum   'Pr10 Zn4 Ru3 Rh3'
_cell_volume   489.99106186
_cell_formula_units_Z   1
loop_
 _symmetry_equiv_pos_site_id
 _symmetry_equiv_pos_as_xyz
  1  'x, y, z'
loop_
 _atom_site_type_symbol
 _atom_site_label
 _atom_site_symmetry_multiplicity
 _atom_site_fract_x
 _atom_site_fract_y
 _atom_site_fract_z
 _atom_site_occupancy
  Pr  Pr0  1  0.251392  0.687050  0.436049  1
  Pr  Pr1  1  0.748999  0.812950  0.064342  1
  Pr  Pr2  1  0.434317  0.250000  0.684317  1
  Pr  Pr3  1  0.685113  0.438787  0.250875  1
  Pr  Pr4  1  0.064480  0.750000  0.814480  1
  Pr  Pr5  1  0.812088  0.061213  0.746327  1
  Pr  Pr6  1  0.224006  0.222700  0.225533  1
  Pr  Pr7  1  0.499366  0.997251  0.275437  1
  Pr  Pr8  1  0.278186  0.502749  0.002115  1
  Pr  Pr9  1  0.002834  0.277300  0.501306  1
  Zn  Zn10  1  0.590029  0.592772  0.591333  1
  Zn  Zn11  1  0.499161  0.998188  0.907358  1
  Zn  Zn12  1  0.909170  0.501812  0.000973  1
  Zn  Zn13  1  0.998561  0.907228  0.497256  1
  Ru  Ru14  1  0.129848  0.879963  0.250482  1
  Ru  Ru15  1  0.623777  0.750000  0.373777  1
  Ru  Ru16  1  0.370517  0.620036  0.749883  1
  Rh  Rh17  1  0.250897  0.128239  0.879141  1
  Rh  Rh18  1  0.750902  0.371761  0.622658  1
  Rh  Rh19  1  0.876358  0.250000  0.126359  1
