# generated using pymatgen
data_Mg3MnZn2(B2Rh5)2
_symmetry_space_group_name_H-M   'P 1'
_cell_length_a   9.41805016
_cell_length_b   9.41805016
_cell_length_c   2.93220600
_cell_angle_alpha   90.00000000
_cell_angle_beta   90.00000000
_cell_angle_gamma   90.35486992
_symmetry_Int_Tables_number   1
_chemical_formula_structural   Mg3MnZn2(B2Rh5)2
_chemical_formula_sum   'Mg3 Mn1 Zn2 B4 Rh10'
_cell_volume   260.08071256
_cell_formula_units_Z   1
loop_
 _symmetry_equiv_pos_site_id
 _symmetry_equiv_pos_as_xyz
  1  'x, y, z'
loop_
 _atom_site_type_symbol
 _atom_site_label
 _atom_site_symmetry_multiplicity
 _atom_site_fract_x
 _atom_site_fract_y
 _atom_site_fract_z
 _atom_site_occupancy
  Mg  Mg0  1  0.824169  0.324169  0.000000  1
  Mg  Mg1  1  0.323637  0.176693  0.000000  1
  Mg  Mg2  1  0.676693  0.823637  0.000000  1
  Mn  Mn3  1  0.177045  0.677045  0.000000  1
  Zn  Zn4  1  0.999782  0.000535  0.000000  1
  Zn  Zn5  1  0.500535  0.499782  0.000000  1
  B  B6  1  0.626159  0.126159  0.000000  1
  B  B7  1  0.126369  0.373553  0.000000  1
  B  B8  1  0.873553  0.626369  0.000000  1
  B  B9  1  0.372271  0.872271  0.000000  1
  Rh  Rh10  1  0.071612  0.217104  0.500000  1
  Rh  Rh11  1  0.214507  0.924474  0.500000  1
  Rh  Rh12  1  0.783244  0.071338  0.500000  1
  Rh  Rh13  1  0.933349  0.782476  0.500000  1
  Rh  Rh14  1  0.424474  0.714507  0.500000  1
  Rh  Rh15  1  0.571338  0.283244  0.500000  1
  Rh  Rh16  1  0.717104  0.571612  0.500000  1
  Rh  Rh17  1  0.282476  0.433349  0.500000  1
  Rh  Rh18  1  0.499089  0.999089  0.500000  1
  Rh  Rh19  1  0.002593  0.502593  0.500000  1
