# generated using pymatgen
data_Tb5Ho10Lu5Sn16
_symmetry_space_group_name_H-M   'P 1'
_cell_length_a   7.97647729
_cell_length_b   8.12398325
_cell_length_c   15.37543230
_cell_angle_alpha   90.02808031
_cell_angle_beta   89.93814811
_cell_angle_gamma   90.03862535
_symmetry_Int_Tables_number   1
_chemical_formula_structural   Tb5Ho10Lu5Sn16
_chemical_formula_sum   'Tb5 Ho10 Lu5 Sn16'
_cell_volume   996.33889316
_cell_formula_units_Z   1
loop_
 _symmetry_equiv_pos_site_id
 _symmetry_equiv_pos_as_xyz
  1  'x, y, z'
loop_
 _atom_site_type_symbol
 _atom_site_label
 _atom_site_symmetry_multiplicity
 _atom_site_fract_x
 _atom_site_fract_y
 _atom_site_fract_z
 _atom_site_occupancy
  Tb  Tb0  1  0.980039  0.820417  0.096458  1
  Tb  Tb1  1  0.481265  0.680281  0.095052  1
  Tb  Tb2  1  0.980782  0.820577  0.403404  1
  Tb  Tb3  1  0.519403  0.320835  0.597217  1
  Tb  Tb4  1  0.018895  0.178574  0.903187  1
  Ho  Ho5  1  0.865243  0.662417  0.623325  1
  Ho  Ho6  1  0.634424  0.162223  0.377412  1
  Ho  Ho7  1  0.135588  0.337525  0.121212  1
  Ho  Ho8  1  0.634371  0.163011  0.122848  1
  Ho  Ho9  1  0.134209  0.337280  0.377536  1
  Ho  Ho10  1  0.365902  0.837575  0.623017  1
  Ho  Ho11  1  0.865879  0.662119  0.877855  1
  Ho  Ho12  1  0.519071  0.320207  0.903463  1
  Ho  Ho13  1  0.020111  0.178953  0.597430  1
  Ho  Ho14  1  0.480651  0.679606  0.403671  1
  Lu  Lu15  1  0.364516  0.838503  0.875925  1
  Lu  Lu16  1  0.197088  0.503763  0.750714  1
  Lu  Lu17  1  0.696236  0.996140  0.750421  1
  Lu  Lu18  1  0.803758  0.496274  0.250164  1
  Lu  Lu19  1  0.303610  0.003342  0.249525  1
  Sn  Sn20  1  0.295661  0.036185  0.040643  1
  Sn  Sn21  1  0.794164  0.463402  0.457801  1
  Sn  Sn22  1  0.706358  0.963346  0.542797  1
  Sn  Sn23  1  0.207488  0.539501  0.956843  1
  Sn  Sn24  1  0.700817  0.962228  0.957368  1
  Sn  Sn25  1  0.205137  0.536816  0.542728  1
  Sn  Sn26  1  0.294477  0.036767  0.457743  1
  Sn  Sn27  1  0.794480  0.462466  0.042339  1
  Sn  Sn28  1  0.561612  0.619453  0.750871  1
  Sn  Sn29  1  0.062210  0.881213  0.750770  1
  Sn  Sn30  1  0.437899  0.382189  0.250023  1
  Sn  Sn31  1  0.938352  0.118603  0.249428  1
  Sn  Sn32  1  0.329215  0.149397  0.750704  1
  Sn  Sn33  1  0.828917  0.350038  0.750213  1
  Sn  Sn34  1  0.670623  0.849902  0.250100  1
  Sn  Sn35  1  0.171550  0.648872  0.249790  1
