# generated using pymatgen
data_SiTc3Ni2C
_symmetry_space_group_name_H-M   'P 1'
_cell_length_a   7.72404322
_cell_length_b   7.72404295
_cell_length_c   7.72404400
_cell_angle_alpha   60.00000407
_cell_angle_beta   60.00000522
_cell_angle_gamma   60.00000480
_symmetry_Int_Tables_number   1
_chemical_formula_structural   SiTc3Ni2C
_chemical_formula_sum   'Si4 Tc12 Ni8 C4'
_cell_volume   325.85107850
_cell_formula_units_Z   4
loop_
 _symmetry_equiv_pos_site_id
 _symmetry_equiv_pos_as_xyz
  1  'x, y, z'
loop_
 _atom_site_type_symbol
 _atom_site_label
 _atom_site_symmetry_multiplicity
 _atom_site_fract_x
 _atom_site_fract_y
 _atom_site_fract_z
 _atom_site_occupancy
  Si  Si0  1  0.125000  0.125000  0.125000  1
  Si  Si1  1  0.625000  0.125000  0.125000  1
  Si  Si2  1  0.125000  0.125000  0.625000  1
  Si  Si3  1  0.125000  0.625000  0.125000  1
  Tc  Tc4  1  0.695769  0.304231  0.304231  1
  Tc  Tc5  1  0.945769  0.945769  0.554231  1
  Tc  Tc6  1  0.695769  0.695769  0.304231  1
  Tc  Tc7  1  0.695769  0.304231  0.695769  1
  Tc  Tc8  1  0.304231  0.695769  0.304231  1
  Tc  Tc9  1  0.554231  0.945769  0.554231  1
  Tc  Tc10  1  0.554231  0.945769  0.945769  1
  Tc  Tc11  1  0.945769  0.554231  0.554231  1
  Tc  Tc12  1  0.945769  0.554231  0.945769  1
  Tc  Tc13  1  0.304231  0.304231  0.695769  1
  Tc  Tc14  1  0.554231  0.554231  0.945769  1
  Tc  Tc15  1  0.304231  0.695769  0.695769  1
  Ni  Ni16  1  0.916731  0.916731  0.249808  1
  Ni  Ni17  1  0.333269  0.333269  0.333269  1
  Ni  Ni18  1  0.249808  0.916731  0.916731  1
  Ni  Ni19  1  0.333269  0.000192  0.333269  1
  Ni  Ni20  1  0.000192  0.333269  0.333269  1
  Ni  Ni21  1  0.333269  0.333269  0.000192  1
  Ni  Ni22  1  0.916731  0.916731  0.916731  1
  Ni  Ni23  1  0.916731  0.249808  0.916731  1
  C  C24  1  0.625000  0.625000  0.625000  1
  C  C25  1  0.625000  0.625000  0.125000  1
  C  C26  1  0.125000  0.625000  0.625000  1
  C  C27  1  0.625000  0.125000  0.625000  1
