# generated using pymatgen
data_HfZr4Si4Mo3
_symmetry_space_group_name_H-M   'P 1'
_cell_length_a   3.57782200
_cell_length_b   7.04282514
_cell_length_c   8.39194402
_cell_angle_alpha   89.64463695
_cell_angle_beta   90.00000000
_cell_angle_gamma   90.00000000
_symmetry_Int_Tables_number   1
_chemical_formula_structural   HfZr4Si4Mo3
_chemical_formula_sum   'Hf1 Zr4 Si4 Mo3'
_cell_volume   211.45592630
_cell_formula_units_Z   1
loop_
 _symmetry_equiv_pos_site_id
 _symmetry_equiv_pos_as_xyz
  1  'x, y, z'
loop_
 _atom_site_type_symbol
 _atom_site_label
 _atom_site_symmetry_multiplicity
 _atom_site_fract_x
 _atom_site_fract_y
 _atom_site_fract_z
 _atom_site_occupancy
  Hf  Hf0  1  0.250000  0.128404  0.939797  1
  Zr  Zr1  1  0.250000  0.043278  0.334786  1
  Zr  Zr2  1  0.250000  0.546082  0.167443  1
  Zr  Zr3  1  0.750000  0.952671  0.662865  1
  Zr  Zr4  1  0.750000  0.464462  0.824169  1
  Si  Si5  1  0.250000  0.257499  0.631565  1
  Si  Si6  1  0.250000  0.752881  0.863084  1
  Si  Si7  1  0.750000  0.742219  0.363494  1
  Si  Si8  1  0.750000  0.246128  0.149926  1
  Mo  Mo9  1  0.250000  0.631220  0.560299  1
  Mo  Mo10  1  0.750000  0.860871  0.062788  1
  Mo  Mo11  1  0.750000  0.374285  0.439784  1
