# generated using pymatgen
data_Nd4CdTc
_symmetry_space_group_name_H-M   'P 1'
_cell_length_a   9.94982593
_cell_length_b   9.94982597
_cell_length_c   9.94982600
_cell_angle_alpha   59.99999990
_cell_angle_beta   59.99999977
_cell_angle_gamma   60.00000190
_symmetry_Int_Tables_number   1
_chemical_formula_structural   Nd4CdTc
_chemical_formula_sum   'Nd16 Cd4 Tc4'
_cell_volume   696.51658327
_cell_formula_units_Z   4
loop_
 _symmetry_equiv_pos_site_id
 _symmetry_equiv_pos_as_xyz
  1  'x, y, z'
loop_
 _atom_site_type_symbol
 _atom_site_label
 _atom_site_symmetry_multiplicity
 _atom_site_fract_x
 _atom_site_fract_y
 _atom_site_fract_z
 _atom_site_occupancy
  Nd  Nd0  1  0.595198  0.595198  0.595198  1
  Nd  Nd1  1  0.595198  0.595198  0.214406  1
  Nd  Nd2  1  0.595198  0.214406  0.595198  1
  Nd  Nd3  1  0.214406  0.595198  0.595198  1
  Nd  Nd4  1  0.058593  0.441407  0.441407  1
  Nd  Nd5  1  0.441407  0.058593  0.058593  1
  Nd  Nd6  1  0.441407  0.058593  0.441407  1
  Nd  Nd7  1  0.058593  0.441407  0.058593  1
  Nd  Nd8  1  0.441407  0.441407  0.058593  1
  Nd  Nd9  1  0.058593  0.058593  0.441407  1
  Nd  Nd10  1  0.191491  0.808509  0.808509  1
  Nd  Nd11  1  0.808509  0.191491  0.191491  1
  Nd  Nd12  1  0.808509  0.191491  0.808509  1
  Nd  Nd13  1  0.191491  0.808509  0.191491  1
  Nd  Nd14  1  0.808509  0.808509  0.191491  1
  Nd  Nd15  1  0.191491  0.191491  0.808509  1
  Cd  Cd16  1  0.828555  0.828555  0.828555  1
  Cd  Cd17  1  0.828555  0.828555  0.514335  1
  Cd  Cd18  1  0.828555  0.514335  0.828555  1
  Cd  Cd19  1  0.514335  0.828555  0.828555  1
  Tc  Tc20  1  0.383757  0.383757  0.383757  1
  Tc  Tc21  1  0.383757  0.383757  0.848729  1
  Tc  Tc22  1  0.383757  0.848729  0.383757  1
  Tc  Tc23  1  0.848729  0.383757  0.383757  1
