# generated using pymatgen
data_Tm2Hf3Sn(B2Ru5)2
_symmetry_space_group_name_H-M   'P 1'
_cell_length_a   9.55715103
_cell_length_b   9.64095583
_cell_length_c   3.12395500
_cell_angle_alpha   90.00000000
_cell_angle_beta   90.00000000
_cell_angle_gamma   91.08588899
_symmetry_Int_Tables_number   1
_chemical_formula_structural   Tm2Hf3Sn(B2Ru5)2
_chemical_formula_sum   'Tm2 Hf3 Sn1 B4 Ru10'
_cell_volume   287.78974200
_cell_formula_units_Z   1
loop_
 _symmetry_equiv_pos_site_id
 _symmetry_equiv_pos_as_xyz
  1  'x, y, z'
loop_
 _atom_site_type_symbol
 _atom_site_label
 _atom_site_symmetry_multiplicity
 _atom_site_fract_x
 _atom_site_fract_y
 _atom_site_fract_z
 _atom_site_occupancy
  Tm  Tm0  1  0.820500  0.672406  0.000000  1
  Tm  Tm1  1  0.179500  0.327594  0.000000  1
  Hf  Hf2  1  0.322442  0.829483  0.000000  1
  Hf  Hf3  1  0.677558  0.170517  0.000000  1
  Hf  Hf4  1  0.000000  0.000000  0.000000  1
  Sn  Sn5  1  0.500000  0.500000  0.000000  1
  B  B6  1  0.619435  0.879137  0.000000  1
  B  B7  1  0.380565  0.120863  0.000000  1
  B  B8  1  0.120464  0.623716  0.000000  1
  B  B9  1  0.879536  0.376284  0.000000  1
  Ru  Ru10  1  0.560042  0.726280  0.500000  1
  Ru  Ru11  1  0.439958  0.273720  0.500000  1
  Ru  Ru12  1  0.075171  0.782072  0.500000  1
  Ru  Ru13  1  0.924829  0.217928  0.500000  1
  Ru  Ru14  1  0.280760  0.583158  0.500000  1
  Ru  Ru15  1  0.719240  0.416842  0.500000  1
  Ru  Ru16  1  0.223267  0.065092  0.500000  1
  Ru  Ru17  1  0.776733  0.934908  0.500000  1
  Ru  Ru18  1  0.500000  0.000000  0.500000  1
  Ru  Ru19  1  0.000000  0.500000  0.500000  1
