# generated using pymatgen
data_LaP12IrRu3
_symmetry_space_group_name_H-M   'P 1'
_cell_length_a   7.04813451
_cell_length_b   7.03379718
_cell_length_c   7.03379783
_cell_angle_alpha   109.42989488
_cell_angle_beta   109.51251829
_cell_angle_gamma   109.51251943
_symmetry_Int_Tables_number   1
_chemical_formula_structural   LaP12IrRu3
_chemical_formula_sum   'La1 P12 Ir1 Ru3'
_cell_volume   268.29364801
_cell_formula_units_Z   1
loop_
 _symmetry_equiv_pos_site_id
 _symmetry_equiv_pos_as_xyz
  1  'x, y, z'
loop_
 _atom_site_type_symbol
 _atom_site_label
 _atom_site_symmetry_multiplicity
 _atom_site_fract_x
 _atom_site_fract_y
 _atom_site_fract_z
 _atom_site_occupancy
  La  La0  1  0.000000  0.000000  0.000000  1
  P  P1  1  0.140493  0.786047  0.640397  1
  P  P2  1  0.144192  0.500283  0.356299  1
  P  P3  1  0.855808  0.499717  0.643701  1
  P  P4  1  0.356091  0.143984  0.500283  1
  P  P5  1  0.787894  0.643701  0.143984  1
  P  P6  1  0.859507  0.213953  0.359603  1
  P  P7  1  0.645552  0.145649  0.786047  1
  P  P8  1  0.499904  0.640397  0.854351  1
  P  P9  1  0.643909  0.856016  0.499717  1
  P  P10  1  0.500096  0.359603  0.145649  1
  P  P11  1  0.354448  0.854351  0.213953  1
  P  P12  1  0.212106  0.356299  0.856016  1
  Ir  Ir13  1  0.500000  0.000000  0.000000  1
  Ru  Ru14  1  0.500000  0.500000  0.500000  1
  Ru  Ru15  1  0.000000  0.500000  0.000000  1
  Ru  Ru16  1  0.000000  0.000000  0.500000  1
