# generated using pymatgen
data_DyY6Th7Rh6
_symmetry_space_group_name_H-M   'P 1'
_cell_length_a   9.80707346
_cell_length_b   9.80707131
_cell_length_c   6.37927505
_cell_angle_alpha   89.88655581
_cell_angle_beta   90.11344260
_cell_angle_gamma   118.81114209
_symmetry_Int_Tables_number   1
_chemical_formula_structural   DyY6Th7Rh6
_chemical_formula_sum   'Dy1 Y6 Th7 Rh6'
_cell_volume   537.59921064
_cell_formula_units_Z   1
loop_
 _symmetry_equiv_pos_site_id
 _symmetry_equiv_pos_as_xyz
  1  'x, y, z'
loop_
 _atom_site_type_symbol
 _atom_site_label
 _atom_site_symmetry_multiplicity
 _atom_site_fract_x
 _atom_site_fract_y
 _atom_site_fract_z
 _atom_site_occupancy
  Dy  Dy0  1  0.537670  0.462330  0.048941  1
  Y  Y1  1  0.127634  0.872366  0.253776  1
  Y  Y2  1  0.461753  0.923659  0.547936  1
  Y  Y3  1  0.076341  0.538247  0.547936  1
  Y  Y4  1  0.460773  0.539227  0.546173  1
  Y  Y5  1  0.535950  0.074678  0.050917  1
  Y  Y6  1  0.925322  0.464050  0.050917  1
  Th  Th7  1  0.666461  0.333539  0.523570  1
  Th  Th8  1  0.332990  0.667010  0.024071  1
  Th  Th9  1  0.874607  0.745793  0.753047  1
  Th  Th10  1  0.254207  0.125393  0.753047  1
  Th  Th11  1  0.872165  0.127835  0.753706  1
  Th  Th12  1  0.129754  0.254380  0.255515  1
  Th  Th13  1  0.745620  0.870246  0.255515  1
  Rh  Rh14  1  0.186119  0.369503  0.803171  1
  Rh  Rh15  1  0.630497  0.813881  0.803171  1
  Rh  Rh16  1  0.185328  0.814672  0.797342  1
  Rh  Rh17  1  0.805579  0.624523  0.305952  1
  Rh  Rh18  1  0.375477  0.194421  0.305952  1
  Rh  Rh19  1  0.815751  0.184249  0.300783  1
