# generated using pymatgen
data_Sr10Mn5O19
_symmetry_space_group_name_H-M   'P 1'
_cell_length_a   8.80924072
_cell_length_b   8.80924044
_cell_length_c   8.68260790
_cell_angle_alpha   60.30195748
_cell_angle_beta   60.30195307
_cell_angle_gamma   91.60978643
_symmetry_Int_Tables_number   1
_chemical_formula_structural   Sr10Mn5O19
_chemical_formula_sum   'Sr10 Mn5 O19'
_cell_volume   473.82639739
_cell_formula_units_Z   1
loop_
 _symmetry_equiv_pos_site_id
 _symmetry_equiv_pos_as_xyz
  1  'x, y, z'
loop_
 _atom_site_type_symbol
 _atom_site_label
 _atom_site_symmetry_multiplicity
 _atom_site_fract_x
 _atom_site_fract_y
 _atom_site_fract_z
 _atom_site_occupancy
  Sr  Sr0  1  0.856816  0.143184  0.000000  1
  Sr  Sr1  1  0.641660  0.938340  0.812453  1
  Sr  Sr2  1  0.456620  0.743878  0.596807  1
  Sr  Sr3  1  0.256122  0.543380  0.403193  1
  Sr  Sr4  1  0.061660  0.358340  0.187547  1
  Sr  Sr5  1  0.543380  0.256122  0.403193  1
  Sr  Sr6  1  0.358340  0.061660  0.187547  1
  Sr  Sr7  1  0.143184  0.856816  0.000000  1
  Sr  Sr8  1  0.938340  0.641660  0.812453  1
  Sr  Sr9  1  0.743878  0.456620  0.596807  1
  Mn  Mn10  1  0.898648  0.898648  0.396971  1
  Mn  Mn11  1  0.699065  0.699065  0.196835  1
  Mn  Mn12  1  0.500000  0.500000  0.000000  1
  Mn  Mn13  1  0.300935  0.300935  0.803165  1
  Mn  Mn14  1  0.101352  0.101352  0.603029  1
  O  O15  1  0.109158  0.109158  0.113498  1
  O  O16  1  0.500000  0.500000  0.500000  1
  O  O17  1  0.890842  0.890842  0.886502  1
  O  O18  1  0.289709  0.289709  0.294184  1
  O  O19  1  0.710291  0.710291  0.705816  1
  O  O20  1  0.658812  0.341188  0.000000  1
  O  O21  1  0.456237  0.143356  0.802544  1
  O  O22  1  0.248317  0.939158  0.593794  1
  O  O23  1  0.060842  0.751683  0.406206  1
  O  O24  1  0.856644  0.543763  0.197456  1
  O  O25  1  0.751683  0.060842  0.406206  1
  O  O26  1  0.543763  0.856644  0.197456  1
  O  O27  1  0.341188  0.658812  0.000000  1
  O  O28  1  0.143356  0.456237  0.802544  1
  O  O29  1  0.939158  0.248317  0.593794  1
  O  O30  1  0.415979  0.415979  0.882254  1
  O  O31  1  0.802992  0.802992  0.284712  1
  O  O32  1  0.197008  0.197008  0.715288  1
  O  O33  1  0.584021  0.584021  0.117746  1
