# generated using pymatgen
data_Er4CrFeC4
_symmetry_space_group_name_H-M   'P 1'
_cell_length_a   4.93059900
_cell_length_b   6.21671882
_cell_length_c   9.48792000
_cell_angle_alpha   89.75288906
_cell_angle_beta   90.00000000
_cell_angle_gamma   90.00000000
_symmetry_Int_Tables_number   1
_chemical_formula_structural   Er4CrFeC4
_chemical_formula_sum   'Er8 Cr2 Fe2 C8'
_cell_volume   290.82241935
_cell_formula_units_Z   2
loop_
 _symmetry_equiv_pos_site_id
 _symmetry_equiv_pos_as_xyz
  1  'x, y, z'
loop_
 _atom_site_type_symbol
 _atom_site_label
 _atom_site_symmetry_multiplicity
 _atom_site_fract_x
 _atom_site_fract_y
 _atom_site_fract_z
 _atom_site_occupancy
  Er  Er0  1  0.250000  0.684199  0.554299  1
  Er  Er1  1  0.750000  0.315801  0.445701  1
  Er  Er2  1  0.750000  0.814011  0.054692  1
  Er  Er3  1  0.250000  0.185989  0.945308  1
  Er  Er4  1  0.250000  0.526559  0.218388  1
  Er  Er5  1  0.750000  0.473441  0.781612  1
  Er  Er6  1  0.750000  0.976947  0.716188  1
  Er  Er7  1  0.250000  0.023053  0.283812  1
  Cr  Cr8  1  0.250000  0.725963  0.860442  1
  Cr  Cr9  1  0.750000  0.274037  0.139558  1
  Fe  Fe10  1  0.750000  0.772882  0.359866  1
  Fe  Fe11  1  0.250000  0.227118  0.640134  1
  C  C12  1  0.250000  0.459828  0.759333  1
  C  C13  1  0.750000  0.540172  0.240667  1
  C  C14  1  0.750000  0.036541  0.260327  1
  C  C15  1  0.250000  0.963459  0.739673  1
  C  C16  1  0.250000  0.811761  0.043314  1
  C  C17  1  0.750000  0.188239  0.956686  1
  C  C18  1  0.750000  0.688144  0.539350  1
  C  C19  1  0.250000  0.311856  0.460650  1
