# generated using pymatgen
data_Ho6Sc4Tl3In5Rh4
_symmetry_space_group_name_H-M   'P 1'
_cell_length_a   3.55602800
_cell_length_b   7.89904526
_cell_length_c   17.96725389
_cell_angle_alpha   90.06482872
_cell_angle_beta   90.00000000
_cell_angle_gamma   90.00000000
_symmetry_Int_Tables_number   1
_chemical_formula_structural   Ho6Sc4Tl3In5Rh4
_chemical_formula_sum   'Ho6 Sc4 Tl3 In5 Rh4'
_cell_volume   504.68593402
_cell_formula_units_Z   1
loop_
 _symmetry_equiv_pos_site_id
 _symmetry_equiv_pos_as_xyz
  1  'x, y, z'
loop_
 _atom_site_type_symbol
 _atom_site_label
 _atom_site_symmetry_multiplicity
 _atom_site_fract_x
 _atom_site_fract_y
 _atom_site_fract_z
 _atom_site_occupancy
  Ho  Ho0  1  0.000000  0.999112  0.000051  1
  Ho  Ho1  1  0.000000  0.500042  0.499977  1
  Ho  Ho2  1  0.000000  0.749319  0.782631  1
  Ho  Ho3  1  0.000000  0.251231  0.217078  1
  Ho  Ho4  1  0.000000  0.249012  0.718099  1
  Ho  Ho5  1  0.000000  0.750487  0.282492  1
  Sc  Sc6  1  0.000000  0.879610  0.590217  1
  Sc  Sc7  1  0.000000  0.120559  0.409815  1
  Sc  Sc8  1  0.000000  0.378875  0.910179  1
  Sc  Sc9  1  0.000000  0.621164  0.089227  1
  Tl  Tl10  1  0.500000  0.807597  0.439487  1
  Tl  Tl11  1  0.500000  0.192726  0.560753  1
  Tl  Tl12  1  0.500000  0.308504  0.060173  1
  In  In13  1  0.500000  0.691295  0.938122  1
  In  In14  1  0.500000  0.921281  0.150249  1
  In  In15  1  0.500000  0.075382  0.850181  1
  In  In16  1  0.500000  0.421836  0.349493  1
  In  In17  1  0.500000  0.578168  0.650478  1
  Rh  Rh18  1  0.500000  0.960035  0.693821  1
  Rh  Rh19  1  0.500000  0.040418  0.306216  1
  Rh  Rh20  1  0.500000  0.462684  0.807594  1
  Rh  Rh21  1  0.500000  0.540664  0.193667  1
