# generated using pymatgen
data_Ca2NiTeO6
_symmetry_space_group_name_H-M   'P 1'
_cell_length_a   5.47856552
_cell_length_b   5.63080823
_cell_length_c   7.79876595
_cell_angle_alpha   89.99667621
_cell_angle_beta   90.41667564
_cell_angle_gamma   90.00824095
_symmetry_Int_Tables_number   1
_chemical_formula_structural   Ca2NiTeO6
_chemical_formula_sum   'Ca4 Ni2 Te2 O12'
_cell_volume   240.57583025
_cell_formula_units_Z   2
loop_
 _symmetry_equiv_pos_site_id
 _symmetry_equiv_pos_as_xyz
  1  'x, y, z'
loop_
 _atom_site_type_symbol
 _atom_site_label
 _atom_site_symmetry_multiplicity
 _atom_site_fract_x
 _atom_site_fract_y
 _atom_site_fract_z
 _atom_site_occupancy
  Ca  Ca0  1  0.986463  0.054118  0.251511  1
  Ca  Ca1  1  0.513506  0.554098  0.248446  1
  Ca  Ca2  1  0.013536  0.945881  0.748490  1
  Ca  Ca3  1  0.486493  0.445903  0.751553  1
  Ni  Ni4  1  0.500000  0.000000  0.000000  1
  Ni  Ni5  1  0.000000  0.500000  0.500000  1
  Te  Te6  1  0.499999  0.999999  0.500000  1
  Te  Te7  1  0.999999  0.500001  0.999999  1
  O  O8  1  0.688181  0.285942  0.448325  1
  O  O9  1  0.811787  0.785994  0.051687  1
  O  O10  1  0.311819  0.714057  0.551675  1
  O  O11  1  0.188212  0.214007  0.948312  1
  O  O12  1  0.210649  0.192267  0.546432  1
  O  O13  1  0.289363  0.692295  0.953559  1
  O  O14  1  0.789350  0.807732  0.453568  1
  O  O15  1  0.710636  0.307706  0.046440  1
  O  O16  1  0.095554  0.467569  0.240789  1
  O  O17  1  0.404474  0.967610  0.259270  1
  O  O18  1  0.595526  0.032390  0.740730  1
  O  O19  1  0.904446  0.532431  0.759211  1
