# generated using pymatgen
data_Mn2I3ClO12
_symmetry_space_group_name_H-M   'P 1'
_cell_length_a   5.53139889
_cell_length_b   5.57921849
_cell_length_c   9.68825583
_cell_angle_alpha   90.16211508
_cell_angle_beta   90.00029247
_cell_angle_gamma   90.28668844
_symmetry_Int_Tables_number   1
_chemical_formula_structural   Mn2I3ClO12
_chemical_formula_sum   'Mn2 I3 Cl1 O12'
_cell_volume   298.98318994
_cell_formula_units_Z   1
loop_
 _symmetry_equiv_pos_site_id
 _symmetry_equiv_pos_as_xyz
  1  'x, y, z'
loop_
 _atom_site_type_symbol
 _atom_site_label
 _atom_site_symmetry_multiplicity
 _atom_site_fract_x
 _atom_site_fract_y
 _atom_site_fract_z
 _atom_site_occupancy
  Mn  Mn0  1  0.832551  0.728625  0.249135  1
  Mn  Mn1  1  0.317438  0.269063  0.756670  1
  I  I2  1  0.233659  0.759840  0.561932  1
  I  I3  1  0.717164  0.773465  0.900225  1
  I  I4  1  0.214265  0.230788  0.102560  1
  Cl  Cl5  1  0.682275  0.231869  0.426410  1
  O  O6  1  0.609806  0.659851  0.067787  1
  O  O7  1  0.110551  0.354301  0.937933  1
  O  O8  1  0.029905  0.839854  0.422009  1
  O  O9  1  0.554204  0.172943  0.559150  1
  O  O10  1  0.587847  0.474830  0.379936  1
  O  O11  1  0.099034  0.478530  0.620064  1
  O  O12  1  0.545856  0.054429  0.892993  1
  O  O13  1  0.030227  0.954757  0.103660  1
  O  O14  1  0.537262  0.591221  0.779632  1
  O  O15  1  0.046627  0.415145  0.223536  1
  O  O16  1  0.588413  0.051020  0.320331  1
  O  O17  1  0.113415  0.959468  0.696038  1
