# generated using pymatgen
data_Sc2AlB2Ir2Rh3
_symmetry_space_group_name_H-M   'P 1'
_cell_length_a   9.42757501
_cell_length_b   3.02566000
_cell_length_c   9.42934101
_cell_angle_alpha   90.00000000
_cell_angle_beta   89.99536940
_cell_angle_gamma   90.00000000
_symmetry_Int_Tables_number   1
_chemical_formula_structural   Sc2AlB2Ir2Rh3
_chemical_formula_sum   'Sc4 Al2 B4 Ir4 Rh6'
_cell_volume   268.96852472
_cell_formula_units_Z   2
loop_
 _symmetry_equiv_pos_site_id
 _symmetry_equiv_pos_as_xyz
  1  'x, y, z'
loop_
 _atom_site_type_symbol
 _atom_site_label
 _atom_site_symmetry_multiplicity
 _atom_site_fract_x
 _atom_site_fract_y
 _atom_site_fract_z
 _atom_site_occupancy
  Sc  Sc0  1  0.676543  0.000000  0.176258  1
  Sc  Sc1  1  0.175903  0.000000  0.323198  1
  Sc  Sc2  1  0.823164  0.000000  0.676631  1
  Sc  Sc3  1  0.322862  0.000000  0.823791  1
  Al  Al4  1  0.999293  0.000000  0.998296  1
  Al  Al5  1  0.500012  0.000000  0.500117  1
  B  B6  1  0.374045  0.000000  0.125222  1
  B  B7  1  0.875475  0.000000  0.374270  1
  B  B8  1  0.125448  0.000000  0.624868  1
  B  B9  1  0.624550  0.000000  0.875241  1
  Ir  Ir10  1  0.500400  0.500000  0.999824  1
  Ir  Ir11  1  0.216095  0.500000  0.070086  1
  Ir  Ir12  1  0.930170  0.500000  0.216387  1
  Ir  Ir13  1  0.999735  0.500000  0.501401  1
  Rh  Rh14  1  0.430428  0.500000  0.284134  1
  Rh  Rh15  1  0.716201  0.500000  0.430031  1
  Rh  Rh16  1  0.284240  0.500000  0.570778  1
  Rh  Rh17  1  0.570996  0.500000  0.716029  1
  Rh  Rh18  1  0.070664  0.500000  0.783969  1
  Rh  Rh19  1  0.783772  0.500000  0.929465  1
