# generated using pymatgen
data_Tb2MnFe10P7W
_symmetry_space_group_name_H-M   'P 1'
_cell_length_a   8.99420520
_cell_length_b   9.10092079
_cell_length_c   3.64741100
_cell_angle_alpha   90.00000000
_cell_angle_beta   90.00000000
_cell_angle_gamma   119.41267512
_symmetry_Int_Tables_number   1
_chemical_formula_structural   Tb2MnFe10P7W
_chemical_formula_sum   'Tb2 Mn1 Fe10 P7 W1'
_cell_volume   260.07788902
_cell_formula_units_Z   1
loop_
 _symmetry_equiv_pos_site_id
 _symmetry_equiv_pos_as_xyz
  1  'x, y, z'
loop_
 _atom_site_type_symbol
 _atom_site_label
 _atom_site_symmetry_multiplicity
 _atom_site_fract_x
 _atom_site_fract_y
 _atom_site_fract_z
 _atom_site_occupancy
  Tb  Tb0  1  0.670950  0.339722  0.000000  1
  Tb  Tb1  1  0.331348  0.664971  0.500000  1
  Mn  Mn2  1  0.115946  0.215272  0.500000  1
  Fe  Fe3  1  0.055466  0.631091  0.000000  1
  Fe  Fe4  1  0.568288  0.948705  0.000000  1
  Fe  Fe5  1  0.367858  0.424325  0.000000  1
  Fe  Fe6  1  0.277719  0.120696  0.000000  1
  Fe  Fe7  1  0.848358  0.727950  0.000000  1
  Fe  Fe8  1  0.885880  0.156859  0.000000  1
  Fe  Fe9  1  0.433393  0.045129  0.500000  1
  Fe  Fe10  1  0.616323  0.563466  0.500000  1
  Fe  Fe11  1  0.953287  0.387643  0.500000  1
  Fe  Fe12  1  0.094862  0.877716  0.500000  1
  P  P13  1  0.286759  0.883196  0.000000  1
  P  P14  1  0.582912  0.688727  0.000000  1
  P  P15  1  0.110575  0.413406  0.000000  1
  P  P16  1  0.406122  0.290727  0.500000  1
  P  P17  1  0.890267  0.599785  0.500000  1
  P  P18  1  0.717623  0.127012  0.500000  1
  P  P19  1  0.006345  0.998973  0.000000  1
  W  W20  1  0.779719  0.894628  0.500000  1
