# generated using pymatgen
data_Sm3Pa3(Ni3Sb4)2
_symmetry_space_group_name_H-M   'P 1'
_cell_length_a   8.20046108
_cell_length_b   8.22060913
_cell_length_c   8.20045959
_cell_angle_alpha   109.43940123
_cell_angle_beta   109.41491474
_cell_angle_gamma   109.45991698
_symmetry_Int_Tables_number   1
_chemical_formula_structural   Sm3Pa3(Ni3Sb4)2
_chemical_formula_sum   'Sm3 Pa3 Ni6 Sb8'
_cell_volume   426.07916468
_cell_formula_units_Z   1
loop_
 _symmetry_equiv_pos_site_id
 _symmetry_equiv_pos_as_xyz
  1  'x, y, z'
loop_
 _atom_site_type_symbol
 _atom_site_label
 _atom_site_symmetry_multiplicity
 _atom_site_fract_x
 _atom_site_fract_y
 _atom_site_fract_z
 _atom_site_occupancy
  Sm  Sm0  1  0.627339  0.750000  0.377339  1
  Sm  Sm1  1  0.250661  0.126314  0.875559  1
  Sm  Sm2  1  0.749247  0.373686  0.624347  1
  Pa  Pa3  1  0.126662  0.877734  0.250737  1
  Pa  Pa4  1  0.373003  0.622266  0.748927  1
  Pa  Pa5  1  0.872050  0.250000  0.122050  1
  Ni  Ni6  1  0.637380  0.365788  0.242100  1
  Ni  Ni7  1  0.876312  0.134212  0.771592  1
  Ni  Ni8  1  0.369089  0.250000  0.619089  1
  Ni  Ni9  1  0.129414  0.750000  0.879414  1
  Ni  Ni10  1  0.236483  0.616724  0.370972  1
  Ni  Ni11  1  0.754246  0.883276  0.119759  1
  Sb  Sb12  1  0.339161  0.338302  0.336311  1
  Sb  Sb13  1  0.163202  0.501680  0.000076  1
  Sb  Sb14  1  0.998010  0.161698  0.500859  1
  Sb  Sb15  1  0.838570  0.836367  0.837247  1
  Sb  Sb16  1  0.498396  0.998320  0.161524  1
  Sb  Sb17  1  0.662157  0.502253  0.999990  1
  Sb  Sb18  1  0.497737  0.997747  0.659904  1
  Sb  Sb19  1  0.000880  0.663633  0.502203  1
