# generated using pymatgen
data_HoTm3(Ga5Co3)2
_symmetry_space_group_name_H-M   'P 1'
_cell_length_a   8.30280988
_cell_length_b   8.30181344
_cell_length_c   8.30181508
_cell_angle_alpha   141.68731894
_cell_angle_beta   109.63850576
_cell_angle_gamma   83.06463353
_symmetry_Int_Tables_number   1
_chemical_formula_structural   HoTm3(Ga5Co3)2
_chemical_formula_sum   'Ho1 Tm3 Ga10 Co6'
_cell_volume   323.95160250
_cell_formula_units_Z   1
loop_
 _symmetry_equiv_pos_site_id
 _symmetry_equiv_pos_as_xyz
  1  'x, y, z'
loop_
 _atom_site_type_symbol
 _atom_site_label
 _atom_site_symmetry_multiplicity
 _atom_site_fract_x
 _atom_site_fract_y
 _atom_site_fract_z
 _atom_site_occupancy
  Ho  Ho0  1  0.370981  0.648633  0.722348  1
  Tm  Tm1  1  0.926672  0.148811  0.777860  1
  Tm  Tm2  1  0.073357  0.851220  0.222137  1
  Tm  Tm3  1  0.629172  0.351297  0.277875  1
  Ga  Ga4  1  0.298864  0.548914  0.249830  1
  Ga  Ga5  1  0.701389  0.951396  0.250421  1
  Ga  Ga6  1  0.999747  0.750028  0.749952  1
  Ga  Ga7  1  0.234979  0.419445  0.815533  1
  Ga  Ga8  1  0.764827  0.580325  0.184502  1
  Ga  Ga9  1  0.395922  0.080260  0.315660  1
  Ga  Ga10  1  0.999747  0.249794  0.249719  1
  Ga  Ga11  1  0.604250  0.919666  0.684586  1
  Ga  Ga12  1  0.701389  0.450967  0.749992  1
  Ga  Ga13  1  0.298864  0.049034  0.749950  1
  Co  Co14  1  0.068618  0.651903  0.416716  1
  Co  Co15  1  0.931132  0.348209  0.582923  1
  Co  Co16  1  0.500050  0.750018  0.250080  1
  Co  Co17  1  0.500050  0.249969  0.750031  1
  Co  Co18  1  0.234493  0.151874  0.082621  1
  Co  Co19  1  0.765500  0.848237  0.917261  1
