# generated using pymatgen
data_CeDy3AlRu
_symmetry_space_group_name_H-M   'P 1'
_cell_length_a   9.52217590
_cell_length_b   9.52217979
_cell_length_c   9.52225400
_cell_angle_alpha   60.00118731
_cell_angle_beta   60.00113443
_cell_angle_gamma   60.00081487
_symmetry_Int_Tables_number   1
_chemical_formula_structural   CeDy3AlRu
_chemical_formula_sum   'Ce4 Dy12 Al4 Ru4'
_cell_volume   610.53088132
_cell_formula_units_Z   4
loop_
 _symmetry_equiv_pos_site_id
 _symmetry_equiv_pos_as_xyz
  1  'x, y, z'
loop_
 _atom_site_type_symbol
 _atom_site_label
 _atom_site_symmetry_multiplicity
 _atom_site_fract_x
 _atom_site_fract_y
 _atom_site_fract_z
 _atom_site_occupancy
  Ce  Ce0  1  0.598427  0.598428  0.598427  1
  Ce  Ce1  1  0.598427  0.598428  0.204717  1
  Ce  Ce2  1  0.598428  0.204716  0.598427  1
  Ce  Ce3  1  0.204717  0.598428  0.598427  1
  Dy  Dy4  1  0.057732  0.442268  0.442268  1
  Dy  Dy5  1  0.442268  0.057731  0.057732  1
  Dy  Dy6  1  0.442268  0.057732  0.442268  1
  Dy  Dy7  1  0.057732  0.442268  0.057732  1
  Dy  Dy8  1  0.442268  0.442268  0.057733  1
  Dy  Dy9  1  0.057732  0.057732  0.442268  1
  Dy  Dy10  1  0.188046  0.811954  0.811954  1
  Dy  Dy11  1  0.811954  0.188047  0.188047  1
  Dy  Dy12  1  0.811954  0.188046  0.811954  1
  Dy  Dy13  1  0.188046  0.811954  0.188046  1
  Dy  Dy14  1  0.811954  0.811954  0.188046  1
  Dy  Dy15  1  0.188047  0.188047  0.811954  1
  Al  Al16  1  0.827463  0.827463  0.827463  1
  Al  Al17  1  0.827463  0.827463  0.517610  1
  Al  Al18  1  0.827463  0.517610  0.827463  1
  Al  Al19  1  0.517609  0.827463  0.827463  1
  Ru  Ru20  1  0.394142  0.394142  0.394142  1
  Ru  Ru21  1  0.394142  0.394142  0.817575  1
  Ru  Ru22  1  0.394142  0.817575  0.394142  1
  Ru  Ru23  1  0.817575  0.394142  0.394142  1
