# generated using pymatgen
data_SmY3(MoO6)2
_symmetry_space_group_name_H-M   'P 1'
_cell_length_a   5.41557900
_cell_length_b   7.74767786
_cell_length_c   11.52071140
_cell_angle_alpha   75.61446496
_cell_angle_beta   90.00000000
_cell_angle_gamma   90.00000000
_symmetry_Int_Tables_number   1
_chemical_formula_structural   SmY3(MoO6)2
_chemical_formula_sum   'Sm2 Y6 Mo4 O24'
_cell_volume   468.23168514
_cell_formula_units_Z   2
loop_
 _symmetry_equiv_pos_site_id
 _symmetry_equiv_pos_as_xyz
  1  'x, y, z'
loop_
 _atom_site_type_symbol
 _atom_site_label
 _atom_site_symmetry_multiplicity
 _atom_site_fract_x
 _atom_site_fract_y
 _atom_site_fract_z
 _atom_site_occupancy
  Sm  Sm0  1  0.318445  0.500000  0.750000  1
  Sm  Sm1  1  0.681555  0.500000  0.250000  1
  Y  Y2  1  0.185096  0.798839  0.077767  1
  Y  Y3  1  0.261614  0.000000  0.750000  1
  Y  Y4  1  0.738386  0.000000  0.250000  1
  Y  Y5  1  0.185096  0.201161  0.422233  1
  Y  Y6  1  0.814904  0.201161  0.922233  1
  Y  Y7  1  0.814904  0.798839  0.577767  1
  Mo  Mo8  1  0.746530  0.723570  0.886003  1
  Mo  Mo9  1  0.253470  0.723570  0.386003  1
  Mo  Mo10  1  0.746530  0.276430  0.613997  1
  Mo  Mo11  1  0.253470  0.276430  0.113997  1
  O  O12  1  0.848170  0.362303  0.453614  1
  O  O13  1  0.473099  0.847612  0.929644  1
  O  O14  1  0.848170  0.637697  0.046386  1
  O  O15  1  0.012691  0.284630  0.729846  1
  O  O16  1  0.987309  0.284630  0.229846  1
  O  O17  1  0.151830  0.362303  0.953614  1
  O  O18  1  0.649984  0.492579  0.887142  1
  O  O19  1  0.526901  0.152388  0.070356  1
  O  O20  1  0.151830  0.637697  0.546386  1
  O  O21  1  0.012691  0.715370  0.770154  1
  O  O22  1  0.462433  0.211292  0.273737  1
  O  O23  1  0.037179  0.938628  0.396930  1
  O  O24  1  0.473099  0.152388  0.570356  1
  O  O25  1  0.987309  0.715370  0.270154  1
  O  O26  1  0.962821  0.061372  0.603070  1
  O  O27  1  0.537567  0.211292  0.773737  1
  O  O28  1  0.537567  0.788708  0.726263  1
  O  O29  1  0.037179  0.061372  0.103070  1
  O  O30  1  0.649984  0.507421  0.612858  1
  O  O31  1  0.350016  0.507421  0.112858  1
  O  O32  1  0.462433  0.788708  0.226263  1
  O  O33  1  0.350016  0.492579  0.387142  1
  O  O34  1  0.526901  0.847612  0.429644  1
  O  O35  1  0.962821  0.938628  0.896930  1
