# generated using pymatgen
data_Dy4Er4Tm4InCo5
_symmetry_space_group_name_H-M   'P 1'
_cell_length_a   8.20329785
_cell_length_b   8.20329762
_cell_length_c   8.20329782
_cell_angle_alpha   110.95040348
_cell_angle_beta   110.67169981
_cell_angle_gamma   106.82368146
_symmetry_Int_Tables_number   1
_chemical_formula_structural   Dy4Er4Tm4InCo5
_chemical_formula_sum   'Dy4 Er4 Tm4 In1 Co5'
_cell_volume   424.27641435
_cell_formula_units_Z   1
loop_
 _symmetry_equiv_pos_site_id
 _symmetry_equiv_pos_as_xyz
  1  'x, y, z'
loop_
 _atom_site_type_symbol
 _atom_site_label
 _atom_site_symmetry_multiplicity
 _atom_site_fract_x
 _atom_site_fract_y
 _atom_site_fract_z
 _atom_site_occupancy
  Dy  Dy0  1  0.290146  0.186898  0.477044  1
  Dy  Dy1  1  0.709854  0.813102  0.522956  1
  Dy  Dy2  1  0.290146  0.813102  0.103250  1
  Dy  Dy3  1  0.709854  0.186898  0.896750  1
  Er  Er4  1  0.210973  0.402600  0.191626  1
  Er  Er5  1  0.789027  0.597400  0.808374  1
  Er  Er6  1  0.210973  0.019346  0.808374  1
  Er  Er7  1  0.789027  0.980654  0.191626  1
  Tm  Tm8  1  0.621015  0.314668  0.306347  1
  Tm  Tm9  1  0.378985  0.685332  0.693653  1
  Tm  Tm10  1  0.008323  0.314668  0.693653  1
  Tm  Tm11  1  0.991677  0.685332  0.306347  1
  In  In12  1  0.500000  0.500000  0.000000  1
  Co  Co13  1  0.000000  0.377693  0.377693  1
  Co  Co14  1  0.000000  0.622307  0.622307  1
  Co  Co15  1  0.386753  0.886753  0.500000  1
  Co  Co16  1  0.613247  0.113247  0.500000  1
  Co  Co17  1  0.000000  0.000000  0.000000  1
