# generated using pymatgen
data_Ho13Er3In4RuRh3
_symmetry_space_group_name_H-M   'P 1'
_cell_length_a   9.62148987
_cell_length_b   9.61753565
_cell_length_c   9.62225031
_cell_angle_alpha   59.89526965
_cell_angle_beta   59.84288371
_cell_angle_gamma   59.92325348
_symmetry_Int_Tables_number   1
_chemical_formula_structural   Ho13Er3In4RuRh3
_chemical_formula_sum   'Ho13 Er3 In4 Ru1 Rh3'
_cell_volume   627.99155779
_cell_formula_units_Z   1
loop_
 _symmetry_equiv_pos_site_id
 _symmetry_equiv_pos_as_xyz
  1  'x, y, z'
loop_
 _atom_site_type_symbol
 _atom_site_label
 _atom_site_symmetry_multiplicity
 _atom_site_fract_x
 _atom_site_fract_y
 _atom_site_fract_z
 _atom_site_occupancy
  Ho  Ho0  1  0.188298  0.192575  0.810591  1
  Ho  Ho1  1  0.438401  0.060903  0.061493  1
  Ho  Ho2  1  0.438341  0.061315  0.437838  1
  Ho  Ho3  1  0.059740  0.438249  0.059310  1
  Ho  Ho4  1  0.649339  0.049578  0.649553  1
  Ho  Ho5  1  0.191756  0.809328  0.809704  1
  Ho  Ho6  1  0.061309  0.060485  0.438637  1
  Ho  Ho7  1  0.810189  0.192808  0.188441  1
  Ho  Ho8  1  0.809519  0.809680  0.191694  1
  Ho  Ho9  1  0.649392  0.649090  0.048655  1
  Ho  Ho10  1  0.652084  0.649648  0.651762  1
  Ho  Ho11  1  0.060783  0.436742  0.441357  1
  Ho  Ho12  1  0.048577  0.648892  0.649422  1
  Er  Er13  1  0.809147  0.193745  0.809887  1
  Er  Er14  1  0.442370  0.437171  0.059938  1
  Er  Er15  1  0.190663  0.810084  0.190609  1
  In  In16  1  0.417864  0.747304  0.417820  1
  In  In17  1  0.416977  0.416608  0.749850  1
  In  In18  1  0.749449  0.416517  0.417253  1
  In  In19  1  0.416786  0.417071  0.416768  1
  Ru  Ru20  1  0.857256  0.425907  0.857688  1
  Rh  Rh21  1  0.858694  0.858440  0.424553  1
  Rh  Rh22  1  0.424737  0.858044  0.858846  1
  Rh  Rh23  1  0.858331  0.859813  0.858335  1
