# generated using pymatgen
data_Hf12ZrUPt20
_symmetry_space_group_name_H-M   'P 1'
_cell_length_a   8.21350674
_cell_length_b   8.21178143
_cell_length_c   9.65205079
_cell_angle_alpha   90.05482436
_cell_angle_beta   90.05488348
_cell_angle_gamma   107.75791407
_symmetry_Int_Tables_number   1
_chemical_formula_structural   Hf12ZrUPt20
_chemical_formula_sum   'Hf12 Zr1 U1 Pt20'
_cell_volume   619.98800842
_cell_formula_units_Z   1
loop_
 _symmetry_equiv_pos_site_id
 _symmetry_equiv_pos_as_xyz
  1  'x, y, z'
loop_
 _atom_site_type_symbol
 _atom_site_label
 _atom_site_symmetry_multiplicity
 _atom_site_fract_x
 _atom_site_fract_y
 _atom_site_fract_z
 _atom_site_occupancy
  Hf  Hf0  1  0.311439  0.688739  0.000031  1
  Hf  Hf1  1  0.810562  0.189055  0.499804  1
  Hf  Hf2  1  0.188617  0.811552  0.499994  1
  Hf  Hf3  1  0.000815  0.001263  0.999963  1
  Hf  Hf4  1  0.500479  0.499563  0.501277  1
  Hf  Hf5  1  0.004301  0.502721  0.252972  1
  Hf  Hf6  1  0.002626  0.502105  0.747092  1
  Hf  Hf7  1  0.497292  0.997118  0.747793  1
  Hf  Hf8  1  0.497977  0.998809  0.253743  1
  Hf  Hf9  1  0.313554  0.317480  0.185513  1
  Hf  Hf10  1  0.683052  0.687007  0.814601  1
  Hf  Hf11  1  0.181968  0.181783  0.681065  1
  Zr  Zr12  1  0.814194  0.814163  0.315919  1
  U  U13  1  0.690192  0.309979  0.000054  1
  Pt  Pt14  1  0.850575  0.143207  0.209555  1
  Pt  Pt15  1  0.149971  0.858366  0.791021  1
  Pt  Pt16  1  0.649679  0.356150  0.709580  1
  Pt  Pt17  1  0.644155  0.352437  0.291372  1
  Pt  Pt18  1  0.351405  0.642179  0.292272  1
  Pt  Pt19  1  0.357946  0.650181  0.708731  1
  Pt  Pt20  1  0.859717  0.150088  0.790171  1
  Pt  Pt21  1  0.144082  0.850398  0.208701  1
  Pt  Pt22  1  0.937519  0.645216  0.997838  1
  Pt  Pt23  1  0.063128  0.355605  0.004010  1
  Pt  Pt24  1  0.562010  0.854684  0.498442  1
  Pt  Pt25  1  0.146443  0.436381  0.503118  1
  Pt  Pt26  1  0.436777  0.145838  0.503105  1
  Pt  Pt27  1  0.855529  0.561975  0.498623  1
  Pt  Pt28  1  0.355922  0.062710  0.002934  1
  Pt  Pt29  1  0.645751  0.937429  0.996655  1
  Pt  Pt30  1  0.108181  0.107432  0.392427  1
  Pt  Pt31  1  0.892241  0.891613  0.607631  1
  Pt  Pt32  1  0.388628  0.390968  0.890048  1
  Pt  Pt33  1  0.603279  0.605808  0.103942  1
