# generated using pymatgen
data_DyScNb2(SbRh)4
_symmetry_space_group_name_H-M   'P 1'
_cell_length_a   6.32123622
_cell_length_b   4.46617300
_cell_length_c   8.92684801
_cell_angle_alpha   90.00000000
_cell_angle_beta   90.14031552
_cell_angle_gamma   90.00000000
_symmetry_Int_Tables_number   1
_chemical_formula_structural   DyScNb2(SbRh)4
_chemical_formula_sum   'Dy1 Sc1 Nb2 Sb4 Rh4'
_cell_volume   252.01964739
_cell_formula_units_Z   1
loop_
 _symmetry_equiv_pos_site_id
 _symmetry_equiv_pos_as_xyz
  1  'x, y, z'
loop_
 _atom_site_type_symbol
 _atom_site_label
 _atom_site_symmetry_multiplicity
 _atom_site_fract_x
 _atom_site_fract_y
 _atom_site_fract_z
 _atom_site_occupancy
  Dy  Dy0  1  0.005338  0.000000  0.375744  1
  Sc  Sc1  1  0.506176  0.500000  0.623909  1
  Nb  Nb2  1  0.496063  0.500000  0.123669  1
  Nb  Nb3  1  0.994050  0.000000  0.876098  1
  Sb  Sb4  1  0.989650  0.500000  0.123264  1
  Sb  Sb5  1  0.510181  0.000000  0.377756  1
  Sb  Sb6  1  0.008560  0.500000  0.628210  1
  Sb  Sb7  1  0.486075  0.000000  0.871065  1
  Rh  Rh8  1  0.734417  0.000000  0.110958  1
  Rh  Rh9  1  0.272327  0.500000  0.360800  1
  Rh  Rh10  1  0.759101  0.000000  0.643018  1
  Rh  Rh11  1  0.238063  0.500000  0.885503  1
