# generated using pymatgen
data_Pr3Al12Os3Pt
_symmetry_space_group_name_H-M   'P 1'
_cell_length_a   8.93825430
_cell_length_b   8.93825379
_cell_length_c   9.67721700
_cell_angle_alpha   90.00000000
_cell_angle_beta   90.00000000
_cell_angle_gamma   119.40054234
_symmetry_Int_Tables_number   1
_chemical_formula_structural   Pr3Al12Os3Pt
_chemical_formula_sum   'Pr6 Al24 Os6 Pt2'
_cell_volume   673.56312471
_cell_formula_units_Z   2
loop_
 _symmetry_equiv_pos_site_id
 _symmetry_equiv_pos_as_xyz
  1  'x, y, z'
loop_
 _atom_site_type_symbol
 _atom_site_label
 _atom_site_symmetry_multiplicity
 _atom_site_fract_x
 _atom_site_fract_y
 _atom_site_fract_z
 _atom_site_occupancy
  Pr  Pr0  1  0.185371  0.382165  0.250000  1
  Pr  Pr1  1  0.814629  0.617835  0.750000  1
  Pr  Pr2  1  0.617835  0.814629  0.250000  1
  Pr  Pr3  1  0.382165  0.185371  0.750000  1
  Pr  Pr4  1  0.192011  0.807989  0.250000  1
  Pr  Pr5  1  0.807989  0.192011  0.750000  1
  Al  Al6  1  0.330663  0.669337  0.012960  1
  Al  Al7  1  0.669337  0.330663  0.987040  1
  Al  Al8  1  0.669337  0.330663  0.512960  1
  Al  Al9  1  0.330663  0.669337  0.487040  1
  Al  Al10  1  0.157912  0.324136  0.575212  1
  Al  Al11  1  0.842088  0.675864  0.424788  1
  Al  Al12  1  0.675864  0.842088  0.575212  1
  Al  Al13  1  0.842088  0.675864  0.075212  1
  Al  Al14  1  0.324136  0.157912  0.424788  1
  Al  Al15  1  0.157912  0.324136  0.924788  1
  Al  Al16  1  0.163810  0.836190  0.573185  1
  Al  Al17  1  0.324136  0.157912  0.075212  1
  Al  Al18  1  0.836190  0.163810  0.426815  1
  Al  Al19  1  0.675864  0.842088  0.924788  1
  Al  Al20  1  0.836190  0.163810  0.073185  1
  Al  Al21  1  0.163810  0.836190  0.926815  1
  Al  Al22  1  0.561495  0.125360  0.250000  1
  Al  Al23  1  0.438505  0.874640  0.750000  1
  Al  Al24  1  0.874640  0.438505  0.250000  1
  Al  Al25  1  0.125360  0.561495  0.750000  1
  Al  Al26  1  0.563653  0.436347  0.250000  1
  Al  Al27  1  0.436347  0.563653  0.750000  1
  Al  Al28  1  0.998630  0.001370  0.250000  1
  Al  Al29  1  0.001370  0.998630  0.750000  1
  Os  Os30  1  0.500000  0.000000  0.000000  1
  Os  Os31  1  0.000000  0.500000  0.000000  1
  Os  Os32  1  0.500000  0.000000  0.500000  1
  Os  Os33  1  0.000000  0.500000  0.500000  1
  Os  Os34  1  0.000000  0.000000  0.000000  1
  Os  Os35  1  0.000000  0.000000  0.500000  1
  Pt  Pt36  1  0.500000  0.500000  0.000000  1
  Pt  Pt37  1  0.500000  0.500000  0.500000  1
