# generated using pymatgen
data_Y9Lu(In2Rh)4
_symmetry_space_group_name_H-M   'P 1'
_cell_length_a   3.63778100
_cell_length_b   8.03633667
_cell_length_c   18.30288373
_cell_angle_alpha   89.97923423
_cell_angle_beta   90.00000000
_cell_angle_gamma   90.00000000
_symmetry_Int_Tables_number   1
_chemical_formula_structural   Y9Lu(In2Rh)4
_chemical_formula_sum   'Y9 Lu1 In8 Rh4'
_cell_volume   535.07439010
_cell_formula_units_Z   1
loop_
 _symmetry_equiv_pos_site_id
 _symmetry_equiv_pos_as_xyz
  1  'x, y, z'
loop_
 _atom_site_type_symbol
 _atom_site_label
 _atom_site_symmetry_multiplicity
 _atom_site_fract_x
 _atom_site_fract_y
 _atom_site_fract_z
 _atom_site_occupancy
  Y  Y0  1  0.000000  0.121438  0.912261  1
  Y  Y1  1  0.000000  0.752172  0.779791  1
  Y  Y2  1  0.000000  0.621538  0.588733  1
  Y  Y3  1  0.000000  0.253044  0.722250  1
  Y  Y4  1  0.000000  0.378546  0.410931  1
  Y  Y5  1  0.000000  0.248205  0.219331  1
  Y  Y6  1  0.000000  0.000075  0.499494  1
  Y  Y7  1  0.000000  0.747194  0.277843  1
  Y  Y8  1  0.000000  0.500300  0.000960  1
  Lu  Lu9  1  0.000000  0.879044  0.090036  1
  In  In10  1  0.500000  0.798027  0.934183  1
  In  In11  1  0.500000  0.568236  0.149977  1
  In  In12  1  0.500000  0.436282  0.850936  1
  In  In13  1  0.500000  0.066093  0.347536  1
  In  In14  1  0.500000  0.295948  0.568808  1
  In  In15  1  0.500000  0.934880  0.651045  1
  In  In16  1  0.500000  0.704118  0.431003  1
  In  In17  1  0.500000  0.198644  0.067041  1
  Rh  Rh18  1  0.500000  0.528919  0.696239  1
  Rh  Rh19  1  0.500000  0.470477  0.303676  1
  Rh  Rh20  1  0.500000  0.027106  0.805538  1
  Rh  Rh21  1  0.500000  0.969711  0.192391  1
