# generated using pymatgen
data_Nd5Y11Cd4IrRu3
_symmetry_space_group_name_H-M   'P 1'
_cell_length_a   9.77644257
_cell_length_b   9.78418171
_cell_length_c   9.78418243
_cell_angle_alpha   59.62927257
_cell_angle_beta   59.65368172
_cell_angle_gamma   59.65368250
_symmetry_Int_Tables_number   1
_chemical_formula_structural   Nd5Y11Cd4IrRu3
_chemical_formula_sum   'Nd5 Y11 Cd4 Ir1 Ru3'
_cell_volume   656.45180272
_cell_formula_units_Z   1
loop_
 _symmetry_equiv_pos_site_id
 _symmetry_equiv_pos_as_xyz
  1  'x, y, z'
loop_
 _atom_site_type_symbol
 _atom_site_label
 _atom_site_symmetry_multiplicity
 _atom_site_fract_x
 _atom_site_fract_y
 _atom_site_fract_z
 _atom_site_occupancy
  Nd  Nd0  1  0.558443  0.941491  0.941491  1
  Nd  Nd1  1  0.560038  0.938123  0.561616  1
  Nd  Nd2  1  0.941251  0.558082  0.939944  1
  Nd  Nd3  1  0.560038  0.561616  0.938123  1
  Nd  Nd4  1  0.941251  0.939944  0.558082  1
  Y  Y5  1  0.346019  0.347519  0.347519  1
  Y  Y6  1  0.345051  0.347462  0.961416  1
  Y  Y7  1  0.345051  0.961416  0.347462  1
  Y  Y8  1  0.962198  0.346512  0.346512  1
  Y  Y9  1  0.812792  0.187713  0.187713  1
  Y  Y10  1  0.186546  0.812760  0.812760  1
  Y  Y11  1  0.186938  0.810991  0.188585  1
  Y  Y12  1  0.813485  0.189658  0.810029  1
  Y  Y13  1  0.186938  0.188585  0.810991  1
  Y  Y14  1  0.813485  0.810029  0.189658  1
  Y  Y15  1  0.940783  0.558389  0.558389  1
  Cd  Cd16  1  0.581879  0.578467  0.578467  1
  Cd  Cd17  1  0.578897  0.579200  0.261798  1
  Cd  Cd18  1  0.578897  0.261798  0.579200  1
  Cd  Cd19  1  0.259874  0.578741  0.578741  1
  Ir  Ir20  1  0.578499  0.140724  0.140724  1
  Ru  Ru21  1  0.140741  0.138974  0.138974  1
  Ru  Ru22  1  0.140450  0.142017  0.579784  1
  Ru  Ru23  1  0.140450  0.579784  0.142017  1
