# generated using pymatgen
data_Ho(LuSe2)2
_symmetry_space_group_name_H-M   'P 1'
_cell_length_a   4.00394000
_cell_length_b   6.89131987
_cell_length_c   6.93601262
_cell_angle_alpha   71.66678107
_cell_angle_beta   90.00000000
_cell_angle_gamma   90.00000000
_symmetry_Int_Tables_number   1
_chemical_formula_structural   Ho(LuSe2)2
_chemical_formula_sum   'Ho1 Lu2 Se4'
_cell_volume   181.66755520
_cell_formula_units_Z   1
loop_
 _symmetry_equiv_pos_site_id
 _symmetry_equiv_pos_as_xyz
  1  'x, y, z'
loop_
 _atom_site_type_symbol
 _atom_site_label
 _atom_site_symmetry_multiplicity
 _atom_site_fract_x
 _atom_site_fract_y
 _atom_site_fract_z
 _atom_site_occupancy
  Ho  Ho0  1  0.000000  0.500000  0.500000  1
  Lu  Lu1  1  0.000000  0.000000  0.000000  1
  Lu  Lu2  1  0.500000  0.500000  0.000000  1
  Se  Se3  1  0.500000  0.758157  0.250067  1
  Se  Se4  1  0.000000  0.253787  0.242494  1
  Se  Se5  1  0.500000  0.241843  0.749933  1
  Se  Se6  1  0.000000  0.746213  0.757506  1
