# generated using pymatgen
data_MoO2F
_symmetry_space_group_name_H-M   'P 1'
_cell_length_a   5.59173096
_cell_length_b   5.62786603
_cell_length_c   7.60945820
_cell_angle_alpha   89.99305082
_cell_angle_beta   90.31568720
_cell_angle_gamma   90.15285367
_symmetry_Int_Tables_number   1
_chemical_formula_structural   MoO2F
_chemical_formula_sum   'Mo4 O8 F4'
_cell_volume   239.46145289
_cell_formula_units_Z   4
loop_
 _symmetry_equiv_pos_site_id
 _symmetry_equiv_pos_as_xyz
  1  'x, y, z'
loop_
 _atom_site_type_symbol
 _atom_site_label
 _atom_site_symmetry_multiplicity
 _atom_site_fract_x
 _atom_site_fract_y
 _atom_site_fract_z
 _atom_site_occupancy
  Mo  Mo0  1  0.469865  0.032789  0.999323  1
  Mo  Mo1  1  0.971424  0.482260  0.000462  1
  Mo  Mo2  1  0.029873  0.532861  0.500660  1
  Mo  Mo3  1  0.528726  0.982174  0.499541  1
  O  O4  1  0.298278  0.703810  0.518916  1
  O  O5  1  0.798093  0.776233  0.480136  1
  O  O6  1  0.201903  0.203693  0.981110  1
  O  O7  1  0.701938  0.276264  0.019899  1
  O  O8  1  0.034324  0.502492  0.242012  1
  O  O9  1  0.534935  0.006942  0.744841  1
  O  O10  1  0.465688  0.002440  0.257995  1
  O  O11  1  0.965056  0.506870  0.755148  1
  F  F12  1  0.747229  0.278999  0.478810  1
  F  F13  1  0.224722  0.216511  0.522332  1
  F  F14  1  0.752682  0.779063  0.021179  1
  F  F15  1  0.275263  0.716597  0.977634  1
