# generated using pymatgen
data_K4Ca(TaSe4)2
_symmetry_space_group_name_H-M   'P 1'
_cell_length_a   9.94045347
_cell_length_b   10.06631028
_cell_length_c   12.05658500
_cell_angle_alpha   105.47825630
_cell_angle_beta   103.40433580
_cell_angle_gamma   93.78179681
_symmetry_Int_Tables_number   1
_chemical_formula_structural   K4Ca(TaSe4)2
_chemical_formula_sum   'K8 Ca2 Ta4 Se16'
_cell_volume   1120.43589219
_cell_formula_units_Z   2
loop_
 _symmetry_equiv_pos_site_id
 _symmetry_equiv_pos_as_xyz
  1  'x, y, z'
loop_
 _atom_site_type_symbol
 _atom_site_label
 _atom_site_symmetry_multiplicity
 _atom_site_fract_x
 _atom_site_fract_y
 _atom_site_fract_z
 _atom_site_occupancy
  K  K0  1  0.953928  0.525860  0.265211  1
  K  K1  1  0.046072  0.474140  0.734789  1
  K  K2  1  0.771166  0.022143  0.481882  1
  K  K3  1  0.228834  0.977857  0.518118  1
  K  K4  1  0.610083  0.742703  0.035948  1
  K  K5  1  0.389917  0.257297  0.964052  1
  K  K6  1  0.626040  0.674261  0.611703  1
  K  K7  1  0.373960  0.325739  0.388297  1
  Ca  Ca8  1  0.850562  0.143500  0.924528  1
  Ca  Ca9  1  0.149438  0.856500  0.075472  1
  Ta  Ta10  1  0.957096  0.110295  0.233699  1
  Ta  Ta11  1  0.042904  0.889705  0.766301  1
  Ta  Ta12  1  0.379109  0.677975  0.258487  1
  Ta  Ta13  1  0.620891  0.322025  0.741513  1
  Se  Se14  1  0.954636  0.869284  0.235285  1
  Se  Se15  1  0.045364  0.130716  0.764715  1
  Se  Se16  1  0.580409  0.075370  0.726311  1
  Se  Se17  1  0.419591  0.924630  0.273689  1
  Se  Se18  1  0.299588  0.649471  0.427170  1
  Se  Se19  1  0.700412  0.350529  0.572830  1
  Se  Se20  1  0.800032  0.429011  0.926027  1
  Se  Se21  1  0.199968  0.570989  0.073973  1
  Se  Se22  1  0.031255  0.257388  0.434040  1
  Se  Se23  1  0.968745  0.742612  0.565960  1
  Se  Se24  1  0.122954  0.165128  0.126049  1
  Se  Se25  1  0.877046  0.834872  0.873951  1
  Se  Se26  1  0.730577  0.147756  0.129688  1
  Se  Se27  1  0.269423  0.852244  0.870312  1
  Se  Se28  1  0.586708  0.570518  0.252331  1
  Se  Se29  1  0.413292  0.429482  0.747669  1
