# generated using pymatgen
data_La4YLuSi4
_symmetry_space_group_name_H-M   'P 1'
_cell_length_a   7.64818600
_cell_length_b   7.64818600
_cell_length_c   4.53708200
_cell_angle_alpha   90.00000000
_cell_angle_beta   90.00000000
_cell_angle_gamma   90.00000000
_symmetry_Int_Tables_number   1
_chemical_formula_structural   La4YLuSi4
_chemical_formula_sum   'La4 Y1 Lu1 Si4'
_cell_volume   265.39547319
_cell_formula_units_Z   1
loop_
 _symmetry_equiv_pos_site_id
 _symmetry_equiv_pos_as_xyz
  1  'x, y, z'
loop_
 _atom_site_type_symbol
 _atom_site_label
 _atom_site_symmetry_multiplicity
 _atom_site_fract_x
 _atom_site_fract_y
 _atom_site_fract_z
 _atom_site_occupancy
  La  La0  1  0.675708  0.178801  0.500000  1
  La  La1  1  0.324292  0.821199  0.500000  1
  La  La2  1  0.178801  0.324292  0.500000  1
  La  La3  1  0.821199  0.675708  0.500000  1
  Y  Y4  1  0.000000  0.000000  0.000000  1
  Lu  Lu5  1  0.500000  0.500000  0.000000  1
  Si  Si6  1  0.113911  0.614116  0.000000  1
  Si  Si7  1  0.886089  0.385884  0.000000  1
  Si  Si8  1  0.614116  0.886089  0.000000  1
  Si  Si9  1  0.385884  0.113911  0.000000  1
