# generated using pymatgen
data_La2NdAlC3
_symmetry_space_group_name_H-M   'P 1'
_cell_length_a   3.83112200
_cell_length_b   7.61437381
_cell_length_c   10.29771197
_cell_angle_alpha   89.18450518
_cell_angle_beta   90.00000000
_cell_angle_gamma   90.00000000
_symmetry_Int_Tables_number   1
_chemical_formula_structural   La2NdAlC3
_chemical_formula_sum   'La4 Nd2 Al2 C6'
_cell_volume   300.37025609
_cell_formula_units_Z   2
loop_
 _symmetry_equiv_pos_site_id
 _symmetry_equiv_pos_as_xyz
  1  'x, y, z'
loop_
 _atom_site_type_symbol
 _atom_site_label
 _atom_site_symmetry_multiplicity
 _atom_site_fract_x
 _atom_site_fract_y
 _atom_site_fract_z
 _atom_site_occupancy
  La  La0  1  0.500000  0.515503  0.190032  1
  La  La1  1  0.500000  0.484497  0.809968  1
  La  La2  1  0.000000  0.751252  0.461929  1
  La  La3  1  0.000000  0.248748  0.538071  1
  Nd  Nd4  1  0.500000  0.988756  0.195957  1
  Nd  Nd5  1  0.500000  0.011244  0.804043  1
  Al  Al6  1  0.000000  0.769401  0.011240  1
  Al  Al7  1  0.000000  0.230599  0.988760  1
  C  C8  1  0.500000  0.504945  0.563773  1
  C  C9  1  0.500000  0.495055  0.436227  1
  C  C10  1  0.500000  0.992959  0.563781  1
  C  C11  1  0.500000  0.007041  0.436219  1
  C  C12  1  0.000000  0.755354  0.208061  1
  C  C13  1  0.000000  0.244646  0.791939  1
