# generated using pymatgen
data_La5Nd6Dy5(CdIr)4
_symmetry_space_group_name_H-M   'P 1'
_cell_length_a   9.91594142
_cell_length_b   9.92161505
_cell_length_c   9.92161490
_cell_angle_alpha   59.80469883
_cell_angle_beta   60.01891412
_cell_angle_gamma   60.01891302
_symmetry_Int_Tables_number   1
_chemical_formula_structural   La5Nd6Dy5(CdIr)4
_chemical_formula_sum   'La5 Nd6 Dy5 Cd4 Ir4'
_cell_volume   689.38576081
_cell_formula_units_Z   1
loop_
 _symmetry_equiv_pos_site_id
 _symmetry_equiv_pos_as_xyz
  1  'x, y, z'
loop_
 _atom_site_type_symbol
 _atom_site_label
 _atom_site_symmetry_multiplicity
 _atom_site_fract_x
 _atom_site_fract_y
 _atom_site_fract_z
 _atom_site_occupancy
  La  La0  1  0.345742  0.351058  0.351058  1
  La  La1  1  0.349960  0.349368  0.950710  1
  La  La2  1  0.349960  0.950710  0.349368  1
  La  La3  1  0.952141  0.351058  0.351058  1
  La  La4  1  0.814690  0.185310  0.185310  1
  Nd  Nd5  1  0.937971  0.562029  0.562029  1
  Nd  Nd6  1  0.561210  0.938790  0.938790  1
  Nd  Nd7  1  0.559580  0.937288  0.562890  1
  Nd  Nd8  1  0.940242  0.562890  0.937288  1
  Nd  Nd9  1  0.559580  0.562890  0.937288  1
  Nd  Nd10  1  0.940242  0.937288  0.562890  1
  Dy  Dy11  1  0.185288  0.814712  0.814712  1
  Dy  Dy12  1  0.189733  0.811100  0.184998  1
  Dy  Dy13  1  0.814168  0.184998  0.811100  1
  Dy  Dy14  1  0.189733  0.184998  0.811100  1
  Dy  Dy15  1  0.814168  0.811100  0.184998  1
  Cd  Cd16  1  0.580564  0.580224  0.580224  1
  Cd  Cd17  1  0.579278  0.582752  0.258691  1
  Cd  Cd18  1  0.579278  0.258691  0.582752  1
  Cd  Cd19  1  0.258987  0.580224  0.580224  1
  Ir  Ir20  1  0.139596  0.140150  0.140150  1
  Ir  Ir21  1  0.138890  0.141048  0.581171  1
  Ir  Ir22  1  0.138890  0.581171  0.141048  1
  Ir  Ir23  1  0.580105  0.140150  0.140150  1
