# generated using pymatgen
data_LaPrMgPtO6
_symmetry_space_group_name_H-M   'P 1'
_cell_length_a   5.58762797
_cell_length_b   5.75662900
_cell_length_c   7.95194950
_cell_angle_alpha   90.00000000
_cell_angle_beta   89.79991008
_cell_angle_gamma   90.00000000
_symmetry_Int_Tables_number   1
_chemical_formula_structural   LaPrMgPtO6
_chemical_formula_sum   'La2 Pr2 Mg2 Pt2 O12'
_cell_volume   255.78006222
_cell_formula_units_Z   2
loop_
 _symmetry_equiv_pos_site_id
 _symmetry_equiv_pos_as_xyz
  1  'x, y, z'
loop_
 _atom_site_type_symbol
 _atom_site_label
 _atom_site_symmetry_multiplicity
 _atom_site_fract_x
 _atom_site_fract_y
 _atom_site_fract_z
 _atom_site_occupancy
  La  La0  1  0.012294  0.948832  0.749673  1
  La  La1  1  0.487706  0.448832  0.750327  1
  Pr  Pr2  1  0.514839  0.555290  0.249505  1
  Pr  Pr3  1  0.985163  0.055290  0.250495  1
  Mg  Mg4  1  0.499338  0.000865  0.001154  1
  Mg  Mg5  1  0.000663  0.500864  0.498846  1
  Pt  Pt6  1  0.000673  0.500119  0.000532  1
  Pt  Pt7  1  0.499327  0.000120  0.499468  1
  O  O8  1  0.708931  0.293893  0.051525  1
  O  O9  1  0.796946  0.789885  0.051986  1
  O  O10  1  0.095589  0.471676  0.247806  1
  O  O11  1  0.404411  0.971676  0.252195  1
  O  O12  1  0.703054  0.289886  0.448014  1
  O  O13  1  0.791069  0.793892  0.448475  1
  O  O14  1  0.205729  0.203850  0.547377  1
  O  O15  1  0.299421  0.708214  0.548478  1
  O  O16  1  0.591246  0.027374  0.748504  1
  O  O17  1  0.908754  0.527375  0.751496  1
  O  O18  1  0.200579  0.208213  0.951522  1
  O  O19  1  0.294272  0.703851  0.952623  1
