# generated using pymatgen
data_PrNd9(Si2Sn)2
_symmetry_space_group_name_H-M   'P 1'
_cell_length_a   7.92529977
_cell_length_b   9.15473321
_cell_length_c   7.92529977
_cell_angle_alpha   115.40591379
_cell_angle_beta   90.31190300
_cell_angle_gamma   115.40591379
_symmetry_Int_Tables_number   1
_chemical_formula_structural   PrNd9(Si2Sn)2
_chemical_formula_sum   'Pr1 Nd9 Si4 Sn2'
_cell_volume   456.34229403
_cell_formula_units_Z   1
loop_
 _symmetry_equiv_pos_site_id
 _symmetry_equiv_pos_as_xyz
  1  'x, y, z'
loop_
 _atom_site_type_symbol
 _atom_site_label
 _atom_site_symmetry_multiplicity
 _atom_site_fract_x
 _atom_site_fract_y
 _atom_site_fract_z
 _atom_site_occupancy
  Pr  Pr0  1  0.964286  0.280153  0.464286  1
  Nd  Nd1  1  0.999902  0.999676  0.999658  1
  Nd  Nd2  1  0.499658  0.999676  0.499902  1
  Nd  Nd3  1  0.535279  0.721377  0.686691  1
  Nd  Nd4  1  0.186691  0.721377  0.035279  1
  Nd  Nd5  1  0.685586  0.720956  0.185586  1
  Nd  Nd6  1  0.036522  0.721863  0.536522  1
  Nd  Nd7  1  0.464993  0.278645  0.313050  1
  Nd  Nd8  1  0.813050  0.278645  0.964993  1
  Nd  Nd9  1  0.314495  0.278891  0.814495  1
  Si  Si10  1  0.882732  0.999151  0.617463  1
  Si  Si11  1  0.117463  0.999151  0.382732  1
  Si  Si12  1  0.616266  0.998882  0.116266  1
  Si  Si13  1  0.382689  0.000301  0.882689  1
  Sn  Sn14  1  0.749221  0.500628  0.751168  1
  Sn  Sn15  1  0.251168  0.500628  0.249221  1
