# generated using pymatgen
data_Dy5Ho3(HfIr3)2
_symmetry_space_group_name_H-M   'P 1'
_cell_length_a   10.82772903
_cell_length_b   10.82459400
_cell_length_c   6.24781102
_cell_angle_alpha   90.00000000
_cell_angle_beta   90.00843584
_cell_angle_gamma   90.00000000
_symmetry_Int_Tables_number   1
_chemical_formula_structural   Dy5Ho3(HfIr3)2
_chemical_formula_sum   'Dy10 Ho6 Hf4 Ir12'
_cell_volume   732.27949739
_cell_formula_units_Z   2
loop_
 _symmetry_equiv_pos_site_id
 _symmetry_equiv_pos_as_xyz
  1  'x, y, z'
loop_
 _atom_site_type_symbol
 _atom_site_label
 _atom_site_symmetry_multiplicity
 _atom_site_fract_x
 _atom_site_fract_y
 _atom_site_fract_z
 _atom_site_occupancy
  Dy  Dy0  1  0.289205  0.086111  0.374771  1
  Dy  Dy1  1  0.289205  0.913889  0.874771  1
  Dy  Dy2  1  0.710788  0.086146  0.874827  1
  Dy  Dy3  1  0.710788  0.913854  0.374827  1
  Dy  Dy4  1  0.586150  0.789218  0.874820  1
  Dy  Dy5  1  0.586150  0.210782  0.374820  1
  Dy  Dy6  1  0.413932  0.789262  0.374867  1
  Dy  Dy7  1  0.413932  0.210738  0.874867  1
  Dy  Dy8  1  0.210570  0.413998  0.625140  1
  Dy  Dy9  1  0.210570  0.586002  0.125140  1
  Ho  Ho10  1  0.789568  0.414160  0.124935  1
  Ho  Ho11  1  0.789568  0.585840  0.624935  1
  Ho  Ho12  1  0.914064  0.710456  0.124954  1
  Ho  Ho13  1  0.914064  0.289544  0.624954  1
  Ho  Ho14  1  0.085733  0.710546  0.624943  1
  Ho  Ho15  1  0.085733  0.289454  0.124943  1
  Hf  Hf16  1  0.999976  0.000001  0.500204  1
  Hf  Hf17  1  0.999976  0.999999  0.000204  1
  Hf  Hf18  1  0.500166  0.499952  0.000157  1
  Hf  Hf19  1  0.500166  0.500048  0.500157  1
  Ir  Ir20  1  0.857022  0.143500  0.250108  1
  Ir  Ir21  1  0.857022  0.856500  0.750108  1
  Ir  Ir22  1  0.142938  0.143370  0.750181  1
  Ir  Ir23  1  0.142938  0.856630  0.250181  1
  Ir  Ir24  1  0.643504  0.357021  0.750126  1
  Ir  Ir25  1  0.643504  0.642979  0.250126  1
  Ir  Ir26  1  0.356695  0.356808  0.249912  1
  Ir  Ir27  1  0.356695  0.643192  0.749912  1
  Ir  Ir28  1  0.499998  0.000019  0.122370  1
  Ir  Ir29  1  0.499998  0.999981  0.622370  1
  Ir  Ir30  1  0.999690  0.499990  0.877684  1
  Ir  Ir31  1  0.999690  0.500010  0.377684  1
