# generated using pymatgen
data_Hf13Zr(Nb3Si8)2
_symmetry_space_group_name_H-M   'P 1'
_cell_length_a   6.97202445
_cell_length_b   6.97187401
_cell_length_c   12.79430883
_cell_angle_alpha   90.29013223
_cell_angle_beta   89.96655765
_cell_angle_gamma   89.97609534
_symmetry_Int_Tables_number   1
_chemical_formula_structural   Hf13Zr(Nb3Si8)2
_chemical_formula_sum   'Hf13 Zr1 Nb6 Si16'
_cell_volume   621.89860256
_cell_formula_units_Z   1
loop_
 _symmetry_equiv_pos_site_id
 _symmetry_equiv_pos_as_xyz
  1  'x, y, z'
loop_
 _atom_site_type_symbol
 _atom_site_label
 _atom_site_symmetry_multiplicity
 _atom_site_fract_x
 _atom_site_fract_y
 _atom_site_fract_z
 _atom_site_occupancy
  Hf  Hf0  1  0.002668  0.146927  0.126536  1
  Hf  Hf1  1  0.998698  0.853125  0.626203  1
  Hf  Hf2  1  0.645150  0.496868  0.876518  1
  Hf  Hf3  1  0.503087  0.353068  0.623651  1
  Hf  Hf4  1  0.498773  0.646558  0.123891  1
  Hf  Hf5  1  0.145072  0.002546  0.873563  1
  Hf  Hf6  1  0.998755  0.654268  0.033634  1
  Hf  Hf7  1  0.000755  0.345624  0.529540  1
  Hf  Hf8  1  0.654078  0.999794  0.969416  1
  Hf  Hf9  1  0.153680  0.500293  0.780828  1
  Hf  Hf10  1  0.846557  0.498330  0.282720  1
  Hf  Hf11  1  0.502123  0.154339  0.220123  1
  Hf  Hf12  1  0.499313  0.845252  0.716335  1
  Zr  Zr13  1  0.347393  0.003266  0.467091  1
  Nb  Nb14  1  0.354649  0.505075  0.375216  1
  Nb  Nb15  1  0.854150  0.995658  0.374424  1
  Nb  Nb16  1  0.674306  0.671954  0.498709  1
  Nb  Nb17  1  0.826909  0.174290  0.749570  1
  Nb  Nb18  1  0.173976  0.827402  0.251116  1
  Nb  Nb19  1  0.327298  0.325332  0.001007  1
  Si  Si20  1  0.048202  0.699080  0.434406  1
  Si  Si21  1  0.953922  0.303297  0.935893  1
  Si  Si22  1  0.701499  0.048012  0.563138  1
  Si  Si23  1  0.199604  0.452707  0.187081  1
  Si  Si24  1  0.802374  0.546796  0.684765  1
  Si  Si25  1  0.453630  0.196456  0.814458  1
  Si  Si26  1  0.549779  0.799626  0.314975  1
  Si  Si27  1  0.302683  0.953433  0.065497  1
  Si  Si28  1  0.852113  0.796479  0.821625  1
  Si  Si29  1  0.140004  0.209022  0.324508  1
  Si  Si30  1  0.795477  0.856111  0.179521  1
  Si  Si31  1  0.294813  0.642948  0.570216  1
  Si  Si32  1  0.702690  0.352794  0.072724  1
  Si  Si33  1  0.641540  0.292859  0.425098  1
  Si  Si34  1  0.351913  0.703049  0.928641  1
  Si  Si35  1  0.202367  0.147360  0.677363  1
