# generated using pymatgen
data_Y3Er2Tm5Cd3Co
_symmetry_space_group_name_H-M   'P 1'
_cell_length_a   9.52575039
_cell_length_b   9.52575034
_cell_length_c   9.64019119
_cell_angle_alpha   90.01108360
_cell_angle_beta   89.98891417
_cell_angle_gamma   119.97143077
_symmetry_Int_Tables_number   1
_chemical_formula_structural   Y3Er2Tm5Cd3Co
_chemical_formula_sum   'Y6 Er4 Tm10 Cd6 Co2'
_cell_volume   757.77385016
_cell_formula_units_Z   2
loop_
 _symmetry_equiv_pos_site_id
 _symmetry_equiv_pos_as_xyz
  1  'x, y, z'
loop_
 _atom_site_type_symbol
 _atom_site_label
 _atom_site_symmetry_multiplicity
 _atom_site_fract_x
 _atom_site_fract_y
 _atom_site_fract_z
 _atom_site_occupancy
  Y  Y0  1  0.541912  0.458088  0.249938  1
  Y  Y1  1  0.541669  0.083390  0.249364  1
  Y  Y2  1  0.916610  0.458331  0.249364  1
  Y  Y3  1  0.458410  0.541590  0.750070  1
  Y  Y4  1  0.457973  0.916695  0.750750  1
  Y  Y5  1  0.083305  0.542027  0.750750  1
  Er  Er6  1  0.211300  0.788700  0.435494  1
  Er  Er7  1  0.211087  0.422468  0.435451  1
  Er  Er8  1  0.577532  0.788913  0.435451  1
  Er  Er9  1  0.787897  0.212103  0.564501  1
  Tm  Tm10  1  0.000593  0.999407  0.500188  1
  Tm  Tm11  1  0.999718  0.000282  0.000107  1
  Tm  Tm12  1  0.788396  0.577644  0.564448  1
  Tm  Tm13  1  0.422356  0.211604  0.564448  1
  Tm  Tm14  1  0.788870  0.211130  0.936108  1
  Tm  Tm15  1  0.788345  0.576501  0.935714  1
  Tm  Tm16  1  0.423499  0.211655  0.935714  1
  Tm  Tm17  1  0.211710  0.788290  0.064123  1
  Tm  Tm18  1  0.212043  0.423223  0.064088  1
  Tm  Tm19  1  0.576777  0.787957  0.064088  1
  Cd  Cd20  1  0.886054  0.113946  0.250361  1
  Cd  Cd21  1  0.885994  0.771703  0.249463  1
  Cd  Cd22  1  0.228297  0.114006  0.249463  1
  Cd  Cd23  1  0.113873  0.886127  0.750682  1
  Cd  Cd24  1  0.114109  0.228298  0.750119  1
  Cd  Cd25  1  0.771702  0.885891  0.750119  1
  Co  Co26  1  0.333357  0.666643  0.249410  1
  Co  Co27  1  0.666611  0.333389  0.750226  1
