# generated using pymatgen
data_Pr2DyTm5(WO6)4
_symmetry_space_group_name_H-M   'P 1'
_cell_length_a   5.42631700
_cell_length_b   7.73959445
_cell_length_c   11.47639407
_cell_angle_alpha   75.59283452
_cell_angle_beta   90.00000000
_cell_angle_gamma   90.00000000
_symmetry_Int_Tables_number   1
_chemical_formula_structural   Pr2DyTm5(WO6)4
_chemical_formula_sum   'Pr2 Dy1 Tm5 W4 O24'
_cell_volume   466.82250430
_cell_formula_units_Z   1
loop_
 _symmetry_equiv_pos_site_id
 _symmetry_equiv_pos_as_xyz
  1  'x, y, z'
loop_
 _atom_site_type_symbol
 _atom_site_label
 _atom_site_symmetry_multiplicity
 _atom_site_fract_x
 _atom_site_fract_y
 _atom_site_fract_z
 _atom_site_occupancy
  Pr  Pr0  1  0.685299  0.500000  0.750000  1
  Pr  Pr1  1  0.313673  0.500000  0.250000  1
  Dy  Dy2  1  0.743171  0.000000  0.750000  1
  Tm  Tm3  1  0.257639  0.000000  0.250000  1
  Tm  Tm4  1  0.185891  0.797475  0.576681  1
  Tm  Tm5  1  0.814990  0.797834  0.077780  1
  Tm  Tm6  1  0.185891  0.202525  0.923319  1
  Tm  Tm7  1  0.814990  0.202166  0.422220  1
  W  W8  1  0.253321  0.728115  0.884851  1
  W  W9  1  0.746356  0.729595  0.383963  1
  W  W10  1  0.253321  0.271885  0.615149  1
  W  W11  1  0.746356  0.270405  0.116037  1
  O  O12  1  0.044262  0.942723  0.897691  1
  O  O13  1  0.536847  0.843019  0.932263  1
  O  O14  1  0.959195  0.943373  0.395638  1
  O  O15  1  0.452983  0.795838  0.725908  1
  O  O16  1  0.462739  0.845615  0.430751  1
  O  O17  1  0.986073  0.721687  0.768639  1
  O  O18  1  0.544346  0.798400  0.225586  1
  O  O19  1  0.857496  0.643836  0.545707  1
  O  O20  1  0.345316  0.491879  0.888338  1
  O  O21  1  0.014136  0.723076  0.267873  1
  O  O22  1  0.345316  0.508121  0.611662  1
  O  O23  1  0.857496  0.356164  0.954293  1
  O  O24  1  0.140802  0.641666  0.046302  1
  O  O25  1  0.655357  0.493389  0.387110  1
  O  O26  1  0.986073  0.278313  0.731361  1
  O  O27  1  0.655357  0.506611  0.112890  1
  O  O28  1  0.140802  0.358334  0.453698  1
  O  O29  1  0.452983  0.204162  0.774092  1
  O  O30  1  0.014136  0.276924  0.232127  1
  O  O31  1  0.536847  0.156981  0.567737  1
  O  O32  1  0.544346  0.201600  0.274414  1
  O  O33  1  0.044262  0.057277  0.602309  1
  O  O34  1  0.462739  0.154385  0.069249  1
  O  O35  1  0.959195  0.056627  0.104362  1
