# generated using pymatgen
data_Ti4V4GeAs3
_symmetry_space_group_name_H-M   'P 1'
_cell_length_a   3.41504100
_cell_length_b   6.58053720
_cell_length_c   7.99156693
_cell_angle_alpha   89.86593770
_cell_angle_beta   90.00000000
_cell_angle_gamma   90.00000000
_symmetry_Int_Tables_number   1
_chemical_formula_structural   Ti4V4GeAs3
_chemical_formula_sum   'Ti4 V4 Ge1 As3'
_cell_volume   179.59242840
_cell_formula_units_Z   1
loop_
 _symmetry_equiv_pos_site_id
 _symmetry_equiv_pos_as_xyz
  1  'x, y, z'
loop_
 _atom_site_type_symbol
 _atom_site_label
 _atom_site_symmetry_multiplicity
 _atom_site_fract_x
 _atom_site_fract_y
 _atom_site_fract_z
 _atom_site_occupancy
  Ti  Ti0  1  0.250000  0.551552  0.166289  1
  Ti  Ti1  1  0.750000  0.448540  0.833660  1
  Ti  Ti2  1  0.750000  0.949336  0.664913  1
  Ti  Ti3  1  0.250000  0.050401  0.333164  1
  V  V4  1  0.250000  0.627531  0.558773  1
  V  V5  1  0.750000  0.369905  0.439935  1
  V  V6  1  0.750000  0.873042  0.061418  1
  V  V7  1  0.250000  0.129427  0.941050  1
  Ge  Ge8  1  0.250000  0.748760  0.859867  1
  As  As9  1  0.750000  0.252653  0.140013  1
  As  As10  1  0.750000  0.750175  0.360088  1
  As  As11  1  0.250000  0.248677  0.640832  1
