# generated using pymatgen
data_ZrGaCu3Rh
_symmetry_space_group_name_H-M   'P 1'
_cell_length_a   4.93303284
_cell_length_b   4.93303310
_cell_length_c   4.92841608
_cell_angle_alpha   59.96901759
_cell_angle_beta   59.96901421
_cell_angle_gamma   60.00000553
_symmetry_Int_Tables_number   1
_chemical_formula_structural   ZrGaCu3Rh
_chemical_formula_sum   'Zr1 Ga1 Cu3 Rh1'
_cell_volume   84.76505992
_cell_formula_units_Z   1
loop_
 _symmetry_equiv_pos_site_id
 _symmetry_equiv_pos_as_xyz
  1  'x, y, z'
loop_
 _atom_site_type_symbol
 _atom_site_label
 _atom_site_symmetry_multiplicity
 _atom_site_fract_x
 _atom_site_fract_y
 _atom_site_fract_z
 _atom_site_occupancy
  Zr  Zr0  1  0.001764  0.001764  0.994708  1
  Ga  Ga1  1  0.622099  0.622099  0.133701  1
  Cu  Cu2  1  0.624375  0.125134  0.626115  1
  Cu  Cu3  1  0.125134  0.624375  0.626115  1
  Cu  Cu4  1  0.624375  0.624375  0.626115  1
  Rh  Rh5  1  0.252252  0.252252  0.243244  1
