# generated using pymatgen
data_Dy2PPt6
_symmetry_space_group_name_H-M   'P 1'
_cell_length_a   6.65730881
_cell_length_b   6.65730923
_cell_length_c   6.65731000
_cell_angle_alpha   49.42511626
_cell_angle_beta   49.42511315
_cell_angle_gamma   49.42510993
_symmetry_Int_Tables_number   1
_chemical_formula_structural   Dy2PPt6
_chemical_formula_sum   'Dy2 P1 Pt6'
_cell_volume   156.44565089
_cell_formula_units_Z   1
loop_
 _symmetry_equiv_pos_site_id
 _symmetry_equiv_pos_as_xyz
  1  'x, y, z'
loop_
 _atom_site_type_symbol
 _atom_site_label
 _atom_site_symmetry_multiplicity
 _atom_site_fract_x
 _atom_site_fract_y
 _atom_site_fract_z
 _atom_site_occupancy
  Dy  Dy0  1  0.216909  0.216909  0.216909  1
  Dy  Dy1  1  0.783091  0.783091  0.783091  1
  P  P2  1  0.500000  0.500000  0.500000  1
  Pt  Pt3  1  0.734071  0.232287  0.232288  1
  Pt  Pt4  1  0.232287  0.734071  0.232288  1
  Pt  Pt5  1  0.767713  0.767713  0.265928  1
  Pt  Pt6  1  0.232287  0.232287  0.734072  1
  Pt  Pt7  1  0.767713  0.265929  0.767712  1
  Pt  Pt8  1  0.265929  0.767713  0.767712  1
