# generated using pymatgen
data_Th2MnFe2Co9P7
_symmetry_space_group_name_H-M   'P 1'
_cell_length_a   9.09053875
_cell_length_b   9.08548673
_cell_length_c   3.70377800
_cell_angle_alpha   90.00000000
_cell_angle_beta   90.00000000
_cell_angle_gamma   120.02433752
_symmetry_Int_Tables_number   1
_chemical_formula_structural   Th2MnFe2Co9P7
_chemical_formula_sum   'Th2 Mn1 Fe2 Co9 P7'
_cell_volume   264.85418569
_cell_formula_units_Z   1
loop_
 _symmetry_equiv_pos_site_id
 _symmetry_equiv_pos_as_xyz
  1  'x, y, z'
loop_
 _atom_site_type_symbol
 _atom_site_label
 _atom_site_symmetry_multiplicity
 _atom_site_fract_x
 _atom_site_fract_y
 _atom_site_fract_z
 _atom_site_occupancy
  Th  Th0  1  0.334031  0.666505  0.000000  1
  Th  Th1  1  0.999737  0.999728  0.500000  1
  Mn  Mn2  1  0.451526  0.216158  0.500000  1
  Fe  Fe3  1  0.786836  0.237722  0.500000  1
  Fe  Fe4  1  0.763572  0.548647  0.500000  1
  Co  Co5  1  0.037539  0.271800  0.000000  1
  Co  Co6  1  0.728818  0.766428  0.000000  1
  Co  Co7  1  0.232795  0.962682  0.000000  1
  Co  Co8  1  0.545876  0.059680  0.000000  1
  Co  Co9  1  0.938848  0.484792  0.000000  1
  Co  Co10  1  0.515372  0.453775  0.000000  1
  Co  Co11  1  0.615327  0.901244  0.500000  1
  Co  Co12  1  0.098264  0.713195  0.500000  1
  Co  Co13  1  0.285874  0.386165  0.500000  1
  P  P14  1  0.771175  0.036527  0.000000  1
  P  P15  1  0.963626  0.734635  0.000000  1
  P  P16  1  0.264433  0.229314  0.000000  1
  P  P17  1  0.373387  0.936670  0.500000  1
  P  P18  1  0.061587  0.436651  0.500000  1
  P  P19  1  0.564359  0.625023  0.500000  1
  P  P20  1  0.667016  0.332659  0.000000  1
