# generated using pymatgen
data_Pr5Nd(BO3)6
_symmetry_space_group_name_H-M   'P 1'
_cell_length_a   6.86572387
_cell_length_b   6.87210636
_cell_length_c   9.93143063
_cell_angle_alpha   70.10362576
_cell_angle_beta   70.09468655
_cell_angle_gamma   60.02649098
_symmetry_Int_Tables_number   1
_chemical_formula_structural   Pr5Nd(BO3)6
_chemical_formula_sum   'Pr5 Nd1 B6 O18'
_cell_volume   373.23574962
_cell_formula_units_Z   1
loop_
 _symmetry_equiv_pos_site_id
 _symmetry_equiv_pos_as_xyz
  1  'x, y, z'
loop_
 _atom_site_type_symbol
 _atom_site_label
 _atom_site_symmetry_multiplicity
 _atom_site_fract_x
 _atom_site_fract_y
 _atom_site_fract_z
 _atom_site_occupancy
  Pr  Pr0  1  0.999554  0.500236  0.500001  1
  Pr  Pr1  1  0.500037  0.999954  0.999970  1
  Pr  Pr2  1  0.828614  0.343409  0.000885  1
  Pr  Pr3  1  0.655908  0.171792  0.499148  1
  Pr  Pr4  1  0.171499  0.656546  0.999142  1
  Nd  Nd5  1  0.343226  0.828598  0.500845  1
  B  B6  1  0.083016  0.149433  0.253404  1
  B  B7  1  0.849236  0.917342  0.247531  1
  B  B8  1  0.918128  0.849998  0.746598  1
  B  B9  1  0.150434  0.082091  0.752216  1
  B  B10  1  0.315991  0.684368  0.250546  1
  B  B11  1  0.683534  0.316616  0.749707  1
  O  O12  1  0.037154  0.212301  0.390713  1
  O  O13  1  0.786331  0.963948  0.110003  1
  O  O14  1  0.965118  0.786593  0.609283  1
  O  O15  1  0.213832  0.036025  0.889557  1
  O  O16  1  0.129509  0.303858  0.115438  1
  O  O17  1  0.694067  0.870494  0.385060  1
  O  O18  1  0.870784  0.695955  0.884539  1
  O  O19  1  0.304619  0.128299  0.614252  1
  O  O20  1  0.472416  0.621005  0.113250  1
  O  O21  1  0.378935  0.528695  0.387845  1
  O  O22  1  0.527537  0.379005  0.887199  1
  O  O23  1  0.619188  0.474077  0.612881  1
  O  O24  1  0.083751  0.709626  0.247880  1
  O  O25  1  0.291005  0.915742  0.253295  1
  O  O26  1  0.916082  0.290482  0.752104  1
  O  O27  1  0.709614  0.084317  0.747106  1
  O  O28  1  0.874744  0.124761  0.250452  1
  O  O29  1  0.126141  0.874434  0.749150  1
