# generated using pymatgen
data_Lu5In4RuAu
_symmetry_space_group_name_H-M   'P 1'
_cell_length_a   3.55769200
_cell_length_b   8.08651666
_cell_length_c   18.10937293
_cell_angle_alpha   89.92003714
_cell_angle_beta   90.00000000
_cell_angle_gamma   90.00000000
_symmetry_Int_Tables_number   1
_chemical_formula_structural   Lu5In4RuAu
_chemical_formula_sum   'Lu10 In8 Ru2 Au2'
_cell_volume   520.99412047
_cell_formula_units_Z   2
loop_
 _symmetry_equiv_pos_site_id
 _symmetry_equiv_pos_as_xyz
  1  'x, y, z'
loop_
 _atom_site_type_symbol
 _atom_site_label
 _atom_site_symmetry_multiplicity
 _atom_site_fract_x
 _atom_site_fract_y
 _atom_site_fract_z
 _atom_site_occupancy
  Lu  Lu0  1  0.000000  0.878612  0.082942  1
  Lu  Lu1  1  0.000000  0.736128  0.281608  1
  Lu  Lu2  1  0.000000  0.724698  0.776104  1
  Lu  Lu3  1  0.000000  0.384277  0.413825  1
  Lu  Lu4  1  0.000000  0.121388  0.917058  1
  Lu  Lu5  1  0.000000  0.263872  0.718392  1
  Lu  Lu6  1  0.000000  0.500000  0.000000  1
  Lu  Lu7  1  0.000000  0.275302  0.223896  1
  Lu  Lu8  1  0.000000  0.615723  0.586175  1
  Lu  Lu9  1  0.000000  0.000000  0.500000  1
  In  In10  1  0.500000  0.209095  0.065479  1
  In  In11  1  0.500000  0.430250  0.851093  1
  In  In12  1  0.500000  0.569750  0.148907  1
  In  In13  1  0.500000  0.079469  0.354223  1
  In  In14  1  0.500000  0.920531  0.645777  1
  In  In15  1  0.500000  0.790905  0.934521  1
  In  In16  1  0.500000  0.706336  0.432418  1
  In  In17  1  0.500000  0.293664  0.567582  1
  Ru  Ru18  1  0.500000  0.524487  0.695131  1
  Ru  Ru19  1  0.500000  0.475513  0.304869  1
  Au  Au20  1  0.500000  0.976584  0.198934  1
  Au  Au21  1  0.500000  0.023416  0.801066  1
