# generated using pymatgen
data_Dy6InSiOs
_symmetry_space_group_name_H-M   'P 1'
_cell_length_a   8.53276913
_cell_length_b   8.53276955
_cell_length_c   8.53276921
_cell_angle_alpha   112.72667958
_cell_angle_beta   110.93524933
_cell_angle_gamma   104.85369667
_symmetry_Int_Tables_number   1
_chemical_formula_structural   Dy6InSiOs
_chemical_formula_sum   'Dy12 In2 Si2 Os2'
_cell_volume   475.81062373
_cell_formula_units_Z   2
loop_
 _symmetry_equiv_pos_site_id
 _symmetry_equiv_pos_as_xyz
  1  'x, y, z'
loop_
 _atom_site_type_symbol
 _atom_site_label
 _atom_site_symmetry_multiplicity
 _atom_site_fract_x
 _atom_site_fract_y
 _atom_site_fract_z
 _atom_site_occupancy
  Dy  Dy0  1  0.441377  0.239848  0.201530  1
  Dy  Dy1  1  0.558623  0.760152  0.798470  1
  Dy  Dy2  1  0.038316  0.239848  0.798470  1
  Dy  Dy3  1  0.961684  0.760152  0.201530  1
  Dy  Dy4  1  0.186787  0.273563  0.460351  1
  Dy  Dy5  1  0.813213  0.726437  0.539649  1
  Dy  Dy6  1  0.186787  0.726437  0.913224  1
  Dy  Dy7  1  0.813213  0.273563  0.086776  1
  Dy  Dy8  1  0.332493  0.643031  0.310538  1
  Dy  Dy9  1  0.667507  0.356969  0.689462  1
  Dy  Dy10  1  0.332493  0.021955  0.689462  1
  Dy  Dy11  1  0.667507  0.978045  0.310538  1
  In  In12  1  0.500000  0.500000  0.000000  1
  In  In13  1  0.000000  0.000000  0.000000  1
  Si  Si14  1  0.113423  0.613423  0.500000  1
  Si  Si15  1  0.886577  0.386577  0.500000  1
  Os  Os16  1  0.337373  0.000000  0.337373  1
  Os  Os17  1  0.662627  0.000000  0.662627  1
