# generated using pymatgen
data_TbY(P2Pd7)3
_symmetry_space_group_name_H-M   'P 1'
_cell_length_a   8.63587377
_cell_length_b   8.63587431
_cell_length_c   8.63587400
_cell_angle_alpha   60.00000117
_cell_angle_beta   59.99999911
_cell_angle_gamma   60.00000147
_symmetry_Int_Tables_number   1
_chemical_formula_structural   TbY(P2Pd7)3
_chemical_formula_sum   'Tb1 Y1 P6 Pd21'
_cell_volume   455.41140572
_cell_formula_units_Z   1
loop_
 _symmetry_equiv_pos_site_id
 _symmetry_equiv_pos_as_xyz
  1  'x, y, z'
loop_
 _atom_site_type_symbol
 _atom_site_label
 _atom_site_symmetry_multiplicity
 _atom_site_fract_x
 _atom_site_fract_y
 _atom_site_fract_z
 _atom_site_occupancy
  Tb  Tb0  1  0.750000  0.750000  0.750000  1
  Y  Y1  1  0.250000  0.250000  0.250000  1
  P  P2  1  0.739499  0.260501  0.260501  1
  P  P3  1  0.260501  0.739499  0.739499  1
  P  P4  1  0.260501  0.739499  0.260501  1
  P  P5  1  0.739499  0.260501  0.739499  1
  P  P6  1  0.260501  0.260501  0.739499  1
  P  P7  1  0.739499  0.739499  0.260501  1
  Pd  Pd8  1  0.000000  0.000000  0.000000  1
  Pd  Pd9  1  0.385214  0.385214  0.385214  1
  Pd  Pd10  1  0.614822  0.614822  0.614822  1
  Pd  Pd11  1  0.385214  0.385214  0.844358  1
  Pd  Pd12  1  0.385214  0.844358  0.385214  1
  Pd  Pd13  1  0.614822  0.614822  0.155533  1
  Pd  Pd14  1  0.614822  0.155533  0.614822  1
  Pd  Pd15  1  0.844358  0.385214  0.385214  1
  Pd  Pd16  1  0.155533  0.614822  0.614822  1
  Pd  Pd17  1  0.344845  0.999970  0.999970  1
  Pd  Pd18  1  0.655215  0.999970  0.999970  1
  Pd  Pd19  1  0.999970  0.344845  0.655215  1
  Pd  Pd20  1  0.999970  0.655215  0.344845  1
  Pd  Pd21  1  0.999970  0.344845  0.999970  1
  Pd  Pd22  1  0.655215  0.999970  0.344845  1
  Pd  Pd23  1  0.999970  0.655215  0.999970  1
  Pd  Pd24  1  0.344845  0.999970  0.655215  1
  Pd  Pd25  1  0.999970  0.999970  0.344845  1
  Pd  Pd26  1  0.999970  0.999970  0.655215  1
  Pd  Pd27  1  0.655215  0.344845  0.999970  1
  Pd  Pd28  1  0.344845  0.655215  0.999970  1
