# generated using pymatgen
data_Tb6Co16Si11POs2
_symmetry_space_group_name_H-M   'P 1'
_cell_length_a   3.80849900
_cell_length_b   10.71479300
_cell_length_c   12.42444900
_cell_angle_alpha   90.00000000
_cell_angle_beta   90.00000000
_cell_angle_gamma   90.00000000
_symmetry_Int_Tables_number   1
_chemical_formula_structural   Tb6Co16Si11POs2
_chemical_formula_sum   'Tb6 Co16 Si11 P1 Os2'
_cell_volume   507.00794963
_cell_formula_units_Z   1
loop_
 _symmetry_equiv_pos_site_id
 _symmetry_equiv_pos_as_xyz
  1  'x, y, z'
loop_
 _atom_site_type_symbol
 _atom_site_label
 _atom_site_symmetry_multiplicity
 _atom_site_fract_x
 _atom_site_fract_y
 _atom_site_fract_z
 _atom_site_occupancy
  Tb  Tb0  1  0.000000  0.500000  0.526736  1
  Tb  Tb1  1  0.500000  0.000000  0.475610  1
  Tb  Tb2  1  0.500000  0.817345  0.204866  1
  Tb  Tb3  1  0.500000  0.182655  0.204866  1
  Tb  Tb4  1  0.000000  0.682283  0.795442  1
  Tb  Tb5  1  0.000000  0.317717  0.795442  1
  Co  Co6  1  0.500000  0.500000  0.695657  1
  Co  Co7  1  0.000000  0.000000  0.304141  1
  Co  Co8  1  0.000000  0.500000  0.981545  1
  Co  Co9  1  0.500000  0.000000  0.016698  1
  Co  Co10  1  0.500000  0.330703  0.992271  1
  Co  Co11  1  0.500000  0.669297  0.992271  1
  Co  Co12  1  0.000000  0.168842  0.006283  1
  Co  Co13  1  0.000000  0.831158  0.006283  1
  Co  Co14  1  0.500000  0.300452  0.430944  1
  Co  Co15  1  0.500000  0.699548  0.430944  1
  Co  Co16  1  0.000000  0.194317  0.572316  1
  Co  Co17  1  0.000000  0.805683  0.572316  1
  Co  Co18  1  0.500000  0.884410  0.706752  1
  Co  Co19  1  0.500000  0.115590  0.706752  1
  Co  Co20  1  0.000000  0.618096  0.292726  1
  Co  Co21  1  0.000000  0.381904  0.292726  1
  Si  Si22  1  0.500000  0.500000  0.882203  1
  Si  Si23  1  0.000000  0.000000  0.117036  1
  Si  Si24  1  0.500000  0.500000  0.342103  1
  Si  Si25  1  0.500000  0.302155  0.614681  1
  Si  Si26  1  0.500000  0.697845  0.614681  1
  Si  Si27  1  0.000000  0.196440  0.387304  1
  Si  Si28  1  0.000000  0.803560  0.387304  1
  Si  Si29  1  0.500000  0.850397  0.893797  1
  Si  Si30  1  0.500000  0.149603  0.893797  1
  Si  Si31  1  0.000000  0.649363  0.105225  1
  Si  Si32  1  0.000000  0.350637  0.105225  1
  P  P33  1  0.000000  0.000000  0.657392  1
  Os  Os34  1  0.500000  0.500000  0.150151  1
  Os  Os35  1  0.000000  0.000000  0.845516  1
