# generated using pymatgen
data_SI28
_symmetry_space_group_name_H-M   'P 1'
_cell_length_a   10.40989679
_cell_length_b   13.97511276
_cell_length_c   12.65813600
_cell_angle_alpha   108.44914294
_cell_angle_beta   105.43469176
_cell_angle_gamma   86.57346666
_symmetry_Int_Tables_number   1
_chemical_formula_structural   SI28
_chemical_formula_sum   'S1 I28'
_cell_volume   1683.25147632
_cell_formula_units_Z   1
loop_
 _symmetry_equiv_pos_site_id
 _symmetry_equiv_pos_as_xyz
  1  'x, y, z'
loop_
 _atom_site_type_symbol
 _atom_site_label
 _atom_site_symmetry_multiplicity
 _atom_site_fract_x
 _atom_site_fract_y
 _atom_site_fract_z
 _atom_site_occupancy
  S  S0  1  0.500000  0.000000  0.000000  1
  I  I1  1  0.115413  0.135289  0.415610  1
  I  I2  1  0.586109  0.141338  0.430347  1
  I  I3  1  0.285094  0.253678  0.857035  1
  I  I4  1  0.787125  0.282867  0.865488  1
  I  I5  1  0.187377  0.491027  0.660173  1
  I  I6  1  0.722344  0.508142  0.683424  1
  I  I7  1  0.413891  0.858662  0.569653  1
  I  I8  1  0.884587  0.864711  0.584390  1
  I  I9  1  0.212875  0.717133  0.134512  1
  I  I10  1  0.714906  0.746322  0.142965  1
  I  I11  1  0.277656  0.491858  0.316576  1
  I  I12  1  0.812623  0.508973  0.339827  1
  I  I13  1  0.843824  0.054931  0.733734  1
  I  I14  1  0.330932  0.953209  0.788588  1
  I  I15  1  0.007775  0.664197  0.931807  1
  I  I16  1  0.502933  0.796201  0.968143  1
  I  I17  1  0.708816  0.346560  0.374871  1
  I  I18  1  0.204205  0.318386  0.354707  1
  I  I19  1  0.669068  0.046791  0.211412  1
  I  I20  1  0.156176  0.945069  0.266266  1
  I  I21  1  0.497067  0.203799  0.031857  1
  I  I22  1  0.992225  0.335803  0.068193  1
  I  I23  1  0.795795  0.681614  0.645293  1
  I  I24  1  0.291184  0.653440  0.625129  1
  I  I25  1  0.067150  0.305325  0.683929  1
  I  I26  1  0.533489  0.253813  0.649257  1
  I  I27  1  0.466511  0.746187  0.350743  1
  I  I28  1  0.932850  0.694675  0.316071  1
