# generated using pymatgen
data_Lu3MnAl3Ga2
_symmetry_space_group_name_H-M   'P 1'
_cell_length_a   6.88570600
_cell_length_b   6.88570536
_cell_length_c   4.20298300
_cell_angle_alpha   90.00000000
_cell_angle_beta   90.00000000
_cell_angle_gamma   120.00001269
_symmetry_Int_Tables_number   1
_chemical_formula_structural   Lu3MnAl3Ga2
_chemical_formula_sum   'Lu3 Mn1 Al3 Ga2'
_cell_volume   172.57787627
_cell_formula_units_Z   1
loop_
 _symmetry_equiv_pos_site_id
 _symmetry_equiv_pos_as_xyz
  1  'x, y, z'
loop_
 _atom_site_type_symbol
 _atom_site_label
 _atom_site_symmetry_multiplicity
 _atom_site_fract_x
 _atom_site_fract_y
 _atom_site_fract_z
 _atom_site_occupancy
  Lu  Lu0  1  0.583620  0.000000  0.000000  1
  Lu  Lu1  1  0.000000  0.583620  0.000000  1
  Lu  Lu2  1  0.416380  0.416380  0.000000  1
  Mn  Mn3  1  0.000000  0.000000  0.000000  1
  Al  Al4  1  0.237262  0.000000  0.500000  1
  Al  Al5  1  0.000000  0.237262  0.500000  1
  Al  Al6  1  0.762738  0.762738  0.500000  1
  Ga  Ga7  1  0.333333  0.666667  0.500000  1
  Ga  Ga8  1  0.666667  0.333333  0.500000  1
