# generated using pymatgen
data_Zr4InC2S
_symmetry_space_group_name_H-M   'P 1'
_cell_length_a   3.40002300
_cell_length_b   3.40002300
_cell_length_c   13.70972100
_cell_angle_alpha   90.00000000
_cell_angle_beta   90.00000000
_cell_angle_gamma   120.00000975
_symmetry_Int_Tables_number   1
_chemical_formula_structural   Zr4InC2S
_chemical_formula_sum   'Zr4 In1 C2 S1'
_cell_volume   137.25333800
_cell_formula_units_Z   1
loop_
 _symmetry_equiv_pos_site_id
 _symmetry_equiv_pos_as_xyz
  1  'x, y, z'
loop_
 _atom_site_type_symbol
 _atom_site_label
 _atom_site_symmetry_multiplicity
 _atom_site_fract_x
 _atom_site_fract_y
 _atom_site_fract_z
 _atom_site_occupancy
  Zr  Zr0  1  0.333333  0.666667  0.434553  1
  Zr  Zr1  1  0.666667  0.333333  0.883425  1
  Zr  Zr2  1  0.666667  0.333333  0.616575  1
  Zr  Zr3  1  0.333333  0.666667  0.065447  1
  In  In4  1  0.666667  0.333333  0.250000  1
  C  C5  1  0.000000  0.000000  0.523676  1
  C  C6  1  0.000000  0.000000  0.976324  1
  S  S7  1  0.333333  0.666667  0.750000  1
