# generated using pymatgen
data_NaDy4P12Ru10Rh9
_symmetry_space_group_name_H-M   'P 1'
_cell_length_a   12.58068826
_cell_length_b   12.56485718
_cell_length_c   3.94264800
_cell_angle_alpha   90.00000000
_cell_angle_beta   90.00000000
_cell_angle_gamma   119.74184625
_symmetry_Int_Tables_number   1
_chemical_formula_structural   NaDy4P12Ru10Rh9
_chemical_formula_sum   'Na1 Dy4 P12 Ru10 Rh9'
_cell_volume   541.13356040
_cell_formula_units_Z   1
loop_
 _symmetry_equiv_pos_site_id
 _symmetry_equiv_pos_as_xyz
  1  'x, y, z'
loop_
 _atom_site_type_symbol
 _atom_site_label
 _atom_site_symmetry_multiplicity
 _atom_site_fract_x
 _atom_site_fract_y
 _atom_site_fract_z
 _atom_site_occupancy
  Na  Na0  1  0.812970  0.999304  0.500000  1
  Dy  Dy1  1  0.666496  0.333273  0.000000  1
  Dy  Dy2  1  0.332548  0.666547  0.000000  1
  Dy  Dy3  1  0.182195  0.184175  0.500000  1
  Dy  Dy4  1  0.000297  0.816996  0.500000  1
  P  P5  1  0.629564  0.996651  0.000000  1
  P  P6  1  0.366830  0.371760  0.000000  1
  P  P7  1  0.006689  0.635042  0.000000  1
  P  P8  1  0.686987  0.520552  0.500000  1
  P  P9  1  0.830069  0.305738  0.500000  1
  P  P10  1  0.315206  0.833572  0.500000  1
  P  P11  1  0.520046  0.687525  0.500000  1
  P  P12  1  0.179458  0.001972  0.000000  1
  P  P13  1  0.818137  0.817647  0.000000  1
  P  P14  1  0.996058  0.182939  0.000000  1
  P  P15  1  0.478801  0.164676  0.500000  1
  P  P16  1  0.167358  0.482303  0.500000  1
  Ru  Ru17  1  0.127795  0.642864  0.500000  1
  Ru  Ru18  1  0.362402  0.487282  0.500000  1
  Ru  Ru19  1  0.512560  0.872395  0.500000  1
  Ru  Ru20  1  0.719269  0.716014  0.500000  1
  Ru  Ru21  1  0.002808  0.285210  0.500000  1
  Ru  Ru22  1  0.449167  0.002076  0.000000  1
  Ru  Ru23  1  0.555218  0.543834  0.000000  1
  Ru  Ru24  1  0.004981  0.453209  0.000000  1
  Ru  Ru25  1  0.815245  0.195996  0.000000  1
  Ru  Ru26  1  0.283296  0.001589  0.500000  1
  Rh  Rh27  1  0.620385  0.801161  0.000000  1
  Rh  Rh28  1  0.182567  0.376479  0.000000  1
  Rh  Rh29  1  0.373381  0.183690  0.000000  1
  Rh  Rh30  1  0.194826  0.822160  0.000000  1
  Rh  Rh31  1  0.810905  0.624315  0.000000  1
  Rh  Rh32  1  0.870691  0.506128  0.500000  1
  Rh  Rh33  1  0.490199  0.358054  0.500000  1
  Rh  Rh34  1  0.635915  0.125979  0.500000  1
  Rh  Rh35  1  0.998684  0.000890  0.000000  1
