# generated using pymatgen
data_Ca4Pr16Si15Ge
_symmetry_space_group_name_H-M   'P 1'
_cell_length_a   7.97308722
_cell_length_b   7.90665819
_cell_length_c   15.11736600
_cell_angle_alpha   89.84404014
_cell_angle_beta   89.75783330
_cell_angle_gamma   90.24706176
_symmetry_Int_Tables_number   1
_chemical_formula_structural   Ca4Pr16Si15Ge
_chemical_formula_sum   'Ca4 Pr16 Si15 Ge1'
_cell_volume   952.98498858
_cell_formula_units_Z   1
loop_
 _symmetry_equiv_pos_site_id
 _symmetry_equiv_pos_as_xyz
  1  'x, y, z'
loop_
 _atom_site_type_symbol
 _atom_site_label
 _atom_site_symmetry_multiplicity
 _atom_site_fract_x
 _atom_site_fract_y
 _atom_site_fract_z
 _atom_site_occupancy
  Ca  Ca0  1  0.310021  0.309144  0.000104  1
  Ca  Ca1  1  0.191039  0.808747  0.249956  1
  Ca  Ca2  1  0.807427  0.191468  0.750251  1
  Ca  Ca3  1  0.689632  0.690735  0.499512  1
  Pr  Pr4  1  0.375812  0.008915  0.448798  1
  Pr  Pr5  1  0.490786  0.873887  0.699962  1
  Pr  Pr6  1  0.510236  0.124157  0.199348  1
  Pr  Pr7  1  0.875668  0.489245  0.300448  1
  Pr  Pr8  1  0.123972  0.512456  0.801018  1
  Pr  Pr9  1  0.624831  0.990209  0.949741  1
  Pr  Pr10  1  0.006933  0.376968  0.549730  1
  Pr  Pr11  1  0.991043  0.624373  0.051223  1
  Pr  Pr12  1  0.125560  0.984868  0.876300  1
  Pr  Pr13  1  0.516257  0.626739  0.125650  1
  Pr  Pr14  1  0.485339  0.374613  0.625959  1
  Pr  Pr15  1  0.626705  0.515965  0.875059  1
  Pr  Pr16  1  0.373802  0.484030  0.374355  1
  Pr  Pr17  1  0.874734  0.014973  0.375949  1
  Pr  Pr18  1  0.985167  0.125206  0.124140  1
  Pr  Pr19  1  0.014356  0.873934  0.623295  1
  Si  Si20  1  0.333582  0.700907  0.949238  1
  Si  Si21  1  0.665329  0.298256  0.449032  1
  Si  Si22  1  0.702539  0.333984  0.051447  1
  Si  Si23  1  0.297728  0.665803  0.550643  1
  Si  Si24  1  0.799445  0.833033  0.200172  1
  Si  Si25  1  0.166824  0.200152  0.300126  1
  Si  Si26  1  0.833703  0.800255  0.799934  1
  Si  Si27  1  0.288801  0.920089  0.059759  1
  Si  Si28  1  0.580490  0.787571  0.310046  1
  Si  Si29  1  0.423850  0.211116  0.811334  1
  Si  Si30  1  0.787873  0.580364  0.690052  1
  Si  Si31  1  0.212014  0.420360  0.190065  1
  Si  Si32  1  0.710123  0.079568  0.559954  1
  Si  Si33  1  0.920213  0.288842  0.940254  1
  Si  Si34  1  0.080514  0.711611  0.439746  1
  Ge  Ge35  1  0.197653  0.167454  0.697393  1
