# generated using pymatgen
data_Ho4ErBi3
_symmetry_space_group_name_H-M   'P 1'
_cell_length_a   8.22127300
_cell_length_b   9.49713100
_cell_length_c   11.99218400
_cell_angle_alpha   90.00000000
_cell_angle_beta   90.00000000
_cell_angle_gamma   90.00000000
_symmetry_Int_Tables_number   1
_chemical_formula_structural   Ho4ErBi3
_chemical_formula_sum   'Ho16 Er4 Bi12'
_cell_volume   936.33181841
_cell_formula_units_Z   4
loop_
 _symmetry_equiv_pos_site_id
 _symmetry_equiv_pos_as_xyz
  1  'x, y, z'
loop_
 _atom_site_type_symbol
 _atom_site_label
 _atom_site_symmetry_multiplicity
 _atom_site_fract_x
 _atom_site_fract_y
 _atom_site_fract_z
 _atom_site_occupancy
  Ho  Ho0  1  0.353720  0.750005  0.216210  1
  Ho  Ho1  1  0.853720  0.749995  0.283790  1
  Ho  Ho2  1  0.646280  0.250005  0.783790  1
  Ho  Ho3  1  0.146280  0.249995  0.716210  1
  Ho  Ho4  1  0.307985  0.435787  0.941005  1
  Ho  Ho5  1  0.807985  0.064213  0.558995  1
  Ho  Ho6  1  0.692015  0.935787  0.058995  1
  Ho  Ho7  1  0.192015  0.564213  0.441005  1
  Ho  Ho8  1  0.476844  0.250008  0.488973  1
  Ho  Ho9  1  0.976844  0.249992  0.011027  1
  Ho  Ho10  1  0.523156  0.750008  0.511027  1
  Ho  Ho11  1  0.023156  0.749992  0.988973  1
  Ho  Ho12  1  0.314603  0.249980  0.218108  1
  Ho  Ho13  1  0.814603  0.250020  0.281892  1
  Ho  Ho14  1  0.685397  0.749980  0.781892  1
  Ho  Ho15  1  0.185397  0.750020  0.718108  1
  Er  Er16  1  0.691913  0.564253  0.059007  1
  Er  Er17  1  0.191913  0.935747  0.440993  1
  Er  Er18  1  0.308087  0.064253  0.940993  1
  Er  Er19  1  0.808087  0.435747  0.559007  1
  Bi  Bi20  1  0.405449  0.750113  0.957481  1
  Bi  Bi21  1  0.905449  0.749887  0.542519  1
  Bi  Bi22  1  0.594551  0.250113  0.042519  1
  Bi  Bi23  1  0.094551  0.249887  0.457481  1
  Bi  Bi24  1  0.565952  0.996246  0.325707  1
  Bi  Bi25  1  0.065952  0.503754  0.174293  1
  Bi  Bi26  1  0.434048  0.496246  0.674293  1
  Bi  Bi27  1  0.934048  0.003754  0.825707  1
  Bi  Bi28  1  0.434006  0.003760  0.674298  1
  Bi  Bi29  1  0.934006  0.496240  0.825702  1
  Bi  Bi30  1  0.565994  0.503760  0.325702  1
  Bi  Bi31  1  0.065994  0.996240  0.174298  1
