# generated using pymatgen
data_AgI28
_symmetry_space_group_name_H-M   'P 1'
_cell_length_a   10.40989679
_cell_length_b   13.97511276
_cell_length_c   12.65813600
_cell_angle_alpha   108.44914294
_cell_angle_beta   105.43469176
_cell_angle_gamma   86.57346666
_symmetry_Int_Tables_number   1
_chemical_formula_structural   AgI28
_chemical_formula_sum   'Ag1 I28'
_cell_volume   1683.25147632
_cell_formula_units_Z   1
loop_
 _symmetry_equiv_pos_site_id
 _symmetry_equiv_pos_as_xyz
  1  'x, y, z'
loop_
 _atom_site_type_symbol
 _atom_site_label
 _atom_site_symmetry_multiplicity
 _atom_site_fract_x
 _atom_site_fract_y
 _atom_site_fract_z
 _atom_site_occupancy
  Ag  Ag0  1  0.500000  0.000000  0.000000  1
  I  I1  1  0.121972  0.129392  0.417606  1
  I  I2  1  0.588256  0.143472  0.436838  1
  I  I3  1  0.288802  0.269345  0.871949  1
  I  I4  1  0.785755  0.290496  0.867514  1
  I  I5  1  0.207743  0.491712  0.678141  1
  I  I6  1  0.721904  0.505377  0.675055  1
  I  I7  1  0.411744  0.856528  0.563162  1
  I  I8  1  0.878028  0.870608  0.582394  1
  I  I9  1  0.214245  0.709504  0.132486  1
  I  I10  1  0.711198  0.730655  0.128051  1
  I  I11  1  0.278096  0.494623  0.324945  1
  I  I12  1  0.792257  0.508288  0.321859  1
  I  I13  1  0.842837  0.060945  0.732101  1
  I  I14  1  0.342822  0.981792  0.778118  1
  I  I15  1  0.006972  0.664402  0.931802  1
  I  I16  1  0.518096  0.783721  0.944132  1
  I  I17  1  0.671247  0.339118  0.330214  1
  I  I18  1  0.207180  0.317539  0.355659  1
  I  I19  1  0.657178  0.018208  0.221882  1
  I  I20  1  0.157163  0.939055  0.267899  1
  I  I21  1  0.481904  0.216279  0.055868  1
  I  I22  1  0.993028  0.335598  0.068198  1
  I  I23  1  0.792820  0.682461  0.644341  1
  I  I24  1  0.328753  0.660882  0.669786  1
  I  I25  1  0.073574  0.304512  0.677779  1
  I  I26  1  0.534436  0.267072  0.649932  1
  I  I27  1  0.465564  0.732928  0.350068  1
  I  I28  1  0.926426  0.695488  0.322221  1
