# generated using pymatgen
data_CsICl4
_symmetry_space_group_name_H-M   'P 1'
_cell_length_a   7.48092835
_cell_length_b   7.48092855
_cell_length_c   10.93260829
_cell_angle_alpha   79.06598284
_cell_angle_beta   79.06598404
_cell_angle_gamma   49.82143105
_symmetry_Int_Tables_number   1
_chemical_formula_structural   CsICl4
_chemical_formula_sum   'Cs2 I2 Cl8'
_cell_volume   457.12814468
_cell_formula_units_Z   2
loop_
 _symmetry_equiv_pos_site_id
 _symmetry_equiv_pos_as_xyz
  1  'x, y, z'
loop_
 _atom_site_type_symbol
 _atom_site_label
 _atom_site_symmetry_multiplicity
 _atom_site_fract_x
 _atom_site_fract_y
 _atom_site_fract_z
 _atom_site_occupancy
  Cs  Cs0  1  0.291756  0.708244  0.250000  1
  Cs  Cs1  1  0.708244  0.291756  0.750000  1
  I  I2  1  0.000000  0.500000  0.000000  1
  I  I3  1  0.500000  0.000000  0.500000  1
  Cl  Cl4  1  0.151867  0.726857  0.928488  1
  Cl  Cl5  1  0.273143  0.848133  0.571512  1
  Cl  Cl6  1  0.848133  0.273143  0.071512  1
  Cl  Cl7  1  0.726857  0.151867  0.428488  1
  Cl  Cl8  1  0.327514  0.223111  0.142782  1
  Cl  Cl9  1  0.776889  0.672486  0.357218  1
  Cl  Cl10  1  0.672486  0.776889  0.857218  1
  Cl  Cl11  1  0.223111  0.327514  0.642782  1
