# generated using pymatgen
data_Sm5Dy(RuBr3)2
_symmetry_space_group_name_H-M   'P 1'
_cell_length_a   4.15659800
_cell_length_b   8.75540881
_cell_length_c   12.02841406
_cell_angle_alpha   87.90489184
_cell_angle_beta   90.00000000
_cell_angle_gamma   90.00000000
_symmetry_Int_Tables_number   1
_chemical_formula_structural   Sm5Dy(RuBr3)2
_chemical_formula_sum   'Sm5 Dy1 Ru2 Br6'
_cell_volume   437.45401632
_cell_formula_units_Z   1
loop_
 _symmetry_equiv_pos_site_id
 _symmetry_equiv_pos_as_xyz
  1  'x, y, z'
loop_
 _atom_site_type_symbol
 _atom_site_label
 _atom_site_symmetry_multiplicity
 _atom_site_fract_x
 _atom_site_fract_y
 _atom_site_fract_z
 _atom_site_occupancy
  Sm  Sm0  1  0.250000  0.286715  0.391290  1
  Sm  Sm1  1  0.750000  0.714975  0.606282  1
  Sm  Sm2  1  0.250000  0.870040  0.368917  1
  Sm  Sm3  1  0.750000  0.132385  0.631509  1
  Sm  Sm4  1  0.250000  0.892499  0.830918  1
  Dy  Dy5  1  0.750000  0.105918  0.172797  1
  Ru  Ru6  1  0.250000  0.932101  0.601642  1
  Ru  Ru7  1  0.750000  0.069839  0.398677  1
  Br  Br8  1  0.250000  0.425588  0.628541  1
  Br  Br9  1  0.750000  0.576917  0.367275  1
  Br  Br10  1  0.250000  0.879538  0.105810  1
  Br  Br11  1  0.750000  0.124434  0.899355  1
  Br  Br12  1  0.250000  0.333657  0.136485  1
  Br  Br13  1  0.750000  0.655394  0.860507  1
