# generated using pymatgen
data_PrNdAs4(IrRh)2
_symmetry_space_group_name_H-M   'P 1'
_cell_length_a   4.36028800
_cell_length_b   4.36028800
_cell_length_c   9.90384100
_cell_angle_alpha   90.00000000
_cell_angle_beta   90.00000000
_cell_angle_gamma   90.00000000
_symmetry_Int_Tables_number   1
_chemical_formula_structural   PrNdAs4(IrRh)2
_chemical_formula_sum   'Pr1 Nd1 As4 Ir2 Rh2'
_cell_volume   188.29292881
_cell_formula_units_Z   1
loop_
 _symmetry_equiv_pos_site_id
 _symmetry_equiv_pos_as_xyz
  1  'x, y, z'
loop_
 _atom_site_type_symbol
 _atom_site_label
 _atom_site_symmetry_multiplicity
 _atom_site_fract_x
 _atom_site_fract_y
 _atom_site_fract_z
 _atom_site_occupancy
  Pr  Pr0  1  0.000000  0.500000  0.256122  1
  Nd  Nd1  1  0.500000  0.000000  0.743765  1
  As  As2  1  0.000000  0.000000  0.500680  1
  As  As3  1  0.500000  0.500000  0.500680  1
  As  As4  1  0.000000  0.500000  0.864914  1
  As  As5  1  0.500000  0.000000  0.134774  1
  Ir  Ir6  1  0.000000  0.500000  0.617788  1
  Ir  Ir7  1  0.500000  0.000000  0.383119  1
  Rh  Rh8  1  0.000000  0.000000  0.999079  1
  Rh  Rh9  1  0.500000  0.500000  0.999079  1
