# generated using pymatgen
data_KAc(MoO4)2
_symmetry_space_group_name_H-M   'P 1'
_cell_length_a   6.23184400
_cell_length_b   6.23184331
_cell_length_c   7.90383800
_cell_angle_alpha   90.00000000
_cell_angle_beta   90.00000000
_cell_angle_gamma   119.99999303
_symmetry_Int_Tables_number   1
_chemical_formula_structural   KAc(MoO4)2
_chemical_formula_sum   'K1 Ac1 Mo2 O8'
_cell_volume   265.82865319
_cell_formula_units_Z   1
loop_
 _symmetry_equiv_pos_site_id
 _symmetry_equiv_pos_as_xyz
  1  'x, y, z'
loop_
 _atom_site_type_symbol
 _atom_site_label
 _atom_site_symmetry_multiplicity
 _atom_site_fract_x
 _atom_site_fract_y
 _atom_site_fract_z
 _atom_site_occupancy
  K  K0  1  0.000000  0.000000  0.500000  1
  Ac  Ac1  1  0.000000  0.000000  0.000000  1
  Mo  Mo2  1  0.333333  0.666667  0.280818  1
  Mo  Mo3  1  0.666667  0.333333  0.719182  1
  O  O4  1  0.348793  0.174396  0.794297  1
  O  O5  1  0.825604  0.174396  0.794297  1
  O  O6  1  0.825604  0.651207  0.794297  1
  O  O7  1  0.174396  0.825604  0.205703  1
  O  O8  1  0.333333  0.666667  0.502009  1
  O  O9  1  0.666667  0.333333  0.497991  1
  O  O10  1  0.174396  0.348793  0.205703  1
  O  O11  1  0.651207  0.825604  0.205703  1
