# generated using pymatgen
data_Ca7Dy(Si3Rh4)2
_symmetry_space_group_name_H-M   'P 1'
_cell_length_a   10.77683333
_cell_length_b   10.78116367
_cell_length_c   7.56191616
_cell_angle_alpha   72.64346142
_cell_angle_beta   72.57412835
_cell_angle_gamma   30.77955521
_symmetry_Int_Tables_number   1
_chemical_formula_structural   Ca7Dy(Si3Rh4)2
_chemical_formula_sum   'Ca7 Dy1 Si6 Rh8'
_cell_volume   427.45699220
_cell_formula_units_Z   1
loop_
 _symmetry_equiv_pos_site_id
 _symmetry_equiv_pos_as_xyz
  1  'x, y, z'
loop_
 _atom_site_type_symbol
 _atom_site_label
 _atom_site_symmetry_multiplicity
 _atom_site_fract_x
 _atom_site_fract_y
 _atom_site_fract_z
 _atom_site_occupancy
  Ca  Ca0  1  0.210749  0.447769  0.409239  1
  Ca  Ca1  1  0.546230  0.793967  0.090788  1
  Ca  Ca2  1  0.450369  0.205202  0.910470  1
  Ca  Ca3  1  0.932008  0.203502  0.331781  1
  Ca  Ca4  1  0.794700  0.068764  0.167036  1
  Ca  Ca5  1  0.069417  0.794751  0.665885  1
  Ca  Ca6  1  0.201526  0.933396  0.833415  1
  Dy  Dy7  1  0.783631  0.558878  0.593484  1
  Si  Si8  1  0.598342  0.402854  0.748333  1
  Si  Si9  1  0.403594  0.597170  0.249443  1
  Si  Si10  1  0.304622  0.043107  0.436384  1
  Si  Si11  1  0.967033  0.688309  0.059865  1
  Si  Si12  1  0.689394  0.963555  0.562335  1
  Si  Si13  1  0.038346  0.311493  0.936392  1
  Rh  Rh14  1  0.301699  0.576027  0.025644  1
  Rh  Rh15  1  0.579338  0.298584  0.525156  1
  Rh  Rh16  1  0.703541  0.421446  0.969044  1
  Rh  Rh17  1  0.067585  0.373864  0.192654  1
  Rh  Rh18  1  0.651970  0.900959  0.317374  1
  Rh  Rh19  1  0.427288  0.697970  0.474262  1
  Rh  Rh20  1  0.913929  0.642175  0.813099  1
  Rh  Rh21  1  0.364689  0.076258  0.687914  1
