# generated using pymatgen
data_CaY3Al18(Ni2Rh)2
_symmetry_space_group_name_H-M   'P 1'
_cell_length_a   7.47369969
_cell_length_b   7.46069317
_cell_length_c   9.35986900
_cell_angle_alpha   90.00000000
_cell_angle_beta   90.00000000
_cell_angle_gamma   118.97573944
_symmetry_Int_Tables_number   1
_chemical_formula_structural   CaY3Al18(Ni2Rh)2
_chemical_formula_sum   'Ca1 Y3 Al18 Ni4 Rh2'
_cell_volume   456.56827785
_cell_formula_units_Z   1
loop_
 _symmetry_equiv_pos_site_id
 _symmetry_equiv_pos_as_xyz
  1  'x, y, z'
loop_
 _atom_site_type_symbol
 _atom_site_label
 _atom_site_symmetry_multiplicity
 _atom_site_fract_x
 _atom_site_fract_y
 _atom_site_fract_z
 _atom_site_occupancy
  Ca  Ca0  1  0.993465  0.676313  0.250000  1
  Y  Y1  1  0.005663  0.328039  0.750000  1
  Y  Y2  1  0.675925  0.995304  0.250000  1
  Y  Y3  1  0.325393  0.002656  0.750000  1
  Al  Al4  1  0.133847  0.135636  0.250000  1
  Al  Al5  1  0.868136  0.867019  0.750000  1
  Al  Al6  1  0.998845  0.339588  0.074007  1
  Al  Al7  1  0.000833  0.661752  0.927825  1
  Al  Al8  1  0.000833  0.661752  0.572175  1
  Al  Al9  1  0.337725  0.997609  0.426867  1
  Al  Al10  1  0.998845  0.339588  0.425993  1
  Al  Al11  1  0.661882  0.001828  0.574530  1
  Al  Al12  1  0.661882  0.001828  0.925470  1
  Al  Al13  1  0.337725  0.997609  0.073133  1
  Al  Al14  1  0.334363  0.333975  0.548756  1
  Al  Al15  1  0.664398  0.664630  0.454380  1
  Al  Al16  1  0.664398  0.664630  0.045620  1
  Al  Al17  1  0.334363  0.333975  0.951244  1
  Al  Al18  1  0.344385  0.557303  0.250000  1
  Al  Al19  1  0.659185  0.443435  0.750000  1
  Al  Al20  1  0.553806  0.339411  0.250000  1
  Al  Al21  1  0.447012  0.657796  0.750000  1
  Ni  Ni22  1  0.669747  0.327955  0.999328  1
  Ni  Ni23  1  0.329100  0.670201  0.998035  1
  Ni  Ni24  1  0.329100  0.670201  0.501965  1
  Ni  Ni25  1  0.669747  0.327955  0.500672  1
  Rh  Rh26  1  0.999699  0.001006  0.999169  1
  Rh  Rh27  1  0.999699  0.001006  0.500831  1
