# generated using pymatgen
data_Hf18CoCuMo8
_symmetry_space_group_name_H-M   'P 1'
_cell_length_a   8.68757000
_cell_length_b   8.68756786
_cell_length_c   8.48645900
_cell_angle_alpha   90.00000000
_cell_angle_beta   90.00000000
_cell_angle_gamma   119.99999292
_symmetry_Int_Tables_number   1
_chemical_formula_structural   Hf18CoCuMo8
_chemical_formula_sum   'Hf18 Co1 Cu1 Mo8'
_cell_volume   554.69430485
_cell_formula_units_Z   1
loop_
 _symmetry_equiv_pos_site_id
 _symmetry_equiv_pos_as_xyz
  1  'x, y, z'
loop_
 _atom_site_type_symbol
 _atom_site_label
 _atom_site_symmetry_multiplicity
 _atom_site_fract_x
 _atom_site_fract_y
 _atom_site_fract_z
 _atom_site_occupancy
  Hf  Hf0  1  0.201946  0.798054  0.441375  1
  Hf  Hf1  1  0.201946  0.403893  0.441375  1
  Hf  Hf2  1  0.596107  0.798054  0.441375  1
  Hf  Hf3  1  0.802262  0.197738  0.554070  1
  Hf  Hf4  1  0.802262  0.604523  0.554070  1
  Hf  Hf5  1  0.395477  0.197738  0.554070  1
  Hf  Hf6  1  0.802262  0.197738  0.945930  1
  Hf  Hf7  1  0.802262  0.604523  0.945930  1
  Hf  Hf8  1  0.395477  0.197738  0.945930  1
  Hf  Hf9  1  0.201946  0.798054  0.058625  1
  Hf  Hf10  1  0.201946  0.403893  0.058625  1
  Hf  Hf11  1  0.596107  0.798054  0.058625  1
  Hf  Hf12  1  0.541793  0.458207  0.250000  1
  Hf  Hf13  1  0.541793  0.083585  0.250000  1
  Hf  Hf14  1  0.916415  0.458207  0.250000  1
  Hf  Hf15  1  0.457710  0.542290  0.750000  1
  Hf  Hf16  1  0.457710  0.915420  0.750000  1
  Hf  Hf17  1  0.084580  0.542290  0.750000  1
  Co  Co18  1  0.333333  0.666667  0.250000  1
  Cu  Cu19  1  0.666667  0.333333  0.750000  1
  Mo  Mo20  1  0.888043  0.111957  0.250000  1
  Mo  Mo21  1  0.888043  0.776084  0.250000  1
  Mo  Mo22  1  0.223916  0.111957  0.250000  1
  Mo  Mo23  1  0.111963  0.888037  0.750000  1
  Mo  Mo24  1  0.111963  0.223926  0.750000  1
  Mo  Mo25  1  0.776074  0.888037  0.750000  1
  Mo  Mo26  1  0.000000  0.000000  0.498963  1
  Mo  Mo27  1  0.000000  0.000000  0.001037  1
