# generated using pymatgen
data_Y16In6CoCu
_symmetry_space_group_name_H-M   'P 1'
_cell_length_a   10.52080800
_cell_length_b   10.52080937
_cell_length_c   6.95774300
_cell_angle_alpha   90.00000000
_cell_angle_beta   90.00000000
_cell_angle_gamma   120.00000198
_symmetry_Int_Tables_number   1
_chemical_formula_structural   Y16In6CoCu
_chemical_formula_sum   'Y16 In6 Co1 Cu1'
_cell_volume   666.95610554
_cell_formula_units_Z   1
loop_
 _symmetry_equiv_pos_site_id
 _symmetry_equiv_pos_as_xyz
  1  'x, y, z'
loop_
 _atom_site_type_symbol
 _atom_site_label
 _atom_site_symmetry_multiplicity
 _atom_site_fract_x
 _atom_site_fract_y
 _atom_site_fract_z
 _atom_site_occupancy
  Y  Y0  1  0.471176  0.528824  0.477139  1
  Y  Y1  1  0.057648  0.528824  0.477139  1
  Y  Y2  1  0.471176  0.942352  0.477139  1
  Y  Y3  1  0.535704  0.464296  0.979858  1
  Y  Y4  1  0.928592  0.464296  0.979858  1
  Y  Y5  1  0.535704  0.071408  0.979858  1
  Y  Y6  1  0.822970  0.177030  0.270349  1
  Y  Y7  1  0.354059  0.177030  0.270349  1
  Y  Y8  1  0.822970  0.645941  0.270349  1
  Y  Y9  1  0.174951  0.825049  0.773514  1
  Y  Y10  1  0.650097  0.825049  0.773514  1
  Y  Y11  1  0.174951  0.349903  0.773514  1
  Y  Y12  1  0.333333  0.666667  0.106513  1
  Y  Y13  1  0.666667  0.333333  0.589376  1
  Y  Y14  1  0.000000  0.000000  0.499348  1
  Y  Y15  1  0.000000  0.000000  0.996633  1
  In  In16  1  0.163379  0.836621  0.242711  1
  In  In17  1  0.673241  0.836621  0.242711  1
  In  In18  1  0.163379  0.326759  0.242711  1
  In  In19  1  0.837284  0.162716  0.737469  1
  In  In20  1  0.325431  0.162716  0.737469  1
  In  In21  1  0.837284  0.674569  0.737469  1
  Co  Co22  1  0.666667  0.333333  0.204850  1
  Cu  Cu23  1  0.333333  0.666667  0.704715  1
