# generated using pymatgen
data_PAuBr8
_symmetry_space_group_name_H-M   'P 1'
_cell_length_a   13.05782360
_cell_length_b   13.05782385
_cell_length_c   13.05782363
_cell_angle_alpha   91.91124740
_cell_angle_beta   122.40962046
_cell_angle_gamma   115.51072445
_symmetry_Int_Tables_number   1
_chemical_formula_structural   PAuBr8
_chemical_formula_sum   'P4 Au4 Br32'
_cell_volume   1591.15918595
_cell_formula_units_Z   4
loop_
 _symmetry_equiv_pos_site_id
 _symmetry_equiv_pos_as_xyz
  1  'x, y, z'
loop_
 _atom_site_type_symbol
 _atom_site_label
 _atom_site_symmetry_multiplicity
 _atom_site_fract_x
 _atom_site_fract_y
 _atom_site_fract_z
 _atom_site_occupancy
  P  P0  1  0.000000  0.254055  0.254055  1
  P  P1  1  0.500000  0.754055  0.254055  1
  P  P2  1  0.000000  0.745945  0.745945  1
  P  P3  1  0.500000  0.245945  0.745945  1
  Au  Au4  1  0.450506  0.250000  0.200506  1
  Au  Au5  1  0.032076  0.750000  0.282077  1
  Au  Au6  1  0.967923  0.250000  0.717924  1
  Au  Au7  1  0.549493  0.750000  0.799493  1
  Br  Br8  1  0.450584  0.113944  0.064527  1
  Br  Br9  1  0.745979  0.750000  0.995979  1
  Br  Br10  1  0.306568  0.599652  0.080229  1
  Br  Br11  1  0.980578  0.273661  0.080229  1
  Br  Br12  1  0.031045  0.613926  0.144972  1
  Br  Br13  1  0.809035  0.227175  0.226087  1
  Br  Br14  1  0.498912  0.917052  0.226088  1
  Br  Br15  1  0.019422  0.099651  0.293083  1
  Br  Br16  1  0.693431  0.773661  0.293083  1
  Br  Br17  1  0.211832  0.927511  0.284323  1
  Br  Br18  1  0.856812  0.572489  0.284323  1
  Br  Br19  1  0.450584  0.386056  0.336641  1
  Br  Br20  1  0.647522  0.250000  0.397522  1
  Br  Br21  1  0.190965  0.417052  0.418140  1
  Br  Br22  1  0.501087  0.727175  0.418140  1
  Br  Br23  1  0.031045  0.886073  0.417119  1
  Br  Br24  1  0.968954  0.113926  0.582881  1
  Br  Br25  1  0.498912  0.272825  0.581859  1
  Br  Br26  1  0.809035  0.582948  0.581859  1
  Br  Br27  1  0.352477  0.750000  0.602477  1
  Br  Br28  1  0.549415  0.613944  0.663359  1
  Br  Br29  1  0.143189  0.427511  0.715677  1
  Br  Br30  1  0.788167  0.072489  0.715678  1
  Br  Br31  1  0.306568  0.226338  0.706917  1
  Br  Br32  1  0.980578  0.900348  0.706917  1
  Br  Br33  1  0.190965  0.772825  0.773912  1
  Br  Br34  1  0.501087  0.082948  0.773912  1
  Br  Br35  1  0.968954  0.386073  0.855028  1
  Br  Br36  1  0.019422  0.726338  0.919771  1
  Br  Br37  1  0.693432  0.400349  0.919772  1
  Br  Br38  1  0.254020  0.250000  0.004020  1
  Br  Br39  1  0.549415  0.886056  0.935473  1
