# generated using pymatgen
data_LiNdMnPt3
_symmetry_space_group_name_H-M   'P 1'
_cell_length_a   5.21494136
_cell_length_b   5.21494020
_cell_length_c   5.21494026
_cell_angle_alpha   64.15347323
_cell_angle_beta   64.15348138
_cell_angle_gamma   64.15346586
_symmetry_Int_Tables_number   1
_chemical_formula_structural   LiNdMnPt3
_chemical_formula_sum   'Li1 Nd1 Mn1 Pt3'
_cell_volume   109.44616325
_cell_formula_units_Z   1
loop_
 _symmetry_equiv_pos_site_id
 _symmetry_equiv_pos_as_xyz
  1  'x, y, z'
loop_
 _atom_site_type_symbol
 _atom_site_label
 _atom_site_symmetry_multiplicity
 _atom_site_fract_x
 _atom_site_fract_y
 _atom_site_fract_z
 _atom_site_occupancy
  Li  Li0  1  0.258361  0.258361  0.258361  1
  Nd  Nd1  1  0.004885  0.004885  0.004885  1
  Mn  Mn2  1  0.621712  0.621712  0.621712  1
  Pt  Pt3  1  0.620549  0.620549  0.123941  1
  Pt  Pt4  1  0.620549  0.123941  0.620549  1
  Pt  Pt5  1  0.123941  0.620549  0.620549  1
