# generated using pymatgen
data_Dy5HoAl23VOs8
_symmetry_space_group_name_H-M   'P 1'
_cell_length_a   8.83982918
_cell_length_b   8.83982893
_cell_length_c   9.54639702
_cell_angle_alpha   90.00582483
_cell_angle_beta   89.99417810
_cell_angle_gamma   120.02215093
_symmetry_Int_Tables_number   1
_chemical_formula_structural   Dy5HoAl23VOs8
_chemical_formula_sum   'Dy5 Ho1 Al23 V1 Os8'
_cell_volume   645.89343832
_cell_formula_units_Z   1
loop_
 _symmetry_equiv_pos_site_id
 _symmetry_equiv_pos_as_xyz
  1  'x, y, z'
loop_
 _atom_site_type_symbol
 _atom_site_label
 _atom_site_symmetry_multiplicity
 _atom_site_fract_x
 _atom_site_fract_y
 _atom_site_fract_z
 _atom_site_occupancy
  Dy  Dy0  1  0.195387  0.390717  0.246239  1
  Dy  Dy1  1  0.807236  0.614492  0.750371  1
  Dy  Dy2  1  0.609283  0.804613  0.246239  1
  Dy  Dy3  1  0.385508  0.192764  0.750371  1
  Dy  Dy4  1  0.195403  0.804597  0.246220  1
  Ho  Ho5  1  0.807021  0.192979  0.750224  1
  Al  Al6  1  0.666697  0.333303  0.977468  1
  Al  Al7  1  0.666760  0.333240  0.519152  1
  Al  Al8  1  0.333304  0.666696  0.483056  1
  Al  Al9  1  0.162092  0.324344  0.575651  1
  Al  Al10  1  0.837121  0.674306  0.424780  1
  Al  Al11  1  0.675656  0.837908  0.575651  1
  Al  Al12  1  0.835545  0.671112  0.076481  1
  Al  Al13  1  0.325694  0.162879  0.424780  1
  Al  Al14  1  0.160461  0.321064  0.925117  1
  Al  Al15  1  0.162221  0.837779  0.575586  1
  Al  Al16  1  0.328888  0.164455  0.076481  1
  Al  Al17  1  0.837141  0.162859  0.424979  1
  Al  Al18  1  0.678936  0.839539  0.925117  1
  Al  Al19  1  0.835558  0.164442  0.076304  1
  Al  Al20  1  0.160561  0.839439  0.925199  1
  Al  Al21  1  0.562153  0.124329  0.253345  1
  Al  Al22  1  0.441739  0.883134  0.751259  1
  Al  Al23  1  0.875671  0.437847  0.253345  1
  Al  Al24  1  0.116866  0.558261  0.751259  1
  Al  Al25  1  0.562143  0.437857  0.253321  1
  Al  Al26  1  0.441472  0.558528  0.751283  1
  Al  Al27  1  0.000026  0.999974  0.250368  1
  Al  Al28  1  0.999849  0.000151  0.749599  1
  V  V29  1  0.333294  0.666706  0.983159  1
  Os  Os30  1  0.495481  0.990607  0.005382  1
  Os  Os31  1  0.009393  0.504519  0.005382  1
  Os  Os32  1  0.499593  0.998886  0.503722  1
  Os  Os33  1  0.495328  0.504672  0.005496  1
  Os  Os34  1  0.001114  0.500407  0.503722  1
  Os  Os35  1  0.499415  0.500585  0.503612  1
  Os  Os36  1  0.999989  0.000011  0.000906  1
  Os  Os37  1  0.999999  0.000001  0.499376  1
