# generated using pymatgen
data_Ho19TmCoBi8Rh3
_symmetry_space_group_name_H-M   'P 1'
_cell_length_a   7.99041062
_cell_length_b   8.95919408
_cell_length_c   12.40792806
_cell_angle_alpha   89.99066337
_cell_angle_beta   89.85820895
_cell_angle_gamma   89.98803407
_symmetry_Int_Tables_number   1
_chemical_formula_structural   Ho19TmCoBi8Rh3
_chemical_formula_sum   'Ho19 Tm1 Co1 Bi8 Rh3'
_cell_volume   888.25152999
_cell_formula_units_Z   1
loop_
 _symmetry_equiv_pos_site_id
 _symmetry_equiv_pos_as_xyz
  1  'x, y, z'
loop_
 _atom_site_type_symbol
 _atom_site_label
 _atom_site_symmetry_multiplicity
 _atom_site_fract_x
 _atom_site_fract_y
 _atom_site_fract_z
 _atom_site_occupancy
  Ho  Ho0  1  0.345797  0.749889  0.699536  1
  Ho  Ho1  1  0.657761  0.250029  0.294102  1
  Ho  Ho2  1  0.842462  0.250055  0.793845  1
  Ho  Ho3  1  0.157504  0.749977  0.205732  1
  Ho  Ho4  1  0.879660  0.749978  0.806121  1
  Ho  Ho5  1  0.120884  0.250019  0.193400  1
  Ho  Ho6  1  0.379321  0.250074  0.693369  1
  Ho  Ho7  1  0.614879  0.749829  0.311909  1
  Ho  Ho8  1  0.324447  0.465510  0.436613  1
  Ho  Ho9  1  0.177823  0.457286  0.934255  1
  Ho  Ho10  1  0.324113  0.034450  0.436526  1
  Ho  Ho11  1  0.821679  0.541888  0.065682  1
  Ho  Ho12  1  0.676490  0.954430  0.564109  1
  Ho  Ho13  1  0.821677  0.958098  0.065649  1
  Ho  Ho14  1  0.177823  0.042673  0.934250  1
  Ho  Ho15  1  0.051570  0.749856  0.498917  1
  Ho  Ho16  1  0.949595  0.250152  0.501350  1
  Ho  Ho17  1  0.547775  0.249995  0.000743  1
  Ho  Ho18  1  0.450784  0.749975  0.998306  1
  Tm  Tm19  1  0.675502  0.545544  0.563919  1
  Co  Co20  1  0.432866  0.749695  0.491849  1
  Bi  Bi21  1  0.571023  0.509873  0.826061  1
  Bi  Bi22  1  0.429113  0.490989  0.173726  1
  Bi  Bi23  1  0.071458  0.490554  0.672636  1
  Bi  Bi24  1  0.429133  0.009032  0.173747  1
  Bi  Bi25  1  0.928626  0.510117  0.327446  1
  Bi  Bi26  1  0.570958  0.990145  0.826191  1
  Bi  Bi27  1  0.928545  0.989897  0.327451  1
  Bi  Bi28  1  0.071755  0.009487  0.672727  1
  Rh  Rh29  1  0.070370  0.749999  0.990460  1
  Rh  Rh30  1  0.928309  0.249994  0.010083  1
  Rh  Rh31  1  0.570296  0.250511  0.509292  1
