# generated using pymatgen
data_HfZrReB2Ru5
_symmetry_space_group_name_H-M   'P 1'
_cell_length_a   9.51885159
_cell_length_b   9.51885159
_cell_length_c   3.02798700
_cell_angle_alpha   90.00000000
_cell_angle_beta   90.00000000
_cell_angle_gamma   90.42538920
_symmetry_Int_Tables_number   1
_chemical_formula_structural   HfZrReB2Ru5
_chemical_formula_sum   'Hf2 Zr2 Re2 B4 Ru10'
_cell_volume   274.35390604
_cell_formula_units_Z   2
loop_
 _symmetry_equiv_pos_site_id
 _symmetry_equiv_pos_as_xyz
  1  'x, y, z'
loop_
 _atom_site_type_symbol
 _atom_site_label
 _atom_site_symmetry_multiplicity
 _atom_site_fract_x
 _atom_site_fract_y
 _atom_site_fract_z
 _atom_site_occupancy
  Hf  Hf0  1  0.676574  0.176574  0.000000  1
  Hf  Hf1  1  0.323426  0.823426  0.000000  1
  Zr  Zr2  1  0.176529  0.323471  0.000000  1
  Zr  Zr3  1  0.823471  0.676529  0.000000  1
  Re  Re4  1  0.000000  0.000000  0.000000  1
  Re  Re5  1  0.500000  0.500000  0.000000  1
  B  B6  1  0.120910  0.620910  0.000000  1
  B  B7  1  0.879090  0.379090  0.000000  1
  B  B8  1  0.620408  0.879592  0.000000  1
  B  B9  1  0.379592  0.120408  0.000000  1
  Ru  Ru10  1  0.219133  0.068283  0.500000  1
  Ru  Ru11  1  0.780867  0.931717  0.500000  1
  Ru  Ru12  1  0.073597  0.783088  0.500000  1
  Ru  Ru13  1  0.716912  0.426403  0.500000  1
  Ru  Ru14  1  0.926403  0.216912  0.500000  1
  Ru  Ru15  1  0.283088  0.573597  0.500000  1
  Ru  Ru16  1  0.568283  0.719133  0.500000  1
  Ru  Ru17  1  0.431717  0.280867  0.500000  1
  Ru  Ru18  1  0.500000  0.000000  0.500000  1
  Ru  Ru19  1  0.000000  0.500000  0.500000  1
