# generated using pymatgen
data_KBa2Fe5NiP6
_symmetry_space_group_name_H-M   'P 1'
_cell_length_a   5.35273522
_cell_length_b   6.85740330
_cell_length_c   8.46006400
_cell_angle_alpha   111.71637480
_cell_angle_beta   108.50993632
_cell_angle_gamma   89.92407130
_symmetry_Int_Tables_number   1
_chemical_formula_structural   KBa2Fe5NiP6
_chemical_formula_sum   'K1 Ba2 Fe5 Ni1 P6'
_cell_volume   271.18236695
_cell_formula_units_Z   1
loop_
 _symmetry_equiv_pos_site_id
 _symmetry_equiv_pos_as_xyz
  1  'x, y, z'
loop_
 _atom_site_type_symbol
 _atom_site_label
 _atom_site_symmetry_multiplicity
 _atom_site_fract_x
 _atom_site_fract_y
 _atom_site_fract_z
 _atom_site_occupancy
  K  K0  1  0.001623  0.002343  0.000709  1
  Ba  Ba1  1  0.658793  0.000362  0.322451  1
  Ba  Ba2  1  0.339838  0.997454  0.677007  1
  Fe  Fe3  1  0.083058  0.498276  0.667359  1
  Fe  Fe4  1  0.750105  0.499966  0.998550  1
  Fe  Fe5  1  0.582365  0.498570  0.664025  1
  Fe  Fe6  1  0.250471  0.500522  0.002075  1
  Fe  Fe7  1  0.917530  0.501050  0.333862  1
  Ni  Ni8  1  0.416409  0.501298  0.333760  1
  P  P9  1  0.215534  0.318003  0.444149  1
  P  P10  1  0.886579  0.319234  0.772973  1
  P  P11  1  0.558310  0.321082  0.102710  1
  P  P12  1  0.788774  0.681181  0.565016  1
  P  P13  1  0.445955  0.678477  0.892492  1
  P  P14  1  0.104654  0.682182  0.222863  1
