# generated using pymatgen
data_Li8Zr3NpCl24
_symmetry_space_group_name_H-M   'P 1'
_cell_length_a   6.29527800
_cell_length_b   6.29527742
_cell_length_c   25.37340700
_cell_angle_alpha   90.00000000
_cell_angle_beta   90.00000000
_cell_angle_gamma   120.00000306
_symmetry_Int_Tables_number   1
_chemical_formula_structural   Li8Zr3NpCl24
_chemical_formula_sum   'Li8 Zr3 Np1 Cl24'
_cell_volume   870.84164731
_cell_formula_units_Z   1
loop_
 _symmetry_equiv_pos_site_id
 _symmetry_equiv_pos_as_xyz
  1  'x, y, z'
loop_
 _atom_site_type_symbol
 _atom_site_label
 _atom_site_symmetry_multiplicity
 _atom_site_fract_x
 _atom_site_fract_y
 _atom_site_fract_z
 _atom_site_occupancy
  Li  Li0  1  0.000000  0.000000  0.250326  1
  Li  Li1  1  0.000000  0.000000  0.749674  1
  Li  Li2  1  0.333333  0.666667  0.000350  1
  Li  Li3  1  0.333333  0.666667  0.499619  1
  Li  Li4  1  0.333333  0.666667  0.250235  1
  Li  Li5  1  0.666667  0.333333  0.749765  1
  Li  Li6  1  0.666667  0.333333  0.999650  1
  Li  Li7  1  0.666667  0.333333  0.500381  1
  Zr  Zr8  1  0.000000  0.000000  0.500000  1
  Zr  Zr9  1  0.333333  0.666667  0.749610  1
  Zr  Zr10  1  0.666667  0.333333  0.250390  1
  Np  Np11  1  0.000000  0.000000  0.000000  1
  Cl  Cl12  1  0.342808  0.009259  0.306418  1
  Cl  Cl13  1  0.333297  0.990982  0.805567  1
  Cl  Cl14  1  0.000029  0.340066  0.057925  1
  Cl  Cl15  1  0.999831  0.323903  0.556012  1
  Cl  Cl16  1  0.990741  0.333550  0.306418  1
  Cl  Cl17  1  0.009018  0.342314  0.805567  1
  Cl  Cl18  1  0.342314  0.333297  0.194433  1
  Cl  Cl19  1  0.333550  0.342808  0.693582  1
  Cl  Cl20  1  0.323903  0.324072  0.443988  1
  Cl  Cl21  1  0.340066  0.340036  0.942075  1
  Cl  Cl22  1  0.675928  0.999831  0.443988  1
  Cl  Cl23  1  0.340036  0.999971  0.057925  1
  Cl  Cl24  1  0.324072  0.000169  0.556012  1
  Cl  Cl25  1  0.659934  0.659964  0.057925  1
  Cl  Cl26  1  0.676097  0.675928  0.556012  1
  Cl  Cl27  1  0.666450  0.657192  0.306418  1
  Cl  Cl28  1  0.657686  0.666703  0.805567  1
  Cl  Cl29  1  0.990982  0.657686  0.194433  1
  Cl  Cl30  1  0.009259  0.666450  0.693582  1
  Cl  Cl31  1  0.000169  0.676097  0.443988  1
  Cl  Cl32  1  0.999971  0.659934  0.942075  1
  Cl  Cl33  1  0.659964  0.000029  0.942075  1
  Cl  Cl34  1  0.666703  0.009018  0.194433  1
  Cl  Cl35  1  0.657192  0.990741  0.693582  1
