# generated using pymatgen
data_Nd2YSi2
_symmetry_space_group_name_H-M   'P 1'
_cell_length_a   7.62619300
_cell_length_b   7.62619300
_cell_length_c   4.39369800
_cell_angle_alpha   90.00000000
_cell_angle_beta   90.00000000
_cell_angle_gamma   90.00000000
_symmetry_Int_Tables_number   1
_chemical_formula_structural   Nd2YSi2
_chemical_formula_sum   'Nd4 Y2 Si4'
_cell_volume   255.53228968
_cell_formula_units_Z   2
loop_
 _symmetry_equiv_pos_site_id
 _symmetry_equiv_pos_as_xyz
  1  'x, y, z'
loop_
 _atom_site_type_symbol
 _atom_site_label
 _atom_site_symmetry_multiplicity
 _atom_site_fract_x
 _atom_site_fract_y
 _atom_site_fract_z
 _atom_site_occupancy
  Nd  Nd0  1  0.676932  0.176932  0.500000  1
  Nd  Nd1  1  0.323068  0.823068  0.500000  1
  Nd  Nd2  1  0.176932  0.323068  0.500000  1
  Nd  Nd3  1  0.823068  0.676932  0.500000  1
  Y  Y4  1  0.000000  0.000000  0.000000  1
  Y  Y5  1  0.500000  0.500000  0.000000  1
  Si  Si6  1  0.113381  0.613381  0.000000  1
  Si  Si7  1  0.886619  0.386619  0.000000  1
  Si  Si8  1  0.613381  0.886619  0.000000  1
  Si  Si9  1  0.386619  0.113381  0.000000  1
