# generated using pymatgen
data_DyY(ZrRh)2
_symmetry_space_group_name_H-M   'P 1'
_cell_length_a   4.59480800
_cell_length_b   7.11415900
_cell_length_c   8.29360000
_cell_angle_alpha   90.00000000
_cell_angle_beta   90.00000000
_cell_angle_gamma   90.00000000
_symmetry_Int_Tables_number   1
_chemical_formula_structural   DyY(ZrRh)2
_chemical_formula_sum   'Dy2 Y2 Zr4 Rh4'
_cell_volume   271.10281145
_cell_formula_units_Z   2
loop_
 _symmetry_equiv_pos_site_id
 _symmetry_equiv_pos_as_xyz
  1  'x, y, z'
loop_
 _atom_site_type_symbol
 _atom_site_label
 _atom_site_symmetry_multiplicity
 _atom_site_fract_x
 _atom_site_fract_y
 _atom_site_fract_z
 _atom_site_occupancy
  Dy  Dy0  1  0.250000  0.983480  0.323557  1
  Dy  Dy1  1  0.250000  0.483480  0.176443  1
  Y  Y2  1  0.750000  0.016099  0.677394  1
  Y  Y3  1  0.750000  0.516099  0.822606  1
  Zr  Zr4  1  0.250000  0.357190  0.575207  1
  Zr  Zr5  1  0.250000  0.857190  0.924793  1
  Zr  Zr6  1  0.750000  0.642618  0.423391  1
  Zr  Zr7  1  0.750000  0.142618  0.076609  1
  Rh  Rh8  1  0.250000  0.231491  0.911895  1
  Rh  Rh9  1  0.250000  0.731491  0.588105  1
  Rh  Rh10  1  0.750000  0.769119  0.090075  1
  Rh  Rh11  1  0.750000  0.269119  0.409925  1
