# generated using pymatgen
data_Tb7Sm5(SiI3)4
_symmetry_space_group_name_H-M   'P 1'
_cell_length_a   10.59876081
_cell_length_b   10.60324914
_cell_length_c   10.60805037
_cell_angle_alpha   109.51068870
_cell_angle_beta   109.47628863
_cell_angle_gamma   109.42596456
_symmetry_Int_Tables_number   1
_chemical_formula_structural   Tb7Sm5(SiI3)4
_chemical_formula_sum   'Tb7 Sm5 Si4 I12'
_cell_volume   917.72258327
_cell_formula_units_Z   1
loop_
 _symmetry_equiv_pos_site_id
 _symmetry_equiv_pos_as_xyz
  1  'x, y, z'
loop_
 _atom_site_type_symbol
 _atom_site_label
 _atom_site_symmetry_multiplicity
 _atom_site_fract_x
 _atom_site_fract_y
 _atom_site_fract_z
 _atom_site_occupancy
  Tb  Tb0  1  0.040321  0.269873  0.020026  1
  Tb  Tb1  1  0.019284  0.039467  0.270192  1
  Tb  Tb2  1  0.479689  0.750171  0.020087  1
  Tb  Tb3  1  0.479512  0.229395  0.459063  1
  Tb  Tb4  1  0.019394  0.479363  0.748997  1
  Tb  Tb5  1  0.269464  0.019444  0.039115  1
  Tb  Tb6  1  0.230473  0.269634  0.750073  1
  Sm  Sm7  1  0.462114  0.480846  0.230848  1
  Sm  Sm8  1  0.750698  0.231833  0.268734  1
  Sm  Sm9  1  0.748754  0.017796  0.480857  1
  Sm  Sm10  1  0.232020  0.462690  0.480800  1
  Sm  Sm11  1  0.268006  0.749021  0.230727  1
  Si  Si12  1  0.248475  0.247189  0.248390  1
  Si  Si13  1  0.498677  0.999923  0.248519  1
  Si  Si14  1  0.001132  0.249735  0.501075  1
  Si  Si15  1  0.248704  0.498612  0.997482  1
  I  I16  1  0.249705  0.757613  0.746187  1
  I  I17  1  0.513794  0.505233  0.758245  1
  I  I18  1  0.986248  0.744472  0.991442  1
  I  I19  1  0.744439  0.253019  0.758385  1
  I  I20  1  0.996582  0.988596  0.746364  1
  I  I21  1  0.250141  0.996371  0.507844  1
  I  I22  1  0.757578  0.514149  0.510846  1
  I  I23  1  0.503063  0.246658  0.988972  1
  I  I24  1  0.757551  0.743279  0.246679  1
  I  I25  1  0.744503  0.991436  0.985988  1
  I  I26  1  0.991150  0.505714  0.246862  1
  I  I27  1  0.508530  0.758468  0.517198  1
