# generated using pymatgen
data_Ta3Ti16Si16Tc
_symmetry_space_group_name_H-M   'P 1'
_cell_length_a   6.69425162
_cell_length_b   6.69425029
_cell_length_c   12.22753719
_cell_angle_alpha   90.17616010
_cell_angle_beta   89.82384196
_cell_angle_gamma   90.00909144
_symmetry_Int_Tables_number   1
_chemical_formula_structural   Ta3Ti16Si16Tc
_chemical_formula_sum   'Ta3 Ti16 Si16 Tc1'
_cell_volume   547.94738739
_cell_formula_units_Z   1
loop_
 _symmetry_equiv_pos_site_id
 _symmetry_equiv_pos_as_xyz
  1  'x, y, z'
loop_
 _atom_site_type_symbol
 _atom_site_label
 _atom_site_symmetry_multiplicity
 _atom_site_fract_x
 _atom_site_fract_y
 _atom_site_fract_z
 _atom_site_occupancy
  Ta  Ta0  1  0.170609  0.170609  0.000000  1
  Ta  Ta1  1  0.328767  0.671405  0.252126  1
  Ta  Ta2  1  0.671405  0.328767  0.747874  1
  Ti  Ti3  1  0.994236  0.151126  0.619911  1
  Ti  Ti4  1  0.349999  0.494805  0.871121  1
  Ti  Ti5  1  0.648316  0.502415  0.370803  1
  Ti  Ti6  1  0.494805  0.349999  0.128879  1
  Ti  Ti7  1  0.502415  0.648316  0.629197  1
  Ti  Ti8  1  0.004416  0.850901  0.123592  1
  Ti  Ti9  1  0.151126  0.994236  0.380089  1
  Ti  Ti10  1  0.850901  0.004416  0.876408  1
  Ti  Ti11  1  0.002553  0.343043  0.221856  1
  Ti  Ti12  1  0.161333  0.501125  0.470939  1
  Ti  Ti13  1  0.843005  0.496779  0.969804  1
  Ti  Ti14  1  0.501125  0.161333  0.529061  1
  Ti  Ti15  1  0.496779  0.843005  0.030196  1
  Ti  Ti16  1  0.997434  0.656252  0.721559  1
  Ti  Ti17  1  0.343043  0.002553  0.778144  1
  Ti  Ti18  1  0.656252  0.997434  0.278441  1
  Si  Si19  1  0.045229  0.301922  0.812337  1
  Si  Si20  1  0.197601  0.545959  0.063023  1
  Si  Si21  1  0.803739  0.461680  0.561177  1
  Si  Si22  1  0.545959  0.197601  0.936977  1
  Si  Si23  1  0.461680  0.803739  0.438823  1
  Si  Si24  1  0.951216  0.700440  0.316099  1
  Si  Si25  1  0.301922  0.045229  0.187663  1
  Si  Si26  1  0.700440  0.951216  0.683901  1
  Si  Si27  1  0.292157  0.358267  0.671996  1
  Si  Si28  1  0.140314  0.792466  0.922193  1
  Si  Si29  1  0.859189  0.205012  0.421331  1
  Si  Si30  1  0.792466  0.140314  0.077807  1
  Si  Si31  1  0.205012  0.859189  0.578669  1
  Si  Si32  1  0.707434  0.640744  0.172409  1
  Si  Si33  1  0.358267  0.292157  0.328004  1
  Si  Si34  1  0.640744  0.707434  0.827591  1
  Tc  Tc35  1  0.828108  0.828108  0.500000  1
