# generated using pymatgen
data_LuU(P2O7)2
_symmetry_space_group_name_H-M   'P 1'
_cell_length_a   8.81463367
_cell_length_b   5.25579292
_cell_length_c   7.32597788
_cell_angle_alpha   73.16398355
_cell_angle_beta   89.39525348
_cell_angle_gamma   89.86829492
_symmetry_Int_Tables_number   1
_chemical_formula_structural   LuU(P2O7)2
_chemical_formula_sum   'Lu1 U1 P4 O14'
_cell_volume   324.83152887
_cell_formula_units_Z   1
loop_
 _symmetry_equiv_pos_site_id
 _symmetry_equiv_pos_as_xyz
  1  'x, y, z'
loop_
 _atom_site_type_symbol
 _atom_site_label
 _atom_site_symmetry_multiplicity
 _atom_site_fract_x
 _atom_site_fract_y
 _atom_site_fract_z
 _atom_site_occupancy
  Lu  Lu0  1  0.548767  0.206973  0.271649  1
  U  U1  1  0.050042  0.794062  0.725891  1
  P  P2  1  0.371661  0.606465  0.510321  1
  P  P3  1  0.291074  0.249058  0.889612  1
  P  P4  1  0.857871  0.390795  0.483516  1
  P  P5  1  0.780415  0.752673  0.113943  1
  O  O6  1  0.157705  0.437954  0.905415  1
  O  O7  1  0.223285  0.019646  0.822444  1
  O  O8  1  0.732443  0.994838  0.170503  1
  O  O9  1  0.382313  0.154029  0.067450  1
  O  O10  1  0.978162  0.164808  0.524814  1
  O  O11  1  0.698556  0.287902  0.490180  1
  O  O12  1  0.376514  0.434327  0.378041  1
  O  O13  1  0.655394  0.570751  0.088462  1
  O  O14  1  0.483515  0.831609  0.474553  1
  O  O15  1  0.403339  0.416828  0.726254  1
  O  O16  1  0.899299  0.579155  0.274251  1
  O  O17  1  0.886231  0.560259  0.621987  1
  O  O18  1  0.205555  0.714306  0.525418  1
  O  O19  1  0.889949  0.833562  0.935294  1
