# generated using pymatgen
data_Ho2PaAl2InIr3
_symmetry_space_group_name_H-M   'P 1'
_cell_length_a   7.41898717
_cell_length_b   7.31678185
_cell_length_c   3.82987600
_cell_angle_alpha   90.00000000
_cell_angle_beta   90.00000000
_cell_angle_gamma   119.42924829
_symmetry_Int_Tables_number   1
_chemical_formula_structural   Ho2PaAl2InIr3
_chemical_formula_sum   'Ho2 Pa1 Al2 In1 Ir3'
_cell_volume   181.07112354
_cell_formula_units_Z   1
loop_
 _symmetry_equiv_pos_site_id
 _symmetry_equiv_pos_as_xyz
  1  'x, y, z'
loop_
 _atom_site_type_symbol
 _atom_site_label
 _atom_site_symmetry_multiplicity
 _atom_site_fract_x
 _atom_site_fract_y
 _atom_site_fract_z
 _atom_site_occupancy
  Ho  Ho0  1  0.404483  0.001882  0.000000  1
  Ho  Ho1  1  0.009826  0.419106  0.000000  1
  Pa  Pa2  1  0.576125  0.575772  0.000000  1
  Al  Al3  1  0.005836  0.750864  0.500000  1
  Al  Al4  1  0.234539  0.232957  0.500000  1
  In  In5  1  0.747966  0.013140  0.500000  1
  Ir  Ir6  1  0.011824  0.987969  0.000000  1
  Ir  Ir7  1  0.663994  0.367114  0.500000  1
  Ir  Ir8  1  0.345406  0.651195  0.500000  1
