# generated using pymatgen
data_Tb2NdCo(P3Rh4)2
_symmetry_space_group_name_H-M   'P 1'
_cell_length_a   3.88918800
_cell_length_b   11.16960000
_cell_length_c   12.85452900
_cell_angle_alpha   90.00000000
_cell_angle_beta   90.00000000
_cell_angle_gamma   90.00000000
_symmetry_Int_Tables_number   1
_chemical_formula_structural   Tb2NdCo(P3Rh4)2
_chemical_formula_sum   'Tb4 Nd2 Co2 P12 Rh16'
_cell_volume   558.40940737
_cell_formula_units_Z   2
loop_
 _symmetry_equiv_pos_site_id
 _symmetry_equiv_pos_as_xyz
  1  'x, y, z'
loop_
 _atom_site_type_symbol
 _atom_site_label
 _atom_site_symmetry_multiplicity
 _atom_site_fract_x
 _atom_site_fract_y
 _atom_site_fract_z
 _atom_site_occupancy
  Tb  Tb0  1  0.500000  0.815258  0.201650  1
  Tb  Tb1  1  0.500000  0.184742  0.201650  1
  Tb  Tb2  1  0.000000  0.684742  0.798350  1
  Tb  Tb3  1  0.000000  0.315258  0.798350  1
  Nd  Nd4  1  0.000000  0.500000  0.522189  1
  Nd  Nd5  1  0.500000  0.000000  0.477811  1
  Co  Co6  1  0.000000  0.500000  0.980458  1
  Co  Co7  1  0.500000  0.000000  0.019542  1
  P  P8  1  0.500000  0.500000  0.882905  1
  P  P9  1  0.000000  0.000000  0.117095  1
  P  P10  1  0.500000  0.500000  0.348144  1
  P  P11  1  0.000000  0.000000  0.651856  1
  P  P12  1  0.500000  0.313987  0.620104  1
  P  P13  1  0.500000  0.686013  0.620104  1
  P  P14  1  0.000000  0.186013  0.379896  1
  P  P15  1  0.000000  0.813987  0.379896  1
  P  P16  1  0.500000  0.853104  0.896486  1
  P  P17  1  0.500000  0.146896  0.896486  1
  P  P18  1  0.000000  0.646896  0.103514  1
  P  P19  1  0.000000  0.353104  0.103514  1
  Rh  Rh20  1  0.500000  0.500000  0.167448  1
  Rh  Rh21  1  0.000000  0.000000  0.832552  1
  Rh  Rh22  1  0.500000  0.500000  0.706024  1
  Rh  Rh23  1  0.000000  0.000000  0.293976  1
  Rh  Rh24  1  0.500000  0.336574  0.994336  1
  Rh  Rh25  1  0.500000  0.663426  0.994336  1
  Rh  Rh26  1  0.000000  0.163426  0.005664  1
  Rh  Rh27  1  0.000000  0.836574  0.005664  1
  Rh  Rh28  1  0.500000  0.292858  0.429045  1
  Rh  Rh29  1  0.500000  0.707142  0.429045  1
  Rh  Rh30  1  0.000000  0.207142  0.570955  1
  Rh  Rh31  1  0.000000  0.792858  0.570955  1
  Rh  Rh32  1  0.500000  0.873691  0.713342  1
  Rh  Rh33  1  0.500000  0.126309  0.713342  1
  Rh  Rh34  1  0.000000  0.626309  0.286658  1
  Rh  Rh35  1  0.000000  0.373691  0.286658  1
