# generated using pymatgen
data_Y8Ti11Si16Pd
_symmetry_space_group_name_H-M   'P 1'
_cell_length_a   7.05719373
_cell_length_b   7.05719283
_cell_length_c   12.88751300
_cell_angle_alpha   90.11273830
_cell_angle_beta   89.88726219
_cell_angle_gamma   89.67611959
_symmetry_Int_Tables_number   1
_chemical_formula_structural   Y8Ti11Si16Pd
_chemical_formula_sum   'Y8 Ti11 Si16 Pd1'
_cell_volume   641.83664726
_cell_formula_units_Z   1
loop_
 _symmetry_equiv_pos_site_id
 _symmetry_equiv_pos_as_xyz
  1  'x, y, z'
loop_
 _atom_site_type_symbol
 _atom_site_label
 _atom_site_symmetry_multiplicity
 _atom_site_fract_x
 _atom_site_fract_y
 _atom_site_fract_z
 _atom_site_occupancy
  Y  Y0  1  0.340556  0.003027  0.466740  1
  Y  Y1  1  0.496977  0.841794  0.717513  1
  Y  Y2  1  0.501274  0.157697  0.214303  1
  Y  Y3  1  0.841794  0.496977  0.282487  1
  Y  Y4  1  0.157697  0.501274  0.785697  1
  Y  Y5  1  0.656082  0.999887  0.968284  1
  Y  Y6  1  0.003027  0.340556  0.533260  1
  Y  Y7  1  0.999887  0.656082  0.031716  1
  Ti  Ti8  1  0.175713  0.825930  0.249074  1
  Ti  Ti9  1  0.825930  0.175713  0.750926  1
  Ti  Ti10  1  0.672946  0.672946  0.500000  1
  Ti  Ti11  1  0.148476  0.006182  0.877027  1
  Ti  Ti12  1  0.494202  0.653122  0.123987  1
  Ti  Ti13  1  0.507909  0.350140  0.626643  1
  Ti  Ti14  1  0.653122  0.494202  0.876013  1
  Ti  Ti15  1  0.350140  0.507909  0.373357  1
  Ti  Ti16  1  0.849899  0.992679  0.374579  1
  Ti  Ti17  1  0.006182  0.148476  0.122973  1
  Ti  Ti18  1  0.992679  0.849899  0.625421  1
  Si  Si19  1  0.201805  0.132785  0.685581  1
  Si  Si20  1  0.373144  0.711234  0.932009  1
  Si  Si21  1  0.630836  0.294674  0.433263  1
  Si  Si22  1  0.711234  0.373144  0.067991  1
  Si  Si23  1  0.294674  0.630836  0.566737  1
  Si  Si24  1  0.797425  0.868022  0.183284  1
  Si  Si25  1  0.132785  0.201805  0.314419  1
  Si  Si26  1  0.868022  0.797425  0.816716  1
  Si  Si27  1  0.285759  0.943280  0.064729  1
  Si  Si28  1  0.547480  0.790876  0.314715  1
  Si  Si29  1  0.450560  0.210256  0.813613  1
  Si  Si30  1  0.790876  0.547480  0.685285  1
  Si  Si31  1  0.210256  0.450560  0.186387  1
  Si  Si32  1  0.708720  0.047991  0.564989  1
  Si  Si33  1  0.943280  0.285759  0.935271  1
  Si  Si34  1  0.047991  0.708720  0.435011  1
  Pd  Pd35  1  0.330663  0.330663  0.000000  1
