# generated using pymatgen
data_Nb12Ga9Rh3C4
_symmetry_space_group_name_H-M   'P 1'
_cell_length_a   8.36294181
_cell_length_b   8.37074243
_cell_length_c   8.36294100
_cell_angle_alpha   60.03082116
_cell_angle_beta   59.99999924
_cell_angle_gamma   60.03082369
_symmetry_Int_Tables_number   1
_chemical_formula_structural   Nb12Ga9Rh3C4
_chemical_formula_sum   'Nb12 Ga9 Rh3 C4'
_cell_volume   414.16105505
_cell_formula_units_Z   1
loop_
 _symmetry_equiv_pos_site_id
 _symmetry_equiv_pos_as_xyz
  1  'x, y, z'
loop_
 _atom_site_type_symbol
 _atom_site_label
 _atom_site_symmetry_multiplicity
 _atom_site_fract_x
 _atom_site_fract_y
 _atom_site_fract_z
 _atom_site_occupancy
  Nb  Nb0  1  0.814766  0.816499  0.184368  1
  Nb  Nb1  1  0.189592  0.184432  0.812988  1
  Nb  Nb2  1  0.812988  0.184432  0.812988  1
  Nb  Nb3  1  0.184368  0.816499  0.184368  1
  Nb  Nb4  1  0.184368  0.816499  0.814766  1
  Nb  Nb5  1  0.812988  0.184432  0.189592  1
  Nb  Nb6  1  0.435234  0.433501  0.065632  1
  Nb  Nb7  1  0.060408  0.065568  0.437012  1
  Nb  Nb8  1  0.437012  0.065568  0.437012  1
  Nb  Nb9  1  0.065632  0.433501  0.065632  1
  Nb  Nb10  1  0.065632  0.433501  0.435234  1
  Nb  Nb11  1  0.437012  0.065568  0.060408  1
  Ga  Ga12  1  0.625000  0.125000  0.625000  1
  Ga  Ga13  1  0.758175  0.423465  0.409181  1
  Ga  Ga14  1  0.413134  0.760600  0.413134  1
  Ga  Ga15  1  0.409181  0.423465  0.758175  1
  Ga  Ga16  1  0.409181  0.423465  0.409181  1
  Ga  Ga17  1  0.491825  0.826535  0.840819  1
  Ga  Ga18  1  0.836866  0.489400  0.836866  1
  Ga  Ga19  1  0.840819  0.826535  0.491825  1
  Ga  Ga20  1  0.840819  0.826535  0.840819  1
  Rh  Rh21  1  0.125000  0.625000  0.625000  1
  Rh  Rh22  1  0.625000  0.625000  0.125000  1
  Rh  Rh23  1  0.625000  0.625000  0.625000  1
  C  C24  1  0.625000  0.125000  0.125000  1
  C  C25  1  0.125000  0.625000  0.125000  1
  C  C26  1  0.125000  0.125000  0.625000  1
  C  C27  1  0.125000  0.125000  0.125000  1
