# generated using pymatgen
data_Yb5Tm3(Si4W3)4
_symmetry_space_group_name_H-M   'P 1'
_cell_length_a   6.70458632
_cell_length_b   6.91137605
_cell_length_c   12.96856696
_cell_angle_alpha   90.09994667
_cell_angle_beta   89.97421406
_cell_angle_gamma   90.07233248
_symmetry_Int_Tables_number   1
_chemical_formula_structural   Yb5Tm3(Si4W3)4
_chemical_formula_sum   'Yb5 Tm3 Si16 W12'
_cell_volume   600.93492999
_cell_formula_units_Z   1
loop_
 _symmetry_equiv_pos_site_id
 _symmetry_equiv_pos_as_xyz
  1  'x, y, z'
loop_
 _atom_site_type_symbol
 _atom_site_label
 _atom_site_symmetry_multiplicity
 _atom_site_fract_x
 _atom_site_fract_y
 _atom_site_fract_z
 _atom_site_occupancy
  Yb  Yb0  1  0.497895  0.665525  0.590000  1
  Yb  Yb1  1  0.998180  0.832093  0.908998  1
  Yb  Yb2  1  0.501420  0.331686  0.090937  1
  Yb  Yb3  1  0.001693  0.168975  0.408759  1
  Yb  Yb4  1  0.501085  0.332582  0.410356  1
  Tm  Tm5  1  0.001261  0.171379  0.093095  1
  Tm  Tm6  1  0.498337  0.669490  0.907273  1
  Tm  Tm7  1  0.997667  0.829779  0.593189  1
  Si  Si8  1  0.662286  0.957820  0.455462  1
  Si  Si9  1  0.162860  0.542436  0.044054  1
  Si  Si10  1  0.337339  0.042147  0.955262  1
  Si  Si11  1  0.838575  0.456823  0.545200  1
  Si  Si12  1  0.337026  0.041073  0.545395  1
  Si  Si13  1  0.836833  0.458498  0.955220  1
  Si  Si14  1  0.663413  0.958553  0.044109  1
  Si  Si15  1  0.161662  0.543534  0.455495  1
  Si  Si16  1  0.465480  0.374303  0.749485  1
  Si  Si17  1  0.965815  0.123527  0.750110  1
  Si  Si18  1  0.534363  0.622309  0.249815  1
  Si  Si19  1  0.035216  0.878497  0.249041  1
  Si  Si20  1  0.698922  0.863334  0.750241  1
  Si  Si21  1  0.199851  0.634893  0.750153  1
  Si  Si22  1  0.302161  0.136579  0.250684  1
  Si  Si23  1  0.798448  0.365563  0.250763  1
  W  W24  1  0.667216  0.162501  0.627087  1
  W  W25  1  0.166107  0.334672  0.874020  1
  W  W26  1  0.334201  0.834345  0.125286  1
  W  W27  1  0.836362  0.668259  0.372903  1
  W  W28  1  0.334198  0.833881  0.372628  1
  W  W29  1  0.833474  0.665996  0.125638  1
  W  W30  1  0.667134  0.164856  0.874322  1
  W  W31  1  0.165887  0.335348  0.626484  1
  W  W32  1  0.838086  0.493142  0.750062  1
  W  W33  1  0.337652  0.004676  0.750710  1
  W  W34  1  0.160245  0.509045  0.248673  1
  W  W35  1  0.661650  0.991882  0.249090  1
