# generated using pymatgen
data_ThU5(Co3P2)6
_symmetry_space_group_name_H-M   'P 1'
_cell_length_a   3.73503300
_cell_length_b   10.39802900
_cell_length_c   12.30300800
_cell_angle_alpha   90.00000000
_cell_angle_beta   90.00000000
_cell_angle_gamma   90.00000000
_symmetry_Int_Tables_number   1
_chemical_formula_structural   ThU5(Co3P2)6
_chemical_formula_sum   'Th1 U5 Co18 P12'
_cell_volume   477.81169347
_cell_formula_units_Z   1
loop_
 _symmetry_equiv_pos_site_id
 _symmetry_equiv_pos_as_xyz
  1  'x, y, z'
loop_
 _atom_site_type_symbol
 _atom_site_label
 _atom_site_symmetry_multiplicity
 _atom_site_fract_x
 _atom_site_fract_y
 _atom_site_fract_z
 _atom_site_occupancy
  Th  Th0  1  0.000000  0.500000  0.522005  1
  U  U1  1  0.500000  0.000000  0.475901  1
  U  U2  1  0.500000  0.819299  0.207393  1
  U  U3  1  0.500000  0.180701  0.207393  1
  U  U4  1  0.000000  0.680798  0.794127  1
  U  U5  1  0.000000  0.319202  0.794127  1
  Co  Co6  1  0.500000  0.500000  0.157267  1
  Co  Co7  1  0.000000  0.000000  0.838550  1
  Co  Co8  1  0.500000  0.500000  0.708343  1
  Co  Co9  1  0.000000  0.000000  0.299025  1
  Co  Co10  1  0.000000  0.500000  0.985551  1
  Co  Co11  1  0.500000  0.000000  0.015620  1
  Co  Co12  1  0.500000  0.331594  0.996648  1
  Co  Co13  1  0.500000  0.668406  0.996648  1
  Co  Co14  1  0.000000  0.166373  0.003198  1
  Co  Co15  1  0.000000  0.833627  0.003198  1
  Co  Co16  1  0.500000  0.298956  0.428943  1
  Co  Co17  1  0.500000  0.701044  0.428943  1
  Co  Co18  1  0.000000  0.196928  0.570736  1
  Co  Co19  1  0.000000  0.803072  0.570736  1
  Co  Co20  1  0.500000  0.879254  0.711714  1
  Co  Co21  1  0.500000  0.120746  0.711714  1
  Co  Co22  1  0.000000  0.622683  0.286078  1
  Co  Co23  1  0.000000  0.377317  0.286078  1
  P  P24  1  0.500000  0.500000  0.887108  1
  P  P25  1  0.000000  0.000000  0.116718  1
  P  P26  1  0.500000  0.500000  0.337402  1
  P  P27  1  0.000000  0.000000  0.655747  1
  P  P28  1  0.500000  0.306041  0.615201  1
  P  P29  1  0.500000  0.693959  0.615201  1
  P  P30  1  0.000000  0.191368  0.386855  1
  P  P31  1  0.000000  0.808632  0.386855  1
  P  P32  1  0.500000  0.847129  0.893701  1
  P  P33  1  0.500000  0.152871  0.893701  1
  P  P34  1  0.000000  0.655064  0.105786  1
  P  P35  1  0.000000  0.344936  0.105786  1
