# generated using pymatgen
data_Er2PaSn3Pt2Rh
_symmetry_space_group_name_H-M   'P 1'
_cell_length_a   7.45786346
_cell_length_b   7.45786421
_cell_length_c   4.04743700
_cell_angle_alpha   90.00000000
_cell_angle_beta   90.00000000
_cell_angle_gamma   120.33032273
_symmetry_Int_Tables_number   1
_chemical_formula_structural   Er2PaSn3Pt2Rh
_chemical_formula_sum   'Er2 Pa1 Sn3 Pt2 Rh1'
_cell_volume   194.30519541
_cell_formula_units_Z   1
loop_
 _symmetry_equiv_pos_site_id
 _symmetry_equiv_pos_as_xyz
  1  'x, y, z'
loop_
 _atom_site_type_symbol
 _atom_site_label
 _atom_site_symmetry_multiplicity
 _atom_site_fract_x
 _atom_site_fract_y
 _atom_site_fract_z
 _atom_site_occupancy
  Er  Er0  1  0.998478  0.594406  0.000000  1
  Er  Er1  1  0.594406  0.998478  0.000000  1
  Pa  Pa2  1  0.406931  0.406931  0.000000  1
  Sn  Sn3  1  0.755393  0.755393  0.500000  1
  Sn  Sn4  1  0.986952  0.253750  0.500000  1
  Sn  Sn5  1  0.253750  0.986952  0.500000  1
  Pt  Pt6  1  0.652570  0.335578  0.500000  1
  Pt  Pt7  1  0.335578  0.652570  0.500000  1
  Rh  Rh8  1  0.015943  0.015943  0.000000  1
