# generated using pymatgen
data_Ta3Ti(ReB2)2
_symmetry_space_group_name_H-M   'P 1'
_cell_length_a   6.01407076
_cell_length_b   6.01407076
_cell_length_c   3.28984700
_cell_angle_alpha   90.00000000
_cell_angle_beta   90.00000000
_cell_angle_gamma   89.68471456
_symmetry_Int_Tables_number   1
_chemical_formula_structural   Ta3Ti(ReB2)2
_chemical_formula_sum   'Ta3 Ti1 Re2 B4'
_cell_volume   118.98882972
_cell_formula_units_Z   1
loop_
 _symmetry_equiv_pos_site_id
 _symmetry_equiv_pos_as_xyz
  1  'x, y, z'
loop_
 _atom_site_type_symbol
 _atom_site_label
 _atom_site_symmetry_multiplicity
 _atom_site_fract_x
 _atom_site_fract_y
 _atom_site_fract_z
 _atom_site_occupancy
  Ta  Ta0  1  0.822873  0.675990  0.500000  1
  Ta  Ta1  1  0.324867  0.824867  0.500000  1
  Ta  Ta2  1  0.175990  0.322873  0.500000  1
  Ti  Ti3  1  0.676370  0.176370  0.500000  1
  Re  Re4  1  0.501158  0.497065  0.000000  1
  Re  Re5  1  0.997065  0.001158  0.000000  1
  B  B6  1  0.111689  0.611689  0.000000  1
  B  B7  1  0.612253  0.892209  0.000000  1
  B  B8  1  0.392209  0.112253  0.000000  1
  B  B9  1  0.885527  0.385527  0.000000  1
