# generated using pymatgen
data_Dy7YOs3WC8
_symmetry_space_group_name_H-M   'P 1'
_cell_length_a   5.12671000
_cell_length_b   6.54994949
_cell_length_c   9.84888101
_cell_angle_alpha   89.69760644
_cell_angle_beta   90.00000000
_cell_angle_gamma   90.00000000
_symmetry_Int_Tables_number   1
_chemical_formula_structural   Dy7YOs3WC8
_chemical_formula_sum   'Dy7 Y1 Os3 W1 C8'
_cell_volume   330.71778048
_cell_formula_units_Z   1
loop_
 _symmetry_equiv_pos_site_id
 _symmetry_equiv_pos_as_xyz
  1  'x, y, z'
loop_
 _atom_site_type_symbol
 _atom_site_label
 _atom_site_symmetry_multiplicity
 _atom_site_fract_x
 _atom_site_fract_y
 _atom_site_fract_z
 _atom_site_occupancy
  Dy  Dy0  1  0.250000  0.680150  0.553711  1
  Dy  Dy1  1  0.750000  0.321324  0.444901  1
  Dy  Dy2  1  0.750000  0.822163  0.055060  1
  Dy  Dy3  1  0.250000  0.181981  0.944719  1
  Dy  Dy4  1  0.250000  0.531094  0.213082  1
  Dy  Dy5  1  0.750000  0.467466  0.780758  1
  Dy  Dy6  1  0.250000  0.029220  0.285512  1
  Y  Y7  1  0.750000  0.970717  0.715760  1
  Os  Os8  1  0.750000  0.277669  0.136549  1
  Os  Os9  1  0.750000  0.776575  0.362937  1
  Os  Os10  1  0.250000  0.224487  0.633559  1
  W  W11  1  0.250000  0.721804  0.866758  1
  C  C12  1  0.250000  0.454164  0.759507  1
  C  C13  1  0.750000  0.541469  0.242232  1
  C  C14  1  0.750000  0.042554  0.259088  1
  C  C15  1  0.250000  0.959392  0.739951  1
  C  C16  1  0.250000  0.823515  0.055981  1
  C  C17  1  0.750000  0.176472  0.952164  1
  C  C18  1  0.750000  0.675279  0.548830  1
  C  C19  1  0.250000  0.322503  0.448940  1
