# generated using pymatgen
data_YbTh3(ReC2)2
_symmetry_space_group_name_H-M   'P 1'
_cell_length_a   5.29647900
_cell_length_b   6.58196711
_cell_length_c   10.27679953
_cell_angle_alpha   88.84978910
_cell_angle_beta   90.00000000
_cell_angle_gamma   90.00000000
_symmetry_Int_Tables_number   1
_chemical_formula_structural   YbTh3(ReC2)2
_chemical_formula_sum   'Yb2 Th6 Re4 C8'
_cell_volume   358.18989526
_cell_formula_units_Z   2
loop_
 _symmetry_equiv_pos_site_id
 _symmetry_equiv_pos_as_xyz
  1  'x, y, z'
loop_
 _atom_site_type_symbol
 _atom_site_label
 _atom_site_symmetry_multiplicity
 _atom_site_fract_x
 _atom_site_fract_y
 _atom_site_fract_z
 _atom_site_occupancy
  Yb  Yb0  1  0.750000  0.972180  0.725908  1
  Yb  Yb1  1  0.250000  0.027820  0.274092  1
  Th  Th2  1  0.250000  0.706434  0.550848  1
  Th  Th3  1  0.750000  0.293566  0.449152  1
  Th  Th4  1  0.750000  0.807754  0.050357  1
  Th  Th5  1  0.250000  0.192246  0.949643  1
  Th  Th6  1  0.250000  0.525130  0.225354  1
  Th  Th7  1  0.750000  0.474870  0.774646  1
  Re  Re8  1  0.250000  0.728487  0.861815  1
  Re  Re9  1  0.750000  0.271513  0.138185  1
  Re  Re10  1  0.750000  0.764471  0.361267  1
  Re  Re11  1  0.250000  0.235529  0.638733  1
  C  C12  1  0.250000  0.472593  0.755242  1
  C  C13  1  0.750000  0.527407  0.244758  1
  C  C14  1  0.750000  0.026431  0.256826  1
  C  C15  1  0.250000  0.973569  0.743174  1
  C  C16  1  0.250000  0.820191  0.046050  1
  C  C17  1  0.750000  0.179809  0.953950  1
  C  C18  1  0.750000  0.673824  0.549317  1
  C  C19  1  0.250000  0.326176  0.450683  1
