# generated using pymatgen
data_Y8Ti11Si16Rh
_symmetry_space_group_name_H-M   'P 1'
_cell_length_a   7.04968048
_cell_length_b   7.04968026
_cell_length_c   12.89618903
_cell_angle_alpha   89.88541254
_cell_angle_beta   90.11458763
_cell_angle_gamma   89.79587882
_symmetry_Int_Tables_number   1
_chemical_formula_structural   Y8Ti11Si16Rh
_chemical_formula_sum   'Y8 Ti11 Si16 Rh1'
_cell_volume   640.90807605
_cell_formula_units_Z   1
loop_
 _symmetry_equiv_pos_site_id
 _symmetry_equiv_pos_as_xyz
  1  'x, y, z'
loop_
 _atom_site_type_symbol
 _atom_site_label
 _atom_site_symmetry_multiplicity
 _atom_site_fract_x
 _atom_site_fract_y
 _atom_site_fract_z
 _atom_site_occupancy
  Y  Y0  1  0.996007  0.659828  0.032765  1
  Y  Y1  1  0.001799  0.342345  0.531942  1
  Y  Y2  1  0.659828  0.996007  0.967235  1
  Y  Y3  1  0.158558  0.503391  0.782074  1
  Y  Y4  1  0.841122  0.498883  0.285086  1
  Y  Y5  1  0.503391  0.158558  0.217926  1
  Y  Y6  1  0.498883  0.841122  0.714914  1
  Y  Y7  1  0.342345  0.001799  0.468058  1
  Ti  Ti8  1  0.344274  0.506462  0.374794  1
  Ti  Ti9  1  0.850403  0.995972  0.376353  1
  Ti  Ti10  1  0.006588  0.151334  0.124818  1
  Ti  Ti11  1  0.995972  0.850403  0.623647  1
  Ti  Ti12  1  0.506462  0.344274  0.625206  1
  Ti  Ti13  1  0.151334  0.006588  0.875182  1
  Ti  Ti14  1  0.824417  0.173146  0.748615  1
  Ti  Ti15  1  0.173146  0.824417  0.251385  1
  Ti  Ti16  1  0.326476  0.326476  0.000000  1
  Ti  Ti17  1  0.492693  0.650789  0.127778  1
  Ti  Ti18  1  0.650789  0.492693  0.872222  1
  Si  Si19  1  0.050007  0.713467  0.435996  1
  Si  Si20  1  0.952020  0.291108  0.934563  1
  Si  Si21  1  0.713467  0.050007  0.564004  1
  Si  Si22  1  0.208356  0.452818  0.184425  1
  Si  Si23  1  0.789743  0.550670  0.682724  1
  Si  Si24  1  0.452818  0.208356  0.815575  1
  Si  Si25  1  0.550670  0.789743  0.317276  1
  Si  Si26  1  0.291108  0.952020  0.065437  1
  Si  Si27  1  0.797786  0.867882  0.185644  1
  Si  Si28  1  0.297189  0.627463  0.565524  1
  Si  Si29  1  0.704172  0.369427  0.065622  1
  Si  Si30  1  0.627463  0.297189  0.434476  1
  Si  Si31  1  0.369427  0.704172  0.934378  1
  Si  Si32  1  0.130905  0.203324  0.315768  1
  Si  Si33  1  0.203324  0.130905  0.684232  1
  Si  Si34  1  0.867882  0.797786  0.814356  1
  Rh  Rh35  1  0.669175  0.669175  0.500000  1
