# generated using pymatgen
data_Ho4Tm8TcOs3
_symmetry_space_group_name_H-M   'P 1'
_cell_length_a   7.37373506
_cell_length_b   8.90961600
_cell_length_c   6.24215210
_cell_angle_alpha   90.00000000
_cell_angle_beta   89.93658309
_cell_angle_gamma   90.00000000
_symmetry_Int_Tables_number   1
_chemical_formula_structural   Ho4Tm8TcOs3
_chemical_formula_sum   'Ho4 Tm8 Tc1 Os3'
_cell_volume   410.09133819
_cell_formula_units_Z   1
loop_
 _symmetry_equiv_pos_site_id
 _symmetry_equiv_pos_as_xyz
  1  'x, y, z'
loop_
 _atom_site_type_symbol
 _atom_site_label
 _atom_site_symmetry_multiplicity
 _atom_site_fract_x
 _atom_site_fract_y
 _atom_site_fract_z
 _atom_site_occupancy
  Ho  Ho0  1  0.040094  0.250000  0.627071  1
  Ho  Ho1  1  0.959733  0.750000  0.371401  1
  Ho  Ho2  1  0.460519  0.750000  0.128881  1
  Ho  Ho3  1  0.539395  0.250000  0.874808  1
  Tm  Tm4  1  0.174462  0.062410  0.164001  1
  Tm  Tm5  1  0.824955  0.937889  0.833851  1
  Tm  Tm6  1  0.325502  0.937156  0.664759  1
  Tm  Tm7  1  0.824955  0.562111  0.833851  1
  Tm  Tm8  1  0.675037  0.062624  0.334994  1
  Tm  Tm9  1  0.174462  0.437590  0.164001  1
  Tm  Tm10  1  0.675037  0.437376  0.334994  1
  Tm  Tm11  1  0.325502  0.562844  0.664759  1
  Tc  Tc12  1  0.382289  0.250000  0.463094  1
  Os  Os13  1  0.618586  0.750000  0.539902  1
  Os  Os14  1  0.117602  0.750000  0.960922  1
  Os  Os15  1  0.881868  0.250000  0.038709  1
