# generated using pymatgen
data_YbTh3(Zn5Ge)2
_symmetry_space_group_name_H-M   'P 1'
_cell_length_a   8.40727000
_cell_length_b   8.40727127
_cell_length_c   8.92162300
_cell_angle_alpha   89.93749938
_cell_angle_beta   90.06250745
_cell_angle_gamma   149.29143668
_symmetry_Int_Tables_number   1
_chemical_formula_structural   YbTh3(Zn5Ge)2
_chemical_formula_sum   'Yb1 Th3 Zn10 Ge2'
_cell_volume   322.02916194
_cell_formula_units_Z   1
loop_
 _symmetry_equiv_pos_site_id
 _symmetry_equiv_pos_as_xyz
  1  'x, y, z'
loop_
 _atom_site_type_symbol
 _atom_site_label
 _atom_site_symmetry_multiplicity
 _atom_site_fract_x
 _atom_site_fract_y
 _atom_site_fract_z
 _atom_site_occupancy
  Yb  Yb0  1  0.000000  0.000000  0.000000  1
  Th  Th1  1  0.201720  0.798280  0.249219  1
  Th  Th2  1  0.798280  0.201720  0.750781  1
  Th  Th3  1  0.000000  0.000000  0.500000  1
  Zn  Zn4  1  0.813597  0.186403  0.391390  1
  Zn  Zn5  1  0.186403  0.813597  0.608610  1
  Zn  Zn6  1  0.816923  0.183077  0.107055  1
  Zn  Zn7  1  0.183077  0.816923  0.892945  1
  Zn  Zn8  1  0.653061  0.346939  0.480773  1
  Zn  Zn9  1  0.346939  0.653061  0.519227  1
  Zn  Zn10  1  0.651089  0.348911  0.019828  1
  Zn  Zn11  1  0.348911  0.651089  0.980172  1
  Zn  Zn12  1  0.402813  0.597187  0.252410  1
  Zn  Zn13  1  0.597187  0.402813  0.747590  1
  Ge  Ge14  1  0.558085  0.441915  0.255011  1
  Ge  Ge15  1  0.441915  0.558085  0.744989  1
