# generated using pymatgen
data_La3Pr4PI12
_symmetry_space_group_name_H-M   'P 1'
_cell_length_a   10.07375967
_cell_length_b   10.06740471
_cell_length_c   10.07048691
_cell_angle_alpha   107.65937008
_cell_angle_beta   107.72808045
_cell_angle_gamma   107.67030212
_symmetry_Int_Tables_number   1
_chemical_formula_structural   La3Pr4PI12
_chemical_formula_sum   'La3 Pr4 P1 I12'
_cell_volume   834.13389591
_cell_formula_units_Z   1
loop_
 _symmetry_equiv_pos_site_id
 _symmetry_equiv_pos_as_xyz
  1  'x, y, z'
loop_
 _atom_site_type_symbol
 _atom_site_label
 _atom_site_symmetry_multiplicity
 _atom_site_fract_x
 _atom_site_fract_y
 _atom_site_fract_z
 _atom_site_occupancy
  La  La0  1  0.807021  0.529194  0.600107  1
  La  La1  1  0.529114  0.600790  0.807074  1
  La  La2  1  0.000779  0.001097  0.000637  1
  Pr  Pr3  1  0.195189  0.469806  0.398453  1
  Pr  Pr4  1  0.469147  0.399292  0.194983  1
  Pr  Pr5  1  0.599530  0.804074  0.529294  1
  Pr  Pr6  1  0.398653  0.195098  0.468932  1
  P  P7  1  0.499921  0.499859  0.499989  1
  I  I8  1  0.728017  0.184444  0.575432  1
  I  I9  1  0.967821  0.888457  0.652786  1
  I  I10  1  0.575689  0.728813  0.186367  1
  I  I11  1  0.113215  0.347606  0.032657  1
  I  I12  1  0.653155  0.968945  0.887022  1
  I  I13  1  0.888539  0.653383  0.969380  1
  I  I14  1  0.032676  0.113184  0.347412  1
  I  I15  1  0.813837  0.423868  0.269771  1
  I  I16  1  0.347439  0.032724  0.113208  1
  I  I17  1  0.271524  0.814026  0.424372  1
  I  I18  1  0.184894  0.575553  0.728298  1
  I  I19  1  0.423840  0.269785  0.813827  1
