# generated using pymatgen
data_Hf8Al14GaOs7
_symmetry_space_group_name_H-M   'P 1'
_cell_length_a   8.87792752
_cell_length_b   8.87786610
_cell_length_c   8.87772800
_cell_angle_alpha   120.31034810
_cell_angle_beta   119.79177624
_cell_angle_gamma   89.91439115
_symmetry_Int_Tables_number   1
_chemical_formula_structural   Hf8Al14GaOs7
_chemical_formula_sum   'Hf8 Al14 Ga1 Os7'
_cell_volume   494.36941915
_cell_formula_units_Z   1
loop_
 _symmetry_equiv_pos_site_id
 _symmetry_equiv_pos_as_xyz
  1  'x, y, z'
loop_
 _atom_site_type_symbol
 _atom_site_label
 _atom_site_symmetry_multiplicity
 _atom_site_fract_x
 _atom_site_fract_y
 _atom_site_fract_z
 _atom_site_occupancy
  Hf  Hf0  1  0.802423  0.287409  0.073815  1
  Hf  Hf1  1  0.213708  0.287565  0.485123  1
  Hf  Hf2  1  0.203636  0.703555  0.499991  1
  Hf  Hf3  1  0.213556  0.728555  0.926135  1
  Hf  Hf4  1  0.802359  0.728526  0.514968  1
  Hf  Hf5  1  0.776332  0.276320  0.500011  1
  Hf  Hf6  1  0.379230  0.120677  0.741411  1
  Hf  Hf7  1  0.379252  0.637843  0.258551  1
  Al  Al8  1  0.163826  0.333425  0.169584  1
  Al  Al9  1  0.163821  0.994192  0.830360  1
  Al  Al10  1  0.153687  0.342194  0.811442  1
  Al  Al11  1  0.530739  0.342235  0.188546  1
  Al  Al12  1  0.837893  0.658178  0.820314  1
  Al  Al13  1  0.837918  0.017595  0.179710  1
  Al  Al14  1  0.834403  0.661406  0.172943  1
  Al  Al15  1  0.488490  0.661512  0.827122  1
  Al  Al16  1  0.379599  0.122883  0.256743  1
  Al  Al17  1  0.866161  0.122816  0.743247  1
  Al  Al18  1  0.619622  0.873369  0.253782  1
  Al  Al19  1  0.619615  0.365857  0.746223  1
  Al  Al20  1  0.619015  0.877787  0.741216  1
  Al  Al21  1  0.136574  0.877855  0.258804  1
  Ga  Ga22  1  0.988919  0.488919  0.499992  1
  Os  Os23  1  0.995074  0.996115  0.499441  1
  Os  Os24  1  0.496727  0.996215  0.001147  1
  Os  Os25  1  0.498563  0.498558  0.999958  1
  Os  Os26  1  0.496604  0.495678  0.500543  1
  Os  Os27  1  0.995051  0.495582  0.998893  1
  Os  Os28  1  0.999851  0.999847  0.999957  1
  Os  Os29  1  0.507344  0.007336  0.500029  1
