# generated using pymatgen
data_Cs13Rb3(TiSb4)2
_symmetry_space_group_name_H-M   'P 1'
_cell_length_a   12.22354869
_cell_length_b   12.22354862
_cell_length_c   12.22355000
_cell_angle_alpha   59.75108903
_cell_angle_beta   59.75109464
_cell_angle_gamma   59.75109062
_symmetry_Int_Tables_number   1
_chemical_formula_structural   Cs13Rb3(TiSb4)2
_chemical_formula_sum   'Cs13 Rb3 Ti2 Sb8'
_cell_volume   1284.14866740
_cell_formula_units_Z   1
loop_
 _symmetry_equiv_pos_site_id
 _symmetry_equiv_pos_as_xyz
  1  'x, y, z'
loop_
 _atom_site_type_symbol
 _atom_site_label
 _atom_site_symmetry_multiplicity
 _atom_site_fract_x
 _atom_site_fract_y
 _atom_site_fract_z
 _atom_site_occupancy
  Cs  Cs0  1  0.625000  0.625000  0.625000  1
  Cs  Cs1  1  0.027313  0.027313  0.472453  1
  Cs  Cs2  1  0.777547  0.222687  0.222687  1
  Cs  Cs3  1  0.222157  0.777118  0.777118  1
  Cs  Cs4  1  0.777118  0.777118  0.222157  1
  Cs  Cs5  1  0.777118  0.222157  0.777118  1
  Cs  Cs6  1  0.222687  0.777547  0.222687  1
  Cs  Cs7  1  0.472882  0.027843  0.472882  1
  Cs  Cs8  1  0.472453  0.027313  0.027313  1
  Cs  Cs9  1  0.027843  0.472882  0.472882  1
  Cs  Cs10  1  0.027313  0.472453  0.027313  1
  Cs  Cs11  1  0.222687  0.222687  0.777547  1
  Cs  Cs12  1  0.472882  0.472882  0.027843  1
  Rb  Rb13  1  0.625000  0.125000  0.625000  1
  Rb  Rb14  1  0.625000  0.625000  0.125000  1
  Rb  Rb15  1  0.125000  0.625000  0.625000  1
  Ti  Ti16  1  0.750565  0.750565  0.750565  1
  Ti  Ti17  1  0.499435  0.499435  0.499435  1
  Sb  Sb18  1  0.404985  0.780056  0.404985  1
  Sb  Sb19  1  0.845015  0.845015  0.469944  1
  Sb  Sb20  1  0.469944  0.845015  0.845015  1
  Sb  Sb21  1  0.843526  0.843526  0.843526  1
  Sb  Sb22  1  0.780056  0.404985  0.404985  1
  Sb  Sb23  1  0.406474  0.406474  0.406474  1
  Sb  Sb24  1  0.404985  0.404985  0.780056  1
  Sb  Sb25  1  0.845015  0.469944  0.845015  1
