# generated using pymatgen
data_Mn24Os5
_symmetry_space_group_name_H-M   'P 1'
_cell_length_a   7.53476435
_cell_length_b   7.53476405
_cell_length_c   7.53476400
_cell_angle_alpha   109.47122049
_cell_angle_beta   109.47121968
_cell_angle_gamma   109.47122239
_symmetry_Int_Tables_number   1
_chemical_formula_structural   Mn24Os5
_chemical_formula_sum   'Mn24 Os5'
_cell_volume   329.29648229
_cell_formula_units_Z   1
loop_
 _symmetry_equiv_pos_site_id
 _symmetry_equiv_pos_as_xyz
  1  'x, y, z'
loop_
 _atom_site_type_symbol
 _atom_site_label
 _atom_site_symmetry_multiplicity
 _atom_site_fract_x
 _atom_site_fract_y
 _atom_site_fract_z
 _atom_site_occupancy
  Mn  Mn0  1  0.390079  0.676486  0.000000  1
  Mn  Mn1  1  0.713593  0.323514  0.323514  1
  Mn  Mn2  1  0.390079  0.000000  0.676486  1
  Mn  Mn3  1  0.676486  0.390079  0.000000  1
  Mn  Mn4  1  0.000000  0.390079  0.676486  1
  Mn  Mn5  1  0.323514  0.713593  0.323514  1
  Mn  Mn6  1  0.323514  0.323514  0.713593  1
  Mn  Mn7  1  0.000000  0.676486  0.390079  1
  Mn  Mn8  1  0.676486  0.000000  0.390079  1
  Mn  Mn9  1  0.609921  0.609921  0.286407  1
  Mn  Mn10  1  0.286407  0.609921  0.609921  1
  Mn  Mn11  1  0.609921  0.286407  0.609921  1
  Mn  Mn12  1  0.371886  0.192258  0.000000  1
  Mn  Mn13  1  0.179628  0.807742  0.807742  1
  Mn  Mn14  1  0.371886  0.000000  0.192258  1
  Mn  Mn15  1  0.192258  0.371886  0.000000  1
  Mn  Mn16  1  0.000000  0.371886  0.192258  1
  Mn  Mn17  1  0.807742  0.179628  0.807742  1
  Mn  Mn18  1  0.807742  0.807742  0.179628  1
  Mn  Mn19  1  0.000000  0.192258  0.371886  1
  Mn  Mn20  1  0.192258  0.000000  0.371886  1
  Mn  Mn21  1  0.628114  0.628114  0.820372  1
  Mn  Mn22  1  0.820372  0.628114  0.628114  1
  Mn  Mn23  1  0.628114  0.820372  0.628114  1
  Os  Os24  1  0.000000  0.000000  0.000000  1
  Os  Os25  1  0.631736  0.000000  0.000000  1
  Os  Os26  1  0.000000  0.631736  0.000000  1
  Os  Os27  1  0.000000  0.000000  0.631736  1
  Os  Os28  1  0.368264  0.368264  0.368264  1
