# generated using pymatgen
data_CeNi3Pt2
_symmetry_space_group_name_H-M   'P 1'
_cell_length_a   5.06110067
_cell_length_b   5.06110086
_cell_length_c   4.08000700
_cell_angle_alpha   90.00000000
_cell_angle_beta   90.00000000
_cell_angle_gamma   116.19354295
_symmetry_Int_Tables_number   1
_chemical_formula_structural   CeNi3Pt2
_chemical_formula_sum   'Ce1 Ni3 Pt2'
_cell_volume   93.77616641
_cell_formula_units_Z   1
loop_
 _symmetry_equiv_pos_site_id
 _symmetry_equiv_pos_as_xyz
  1  'x, y, z'
loop_
 _atom_site_type_symbol
 _atom_site_label
 _atom_site_symmetry_multiplicity
 _atom_site_fract_x
 _atom_site_fract_y
 _atom_site_fract_z
 _atom_site_occupancy
  Ce  Ce0  1  0.500000  0.500000  0.000000  1
  Ni  Ni1  1  0.155627  0.844373  0.000000  1
  Ni  Ni2  1  0.844373  0.155627  0.000000  1
  Ni  Ni3  1  0.000000  0.000000  0.500000  1
  Pt  Pt4  1  0.000000  0.500000  0.500000  1
  Pt  Pt5  1  0.500000  0.000000  0.500000  1
