# generated using pymatgen
data_TbNb6InSe12
_symmetry_space_group_name_H-M   'P 1'
_cell_length_a   6.08954900
_cell_length_b   6.08954914
_cell_length_c   15.39761500
_cell_angle_alpha   90.00000000
_cell_angle_beta   90.00000000
_cell_angle_gamma   120.00000469
_symmetry_Int_Tables_number   1
_chemical_formula_structural   TbNb6InSe12
_chemical_formula_sum   'Tb1 Nb6 In1 Se12'
_cell_volume   494.48638233
_cell_formula_units_Z   1
loop_
 _symmetry_equiv_pos_site_id
 _symmetry_equiv_pos_as_xyz
  1  'x, y, z'
loop_
 _atom_site_type_symbol
 _atom_site_label
 _atom_site_symmetry_multiplicity
 _atom_site_fract_x
 _atom_site_fract_y
 _atom_site_fract_z
 _atom_site_occupancy
  Tb  Tb0  1  0.666667  0.333333  0.750000  1
  Nb  Nb1  1  0.333333  0.666667  0.509887  1
  Nb  Nb2  1  0.666667  0.333333  0.989338  1
  Nb  Nb3  1  0.666667  0.333333  0.510662  1
  Nb  Nb4  1  0.333333  0.666667  0.990113  1
  Nb  Nb5  1  0.000000  0.000000  0.509206  1
  Nb  Nb6  1  0.000000  0.000000  0.990794  1
  In  In7  1  0.333333  0.666667  0.250000  1
  Se  Se8  1  0.334312  0.333241  0.097813  1
  Se  Se9  1  0.666759  0.001070  0.097813  1
  Se  Se10  1  0.998930  0.665688  0.097813  1
  Se  Se11  1  0.004633  0.333138  0.619368  1
  Se  Se12  1  0.666862  0.995367  0.880632  1
  Se  Se13  1  0.666862  0.671495  0.619368  1
  Se  Se14  1  0.328505  0.995367  0.619368  1
  Se  Se15  1  0.666759  0.665688  0.402187  1
  Se  Se16  1  0.334312  0.001070  0.402187  1
  Se  Se17  1  0.328505  0.333138  0.880632  1
  Se  Se18  1  0.004633  0.671495  0.880632  1
  Se  Se19  1  0.998930  0.333241  0.402187  1
