# generated using pymatgen
data_B3IrPt3Au2
_symmetry_space_group_name_H-M   'P 1'
_cell_length_a   14.54232009
_cell_length_b   14.54232049
_cell_length_c   2.82898000
_cell_angle_alpha   90.00000000
_cell_angle_beta   90.00000000
_cell_angle_gamma   168.43682274
_symmetry_Int_Tables_number   1
_chemical_formula_structural   B3IrPt3Au2
_chemical_formula_sum   'B3 Ir1 Pt3 Au2'
_cell_volume   119.92223848
_cell_formula_units_Z   1
loop_
 _symmetry_equiv_pos_site_id
 _symmetry_equiv_pos_as_xyz
  1  'x, y, z'
loop_
 _atom_site_type_symbol
 _atom_site_label
 _atom_site_symmetry_multiplicity
 _atom_site_fract_x
 _atom_site_fract_y
 _atom_site_fract_z
 _atom_site_occupancy
  B  B0  1  0.395816  0.604184  0.500000  1
  B  B1  1  0.602477  0.397523  0.000000  1
  B  B2  1  0.988632  0.011368  0.500000  1
  Ir  Ir3  1  0.456037  0.543963  0.000000  1
  Pt  Pt4  1  0.132963  0.867037  0.500000  1
  Pt  Pt5  1  0.865381  0.134619  0.000000  1
  Pt  Pt6  1  0.544370  0.455630  0.500000  1
  Au  Au7  1  0.286600  0.713400  0.500000  1
  Au  Au8  1  0.711725  0.288275  0.000000  1
