# generated using pymatgen
data_Tb3DyV4(WO6)4
_symmetry_space_group_name_H-M   'P 1'
_cell_length_a   7.45327818
_cell_length_b   5.25677303
_cell_length_c   11.18438226
_cell_angle_alpha   89.99298542
_cell_angle_beta   89.97639153
_cell_angle_gamma   89.99078411
_symmetry_Int_Tables_number   1
_chemical_formula_structural   Tb3DyV4(WO6)4
_chemical_formula_sum   'Tb3 Dy1 V4 W4 O24'
_cell_volume   438.20619489
_cell_formula_units_Z   1
loop_
 _symmetry_equiv_pos_site_id
 _symmetry_equiv_pos_as_xyz
  1  'x, y, z'
loop_
 _atom_site_type_symbol
 _atom_site_label
 _atom_site_symmetry_multiplicity
 _atom_site_fract_x
 _atom_site_fract_y
 _atom_site_fract_z
 _atom_site_occupancy
  Tb  Tb0  1  0.753502  0.705388  0.454592  1
  Tb  Tb1  1  0.253531  0.794672  0.545388  1
  Tb  Tb2  1  0.753489  0.294481  0.954712  1
  Dy  Dy3  1  0.253365  0.204535  0.045430  1
  V  V4  1  0.506056  0.699406  0.134067  1
  V  V5  1  0.006219  0.199553  0.365855  1
  V  V6  1  0.506181  0.300364  0.634068  1
  V  V7  1  0.006384  0.800468  0.865972  1
  W  W8  1  0.998949  0.693269  0.143570  1
  W  W9  1  0.498444  0.193710  0.356151  1
  W  W10  1  0.998539  0.306448  0.643662  1
  W  W11  1  0.498234  0.806378  0.856524  1
  O  O12  1  0.543177  0.993393  0.019641  1
  O  O13  1  0.959471  0.984964  0.029636  1
  O  O14  1  0.755422  0.573420  0.116499  1
  O  O15  1  0.246235  0.815918  0.142949  1
  O  O16  1  0.071167  0.375878  0.206620  1
  O  O17  1  0.436531  0.358064  0.213291  1
  O  O18  1  0.937119  0.858141  0.286237  1
  O  O19  1  0.570516  0.876200  0.292986  1
  O  O20  1  0.746185  0.314210  0.356752  1
  O  O21  1  0.255255  0.073168  0.383451  1
  O  O22  1  0.459020  0.484663  0.470326  1
  O  O23  1  0.043835  0.493030  0.480449  1
  O  O24  1  0.543789  0.007035  0.519490  1
  O  O25  1  0.959043  0.015359  0.529567  1
  O  O26  1  0.755254  0.426842  0.616605  1
  O  O27  1  0.246219  0.185787  0.643186  1
  O  O28  1  0.070523  0.623816  0.707017  1
  O  O29  1  0.436922  0.641772  0.713877  1
  O  O30  1  0.936979  0.141332  0.786348  1
  O  O31  1  0.570470  0.123399  0.793029  1
  O  O32  1  0.746157  0.685892  0.857022  1
  O  O33  1  0.255201  0.928165  0.884009  1
  O  O34  1  0.458320  0.514621  0.970488  1
  O  O35  1  0.044698  0.506241  0.980530  1
