# generated using pymatgen
data_Dy6Er10MgAg2HgIr4
_symmetry_space_group_name_H-M   'P 1'
_cell_length_a   9.56904590
_cell_length_b   9.56602452
_cell_length_c   9.56602700
_cell_angle_alpha   60.00000180
_cell_angle_beta   60.01044600
_cell_angle_gamma   60.01043995
_symmetry_Int_Tables_number   1
_chemical_formula_structural   Dy6Er10MgAg2HgIr4
_chemical_formula_sum   'Dy6 Er10 Mg1 Ag2 Hg1 Ir4'
_cell_volume   619.27745731
_cell_formula_units_Z   1
loop_
 _symmetry_equiv_pos_site_id
 _symmetry_equiv_pos_as_xyz
  1  'x, y, z'
loop_
 _atom_site_type_symbol
 _atom_site_label
 _atom_site_symmetry_multiplicity
 _atom_site_fract_x
 _atom_site_fract_y
 _atom_site_fract_z
 _atom_site_occupancy
  Dy  Dy0  1  0.937064  0.560444  0.562788  1
  Dy  Dy1  1  0.563500  0.932866  0.939068  1
  Dy  Dy2  1  0.563500  0.932866  0.564569  1
  Dy  Dy3  1  0.937064  0.560444  0.939703  1
  Dy  Dy4  1  0.563807  0.561536  0.937329  1
  Dy  Dy5  1  0.935921  0.937180  0.563449  1
  Er  Er6  1  0.351105  0.348115  0.349443  1
  Er  Er7  1  0.351105  0.348115  0.951335  1
  Er  Er8  1  0.347680  0.957051  0.347634  1
  Er  Er9  1  0.936836  0.353306  0.354928  1
  Er  Er10  1  0.810026  0.188790  0.189546  1
  Er  Er11  1  0.185860  0.814698  0.813589  1
  Er  Er12  1  0.185860  0.814698  0.185852  1
  Er  Er13  1  0.810026  0.188790  0.811640  1
  Er  Er14  1  0.187687  0.186094  0.813109  1
  Er  Er15  1  0.810777  0.813147  0.188039  1
  Mg  Mg16  1  0.289178  0.572603  0.569109  1
  Ag  Ag17  1  0.582043  0.586383  0.582682  1
  Ag  Ag18  1  0.582043  0.586383  0.248890  1
  Hg  Hg19  1  0.582375  0.247120  0.585252  1
  Ir  Ir20  1  0.137591  0.146617  0.143113  1
  Ir  Ir21  1  0.137591  0.146617  0.572678  1
  Ir  Ir22  1  0.138269  0.572110  0.144810  1
  Ir  Ir23  1  0.573087  0.144027  0.141443  1
