# generated using pymatgen
data_HoTa(InPt6)2
_symmetry_space_group_name_H-M   'P 1'
_cell_length_a   5.69551800
_cell_length_b   5.69551841
_cell_length_c   7.97761900
_cell_angle_alpha   90.00000000
_cell_angle_beta   90.00000000
_cell_angle_gamma   90.02184989
_symmetry_Int_Tables_number   1
_chemical_formula_structural   HoTa(InPt6)2
_chemical_formula_sum   'Ho1 Ta1 In2 Pt12'
_cell_volume   258.78538672
_cell_formula_units_Z   1
loop_
 _symmetry_equiv_pos_site_id
 _symmetry_equiv_pos_as_xyz
  1  'x, y, z'
loop_
 _atom_site_type_symbol
 _atom_site_label
 _atom_site_symmetry_multiplicity
 _atom_site_fract_x
 _atom_site_fract_y
 _atom_site_fract_z
 _atom_site_occupancy
  Ho  Ho0  1  0.000000  0.500000  0.249912  1
  Ta  Ta1  1  0.000000  0.500000  0.750075  1
  In  In2  1  0.500000  0.000000  0.250109  1
  In  In3  1  0.500000  0.000000  0.749924  1
  Pt  Pt4  1  0.245354  0.254646  0.992278  1
  Pt  Pt5  1  0.754495  0.254495  0.507675  1
  Pt  Pt6  1  0.752731  0.252731  0.992743  1
  Pt  Pt7  1  0.754646  0.745354  0.992278  1
  Pt  Pt8  1  0.500000  0.500000  0.750009  1
  Pt  Pt9  1  0.246955  0.253045  0.507296  1
  Pt  Pt10  1  0.753045  0.746955  0.507296  1
  Pt  Pt11  1  0.245505  0.745505  0.507675  1
  Pt  Pt12  1  0.500000  0.500000  0.249990  1
  Pt  Pt13  1  0.000000  0.000000  0.750009  1
  Pt  Pt14  1  0.000000  0.000000  0.249990  1
  Pt  Pt15  1  0.247269  0.747269  0.992743  1
