# generated using pymatgen
data_Ce2U2B12MoW
_symmetry_space_group_name_H-M   'P 1'
_cell_length_a   3.74320900
_cell_length_b   9.34520478
_cell_length_c   11.45786196
_cell_angle_alpha   89.95319132
_cell_angle_beta   90.00000000
_cell_angle_gamma   90.00000000
_symmetry_Int_Tables_number   1
_chemical_formula_structural   Ce2U2B12MoW
_chemical_formula_sum   'Ce4 U4 B24 Mo2 W2'
_cell_volume   400.80796136
_cell_formula_units_Z   2
loop_
 _symmetry_equiv_pos_site_id
 _symmetry_equiv_pos_as_xyz
  1  'x, y, z'
loop_
 _atom_site_type_symbol
 _atom_site_label
 _atom_site_symmetry_multiplicity
 _atom_site_fract_x
 _atom_site_fract_y
 _atom_site_fract_z
 _atom_site_occupancy
  Ce  Ce0  1  0.000000  0.335013  0.408070  1
  Ce  Ce1  1  0.000000  0.664987  0.591930  1
  Ce  Ce2  1  0.000000  0.835383  0.091747  1
  Ce  Ce3  1  0.000000  0.164617  0.908253  1
  U  U4  1  0.000000  0.956306  0.394801  1
  U  U5  1  0.000000  0.043694  0.605199  1
  U  U6  1  0.000000  0.455790  0.104990  1
  U  U7  1  0.000000  0.544210  0.895010  1
  B  B8  1  0.500000  0.552968  0.430883  1
  B  B9  1  0.500000  0.447032  0.569117  1
  B  B10  1  0.500000  0.053167  0.069316  1
  B  B11  1  0.500000  0.946833  0.930684  1
  B  B12  1  0.500000  0.745521  0.422687  1
  B  B13  1  0.500000  0.254479  0.577313  1
  B  B14  1  0.500000  0.245306  0.077478  1
  B  B15  1  0.500000  0.754694  0.922522  1
  B  B16  1  0.500000  0.803223  0.274339  1
  B  B17  1  0.500000  0.196777  0.725661  1
  B  B18  1  0.500000  0.303034  0.225570  1
  B  B19  1  0.500000  0.696966  0.774430  1
  B  B20  1  0.500000  0.643095  0.187508  1
  B  B21  1  0.500000  0.356905  0.812492  1
  B  B22  1  0.500000  0.143055  0.312301  1
  B  B23  1  0.500000  0.856945  0.687699  1
  B  B24  1  0.500000  0.989108  0.220134  1
  B  B25  1  0.500000  0.010892  0.779866  1
  B  B26  1  0.500000  0.488787  0.279813  1
  B  B27  1  0.500000  0.511213  0.720187  1
  B  B28  1  0.500000  0.636541  0.037784  1
  B  B29  1  0.500000  0.363459  0.962216  1
  B  B30  1  0.500000  0.136528  0.462171  1
  B  B31  1  0.500000  0.863472  0.537829  1
  Mo  Mo32  1  0.000000  0.146884  0.181969  1
  Mo  Mo33  1  0.000000  0.853116  0.818031  1
  W  W34  1  0.000000  0.646850  0.318165  1
  W  W35  1  0.000000  0.353150  0.681835  1
