# generated using pymatgen
data_Y3ZrCoAg
_symmetry_space_group_name_H-M   'P 1'
_cell_length_a   9.27859030
_cell_length_b   9.27858993
_cell_length_c   9.27859100
_cell_angle_alpha   59.99999975
_cell_angle_beta   60.00000108
_cell_angle_gamma   60.00000144
_symmetry_Int_Tables_number   1
_chemical_formula_structural   Y3ZrCoAg
_chemical_formula_sum   'Y12 Zr4 Co4 Ag4'
_cell_volume   564.84725319
_cell_formula_units_Z   4
loop_
 _symmetry_equiv_pos_site_id
 _symmetry_equiv_pos_as_xyz
  1  'x, y, z'
loop_
 _atom_site_type_symbol
 _atom_site_label
 _atom_site_symmetry_multiplicity
 _atom_site_fract_x
 _atom_site_fract_y
 _atom_site_fract_z
 _atom_site_occupancy
  Y  Y0  1  0.807137  0.192863  0.192863  1
  Y  Y1  1  0.192863  0.807137  0.807137  1
  Y  Y2  1  0.192863  0.807137  0.192863  1
  Y  Y3  1  0.807137  0.192863  0.807137  1
  Y  Y4  1  0.192863  0.192863  0.807137  1
  Y  Y5  1  0.807137  0.807137  0.192863  1
  Y  Y6  1  0.941319  0.558681  0.558681  1
  Y  Y7  1  0.558681  0.941319  0.941319  1
  Y  Y8  1  0.558681  0.941319  0.558681  1
  Y  Y9  1  0.941319  0.558681  0.941319  1
  Y  Y10  1  0.558681  0.558681  0.941319  1
  Y  Y11  1  0.941319  0.941319  0.558681  1
  Zr  Zr12  1  0.343868  0.343868  0.343868  1
  Zr  Zr13  1  0.343868  0.343868  0.968396  1
  Zr  Zr14  1  0.343868  0.968396  0.343868  1
  Zr  Zr15  1  0.968396  0.343868  0.343868  1
  Co  Co16  1  0.148218  0.148218  0.148218  1
  Co  Co17  1  0.148218  0.148218  0.555347  1
  Co  Co18  1  0.148218  0.555347  0.148218  1
  Co  Co19  1  0.555347  0.148218  0.148218  1
  Ag  Ag20  1  0.580159  0.580159  0.580159  1
  Ag  Ag21  1  0.580159  0.580159  0.259523  1
  Ag  Ag22  1  0.580159  0.259523  0.580159  1
  Ag  Ag23  1  0.259523  0.580159  0.580159  1
