# generated using pymatgen
data_Tb6CoSn6Ir5
_symmetry_space_group_name_H-M   'P 1'
_cell_length_a   7.46206700
_cell_length_b   7.46206488
_cell_length_c   7.82079400
_cell_angle_alpha   90.00000000
_cell_angle_beta   90.00000000
_cell_angle_gamma   119.99999612
_symmetry_Int_Tables_number   1
_chemical_formula_structural   Tb6CoSn6Ir5
_chemical_formula_sum   'Tb6 Co1 Sn6 Ir5'
_cell_volume   377.13744980
_cell_formula_units_Z   1
loop_
 _symmetry_equiv_pos_site_id
 _symmetry_equiv_pos_as_xyz
  1  'x, y, z'
loop_
 _atom_site_type_symbol
 _atom_site_label
 _atom_site_symmetry_multiplicity
 _atom_site_fract_x
 _atom_site_fract_y
 _atom_site_fract_z
 _atom_site_occupancy
  Tb  Tb0  1  0.001367  0.409124  0.750000  1
  Tb  Tb1  1  0.590876  0.592244  0.750000  1
  Tb  Tb2  1  0.407756  0.998633  0.750000  1
  Tb  Tb3  1  0.998466  0.403850  0.250000  1
  Tb  Tb4  1  0.596150  0.594615  0.250000  1
  Tb  Tb5  1  0.405385  0.001534  0.250000  1
  Co  Co6  1  0.000000  0.000000  0.250000  1
  Sn  Sn7  1  0.253906  0.254013  0.493478  1
  Sn  Sn8  1  0.000108  0.746094  0.493478  1
  Sn  Sn9  1  0.000108  0.746094  0.006522  1
  Sn  Sn10  1  0.745987  0.999892  0.493478  1
  Sn  Sn11  1  0.745987  0.999892  0.006522  1
  Sn  Sn12  1  0.253906  0.254013  0.006522  1
  Ir  Ir13  1  0.333333  0.666667  0.496889  1
  Ir  Ir14  1  0.666667  0.333333  0.501154  1
  Ir  Ir15  1  0.333333  0.666667  0.003111  1
  Ir  Ir16  1  0.000000  0.000000  0.750000  1
  Ir  Ir17  1  0.666667  0.333333  0.998846  1
