# generated using pymatgen
data_NaTmTl2F6
_symmetry_space_group_name_H-M   'P 1'
_cell_length_a   6.30464300
_cell_length_b   6.30464363
_cell_length_c   6.30464300
_cell_angle_alpha   120.00000195
_cell_angle_beta   89.99999091
_cell_angle_gamma   120.00000720
_symmetry_Int_Tables_number   1
_chemical_formula_structural   NaTmTl2F6
_chemical_formula_sum   'Na1 Tm1 Tl2 F6'
_cell_volume   177.20114304
_cell_formula_units_Z   1
loop_
 _symmetry_equiv_pos_site_id
 _symmetry_equiv_pos_as_xyz
  1  'x, y, z'
loop_
 _atom_site_type_symbol
 _atom_site_label
 _atom_site_symmetry_multiplicity
 _atom_site_fract_x
 _atom_site_fract_y
 _atom_site_fract_z
 _atom_site_occupancy
  Na  Na0  1  0.500000  0.000000  0.500000  1
  Tm  Tm1  1  0.000000  0.000000  0.000000  1
  Tl  Tl2  1  0.749999  0.500000  0.249999  1
  Tl  Tl3  1  0.250001  0.500000  0.750000  1
  F  F4  1  0.240550  0.000000  0.240550  1
  F  F5  1  0.240550  0.481098  0.240550  1
  F  F6  1  0.759450  0.000000  0.240550  1
  F  F7  1  0.759450  0.518901  0.759450  1
  F  F8  1  0.240550  0.000000  0.759450  1
  F  F9  1  0.759451  0.000000  0.759451  1
