# generated using pymatgen
data_HfZr(Al3Co)3
_symmetry_space_group_name_H-M   'P 1'
_cell_length_a   7.26808941
_cell_length_b   7.27077559
_cell_length_c   9.00725000
_cell_angle_alpha   90.00000000
_cell_angle_beta   90.00000000
_cell_angle_gamma   119.48001522
_symmetry_Int_Tables_number   1
_chemical_formula_structural   HfZr(Al3Co)3
_chemical_formula_sum   'Hf2 Zr2 Al18 Co6'
_cell_volume   414.35793879
_cell_formula_units_Z   2
loop_
 _symmetry_equiv_pos_site_id
 _symmetry_equiv_pos_as_xyz
  1  'x, y, z'
loop_
 _atom_site_type_symbol
 _atom_site_label
 _atom_site_symmetry_multiplicity
 _atom_site_fract_x
 _atom_site_fract_y
 _atom_site_fract_z
 _atom_site_occupancy
  Hf  Hf0  1  0.672353  0.991698  0.250000  1
  Hf  Hf1  1  0.327647  0.008302  0.750000  1
  Zr  Zr2  1  0.992439  0.672859  0.250000  1
  Zr  Zr3  1  0.007561  0.327141  0.750000  1
  Al  Al4  1  0.118081  0.118450  0.250000  1
  Al  Al5  1  0.881919  0.881550  0.750000  1
  Al  Al6  1  0.330258  0.330132  0.547811  1
  Al  Al7  1  0.669742  0.669868  0.047811  1
  Al  Al8  1  0.330258  0.330132  0.952189  1
  Al  Al9  1  0.669742  0.669868  0.452189  1
  Al  Al10  1  0.338903  0.560607  0.250000  1
  Al  Al11  1  0.661097  0.439393  0.750000  1
  Al  Al12  1  0.561112  0.338784  0.250000  1
  Al  Al13  1  0.438888  0.661216  0.750000  1
  Al  Al14  1  0.994012  0.334355  0.073574  1
  Al  Al15  1  0.005988  0.665645  0.573574  1
  Al  Al16  1  0.335129  0.994883  0.426228  1
  Al  Al17  1  0.664871  0.005117  0.926228  1
  Al  Al18  1  0.005988  0.665645  0.926426  1
  Al  Al19  1  0.994012  0.334355  0.426426  1
  Al  Al20  1  0.664871  0.005117  0.573772  1
  Al  Al21  1  0.335129  0.994883  0.073772  1
  Co  Co22  1  0.000000  0.000000  0.000000  1
  Co  Co23  1  0.000000  0.000000  0.500000  1
  Co  Co24  1  0.671208  0.326765  0.999806  1
  Co  Co25  1  0.328792  0.673235  0.499806  1
  Co  Co26  1  0.328792  0.673235  0.000194  1
  Co  Co27  1  0.671208  0.326765  0.500194  1
