# generated using pymatgen
data_LaNb6InSe12
_symmetry_space_group_name_H-M   'P 1'
_cell_length_a   6.10264500
_cell_length_b   6.10264473
_cell_length_c   15.56720300
_cell_angle_alpha   90.00000000
_cell_angle_beta   90.00000000
_cell_angle_gamma   120.00000688
_symmetry_Int_Tables_number   1
_chemical_formula_structural   LaNb6InSe12
_chemical_formula_sum   'La1 Nb6 In1 Se12'
_cell_volume   502.08516017
_cell_formula_units_Z   1
loop_
 _symmetry_equiv_pos_site_id
 _symmetry_equiv_pos_as_xyz
  1  'x, y, z'
loop_
 _atom_site_type_symbol
 _atom_site_label
 _atom_site_symmetry_multiplicity
 _atom_site_fract_x
 _atom_site_fract_y
 _atom_site_fract_z
 _atom_site_occupancy
  La  La0  1  0.666667  0.333333  0.750000  1
  Nb  Nb1  1  0.333333  0.666667  0.503208  1
  Nb  Nb2  1  0.666667  0.333333  0.995469  1
  Nb  Nb3  1  0.666667  0.333333  0.504531  1
  Nb  Nb4  1  0.333333  0.666667  0.996792  1
  Nb  Nb5  1  0.000000  0.000000  0.502346  1
  Nb  Nb6  1  0.000000  0.000000  0.997654  1
  In  In7  1  0.333333  0.666667  0.250000  1
  Se  Se8  1  0.334679  0.333502  0.102607  1
  Se  Se9  1  0.666498  0.001177  0.102607  1
  Se  Se10  1  0.998823  0.665321  0.102607  1
  Se  Se11  1  0.006131  0.332997  0.611076  1
  Se  Se12  1  0.667003  0.993869  0.888924  1
  Se  Se13  1  0.667003  0.673133  0.611076  1
  Se  Se14  1  0.326867  0.993869  0.611076  1
  Se  Se15  1  0.666498  0.665321  0.397393  1
  Se  Se16  1  0.334679  0.001177  0.397393  1
  Se  Se17  1  0.326867  0.332997  0.888924  1
  Se  Se18  1  0.006131  0.673133  0.888924  1
  Se  Se19  1  0.998823  0.333502  0.397393  1
