# generated using pymatgen
data_TaTi4Nb2Re9
_symmetry_space_group_name_H-M   'P 1'
_cell_length_a   6.30317000
_cell_length_b   6.30317000
_cell_length_c   6.30491900
_cell_angle_alpha   90.00000000
_cell_angle_beta   90.00000000
_cell_angle_gamma   90.00000000
_symmetry_Int_Tables_number   1
_chemical_formula_structural   TaTi4Nb2Re9
_chemical_formula_sum   'Ta1 Ti4 Nb2 Re9'
_cell_volume   250.49412954
_cell_formula_units_Z   1
loop_
 _symmetry_equiv_pos_site_id
 _symmetry_equiv_pos_as_xyz
  1  'x, y, z'
loop_
 _atom_site_type_symbol
 _atom_site_label
 _atom_site_symmetry_multiplicity
 _atom_site_fract_x
 _atom_site_fract_y
 _atom_site_fract_z
 _atom_site_occupancy
  Ta  Ta0  1  0.000000  0.000000  0.500000  1
  Ti  Ti1  1  0.500000  0.500000  0.000000  1
  Ti  Ti2  1  0.000000  0.000000  0.000000  1
  Ti  Ti3  1  0.000000  0.500000  0.500000  1
  Ti  Ti4  1  0.500000  0.000000  0.500000  1
  Nb  Nb5  1  0.000000  0.500000  0.000000  1
  Nb  Nb6  1  0.500000  0.000000  0.000000  1
  Re  Re7  1  0.500000  0.500000  0.500000  1
  Re  Re8  1  0.252237  0.252237  0.252385  1
  Re  Re9  1  0.747763  0.747763  0.747615  1
  Re  Re10  1  0.747763  0.747763  0.252385  1
  Re  Re11  1  0.747763  0.252237  0.252385  1
  Re  Re12  1  0.747763  0.252237  0.747615  1
  Re  Re13  1  0.252237  0.252237  0.747615  1
  Re  Re14  1  0.252237  0.747763  0.747615  1
  Re  Re15  1  0.252237  0.747763  0.252385  1
