# generated using pymatgen
data_Hf3Pa4Ti(NbSi4)2
_symmetry_space_group_name_H-M   'P 1'
_cell_length_a   6.98666600
_cell_length_b   7.09531612
_cell_length_c   13.58500500
_cell_angle_alpha   90.01036850
_cell_angle_beta   90.00000000
_cell_angle_gamma   90.00000000
_symmetry_Int_Tables_number   1
_chemical_formula_structural   Hf3Pa4Ti(NbSi4)2
_chemical_formula_sum   'Hf6 Pa8 Ti2 Nb4 Si16'
_cell_volume   673.44406038
_cell_formula_units_Z   2
loop_
 _symmetry_equiv_pos_site_id
 _symmetry_equiv_pos_as_xyz
  1  'x, y, z'
loop_
 _atom_site_type_symbol
 _atom_site_label
 _atom_site_symmetry_multiplicity
 _atom_site_fract_x
 _atom_site_fract_y
 _atom_site_fract_z
 _atom_site_occupancy
  Hf  Hf0  1  0.842112  0.673756  0.124292  1
  Hf  Hf1  1  0.342112  0.826244  0.375708  1
  Hf  Hf2  1  0.656859  0.172088  0.876830  1
  Hf  Hf3  1  0.156859  0.327912  0.623170  1
  Hf  Hf4  1  0.160920  0.325786  0.877926  1
  Hf  Hf5  1  0.660920  0.174214  0.622074  1
  Pa  Pa6  1  0.999338  0.170825  0.096745  1
  Pa  Pa7  1  0.499338  0.329175  0.403255  1
  Pa  Pa8  1  0.499144  0.671357  0.905696  1
  Pa  Pa9  1  0.999144  0.828643  0.594304  1
  Pa  Pa10  1  0.998781  0.828861  0.904875  1
  Pa  Pa11  1  0.498781  0.671139  0.595125  1
  Pa  Pa12  1  0.501033  0.330767  0.096536  1
  Pa  Pa13  1  0.001033  0.169233  0.403464  1
  Ti  Ti14  1  0.342650  0.826484  0.126952  1
  Ti  Ti15  1  0.842650  0.673516  0.373048  1
  Nb  Nb16  1  0.669845  0.002991  0.249997  1
  Nb  Nb17  1  0.169845  0.497009  0.250003  1
  Nb  Nb18  1  0.830321  0.504728  0.749675  1
  Nb  Nb19  1  0.330321  0.995272  0.750325  1
  Si  Si20  1  0.800185  0.374927  0.251769  1
  Si  Si21  1  0.300185  0.125073  0.248231  1
  Si  Si22  1  0.700198  0.870184  0.749779  1
  Si  Si23  1  0.200198  0.629816  0.750221  1
  Si  Si24  1  0.045778  0.876011  0.250658  1
  Si  Si25  1  0.545778  0.623989  0.249342  1
  Si  Si26  1  0.456435  0.380747  0.749926  1
  Si  Si27  1  0.956435  0.119253  0.750074  1
  Si  Si28  1  0.830990  0.461769  0.959044  1
  Si  Si29  1  0.330990  0.038231  0.540956  1
  Si  Si30  1  0.661051  0.960738  0.043941  1
  Si  Si31  1  0.161051  0.539262  0.456059  1
  Si  Si32  1  0.173968  0.544974  0.043720  1
  Si  Si33  1  0.673968  0.955026  0.456280  1
  Si  Si34  1  0.330394  0.034571  0.964696  1
  Si  Si35  1  0.830394  0.465429  0.535304  1
