# generated using pymatgen
data_Ti7Os4
_symmetry_space_group_name_H-M   'P 1'
_cell_length_a   3.10601606
_cell_length_b   7.01013339
_cell_length_c   10.28038192
_cell_angle_alpha   118.41294940
_cell_angle_beta   117.00412354
_cell_angle_gamma   89.93011476
_symmetry_Int_Tables_number   1
_chemical_formula_structural   Ti7Os4
_chemical_formula_sum   'Ti7 Os4'
_cell_volume   168.69227881
_cell_formula_units_Z   1
loop_
 _symmetry_equiv_pos_site_id
 _symmetry_equiv_pos_as_xyz
  1  'x, y, z'
loop_
 _atom_site_type_symbol
 _atom_site_label
 _atom_site_symmetry_multiplicity
 _atom_site_fract_x
 _atom_site_fract_y
 _atom_site_fract_z
 _atom_site_occupancy
  Ti  Ti0  1  0.134032  0.527403  0.830276  1
  Ti  Ti1  1  0.924954  0.702033  0.357448  1
  Ti  Ti2  1  0.661267  0.978602  0.180951  1
  Ti  Ti3  1  0.449878  0.142909  0.708530  1
  Ti  Ti4  1  0.397807  0.262545  0.005868  1
  Ti  Ti5  1  0.714053  0.878696  0.884581  1
  Ti  Ti6  1  0.187383  0.425841  0.533645  1
  Os  Os7  1  0.560307  0.067214  0.448203  1
  Os  Os8  1  0.825097  0.788021  0.625425  1
  Os  Os9  1  0.023609  0.616854  0.089407  1
  Os  Os10  1  0.288306  0.336934  0.266246  1
