# generated using pymatgen
data_Ce3Al3Si2Tc
_symmetry_space_group_name_H-M   'P 1'
_cell_length_a   6.88593900
_cell_length_b   6.88593866
_cell_length_c   4.43253500
_cell_angle_alpha   90.00000000
_cell_angle_beta   90.00000000
_cell_angle_gamma   119.99999683
_symmetry_Int_Tables_number   1
_chemical_formula_structural   Ce3Al3Si2Tc
_chemical_formula_sum   'Ce3 Al3 Si2 Tc1'
_cell_volume   182.01582145
_cell_formula_units_Z   1
loop_
 _symmetry_equiv_pos_site_id
 _symmetry_equiv_pos_as_xyz
  1  'x, y, z'
loop_
 _atom_site_type_symbol
 _atom_site_label
 _atom_site_symmetry_multiplicity
 _atom_site_fract_x
 _atom_site_fract_y
 _atom_site_fract_z
 _atom_site_occupancy
  Ce  Ce0  1  0.000000  0.587118  0.500000  1
  Ce  Ce1  1  0.412882  0.412882  0.500000  1
  Ce  Ce2  1  0.587118  0.000000  0.500000  1
  Al  Al3  1  0.000000  0.231370  0.000000  1
  Al  Al4  1  0.768630  0.768630  0.000000  1
  Al  Al5  1  0.231370  0.000000  0.000000  1
  Si  Si6  1  0.333333  0.666667  0.000000  1
  Si  Si7  1  0.666667  0.333333  0.000000  1
  Tc  Tc8  1  0.000000  0.000000  0.500000  1
