# generated using pymatgen
data_KP4IrO12
_symmetry_space_group_name_H-M   'P 1'
_cell_length_a   10.65014248
_cell_length_b   10.65014293
_cell_length_c   5.24052198
_cell_angle_alpha   80.83864292
_cell_angle_beta   80.83863924
_cell_angle_gamma   71.73776565
_symmetry_Int_Tables_number   1
_chemical_formula_structural   KP4IrO12
_chemical_formula_sum   'K2 P8 Ir2 O24'
_cell_volume   553.46781053
_cell_formula_units_Z   2
loop_
 _symmetry_equiv_pos_site_id
 _symmetry_equiv_pos_as_xyz
  1  'x, y, z'
loop_
 _atom_site_type_symbol
 _atom_site_label
 _atom_site_symmetry_multiplicity
 _atom_site_fract_x
 _atom_site_fract_y
 _atom_site_fract_z
 _atom_site_occupancy
  K  K0  1  0.407817  0.407817  0.734690  1
  K  K1  1  0.592183  0.592183  0.265310  1
  P  P2  1  0.797896  0.355043  0.838396  1
  P  P3  1  0.068718  0.307369  0.535130  1
  P  P4  1  0.307369  0.068718  0.535130  1
  P  P5  1  0.644957  0.202104  0.161604  1
  P  P6  1  0.355043  0.797896  0.838396  1
  P  P7  1  0.692631  0.931282  0.464870  1
  P  P8  1  0.931282  0.692631  0.464870  1
  P  P9  1  0.202104  0.644957  0.161604  1
  Ir  Ir10  1  0.500000  0.000000  0.000000  1
  Ir  Ir11  1  0.000000  0.500000  0.000000  1
  O  O12  1  0.426462  0.841304  0.023114  1
  O  O13  1  0.399286  0.103445  0.688171  1
  O  O14  1  0.428350  0.677781  0.709145  1
  O  O15  1  0.158696  0.573538  0.976886  1
  O  O16  1  0.573538  0.158696  0.976886  1
  O  O17  1  0.908586  0.664682  0.757650  1
  O  O18  1  0.215621  0.784379  0.000000  1
  O  O19  1  0.571650  0.322219  0.290855  1
  O  O20  1  0.600714  0.896555  0.311829  1
  O  O21  1  0.706314  0.076209  0.372125  1
  O  O22  1  0.322219  0.571650  0.290855  1
  O  O23  1  0.896555  0.600714  0.311829  1
  O  O24  1  0.841304  0.426462  0.023114  1
  O  O25  1  0.076209  0.706314  0.372125  1
  O  O26  1  0.156283  0.156283  0.608074  1
  O  O27  1  0.103445  0.399286  0.688171  1
  O  O28  1  0.677781  0.428350  0.709145  1
  O  O29  1  0.293686  0.923791  0.627875  1
  O  O30  1  0.784379  0.215621  0.000000  1
  O  O31  1  0.335318  0.091414  0.242350  1
  O  O32  1  0.664682  0.908586  0.757650  1
  O  O33  1  0.843717  0.843717  0.391926  1
  O  O34  1  0.923791  0.293686  0.627875  1
  O  O35  1  0.091414  0.335318  0.242350  1
