# generated using pymatgen
data_Tm3Lu3Al24(IrOs)4
_symmetry_space_group_name_H-M   'P 1'
_cell_length_a   8.80438501
_cell_length_b   8.80584007
_cell_length_c   9.48358400
_cell_angle_alpha   90.00000000
_cell_angle_beta   90.00000000
_cell_angle_gamma   120.27565578
_symmetry_Int_Tables_number   1
_chemical_formula_structural   Tm3Lu3Al24(IrOs)4
_chemical_formula_sum   'Tm3 Lu3 Al24 Ir4 Os4'
_cell_volume   634.97978097
_cell_formula_units_Z   1
loop_
 _symmetry_equiv_pos_site_id
 _symmetry_equiv_pos_as_xyz
  1  'x, y, z'
loop_
 _atom_site_type_symbol
 _atom_site_label
 _atom_site_symmetry_multiplicity
 _atom_site_fract_x
 _atom_site_fract_y
 _atom_site_fract_z
 _atom_site_occupancy
  Tm  Tm0  1  0.390945  0.199885  0.750000  1
  Tm  Tm1  1  0.194585  0.805464  0.250000  1
  Tm  Tm2  1  0.805469  0.194551  0.750000  1
  Lu  Lu3  1  0.200235  0.391407  0.250000  1
  Lu  Lu4  1  0.799801  0.608622  0.750000  1
  Lu  Lu5  1  0.608590  0.799785  0.250000  1
  Al  Al6  1  0.333937  0.666118  0.027694  1
  Al  Al7  1  0.666243  0.333980  0.972402  1
  Al  Al8  1  0.666243  0.333980  0.527598  1
  Al  Al9  1  0.333937  0.666118  0.472306  1
  Al  Al10  1  0.163905  0.327220  0.575878  1
  Al  Al11  1  0.836040  0.672800  0.424058  1
  Al  Al12  1  0.672772  0.836037  0.575909  1
  Al  Al13  1  0.836040  0.672800  0.075942  1
  Al  Al14  1  0.327213  0.163939  0.423985  1
  Al  Al15  1  0.163905  0.327220  0.924122  1
  Al  Al16  1  0.162598  0.837334  0.577296  1
  Al  Al17  1  0.327213  0.163939  0.076015  1
  Al  Al18  1  0.837351  0.162605  0.422640  1
  Al  Al19  1  0.672772  0.836037  0.924091  1
  Al  Al20  1  0.837351  0.162605  0.077360  1
  Al  Al21  1  0.162598  0.837334  0.922704  1
  Al  Al22  1  0.562277  0.122482  0.250000  1
  Al  Al23  1  0.437765  0.877413  0.750000  1
  Al  Al24  1  0.877486  0.437712  0.250000  1
  Al  Al25  1  0.122464  0.562273  0.750000  1
  Al  Al26  1  0.562709  0.437282  0.250000  1
  Al  Al27  1  0.437355  0.562900  0.750000  1
  Al  Al28  1  0.001184  0.998812  0.250000  1
  Al  Al29  1  0.998676  0.001110  0.750000  1
  Ir  Ir30  1  0.500049  0.999953  0.000045  1
  Ir  Ir31  1  0.000068  0.500022  0.999988  1
  Ir  Ir32  1  0.500049  0.999953  0.499955  1
  Ir  Ir33  1  0.000068  0.500022  0.500012  1
  Os  Os34  1  0.500052  0.500136  0.000075  1
  Os  Os35  1  0.500052  0.500136  0.499925  1
  Os  Os36  1  0.000001  0.000008  0.000008  1
  Os  Os37  1  0.000001  0.000008  0.499992  1
