# generated using pymatgen
data_HoLuNi2B6Ir
_symmetry_space_group_name_H-M   'P 1'
_cell_length_a   5.85541306
_cell_length_b   5.85541336
_cell_length_c   3.46793900
_cell_angle_alpha   90.00000000
_cell_angle_beta   90.00000000
_cell_angle_gamma   94.57378669
_symmetry_Int_Tables_number   1
_chemical_formula_structural   HoLuNi2B6Ir
_chemical_formula_sum   'Ho1 Lu1 Ni2 B6 Ir1'
_cell_volume   118.52263913
_cell_formula_units_Z   1
loop_
 _symmetry_equiv_pos_site_id
 _symmetry_equiv_pos_as_xyz
  1  'x, y, z'
loop_
 _atom_site_type_symbol
 _atom_site_label
 _atom_site_symmetry_multiplicity
 _atom_site_fract_x
 _atom_site_fract_y
 _atom_site_fract_z
 _atom_site_occupancy
  Ho  Ho0  1  0.274079  0.725921  0.000000  1
  Lu  Lu1  1  0.725906  0.274094  0.000000  1
  Ni  Ni2  1  0.763191  0.762362  0.000000  1
  Ni  Ni3  1  0.237638  0.236809  0.000000  1
  B  B4  1  0.609382  0.608421  0.500000  1
  B  B5  1  0.391579  0.390618  0.500000  1
  B  B6  1  0.613158  0.913022  0.500000  1
  B  B7  1  0.387865  0.087943  0.500000  1
  B  B8  1  0.912057  0.612135  0.500000  1
  B  B9  1  0.086978  0.386842  0.500000  1
  Ir  Ir10  1  0.998167  0.001833  0.500000  1
