# generated using pymatgen
data_CaLu2Pa(ReB6)2
_symmetry_space_group_name_H-M   'P 1'
_cell_length_a   3.67147800
_cell_length_b   9.12193791
_cell_length_c   11.49986921
_cell_angle_alpha   89.69692637
_cell_angle_beta   90.00000000
_cell_angle_gamma   90.00000000
_symmetry_Int_Tables_number   1
_chemical_formula_structural   CaLu2Pa(ReB6)2
_chemical_formula_sum   'Ca2 Lu4 Pa2 Re4 B24'
_cell_volume   385.13666674
_cell_formula_units_Z   2
loop_
 _symmetry_equiv_pos_site_id
 _symmetry_equiv_pos_as_xyz
  1  'x, y, z'
loop_
 _atom_site_type_symbol
 _atom_site_label
 _atom_site_symmetry_multiplicity
 _atom_site_fract_x
 _atom_site_fract_y
 _atom_site_fract_z
 _atom_site_occupancy
  Ca  Ca0  1  0.000000  0.324746  0.414686  1
  Ca  Ca1  1  0.000000  0.675254  0.585314  1
  Lu  Lu2  1  0.000000  0.942731  0.370484  1
  Lu  Lu3  1  0.000000  0.057269  0.629516  1
  Lu  Lu4  1  0.000000  0.444985  0.128777  1
  Lu  Lu5  1  0.000000  0.555015  0.871223  1
  Pa  Pa6  1  0.000000  0.820207  0.086993  1
  Pa  Pa7  1  0.000000  0.179793  0.913007  1
  Re  Re8  1  0.000000  0.644121  0.314904  1
  Re  Re9  1  0.000000  0.355879  0.685096  1
  Re  Re10  1  0.000000  0.135425  0.175550  1
  Re  Re11  1  0.000000  0.864575  0.824450  1
  B  B12  1  0.500000  0.554293  0.432205  1
  B  B13  1  0.500000  0.445707  0.567795  1
  B  B14  1  0.500000  0.053808  0.067202  1
  B  B15  1  0.500000  0.946192  0.932798  1
  B  B16  1  0.500000  0.751023  0.418662  1
  B  B17  1  0.500000  0.248977  0.581338  1
  B  B18  1  0.500000  0.250381  0.081316  1
  B  B19  1  0.500000  0.749619  0.918684  1
  B  B20  1  0.500000  0.793641  0.264950  1
  B  B21  1  0.500000  0.206359  0.735050  1
  B  B22  1  0.500000  0.292522  0.233873  1
  B  B23  1  0.500000  0.707478  0.766127  1
  B  B24  1  0.500000  0.632089  0.184607  1
  B  B25  1  0.500000  0.367911  0.815393  1
  B  B26  1  0.500000  0.130215  0.314772  1
  B  B27  1  0.500000  0.869785  0.685228  1
  B  B28  1  0.500000  0.982619  0.212473  1
  B  B29  1  0.500000  0.017381  0.787527  1
  B  B30  1  0.500000  0.483543  0.287171  1
  B  B31  1  0.500000  0.516457  0.712829  1
  B  B32  1  0.500000  0.605840  0.028727  1
  B  B33  1  0.500000  0.394160  0.971273  1
  B  B34  1  0.500000  0.095374  0.473469  1
  B  B35  1  0.500000  0.904626  0.526531  1
