# generated using pymatgen
data_CeEr7SiPd24
_symmetry_space_group_name_H-M   'P 1'
_cell_length_a   8.32002681
_cell_length_b   8.32002661
_cell_length_c   8.32002700
_cell_angle_alpha   89.96122151
_cell_angle_beta   90.03877784
_cell_angle_gamma   90.03876828
_symmetry_Int_Tables_number   1
_chemical_formula_structural   CeEr7SiPd24
_chemical_formula_sum   'Ce1 Er7 Si1 Pd24'
_cell_volume   575.93553958
_cell_formula_units_Z   1
loop_
 _symmetry_equiv_pos_site_id
 _symmetry_equiv_pos_as_xyz
  1  'x, y, z'
loop_
 _atom_site_type_symbol
 _atom_site_label
 _atom_site_symmetry_multiplicity
 _atom_site_fract_x
 _atom_site_fract_y
 _atom_site_fract_z
 _atom_site_occupancy
  Ce  Ce0  1  0.744118  0.255882  0.255882  1
  Er  Er1  1  0.252868  0.253711  0.253711  1
  Er  Er2  1  0.745931  0.745811  0.745811  1
  Er  Er3  1  0.746289  0.747132  0.253711  1
  Er  Er4  1  0.746289  0.253711  0.747132  1
  Er  Er5  1  0.254189  0.254069  0.745811  1
  Er  Er6  1  0.254189  0.745811  0.254069  1
  Er  Er7  1  0.254262  0.745738  0.745738  1
  Si  Si8  1  0.000007  0.999993  0.999993  1
  Pd  Pd9  1  0.257264  0.500001  0.999698  1
  Pd  Pd10  1  0.742973  0.499600  0.000938  1
  Pd  Pd11  1  0.999062  0.257027  0.499600  1
  Pd  Pd12  1  0.500400  0.257027  0.000938  1
  Pd  Pd13  1  0.000302  0.742736  0.500001  1
  Pd  Pd14  1  0.499999  0.742736  0.999698  1
  Pd  Pd15  1  0.500400  0.000938  0.257027  1
  Pd  Pd16  1  0.257264  0.999698  0.500001  1
  Pd  Pd17  1  0.499999  0.999698  0.742736  1
  Pd  Pd18  1  0.742973  0.000938  0.499600  1
  Pd  Pd19  1  0.999062  0.499600  0.257027  1
  Pd  Pd20  1  0.000302  0.500001  0.742736  1
  Pd  Pd21  1  0.252430  0.499955  0.499955  1
  Pd  Pd22  1  0.747244  0.499937  0.499937  1
  Pd  Pd23  1  0.500063  0.252756  0.499937  1
  Pd  Pd24  1  0.500045  0.747570  0.499955  1
  Pd  Pd25  1  0.500063  0.499937  0.252756  1
  Pd  Pd26  1  0.500045  0.499955  0.747570  1
  Pd  Pd27  1  0.279431  0.999616  0.999616  1
  Pd  Pd28  1  0.720033  0.999130  0.999130  1
  Pd  Pd29  1  0.000870  0.279967  0.999130  1
  Pd  Pd30  1  0.000384  0.720569  0.999616  1
  Pd  Pd31  1  0.000870  0.999130  0.279967  1
  Pd  Pd32  1  0.000384  0.999616  0.720569  1
