# generated using pymatgen
data_Tb18Y2Cd3Ag3Ru2
_symmetry_space_group_name_H-M   'P 1'
_cell_length_a   9.65734804
_cell_length_b   9.65734775
_cell_length_c   9.72630600
_cell_angle_alpha   90.00000000
_cell_angle_beta   90.00000000
_cell_angle_gamma   120.01042937
_symmetry_Int_Tables_number   1
_chemical_formula_structural   Tb18Y2Cd3Ag3Ru2
_chemical_formula_sum   'Tb18 Y2 Cd3 Ag3 Ru2'
_cell_volume   785.50447349
_cell_formula_units_Z   1
loop_
 _symmetry_equiv_pos_site_id
 _symmetry_equiv_pos_as_xyz
  1  'x, y, z'
loop_
 _atom_site_type_symbol
 _atom_site_label
 _atom_site_symmetry_multiplicity
 _atom_site_fract_x
 _atom_site_fract_y
 _atom_site_fract_z
 _atom_site_occupancy
  Tb  Tb0  1  0.999985  0.000015  0.477561  1
  Tb  Tb1  1  0.999985  0.000015  0.022439  1
  Tb  Tb2  1  0.210279  0.789721  0.440728  1
  Tb  Tb3  1  0.210355  0.420627  0.440731  1
  Tb  Tb4  1  0.579373  0.789645  0.440731  1
  Tb  Tb5  1  0.790759  0.209241  0.559915  1
  Tb  Tb6  1  0.790743  0.581470  0.559904  1
  Tb  Tb7  1  0.418530  0.209257  0.559904  1
  Tb  Tb8  1  0.790759  0.209241  0.940085  1
  Tb  Tb9  1  0.790743  0.581470  0.940096  1
  Tb  Tb10  1  0.418530  0.209257  0.940096  1
  Tb  Tb11  1  0.210279  0.789721  0.059272  1
  Tb  Tb12  1  0.210355  0.420627  0.059269  1
  Tb  Tb13  1  0.579373  0.789645  0.059269  1
  Tb  Tb14  1  0.541131  0.458869  0.250000  1
  Tb  Tb15  1  0.541159  0.082232  0.250000  1
  Tb  Tb16  1  0.917768  0.458841  0.250000  1
  Tb  Tb17  1  0.458929  0.541071  0.750000  1
  Y  Y18  1  0.458850  0.917792  0.750000  1
  Y  Y19  1  0.082208  0.541150  0.750000  1
  Cd  Cd20  1  0.111424  0.888576  0.750000  1
  Cd  Cd21  1  0.111339  0.222785  0.750000  1
  Cd  Cd22  1  0.777215  0.888661  0.750000  1
  Ag  Ag23  1  0.876531  0.123469  0.250000  1
  Ag  Ag24  1  0.876482  0.753050  0.250000  1
  Ag  Ag25  1  0.246950  0.123518  0.250000  1
  Ru  Ru26  1  0.333354  0.666646  0.250000  1
  Ru  Ru27  1  0.666608  0.333392  0.750000  1
