# generated using pymatgen
data_Tb2HoEr(WO6)2
_symmetry_space_group_name_H-M   'P 1'
_cell_length_a   5.40544200
_cell_length_b   7.70875057
_cell_length_c   11.44984772
_cell_angle_alpha   75.57428948
_cell_angle_beta   90.00000000
_cell_angle_gamma   90.00000000
_symmetry_Int_Tables_number   1
_chemical_formula_structural   Tb2HoEr(WO6)2
_chemical_formula_sum   'Tb4 Ho2 Er2 W4 O24'
_cell_volume   462.06358852
_cell_formula_units_Z   2
loop_
 _symmetry_equiv_pos_site_id
 _symmetry_equiv_pos_as_xyz
  1  'x, y, z'
loop_
 _atom_site_type_symbol
 _atom_site_label
 _atom_site_symmetry_multiplicity
 _atom_site_fract_x
 _atom_site_fract_y
 _atom_site_fract_z
 _atom_site_occupancy
  Tb  Tb0  1  0.684102  0.500000  0.250000  1
  Tb  Tb1  1  0.316213  0.500000  0.750000  1
  Tb  Tb2  1  0.741107  0.000000  0.250000  1
  Tb  Tb3  1  0.258966  0.000000  0.750000  1
  Ho  Ho4  1  0.183471  0.206075  0.422062  1
  Ho  Ho5  1  0.183471  0.793925  0.077938  1
  Er  Er6  1  0.816540  0.793524  0.578240  1
  Er  Er7  1  0.816540  0.206476  0.921760  1
  W  W8  1  0.255979  0.276344  0.114348  1
  W  W9  1  0.255979  0.723656  0.385652  1
  W  W10  1  0.744244  0.723601  0.885122  1
  W  W11  1  0.744244  0.276399  0.614878  1
  O  O12  1  0.456409  0.209331  0.272968  1
  O  O13  1  0.456409  0.790669  0.227032  1
  O  O14  1  0.544204  0.790488  0.726353  1
  O  O15  1  0.544204  0.209512  0.773647  1
  O  O16  1  0.045964  0.060651  0.103162  1
  O  O17  1  0.045964  0.939349  0.396838  1
  O  O18  1  0.952797  0.940274  0.896456  1
  O  O19  1  0.952797  0.059726  0.603544  1
  O  O20  1  0.982163  0.289075  0.228485  1
  O  O21  1  0.982163  0.710925  0.271515  1
  O  O22  1  0.018064  0.711377  0.771093  1
  O  O23  1  0.018064  0.288623  0.728907  1
  O  O24  1  0.849764  0.365053  0.451890  1
  O  O25  1  0.849764  0.634947  0.048110  1
  O  O26  1  0.149237  0.635061  0.548495  1
  O  O27  1  0.149237  0.364939  0.951505  1
  O  O28  1  0.641142  0.510472  0.614080  1
  O  O29  1  0.641142  0.489528  0.885920  1
  O  O30  1  0.359680  0.489967  0.386209  1
  O  O31  1  0.359680  0.510033  0.113791  1
  O  O32  1  0.464875  0.155083  0.568840  1
  O  O33  1  0.464875  0.844917  0.931160  1
  O  O34  1  0.535273  0.845016  0.432140  1
  O  O35  1  0.535273  0.154984  0.067860  1
