# generated using pymatgen
data_Tb2ThSn3Ir2Rh
_symmetry_space_group_name_H-M   'P 1'
_cell_length_a   7.63234600
_cell_length_b   7.58632431
_cell_length_c   3.95761400
_cell_angle_alpha   90.00000000
_cell_angle_beta   90.00000000
_cell_angle_gamma   120.20086993
_symmetry_Int_Tables_number   1
_chemical_formula_structural   Tb2ThSn3Ir2Rh
_chemical_formula_sum   'Tb2 Th1 Sn3 Ir2 Rh1'
_cell_volume   198.04820102
_cell_formula_units_Z   1
loop_
 _symmetry_equiv_pos_site_id
 _symmetry_equiv_pos_as_xyz
  1  'x, y, z'
loop_
 _atom_site_type_symbol
 _atom_site_label
 _atom_site_symmetry_multiplicity
 _atom_site_fract_x
 _atom_site_fract_y
 _atom_site_fract_z
 _atom_site_occupancy
  Tb  Tb0  1  0.999268  0.407082  0.500000  1
  Tb  Tb1  1  0.592186  0.592918  0.500000  1
  Th  Th2  1  0.413538  0.000000  0.500000  1
  Sn  Sn3  1  0.754479  0.000000  0.000000  1
  Sn  Sn4  1  0.989064  0.731971  0.000000  1
  Sn  Sn5  1  0.257093  0.268029  0.000000  1
  Ir  Ir6  1  0.333785  0.680473  0.000000  1
  Ir  Ir7  1  0.653313  0.319527  0.000000  1
  Rh  Rh8  1  0.007275  0.000000  0.500000  1
