# generated using pymatgen
data_Dy2Tm2ScOs7
_symmetry_space_group_name_H-M   'P 1'
_cell_length_a   5.38073402
_cell_length_b   5.38079805
_cell_length_c   8.86958000
_cell_angle_alpha   90.00000025
_cell_angle_beta   89.99721931
_cell_angle_gamma   59.99959976
_symmetry_Int_Tables_number   1
_chemical_formula_structural   Dy2Tm2ScOs7
_chemical_formula_sum   'Dy2 Tm2 Sc1 Os7'
_cell_volume   222.39250771
_cell_formula_units_Z   1
loop_
 _symmetry_equiv_pos_site_id
 _symmetry_equiv_pos_as_xyz
  1  'x, y, z'
loop_
 _atom_site_type_symbol
 _atom_site_label
 _atom_site_symmetry_multiplicity
 _atom_site_fract_x
 _atom_site_fract_y
 _atom_site_fract_z
 _atom_site_occupancy
  Dy  Dy0  1  0.333328  0.333335  0.578117  1
  Dy  Dy1  1  0.666672  0.666665  0.421883  1
  Tm  Tm2  1  0.666668  0.666667  0.059397  1
  Tm  Tm3  1  0.333332  0.333333  0.940603  1
  Sc  Sc4  1  0.000000  0.000000  0.500000  1
  Os  Os5  1  0.000000  0.000000  0.000000  1
  Os  Os6  1  0.827246  0.345526  0.756334  1
  Os  Os7  1  0.345485  0.827258  0.756311  1
  Os  Os8  1  0.827246  0.827227  0.756334  1
  Os  Os9  1  0.172754  0.654474  0.243666  1
  Os  Os10  1  0.654515  0.172742  0.243689  1
  Os  Os11  1  0.172754  0.172773  0.243666  1
