# generated using pymatgen
data_Ac4Se7S
_symmetry_space_group_name_H-M   'P 1'
_cell_length_a   4.38751312
_cell_length_b   8.74554721
_cell_length_c   8.87763657
_cell_angle_alpha   89.88454565
_cell_angle_beta   89.99067605
_cell_angle_gamma   89.90790723
_symmetry_Int_Tables_number   1
_chemical_formula_structural   Ac4Se7S
_chemical_formula_sum   'Ac4 Se7 S1'
_cell_volume   340.64446053
_cell_formula_units_Z   1
loop_
 _symmetry_equiv_pos_site_id
 _symmetry_equiv_pos_as_xyz
  1  'x, y, z'
loop_
 _atom_site_type_symbol
 _atom_site_label
 _atom_site_symmetry_multiplicity
 _atom_site_fract_x
 _atom_site_fract_y
 _atom_site_fract_z
 _atom_site_occupancy
  Ac  Ac0  1  0.273298  0.627035  0.717446  1
  Ac  Ac1  1  0.781177  0.866874  0.278765  1
  Ac  Ac2  1  0.718127  0.378282  0.278498  1
  Ac  Ac3  1  0.223756  0.127007  0.724416  1
  Se  Se4  1  0.327167  0.884015  0.002021  1
  Se  Se5  1  0.825942  0.615809  0.997150  1
  Se  Se6  1  0.674796  0.114601  0.999678  1
  Se  Se7  1  0.174376  0.385340  0.002364  1
  Se  Se8  1  0.756797  0.874255  0.634533  1
  Se  Se9  1  0.743270  0.375306  0.634469  1
  Se  Se10  1  0.242116  0.125423  0.365020  1
  S  S11  1  0.259179  0.626054  0.365641  1
