# generated using pymatgen
data_PaCrH5
_symmetry_space_group_name_H-M   'P 1'
_cell_length_a   4.32493900
_cell_length_b   4.42291200
_cell_length_c   11.34337600
_cell_angle_alpha   90.00000000
_cell_angle_beta   90.00000000
_cell_angle_gamma   90.00000000
_symmetry_Int_Tables_number   1
_chemical_formula_structural   PaCrH5
_chemical_formula_sum   'Pa4 Cr4 H20'
_cell_volume   216.98544990
_cell_formula_units_Z   4
loop_
 _symmetry_equiv_pos_site_id
 _symmetry_equiv_pos_as_xyz
  1  'x, y, z'
loop_
 _atom_site_type_symbol
 _atom_site_label
 _atom_site_symmetry_multiplicity
 _atom_site_fract_x
 _atom_site_fract_y
 _atom_site_fract_z
 _atom_site_occupancy
  Pa  Pa0  1  0.266930  0.252079  0.643282  1
  Pa  Pa1  1  0.766930  0.247921  0.356718  1
  Pa  Pa2  1  0.233070  0.747921  0.143282  1
  Pa  Pa3  1  0.733070  0.752079  0.856718  1
  Cr  Cr4  1  0.278796  0.253620  0.909108  1
  Cr  Cr5  1  0.778796  0.246380  0.090892  1
  Cr  Cr6  1  0.221204  0.746380  0.409108  1
  Cr  Cr7  1  0.721204  0.753620  0.590892  1
  H  H8  1  0.499678  0.518455  0.496056  1
  H  H9  1  0.999678  0.981545  0.503944  1
  H  H10  1  0.000322  0.481545  0.996056  1
  H  H11  1  0.500322  0.018455  0.003944  1
  H  H12  1  0.186260  0.983457  0.812231  1
  H  H13  1  0.686260  0.516543  0.187769  1
  H  H14  1  0.313740  0.016543  0.312231  1
  H  H15  1  0.813740  0.483457  0.687769  1
  H  H16  1  0.190451  0.525176  0.812327  1
  H  H17  1  0.690451  0.974824  0.187673  1
  H  H18  1  0.309549  0.474824  0.312327  1
  H  H19  1  0.809549  0.025176  0.687673  1
  H  H20  1  0.594545  0.252249  0.823562  1
  H  H21  1  0.094545  0.247751  0.176438  1
  H  H22  1  0.905455  0.747751  0.323562  1
  H  H23  1  0.405455  0.752249  0.676438  1
  H  H24  1  0.002617  0.016768  0.996112  1
  H  H25  1  0.502617  0.483232  0.003888  1
  H  H26  1  0.497383  0.983232  0.496112  1
  H  H27  1  0.997383  0.516768  0.503888  1
