# generated using pymatgen
data_Y15Er5(Ir5Au)2
_symmetry_space_group_name_H-M   'P 1'
_cell_length_a   11.05810193
_cell_length_b   10.99913525
_cell_length_c   6.34226190
_cell_angle_alpha   90.03502247
_cell_angle_beta   89.90855395
_cell_angle_gamma   89.95807959
_symmetry_Int_Tables_number   1
_chemical_formula_structural   Y15Er5(Ir5Au)2
_chemical_formula_sum   'Y15 Er5 Ir10 Au2'
_cell_volume   771.40518331
_cell_formula_units_Z   1
loop_
 _symmetry_equiv_pos_site_id
 _symmetry_equiv_pos_as_xyz
  1  'x, y, z'
loop_
 _atom_site_type_symbol
 _atom_site_label
 _atom_site_symmetry_multiplicity
 _atom_site_fract_x
 _atom_site_fract_y
 _atom_site_fract_z
 _atom_site_occupancy
  Y  Y0  1  0.290245  0.088958  0.371018  1
  Y  Y1  1  0.291159  0.911971  0.870988  1
  Y  Y2  1  0.698295  0.091847  0.865703  1
  Y  Y3  1  0.698544  0.908110  0.365209  1
  Y  Y4  1  0.578002  0.788429  0.876276  1
  Y  Y5  1  0.577773  0.211575  0.375813  1
  Y  Y6  1  0.408520  0.790122  0.376072  1
  Y  Y7  1  0.408388  0.209999  0.876181  1
  Y  Y8  1  0.210792  0.411321  0.621879  1
  Y  Y9  1  0.211027  0.587828  0.121860  1
  Y  Y10  1  0.788773  0.419367  0.123889  1
  Y  Y11  1  0.789181  0.579979  0.623973  1
  Y  Y12  1  0.918031  0.706083  0.138931  1
  Y  Y13  1  0.918246  0.293222  0.639165  1
  Y  Y14  1  0.095370  0.702970  0.624875  1
  Er  Er15  1  0.095447  0.298029  0.123363  1
  Er  Er16  1  0.009345  0.997525  0.500883  1
  Er  Er17  1  0.009239  0.003318  0.000901  1
  Er  Er18  1  0.500178  0.498513  0.000813  1
  Er  Er19  1  0.499896  0.501099  0.500569  1
  Ir  Ir20  1  0.151345  0.152939  0.753026  1
  Ir  Ir21  1  0.151716  0.848385  0.250373  1
  Ir  Ir22  1  0.653708  0.347707  0.747884  1
  Ir  Ir23  1  0.653960  0.651962  0.248521  1
  Ir  Ir24  1  0.347362  0.348346  0.250282  1
  Ir  Ir25  1  0.349346  0.651641  0.751780  1
  Ir  Ir26  1  0.499067  0.999909  0.121482  1
  Ir  Ir27  1  0.499125  0.000289  0.620915  1
  Ir  Ir28  1  0.000898  0.499644  0.879628  1
  Ir  Ir29  1  0.000839  0.497903  0.377125  1
  Au  Au30  1  0.848364  0.153829  0.250264  1
  Au  Au31  1  0.847816  0.847181  0.750361  1
