# generated using pymatgen
data_La3Nd(Hg2O)4
_symmetry_space_group_name_H-M   'P 1'
_cell_length_a   5.95007304
_cell_length_b   5.87844776
_cell_length_c   10.94773900
_cell_angle_alpha   90.02368461
_cell_angle_beta   97.55302991
_cell_angle_gamma   89.97992967
_symmetry_Int_Tables_number   1
_chemical_formula_structural   La3Nd(Hg2O)4
_chemical_formula_sum   'La3 Nd1 Hg8 O4'
_cell_volume   379.59877049
_cell_formula_units_Z   1
loop_
 _symmetry_equiv_pos_site_id
 _symmetry_equiv_pos_as_xyz
  1  'x, y, z'
loop_
 _atom_site_type_symbol
 _atom_site_label
 _atom_site_symmetry_multiplicity
 _atom_site_fract_x
 _atom_site_fract_y
 _atom_site_fract_z
 _atom_site_occupancy
  La  La0  1  0.024798  0.684328  0.108192  1
  La  La1  1  0.976190  0.184198  0.894462  1
  La  La2  1  0.475914  0.684189  0.894487  1
  Nd  Nd3  1  0.524495  0.184422  0.105410  1
  Hg  Hg4  1  0.530669  0.164640  0.415965  1
  Hg  Hg5  1  0.026655  0.654501  0.420140  1
  Hg  Hg6  1  0.972078  0.154354  0.580209  1
  Hg  Hg7  1  0.469179  0.664563  0.580276  1
  Hg  Hg8  1  0.547225  0.673780  0.293397  1
  Hg  Hg9  1  0.048350  0.169778  0.293241  1
  Hg  Hg10  1  0.950074  0.668399  0.705392  1
  Hg  Hg11  1  0.453067  0.174783  0.703770  1
  O  O12  1  0.749527  0.934421  0.001237  1
  O  O13  1  0.251150  0.936204  0.001045  1
  O  O14  1  0.749518  0.434563  0.001540  1
  O  O15  1  0.251122  0.432837  0.001239  1
