# generated using pymatgen
data_CaYb2Ce(CuH6)2
_symmetry_space_group_name_H-M   'P 1'
_cell_length_a   6.86698404
_cell_length_b   6.86698412
_cell_length_c   5.11436900
_cell_angle_alpha   90.00031129
_cell_angle_beta   90.00030173
_cell_angle_gamma   136.29008303
_symmetry_Int_Tables_number   1
_chemical_formula_structural   CaYb2Ce(CuH6)2
_chemical_formula_sum   'Ca1 Yb2 Ce1 Cu2 H12'
_cell_volume   166.65061601
_cell_formula_units_Z   1
loop_
 _symmetry_equiv_pos_site_id
 _symmetry_equiv_pos_as_xyz
  1  'x, y, z'
loop_
 _atom_site_type_symbol
 _atom_site_label
 _atom_site_symmetry_multiplicity
 _atom_site_fract_x
 _atom_site_fract_y
 _atom_site_fract_z
 _atom_site_occupancy
  Ca  Ca0  1  0.651698  0.348302  0.000000  1
  Yb  Yb1  1  0.857976  0.142024  0.500000  1
  Yb  Yb2  1  0.359227  0.640773  0.000000  1
  Ce  Ce3  1  0.144825  0.855175  0.500000  1
  Cu  Cu4  1  0.495065  0.504935  0.500000  1
  Cu  Cu5  1  0.994861  0.005139  0.000000  1
  H  H6  1  0.005441  0.505181  0.745979  1
  H  H7  1  0.494819  0.994559  0.254021  1
  H  H8  1  0.005462  0.505203  0.254020  1
  H  H9  1  0.494797  0.994538  0.745980  1
  H  H10  1  0.365314  0.634686  0.500000  1
  H  H11  1  0.866220  0.133780  0.000000  1
  H  H12  1  0.628012  0.371988  0.500000  1
  H  H13  1  0.127491  0.872509  0.000000  1
  H  H14  1  0.242903  0.238505  0.739987  1
  H  H15  1  0.761495  0.757097  0.260013  1
  H  H16  1  0.242802  0.238409  0.260076  1
  H  H17  1  0.761591  0.757198  0.739924  1
