# generated using pymatgen
data_Ho7(TmPt6)3
_symmetry_space_group_name_H-M   'P 1'
_cell_length_a   9.72146533
_cell_length_b   9.73005133
_cell_length_c   5.75584100
_cell_angle_alpha   90.00000000
_cell_angle_beta   90.00000000
_cell_angle_gamma   90.02996823
_symmetry_Int_Tables_number   1
_chemical_formula_structural   Ho7(TmPt6)3
_chemical_formula_sum   'Ho7 Tm3 Pt18'
_cell_volume   544.44697891
_cell_formula_units_Z   1
loop_
 _symmetry_equiv_pos_site_id
 _symmetry_equiv_pos_as_xyz
  1  'x, y, z'
loop_
 _atom_site_type_symbol
 _atom_site_label
 _atom_site_symmetry_multiplicity
 _atom_site_fract_x
 _atom_site_fract_y
 _atom_site_fract_z
 _atom_site_occupancy
  Ho  Ho0  1  0.452615  0.808870  0.000000  1
  Ho  Ho1  1  0.547370  0.191166  0.000000  1
  Ho  Ho2  1  0.191068  0.547261  0.000000  1
  Ho  Ho3  1  0.808979  0.452593  0.000000  1
  Ho  Ho4  1  0.308696  0.047497  0.500000  1
  Ho  Ho5  1  0.691152  0.952644  0.500000  1
  Ho  Ho6  1  0.952643  0.691002  0.500000  1
  Tm  Tm7  1  0.500007  0.499972  0.500000  1
  Tm  Tm8  1  0.047418  0.308828  0.500000  1
  Tm  Tm9  1  0.000021  0.000072  0.000000  1
  Pt  Pt10  1  0.191590  0.808312  0.250722  1
  Pt  Pt11  1  0.809018  0.191810  0.748934  1
  Pt  Pt12  1  0.809018  0.191810  0.251066  1
  Pt  Pt13  1  0.191590  0.808312  0.749278  1
  Pt  Pt14  1  0.441122  0.781031  0.500000  1
  Pt  Pt15  1  0.558874  0.218960  0.500000  1
  Pt  Pt16  1  0.218456  0.558274  0.500000  1
  Pt  Pt17  1  0.781777  0.440977  0.500000  1
  Pt  Pt18  1  0.307666  0.308366  0.249778  1
  Pt  Pt19  1  0.691611  0.691571  0.750674  1
  Pt  Pt20  1  0.691611  0.691571  0.249326  1
  Pt  Pt21  1  0.307666  0.308366  0.750222  1
  Pt  Pt22  1  0.281146  0.058883  0.000000  1
  Pt  Pt23  1  0.718928  0.941266  0.000000  1
  Pt  Pt24  1  0.941188  0.718940  0.000000  1
  Pt  Pt25  1  0.058740  0.281169  0.000000  1
  Pt  Pt26  1  0.000124  0.000566  0.500000  1
  Pt  Pt27  1  0.499906  0.499910  0.000000  1
