# generated using pymatgen
data_Zr10GeSb6
_symmetry_space_group_name_H-M   'P 1'
_cell_length_a   5.86762901
_cell_length_b   8.59026731
_cell_length_c   8.59064402
_cell_angle_alpha   119.99856224
_cell_angle_beta   90.00073458
_cell_angle_gamma   89.99853009
_symmetry_Int_Tables_number   1
_chemical_formula_structural   Zr10GeSb6
_chemical_formula_sum   'Zr10 Ge1 Sb6'
_cell_volume   375.00060757
_cell_formula_units_Z   1
loop_
 _symmetry_equiv_pos_site_id
 _symmetry_equiv_pos_as_xyz
  1  'x, y, z'
loop_
 _atom_site_type_symbol
 _atom_site_label
 _atom_site_symmetry_multiplicity
 _atom_site_fract_x
 _atom_site_fract_y
 _atom_site_fract_z
 _atom_site_occupancy
  Zr  Zr0  1  0.500000  0.333336  0.666673  1
  Zr  Zr1  1  0.500000  0.666664  0.333327  1
  Zr  Zr2  1  0.000001  0.666660  0.333319  1
  Zr  Zr3  1  0.000001  0.333341  0.666681  1
  Zr  Zr4  1  0.762796  0.258560  0.000000  1
  Zr  Zr5  1  0.762769  0.741447  0.741440  1
  Zr  Zr6  1  0.762769  0.000006  0.258560  1
  Zr  Zr7  1  0.237204  0.741439  0.000000  1
  Zr  Zr8  1  0.237230  0.258553  0.258560  1
  Zr  Zr9  1  0.237230  0.999994  0.741440  1
  Ge  Ge10  1  0.499999  0.000000  0.000000  1
  Sb  Sb11  1  0.749315  0.610426  0.000000  1
  Sb  Sb12  1  0.749346  0.389591  0.389592  1
  Sb  Sb13  1  0.749346  0.999999  0.610408  1
  Sb  Sb14  1  0.250685  0.389575  0.000000  1
  Sb  Sb15  1  0.250655  0.610410  0.610409  1
  Sb  Sb16  1  0.250655  0.000001  0.389591  1
