# generated using pymatgen
data_Hf8TaTi(Si3N)2
_symmetry_space_group_name_H-M   'P 1'
_cell_length_a   7.76212600
_cell_length_b   7.76212524
_cell_length_c   5.45658500
_cell_angle_alpha   90.00000000
_cell_angle_beta   90.00000000
_cell_angle_gamma   119.99999473
_symmetry_Int_Tables_number   1
_chemical_formula_structural   Hf8TaTi(Si3N)2
_chemical_formula_sum   'Hf8 Ta1 Ti1 Si6 N2'
_cell_volume   284.71668165
_cell_formula_units_Z   1
loop_
 _symmetry_equiv_pos_site_id
 _symmetry_equiv_pos_as_xyz
  1  'x, y, z'
loop_
 _atom_site_type_symbol
 _atom_site_label
 _atom_site_symmetry_multiplicity
 _atom_site_fract_x
 _atom_site_fract_y
 _atom_site_fract_z
 _atom_site_occupancy
  Hf  Hf0  1  0.236025  0.999664  0.250223  1
  Hf  Hf1  1  0.763639  0.999664  0.749777  1
  Hf  Hf2  1  0.000336  0.236361  0.250223  1
  Hf  Hf3  1  0.000336  0.763975  0.749777  1
  Hf  Hf4  1  0.763639  0.763975  0.250223  1
  Hf  Hf5  1  0.236025  0.236361  0.749777  1
  Hf  Hf6  1  0.666667  0.333333  0.500000  1
  Hf  Hf7  1  0.333333  0.666667  0.500000  1
  Ta  Ta8  1  0.333333  0.666667  0.000000  1
  Ti  Ti9  1  0.666667  0.333333  0.000000  1
  Si  Si10  1  0.593463  0.001787  0.236333  1
  Si  Si11  1  0.408324  0.001787  0.763667  1
  Si  Si12  1  0.998213  0.591676  0.236333  1
  Si  Si13  1  0.998213  0.406537  0.763667  1
  Si  Si14  1  0.408324  0.406537  0.236333  1
  Si  Si15  1  0.593463  0.591676  0.763667  1
  N  N16  1  0.000000  0.000000  0.000000  1
  N  N17  1  0.000000  0.000000  0.500000  1
