# generated using pymatgen
data_Zn2Cd2P6PdN12
_symmetry_space_group_name_H-M   'P 1'
_cell_length_a   7.29802336
_cell_length_b   7.25870396
_cell_length_c   7.29802457
_cell_angle_alpha   109.31586186
_cell_angle_beta   109.99956835
_cell_angle_gamma   109.31586294
_symmetry_Int_Tables_number   1
_chemical_formula_structural   Zn2Cd2P6PdN12
_chemical_formula_sum   'Zn2 Cd2 P6 Pd1 N12'
_cell_volume   296.79756047
_cell_formula_units_Z   1
loop_
 _symmetry_equiv_pos_site_id
 _symmetry_equiv_pos_as_xyz
  1  'x, y, z'
loop_
 _atom_site_type_symbol
 _atom_site_label
 _atom_site_symmetry_multiplicity
 _atom_site_fract_x
 _atom_site_fract_y
 _atom_site_fract_z
 _atom_site_occupancy
  Zn  Zn0  1  0.392469  0.000000  0.986608  1
  Zn  Zn1  1  0.986608  0.000000  0.392469  1
  Cd  Cd2  1  0.985913  0.272262  0.985913  1
  Cd  Cd3  1  0.713651  0.727738  0.713651  1
  P  P4  1  0.738915  0.253744  0.492724  1
  P  P5  1  0.238980  0.746256  0.485171  1
  P  P6  1  0.485171  0.746256  0.238980  1
  P  P7  1  0.492724  0.253744  0.738915  1
  P  P8  1  0.742814  0.500000  0.242814  1
  P  P9  1  0.242814  0.500000  0.742814  1
  Pd  Pd10  1  0.096957  0.000000  0.096957  1
  N  N11  1  0.554373  0.277771  0.989316  1
  N  N12  1  0.428362  0.439024  0.705811  1
  N  N13  1  0.989316  0.277771  0.554373  1
  N  N14  1  0.267519  0.000000  0.552241  1
  N  N15  1  0.705811  0.439024  0.428362  1
  N  N16  1  0.989338  0.560976  0.266787  1
  N  N17  1  0.552241  0.000000  0.267519  1
  N  N18  1  0.428919  0.716747  0.428919  1
  N  N19  1  0.266787  0.560976  0.989338  1
  N  N20  1  0.712171  0.283253  0.712171  1
  N  N21  1  0.711545  0.722229  0.276602  1
  N  N22  1  0.276602  0.722229  0.711545  1
