# generated using pymatgen
data_NdEu3(CuSi3)2
_symmetry_space_group_name_H-M   'P 1'
_cell_length_a   8.30016975
_cell_length_b   8.14682679
_cell_length_c   5.98388600
_cell_angle_alpha   70.03872524
_cell_angle_beta   67.30302785
_cell_angle_gamma   42.65826841
_symmetry_Int_Tables_number   1
_chemical_formula_structural   NdEu3(CuSi3)2
_chemical_formula_sum   'Nd1 Eu3 Cu2 Si6'
_cell_volume   251.87717994
_cell_formula_units_Z   1
loop_
 _symmetry_equiv_pos_site_id
 _symmetry_equiv_pos_as_xyz
  1  'x, y, z'
loop_
 _atom_site_type_symbol
 _atom_site_label
 _atom_site_symmetry_multiplicity
 _atom_site_fract_x
 _atom_site_fract_y
 _atom_site_fract_z
 _atom_site_occupancy
  Nd  Nd0  1  0.757073  0.242927  0.757073  1
  Eu  Eu1  1  0.244015  0.755985  0.244015  1
  Eu  Eu2  1  0.250021  0.249979  0.250020  1
  Eu  Eu3  1  0.750020  0.749980  0.750019  1
  Cu  Cu4  1  0.667075  0.665525  0.334475  1
  Cu  Cu5  1  0.334475  0.332925  0.667075  1
  Si  Si6  1  0.831358  0.832959  0.167041  1
  Si  Si7  1  0.830420  0.337406  0.169043  1
  Si  Si8  1  0.662594  0.169580  0.336871  1
  Si  Si9  1  0.336871  0.830957  0.662594  1
  Si  Si10  1  0.169043  0.663129  0.830420  1
  Si  Si11  1  0.167041  0.168642  0.831358  1
