# generated using pymatgen
data_Ce2Mn9Cr3P7
_symmetry_space_group_name_H-M   'P 1'
_cell_length_a   9.29415900
_cell_length_b   9.29415942
_cell_length_c   3.63428900
_cell_angle_alpha   90.00000000
_cell_angle_beta   90.00000000
_cell_angle_gamma   120.00000206
_symmetry_Int_Tables_number   1
_chemical_formula_structural   Ce2Mn9Cr3P7
_chemical_formula_sum   'Ce2 Mn9 Cr3 P7'
_cell_volume   271.87564077
_cell_formula_units_Z   1
loop_
 _symmetry_equiv_pos_site_id
 _symmetry_equiv_pos_as_xyz
  1  'x, y, z'
loop_
 _atom_site_type_symbol
 _atom_site_label
 _atom_site_symmetry_multiplicity
 _atom_site_fract_x
 _atom_site_fract_y
 _atom_site_fract_z
 _atom_site_occupancy
  Ce  Ce0  1  0.000000  0.000000  0.000000  1
  Ce  Ce1  1  0.333333  0.666667  0.500000  1
  Mn  Mn2  1  0.095833  0.385860  0.000000  1
  Mn  Mn3  1  0.290026  0.904167  0.000000  1
  Mn  Mn4  1  0.614140  0.709974  0.000000  1
  Mn  Mn5  1  0.820896  0.609993  0.000000  1
  Mn  Mn6  1  0.789097  0.179104  0.000000  1
  Mn  Mn7  1  0.390007  0.210903  0.000000  1
  Mn  Mn8  1  0.052862  0.768431  0.500000  1
  Mn  Mn9  1  0.715569  0.947138  0.500000  1
  Mn  Mn10  1  0.231569  0.284431  0.500000  1
  Cr  Cr11  1  0.880107  0.431421  0.500000  1
  Cr  Cr12  1  0.551314  0.119893  0.500000  1
  Cr  Cr13  1  0.568579  0.448686  0.500000  1
  P  P14  1  0.070268  0.622213  0.000000  1
  P  P15  1  0.551944  0.929732  0.000000  1
  P  P16  1  0.377787  0.448056  0.000000  1
  P  P17  1  0.784679  0.736576  0.500000  1
  P  P18  1  0.951898  0.215321  0.500000  1
  P  P19  1  0.263424  0.048102  0.500000  1
  P  P20  1  0.666667  0.333333  0.000000  1
