# generated using pymatgen
data_YEr4(In2Rh)2
_symmetry_space_group_name_H-M   'P 1'
_cell_length_a   3.61355200
_cell_length_b   8.00422200
_cell_length_c   18.27061900
_cell_angle_alpha   90.00000000
_cell_angle_beta   90.00000000
_cell_angle_gamma   90.00000000
_symmetry_Int_Tables_number   1
_chemical_formula_structural   YEr4(In2Rh)2
_chemical_formula_sum   'Y2 Er8 In8 Rh4'
_cell_volume   528.45339880
_cell_formula_units_Z   2
loop_
 _symmetry_equiv_pos_site_id
 _symmetry_equiv_pos_as_xyz
  1  'x, y, z'
loop_
 _atom_site_type_symbol
 _atom_site_label
 _atom_site_symmetry_multiplicity
 _atom_site_fract_x
 _atom_site_fract_y
 _atom_site_fract_z
 _atom_site_occupancy
  Y  Y0  1  0.000000  0.000000  0.000000  1
  Y  Y1  1  0.000000  0.500000  0.500000  1
  Er  Er2  1  0.000000  0.115786  0.411205  1
  Er  Er3  1  0.000000  0.884214  0.588795  1
  Er  Er4  1  0.000000  0.384214  0.911205  1
  Er  Er5  1  0.000000  0.615786  0.088795  1
  Er  Er6  1  0.000000  0.244778  0.220898  1
  Er  Er7  1  0.000000  0.755222  0.779102  1
  Er  Er8  1  0.000000  0.255222  0.720898  1
  Er  Er9  1  0.000000  0.744778  0.279102  1
  In  In10  1  0.500000  0.425182  0.349612  1
  In  In11  1  0.500000  0.574818  0.650388  1
  In  In12  1  0.500000  0.074818  0.849612  1
  In  In13  1  0.500000  0.925182  0.150388  1
  In  In14  1  0.500000  0.294270  0.067615  1
  In  In15  1  0.500000  0.705730  0.932385  1
  In  In16  1  0.500000  0.205730  0.567615  1
  In  In17  1  0.500000  0.794270  0.432385  1
  Rh  Rh18  1  0.500000  0.023553  0.304518  1
  Rh  Rh19  1  0.500000  0.976447  0.695482  1
  Rh  Rh20  1  0.500000  0.476447  0.804518  1
  Rh  Rh21  1  0.500000  0.523553  0.195482  1
