# generated using pymatgen
data_ZrUI9
_symmetry_space_group_name_H-M   'P 1'
_cell_length_a   13.97968100
_cell_length_b   8.15180439
_cell_length_c   11.13329794
_cell_angle_alpha   75.51882002
_cell_angle_beta   90.00000000
_cell_angle_gamma   90.00000000
_symmetry_Int_Tables_number   1
_chemical_formula_structural   ZrUI9
_chemical_formula_sum   'Zr2 U2 I18'
_cell_volume   1228.43816708
_cell_formula_units_Z   2
loop_
 _symmetry_equiv_pos_site_id
 _symmetry_equiv_pos_as_xyz
  1  'x, y, z'
loop_
 _atom_site_type_symbol
 _atom_site_label
 _atom_site_symmetry_multiplicity
 _atom_site_fract_x
 _atom_site_fract_y
 _atom_site_fract_z
 _atom_site_occupancy
  Zr  Zr0  1  0.250000  0.756780  0.471038  1
  Zr  Zr1  1  0.750000  0.243220  0.528962  1
  U  U2  1  0.250000  0.648012  0.845529  1
  U  U3  1  0.750000  0.351988  0.154471  1
  I  I4  1  0.607581  0.441579  0.330535  1
  I  I5  1  0.107581  0.558421  0.669465  1
  I  I6  1  0.392419  0.558421  0.669465  1
  I  I7  1  0.892419  0.441579  0.330535  1
  I  I8  1  0.750000  0.693621  0.002992  1
  I  I9  1  0.250000  0.306379  0.997008  1
  I  I10  1  0.750000  0.512811  0.633489  1
  I  I11  1  0.250000  0.487189  0.366511  1
  I  I12  1  0.750000  0.015580  0.343245  1
  I  I13  1  0.250000  0.984420  0.656755  1
  I  I14  1  0.900177  0.244099  0.015503  1
  I  I15  1  0.400177  0.755901  0.984497  1
  I  I16  1  0.099823  0.755901  0.984497  1
  I  I17  1  0.599823  0.244099  0.015503  1
  I  I18  1  0.900858  0.060059  0.648568  1
  I  I19  1  0.400858  0.939941  0.351432  1
  I  I20  1  0.099142  0.939941  0.351432  1
  I  I21  1  0.599142  0.060059  0.648568  1
