# generated using pymatgen
data_Lu3Zr(Ga3Ir)6
_symmetry_space_group_name_H-M   'P 1'
_cell_length_a   7.53571700
_cell_length_b   7.52811925
_cell_length_c   9.45246200
_cell_angle_alpha   90.00000000
_cell_angle_beta   90.00000000
_cell_angle_gamma   119.81443549
_symmetry_Int_Tables_number   1
_chemical_formula_structural   Lu3Zr(Ga3Ir)6
_chemical_formula_sum   'Lu3 Zr1 Ga18 Ir6'
_cell_volume   465.25996476
_cell_formula_units_Z   1
loop_
 _symmetry_equiv_pos_site_id
 _symmetry_equiv_pos_as_xyz
  1  'x, y, z'
loop_
 _atom_site_type_symbol
 _atom_site_label
 _atom_site_symmetry_multiplicity
 _atom_site_fract_x
 _atom_site_fract_y
 _atom_site_fract_z
 _atom_site_occupancy
  Lu  Lu0  1  0.002944  0.329799  0.750000  1
  Lu  Lu1  1  0.670461  0.998215  0.250000  1
  Lu  Lu2  1  0.330029  0.002727  0.750000  1
  Zr  Zr3  1  0.997122  0.668747  0.250000  1
  Ga  Ga4  1  0.338477  0.549289  0.250000  1
  Ga  Ga5  1  0.660413  0.452258  0.750000  1
  Ga  Ga6  1  0.551222  0.340751  0.250000  1
  Ga  Ga7  1  0.451340  0.660012  0.750000  1
  Ga  Ga8  1  0.998713  0.336371  0.083021  1
  Ga  Ga9  1  0.001495  0.665318  0.920044  1
  Ga  Ga10  1  0.001495  0.665318  0.579956  1
  Ga  Ga11  1  0.332870  0.997328  0.416874  1
  Ga  Ga12  1  0.998713  0.336371  0.416979  1
  Ga  Ga13  1  0.665302  0.001030  0.581370  1
  Ga  Ga14  1  0.665302  0.001030  0.918630  1
  Ga  Ga15  1  0.332870  0.997328  0.083126  1
  Ga  Ga16  1  0.331718  0.331612  0.567282  1
  Ga  Ga17  1  0.669759  0.668641  0.430450  1
  Ga  Ga18  1  0.669759  0.668641  0.069550  1
  Ga  Ga19  1  0.331718  0.331612  0.932718  1
  Ga  Ga20  1  0.125867  0.125170  0.250000  1
  Ga  Ga21  1  0.872095  0.871907  0.750000  1
  Ir  Ir22  1  0.672376  0.328641  0.000562  1
  Ir  Ir23  1  0.327904  0.672134  0.001026  1
  Ir  Ir24  1  0.327904  0.672134  0.498974  1
  Ir  Ir25  1  0.672376  0.328641  0.499438  1
  Ir  Ir26  1  0.999880  0.999484  0.000541  1
  Ir  Ir27  1  0.999880  0.999484  0.499459  1
