# generated using pymatgen
data_Y3HoTmPb3
_symmetry_space_group_name_H-M   'P 1'
_cell_length_a   6.59074000
_cell_length_b   9.05809516
_cell_length_c   9.05862704
_cell_angle_alpha   119.99805729
_cell_angle_beta   90.00007273
_cell_angle_gamma   89.99984648
_symmetry_Int_Tables_number   1
_chemical_formula_structural   Y3HoTmPb3
_chemical_formula_sum   'Y6 Ho2 Tm2 Pb6'
_cell_volume   468.35220657
_cell_formula_units_Z   2
loop_
 _symmetry_equiv_pos_site_id
 _symmetry_equiv_pos_as_xyz
  1  'x, y, z'
loop_
 _atom_site_type_symbol
 _atom_site_label
 _atom_site_symmetry_multiplicity
 _atom_site_fract_x
 _atom_site_fract_y
 _atom_site_fract_z
 _atom_site_occupancy
  Y  Y0  1  0.750117  0.238805  0.000000  1
  Y  Y1  1  0.750117  0.761032  0.761097  1
  Y  Y2  1  0.750117  0.999935  0.238903  1
  Y  Y3  1  0.249892  0.761195  0.000000  1
  Y  Y4  1  0.249882  0.238966  0.238905  1
  Y  Y5  1  0.249882  0.000063  0.761095  1
  Ho  Ho6  1  0.500003  0.333296  0.666626  1
  Ho  Ho7  1  0.500003  0.666669  0.333374  1
  Tm  Tm8  1  0.999998  0.666706  0.333375  1
  Tm  Tm9  1  0.999998  0.333331  0.666625  1
  Pb  Pb10  1  0.750311  0.605113  0.000000  1
  Pb  Pb11  1  0.750327  0.394927  0.394971  1
  Pb  Pb12  1  0.750327  0.999956  0.605029  1
  Pb  Pb13  1  0.249667  0.394888  0.000000  1
  Pb  Pb14  1  0.249681  0.605074  0.605029  1
  Pb  Pb15  1  0.249681  0.000045  0.394971  1
