# generated using pymatgen
data_SmTh2Zn2Co9B4
_symmetry_space_group_name_H-M   'P 1'
_cell_length_a   5.13709800
_cell_length_b   5.13933320
_cell_length_c   9.73988400
_cell_angle_alpha   89.99986622
_cell_angle_beta   90.00026768
_cell_angle_gamma   119.96031227
_symmetry_Int_Tables_number   1
_chemical_formula_structural   SmTh2Zn2Co9B4
_chemical_formula_sum   'Sm1 Th2 Zn2 Co9 B4'
_cell_volume   222.78327619
_cell_formula_units_Z   1
loop_
 _symmetry_equiv_pos_site_id
 _symmetry_equiv_pos_as_xyz
  1  'x, y, z'
loop_
 _atom_site_type_symbol
 _atom_site_label
 _atom_site_symmetry_multiplicity
 _atom_site_fract_x
 _atom_site_fract_y
 _atom_site_fract_z
 _atom_site_occupancy
  Sm  Sm0  1  0.999992  0.000000  0.000038  1
  Th  Th1  1  0.999994  0.000000  0.335857  1
  Th  Th2  1  0.999996  0.000001  0.664036  1
  Zn  Zn3  1  0.333326  0.666549  0.000127  1
  Zn  Zn4  1  0.666660  0.333450  0.000127  1
  Co  Co5  1  0.499994  0.999999  0.499965  1
  Co  Co6  1  0.499994  0.500000  0.499971  1
  Co  Co7  1  0.999995  0.500000  0.499970  1
  Co  Co8  1  0.499992  0.999999  0.209638  1
  Co  Co9  1  0.499994  0.500000  0.209748  1
  Co  Co10  1  0.999993  0.500000  0.209637  1
  Co  Co11  1  0.499996  0.000000  0.790342  1
  Co  Co12  1  0.499996  0.500000  0.790295  1
  Co  Co13  1  0.999996  0.500000  0.790328  1
  B  B14  1  0.333240  0.666778  0.350105  1
  B  B15  1  0.666748  0.333222  0.350105  1
  B  B16  1  0.666678  0.333269  0.649855  1
  B  B17  1  0.333314  0.666732  0.649855  1
