# generated using pymatgen
data_Lu4Tc3B8Ru7
_symmetry_space_group_name_H-M   'P 1'
_cell_length_a   3.07424800
_cell_length_b   8.67996700
_cell_length_c   10.13332926
_cell_angle_alpha   90.15978467
_cell_angle_beta   90.00000000
_cell_angle_gamma   90.00000000
_symmetry_Int_Tables_number   1
_chemical_formula_structural   Lu4Tc3B8Ru7
_chemical_formula_sum   'Lu4 Tc3 B8 Ru7'
_cell_volume   270.40046776
_cell_formula_units_Z   1
loop_
 _symmetry_equiv_pos_site_id
 _symmetry_equiv_pos_as_xyz
  1  'x, y, z'
loop_
 _atom_site_type_symbol
 _atom_site_label
 _atom_site_symmetry_multiplicity
 _atom_site_fract_x
 _atom_site_fract_y
 _atom_site_fract_z
 _atom_site_occupancy
  Lu  Lu0  1  0.500000  0.838422  0.180799  1
  Lu  Lu1  1  0.500000  0.160821  0.819625  1
  Lu  Lu2  1  0.500000  0.661255  0.681962  1
  Lu  Lu3  1  0.500000  0.338901  0.317450  1
  Tc  Tc4  1  0.000000  0.659469  0.953658  1
  Tc  Tc5  1  0.000000  0.339994  0.046088  1
  Tc  Tc6  1  0.000000  0.842518  0.454616  1
  B  B7  1  0.500000  0.963966  0.587317  1
  B  B8  1  0.500000  0.029657  0.410897  1
  B  B9  1  0.500000  0.849987  0.902005  1
  B  B10  1  0.500000  0.151457  0.098398  1
  B  B11  1  0.500000  0.649814  0.399792  1
  B  B12  1  0.500000  0.352567  0.600400  1
  B  B13  1  0.500000  0.466875  0.913425  1
  B  B14  1  0.500000  0.533794  0.086330  1
  Ru  Ru15  1  0.000000  0.161280  0.546887  1
  Ru  Ru16  1  0.000000  0.000155  0.000393  1
  Ru  Ru17  1  0.000000  0.407026  0.759849  1
  Ru  Ru18  1  0.000000  0.592056  0.239745  1
  Ru  Ru19  1  0.000000  0.499774  0.500151  1
  Ru  Ru20  1  0.000000  0.908540  0.739083  1
  Ru  Ru21  1  0.000000  0.091674  0.261130  1
