# generated using pymatgen
data_Cs2Eu(PSe3)2
_symmetry_space_group_name_H-M   'P 1'
_cell_length_a   13.45077200
_cell_length_b   7.11639993
_cell_length_c   10.81042516
_cell_angle_alpha   51.12888014
_cell_angle_beta   90.00000000
_cell_angle_gamma   90.00000000
_symmetry_Int_Tables_number   1
_chemical_formula_structural   Cs2Eu(PSe3)2
_chemical_formula_sum   'Cs4 Eu2 P4 Se12'
_cell_volume   805.64215613
_cell_formula_units_Z   2
loop_
 _symmetry_equiv_pos_site_id
 _symmetry_equiv_pos_as_xyz
  1  'x, y, z'
loop_
 _atom_site_type_symbol
 _atom_site_label
 _atom_site_symmetry_multiplicity
 _atom_site_fract_x
 _atom_site_fract_y
 _atom_site_fract_z
 _atom_site_occupancy
  Cs  Cs0  1  0.669378  0.226390  0.523773  1
  Cs  Cs1  1  0.169378  0.773610  0.976227  1
  Cs  Cs2  1  0.330622  0.773610  0.476227  1
  Cs  Cs3  1  0.830622  0.226390  0.023773  1
  Eu  Eu4  1  0.000000  0.500000  0.500000  1
  Eu  Eu5  1  0.500000  0.500000  0.000000  1
  P  P6  1  0.038757  0.156247  0.383873  1
  P  P7  1  0.538757  0.843753  0.116127  1
  P  P8  1  0.961243  0.843753  0.616127  1
  P  P9  1  0.461243  0.156247  0.883873  1
  Se  Se10  1  0.170189  0.254835  0.456306  1
  Se  Se11  1  0.670189  0.745165  0.043694  1
  Se  Se12  1  0.829811  0.745165  0.543694  1
  Se  Se13  1  0.329811  0.254835  0.956306  1
  Se  Se14  1  0.927530  0.451366  0.251897  1
  Se  Se15  1  0.427530  0.548634  0.248103  1
  Se  Se16  1  0.072470  0.548634  0.748103  1
  Se  Se17  1  0.572470  0.451366  0.751897  1
  Se  Se18  1  0.081624  0.018597  0.255640  1
  Se  Se19  1  0.581624  0.981403  0.244360  1
  Se  Se20  1  0.918376  0.981403  0.744360  1
  Se  Se21  1  0.418376  0.018597  0.755640  1
