# generated using pymatgen
data_Ce2As4Rh7
_symmetry_space_group_name_H-M   'P 1'
_cell_length_a   4.05564000
_cell_length_b   9.95715900
_cell_length_c   11.25667300
_cell_angle_alpha   90.00000000
_cell_angle_beta   90.00000000
_cell_angle_gamma   90.00000000
_symmetry_Int_Tables_number   1
_chemical_formula_structural   Ce2As4Rh7
_chemical_formula_sum   'Ce4 As8 Rh14'
_cell_volume   454.57431212
_cell_formula_units_Z   2
loop_
 _symmetry_equiv_pos_site_id
 _symmetry_equiv_pos_as_xyz
  1  'x, y, z'
loop_
 _atom_site_type_symbol
 _atom_site_label
 _atom_site_symmetry_multiplicity
 _atom_site_fract_x
 _atom_site_fract_y
 _atom_site_fract_z
 _atom_site_occupancy
  Ce  Ce0  1  0.500000  0.454044  0.506920  1
  Ce  Ce1  1  0.500000  0.059067  0.283264  1
  Ce  Ce2  1  0.000000  0.940933  0.783264  1
  Ce  Ce3  1  0.000000  0.545956  0.006920  1
  As  As4  1  0.000000  0.821550  0.283655  1
  As  As5  1  0.000000  0.192268  0.460103  1
  As  As6  1  0.500000  0.178450  0.783655  1
  As  As7  1  0.000000  0.148159  0.095835  1
  As  As8  1  0.500000  0.473147  0.229738  1
  As  As9  1  0.500000  0.807732  0.960103  1
  As  As10  1  0.500000  0.851841  0.595835  1
  As  As11  1  0.000000  0.526853  0.729738  1
  Rh  Rh12  1  0.500000  0.316088  0.071006  1
  Rh  Rh13  1  0.500000  0.753870  0.404615  1
  Rh  Rh14  1  0.500000  0.415575  0.810826  1
  Rh  Rh15  1  0.500000  0.058159  0.977381  1
  Rh  Rh16  1  0.500000  0.695294  0.764810  1
  Rh  Rh17  1  0.000000  0.282615  0.662117  1
  Rh  Rh18  1  0.000000  0.246130  0.904615  1
  Rh  Rh19  1  0.000000  0.683912  0.571006  1
  Rh  Rh20  1  0.500000  0.103407  0.577429  1
  Rh  Rh21  1  0.000000  0.304706  0.264810  1
  Rh  Rh22  1  0.000000  0.584425  0.310826  1
  Rh  Rh23  1  0.000000  0.896593  0.077429  1
  Rh  Rh24  1  0.000000  0.941841  0.477381  1
  Rh  Rh25  1  0.500000  0.717385  0.162117  1
