# generated using pymatgen
data_Ho2Tm2TcPt3F28
_symmetry_space_group_name_H-M   'P 1'
_cell_length_a   5.52503941
_cell_length_b   8.82205183
_cell_length_c   11.92291356
_cell_angle_alpha   62.59723089
_cell_angle_beta   89.95781808
_cell_angle_gamma   89.96418838
_symmetry_Int_Tables_number   1
_chemical_formula_structural   Ho2Tm2TcPt3F28
_chemical_formula_sum   'Ho2 Tm2 Tc1 Pt3 F28'
_cell_volume   515.93979471
_cell_formula_units_Z   1
loop_
 _symmetry_equiv_pos_site_id
 _symmetry_equiv_pos_as_xyz
  1  'x, y, z'
loop_
 _atom_site_type_symbol
 _atom_site_label
 _atom_site_symmetry_multiplicity
 _atom_site_fract_x
 _atom_site_fract_y
 _atom_site_fract_z
 _atom_site_occupancy
  Ho  Ho0  1  0.239484  0.186292  0.235996  1
  Ho  Ho1  1  0.739414  0.813938  0.264316  1
  Tm  Tm2  1  0.761302  0.816246  0.763306  1
  Tm  Tm3  1  0.259846  0.185272  0.734465  1
  Tc  Tc4  1  0.757653  0.274383  0.955238  1
  Pt  Pt5  1  0.259557  0.727144  0.544167  1
  Pt  Pt6  1  0.240977  0.728567  0.041751  1
  Pt  Pt7  1  0.741000  0.271996  0.457769  1
  F  F8  1  0.439372  0.702918  0.914556  1
  F  F9  1  0.937302  0.297098  0.585695  1
  F  F10  1  0.553077  0.293481  0.081844  1
  F  F11  1  0.063392  0.701954  0.416436  1
  F  F12  1  0.437846  0.277595  0.543703  1
  F  F13  1  0.938898  0.723501  0.954757  1
  F  F14  1  0.560761  0.721231  0.457676  1
  F  F15  1  0.053819  0.278009  0.045859  1
  F  F16  1  0.773366  0.524556  0.857817  1
  F  F17  1  0.274291  0.476437  0.642520  1
  F  F18  1  0.224561  0.478784  0.142179  1
  F  F19  1  0.725512  0.521962  0.357997  1
  F  F20  1  0.756109  0.025700  0.052758  1
  F  F21  1  0.255668  0.977327  0.450503  1
  F  F22  1  0.245836  0.978869  0.947492  1
  F  F23  1  0.745628  0.021620  0.551516  1
  F  F24  1  0.965651  0.725583  0.638105  1
  F  F25  1  0.472655  0.270715  0.858304  1
  F  F26  1  0.035059  0.275382  0.364095  1
  F  F27  1  0.533763  0.725095  0.136138  1
  F  F28  1  0.051313  0.746331  0.175155  1
  F  F29  1  0.552750  0.254517  0.323967  1
  F  F30  1  0.958987  0.252800  0.826521  1
  F  F31  1  0.452300  0.746214  0.676449  1
  F  F32  1  0.415223  0.969264  0.233040  1
  F  F33  1  0.915665  0.029200  0.269182  1
  F  F34  1  0.580707  0.028687  0.766288  1
  F  F35  1  0.081256  0.971331  0.732442  1
