# generated using pymatgen
data_Dy12Co2Ni2BiRh
_symmetry_space_group_name_H-M   'P 1'
_cell_length_a   8.35606683
_cell_length_b   8.35641431
_cell_length_c   8.35606788
_cell_angle_alpha   111.39769741
_cell_angle_beta   109.14248657
_cell_angle_gamma   107.89142034
_symmetry_Int_Tables_number   1
_chemical_formula_structural   Dy12Co2Ni2BiRh
_chemical_formula_sum   'Dy12 Co2 Ni2 Bi1 Rh1'
_cell_volume   448.73618407
_cell_formula_units_Z   1
loop_
 _symmetry_equiv_pos_site_id
 _symmetry_equiv_pos_as_xyz
  1  'x, y, z'
loop_
 _atom_site_type_symbol
 _atom_site_label
 _atom_site_symmetry_multiplicity
 _atom_site_fract_x
 _atom_site_fract_y
 _atom_site_fract_z
 _atom_site_occupancy
  Dy  Dy0  1  0.818156  0.707989  0.526144  1
  Dy  Dy1  1  0.181844  0.292011  0.473856  1
  Dy  Dy2  1  0.181845  0.707989  0.889832  1
  Dy  Dy3  1  0.818155  0.292011  0.110168  1
  Dy  Dy4  1  0.685571  0.375843  0.690272  1
  Dy  Dy5  1  0.314429  0.624157  0.309728  1
  Dy  Dy6  1  0.685564  0.995299  0.309736  1
  Dy  Dy7  1  0.314436  0.004701  0.690264  1
  Dy  Dy8  1  0.597824  0.792033  0.805800  1
  Dy  Dy9  1  0.402176  0.207967  0.194200  1
  Dy  Dy10  1  0.986233  0.792033  0.194208  1
  Dy  Dy11  1  0.013767  0.207967  0.805792  1
  Co  Co12  1  0.113697  0.613710  0.500013  1
  Co  Co13  1  0.886303  0.386290  0.499987  1
  Ni  Ni14  1  0.630250  0.000000  0.630250  1
  Ni  Ni15  1  0.369750  0.000000  0.369750  1
  Bi  Bi16  1  0.500000  0.500000  0.000000  1
  Rh  Rh17  1  0.000000  0.000000  0.000000  1
