# generated using pymatgen
data_LuHf3(SiW)4
_symmetry_space_group_name_H-M   'P 1'
_cell_length_a   3.54107100
_cell_length_b   6.99051449
_cell_length_c   8.23353170
_cell_angle_alpha   89.84356507
_cell_angle_beta   90.00000000
_cell_angle_gamma   90.00000000
_symmetry_Int_Tables_number   1
_chemical_formula_structural   LuHf3(SiW)4
_chemical_formula_sum   'Lu1 Hf3 Si4 W4'
_cell_volume   203.81132768
_cell_formula_units_Z   1
loop_
 _symmetry_equiv_pos_site_id
 _symmetry_equiv_pos_as_xyz
  1  'x, y, z'
loop_
 _atom_site_type_symbol
 _atom_site_label
 _atom_site_symmetry_multiplicity
 _atom_site_fract_x
 _atom_site_fract_y
 _atom_site_fract_z
 _atom_site_occupancy
  Lu  Lu0  1  0.250000  0.540106  0.164302  1
  Hf  Hf1  1  0.250000  0.042147  0.336582  1
  Hf  Hf2  1  0.750000  0.458202  0.829916  1
  Hf  Hf3  1  0.750000  0.958217  0.666507  1
  Si  Si4  1  0.250000  0.759845  0.859234  1
  Si  Si5  1  0.250000  0.256345  0.639325  1
  Si  Si6  1  0.750000  0.235623  0.141625  1
  Si  Si7  1  0.750000  0.744345  0.361868  1
  W  W8  1  0.250000  0.633945  0.562678  1
  W  W9  1  0.250000  0.133908  0.938208  1
  W  W10  1  0.750000  0.366172  0.441462  1
  W  W11  1  0.750000  0.871145  0.058293  1
