# generated using pymatgen
data_TmThF36
_symmetry_space_group_name_H-M   'P 1'
_cell_length_a   5.93290522
_cell_length_b   10.93071032
_cell_length_c   10.97384244
_cell_angle_alpha   91.66740187
_cell_angle_beta   98.12187512
_cell_angle_gamma   75.55908333
_symmetry_Int_Tables_number   1
_chemical_formula_structural   TmThF36
_chemical_formula_sum   'Tm1 Th1 F36'
_cell_volume   682.25186382
_cell_formula_units_Z   1
loop_
 _symmetry_equiv_pos_site_id
 _symmetry_equiv_pos_as_xyz
  1  'x, y, z'
loop_
 _atom_site_type_symbol
 _atom_site_label
 _atom_site_symmetry_multiplicity
 _atom_site_fract_x
 _atom_site_fract_y
 _atom_site_fract_z
 _atom_site_occupancy
  Tm  Tm0  1  0.220984  0.190587  0.154029  1
  Th  Th1  1  0.735340  0.839389  0.882276  1
  F  F2  1  0.298391  0.395209  0.852916  1
  F  F3  1  0.641164  0.621075  0.122074  1
  F  F4  1  0.335021  0.283300  0.596417  1
  F  F5  1  0.664949  0.746948  0.429806  1
  F  F6  1  0.861815  0.219925  0.812444  1
  F  F7  1  0.181917  0.761642  0.194916  1
  F  F8  1  0.684545  0.840679  0.068644  1
  F  F9  1  0.334486  0.103478  0.988414  1
  F  F10  1  0.759219  0.620494  0.868715  1
  F  F11  1  0.225464  0.368130  0.083239  1
  F  F12  1  0.459320  0.472587  0.849675  1
  F  F13  1  0.604378  0.498429  0.138133  1
  F  F14  1  0.724412  0.710429  0.708360  1
  F  F15  1  0.258491  0.351074  0.268337  1
  F  F16  1  0.749149  0.970882  0.550791  1
  F  F17  1  0.239586  0.011905  0.449547  1
  F  F18  1  0.289720  0.173434  0.645364  1
  F  F19  1  0.684664  0.807691  0.319695  1
  F  F20  1  0.808380  0.088220  0.578186  1
  F  F21  1  0.163489  0.925299  0.362385  1
  F  F22  1  0.805291  0.013707  0.846811  1
  F  F23  1  0.178876  0.004635  0.088319  1
  F  F24  1  0.911179  0.339795  0.794674  1
  F  F25  1  0.127693  0.645416  0.218787  1
  F  F26  1  0.149628  0.755472  0.913091  1
  F  F27  1  0.837009  0.236943  0.127901  1
  F  F28  1  0.381012  0.947341  0.746989  1
  F  F29  1  0.520571  0.080319  0.280927  1
  F  F30  1  0.123233  0.752558  0.576146  1
  F  F31  1  0.985724  0.231772  0.398550  1
  F  F32  1  0.209126  0.640518  0.649166  1
  F  F33  1  0.832674  0.355235  0.376736  1
  F  F34  1  0.268421  0.852932  0.827723  1
  F  F35  1  0.680396  0.154405  0.204040  1
  F  F36  1  0.550599  0.448769  0.560966  1
  F  F37  1  0.513685  0.539377  0.464817  1
