# generated using pymatgen
data_Dy3CdIn4Ru
_symmetry_space_group_name_H-M   'P 1'
_cell_length_a   8.28423700
_cell_length_b   8.28423628
_cell_length_c   3.67909900
_cell_angle_alpha   90.00000000
_cell_angle_beta   90.00000000
_cell_angle_gamma   120.00000792
_symmetry_Int_Tables_number   1
_chemical_formula_structural   Dy3CdIn4Ru
_chemical_formula_sum   'Dy3 Cd1 In4 Ru1'
_cell_volume   218.66388687
_cell_formula_units_Z   1
loop_
 _symmetry_equiv_pos_site_id
 _symmetry_equiv_pos_as_xyz
  1  'x, y, z'
loop_
 _atom_site_type_symbol
 _atom_site_label
 _atom_site_symmetry_multiplicity
 _atom_site_fract_x
 _atom_site_fract_y
 _atom_site_fract_z
 _atom_site_occupancy
  Dy  Dy0  1  0.036699  0.288779  0.500000  1
  Dy  Dy1  1  0.711221  0.747920  0.500000  1
  Dy  Dy2  1  0.252080  0.963301  0.500000  1
  Cd  Cd3  1  0.666667  0.333333  0.500000  1
  In  In4  1  0.667556  0.047175  0.000000  1
  In  In5  1  0.952825  0.620382  0.000000  1
  In  In6  1  0.379618  0.332444  0.000000  1
  In  In7  1  0.333333  0.666667  0.000000  1
  Ru  Ru8  1  0.000000  0.000000  0.000000  1
