# generated using pymatgen
data_La3Ga2Sn2P
_symmetry_space_group_name_H-M   'P 1'
_cell_length_a   8.39061528
_cell_length_b   8.39059637
_cell_length_c   8.39061624
_cell_angle_alpha   119.63358969
_cell_angle_beta   119.63378493
_cell_angle_gamma   90.63572150
_symmetry_Int_Tables_number   1
_chemical_formula_structural   La3Ga2Sn2P
_chemical_formula_sum   'La6 Ga4 Sn4 P2'
_cell_volume   419.98547409
_cell_formula_units_Z   2
loop_
 _symmetry_equiv_pos_site_id
 _symmetry_equiv_pos_as_xyz
  1  'x, y, z'
loop_
 _atom_site_type_symbol
 _atom_site_label
 _atom_site_symmetry_multiplicity
 _atom_site_fract_x
 _atom_site_fract_y
 _atom_site_fract_z
 _atom_site_occupancy
  La  La0  1  0.750413  0.750401  0.999996  1
  La  La1  1  0.250405  0.250401  0.999989  1
  La  La2  1  0.338102  0.838114  0.164934  1
  La  La3  1  0.673170  0.173173  0.835068  1
  La  La4  1  0.838106  0.673173  0.500004  1
  La  La5  1  0.173179  0.338114  0.500012  1
  Ga  Ga6  1  0.045118  0.545119  0.218304  1
  Ga  Ga7  1  0.326819  0.826820  0.781696  1
  Ga  Ga8  1  0.545124  0.326820  0.500000  1
  Ga  Ga9  1  0.826815  0.045119  0.499999  1
  Sn  Sn10  1  0.949848  0.449847  0.785749  1
  Sn  Sn11  1  0.664097  0.164096  0.214251  1
  Sn  Sn12  1  0.449846  0.664096  0.499999  1
  Sn  Sn13  1  0.164098  0.949847  0.499999  1
  P  P14  1  0.002428  0.002430  0.000000  1
  P  P15  1  0.502430  0.502430  0.000002  1
