# generated using pymatgen
data_TiNbZnCo5B2
_symmetry_space_group_name_H-M   'P 1'
_cell_length_a   8.55489000
_cell_length_b   8.54015300
_cell_length_c   2.98160300
_cell_angle_alpha   90.00000000
_cell_angle_beta   90.00000000
_cell_angle_gamma   90.00000000
_symmetry_Int_Tables_number   1
_chemical_formula_structural   TiNbZnCo5B2
_chemical_formula_sum   'Ti2 Nb2 Zn2 Co10 B4'
_cell_volume   217.83612240
_cell_formula_units_Z   2
loop_
 _symmetry_equiv_pos_site_id
 _symmetry_equiv_pos_as_xyz
  1  'x, y, z'
loop_
 _atom_site_type_symbol
 _atom_site_label
 _atom_site_symmetry_multiplicity
 _atom_site_fract_x
 _atom_site_fract_y
 _atom_site_fract_z
 _atom_site_occupancy
  Ti  Ti0  1  0.676393  0.822305  0.000000  1
  Ti  Ti1  1  0.176393  0.677695  0.000000  1
  Nb  Nb2  1  0.823048  0.324952  0.000000  1
  Nb  Nb3  1  0.323048  0.175048  0.000000  1
  Zn  Zn4  1  0.000808  0.000115  0.000000  1
  Zn  Zn5  1  0.500808  0.499885  0.000000  1
  Co  Co6  1  0.502694  0.994759  0.500000  1
  Co  Co7  1  0.002694  0.505241  0.500000  1
  Co  Co8  1  0.067948  0.223802  0.500000  1
  Co  Co9  1  0.221775  0.927285  0.500000  1
  Co  Co10  1  0.777782  0.066407  0.500000  1
  Co  Co11  1  0.928660  0.780147  0.500000  1
  Co  Co12  1  0.428660  0.719853  0.500000  1
  Co  Co13  1  0.567948  0.276198  0.500000  1
  Co  Co14  1  0.721775  0.572715  0.500000  1
  Co  Co15  1  0.277782  0.433593  0.500000  1
  B  B16  1  0.622158  0.118818  0.000000  1
  B  B17  1  0.122158  0.381182  0.000000  1
  B  B18  1  0.878734  0.624484  0.000000  1
  B  B19  1  0.378734  0.875516  0.000000  1
