# generated using pymatgen
data_La20Ir9PtRh2
_symmetry_space_group_name_H-M   'P 1'
_cell_length_a   11.43814834
_cell_length_b   11.44181163
_cell_length_c   6.71151300
_cell_angle_alpha   90.05133270
_cell_angle_beta   90.04376524
_cell_angle_gamma   90.00476806
_symmetry_Int_Tables_number   1
_chemical_formula_structural   La20Ir9PtRh2
_chemical_formula_sum   'La20 Ir9 Pt1 Rh2'
_cell_volume   878.35615983
_cell_formula_units_Z   1
loop_
 _symmetry_equiv_pos_site_id
 _symmetry_equiv_pos_as_xyz
  1  'x, y, z'
loop_
 _atom_site_type_symbol
 _atom_site_label
 _atom_site_symmetry_multiplicity
 _atom_site_fract_x
 _atom_site_fract_y
 _atom_site_fract_z
 _atom_site_occupancy
  La  La0  1  0.290616  0.091632  0.391681  1
  La  La1  1  0.292741  0.907261  0.890994  1
  La  La2  1  0.705567  0.090370  0.883749  1
  La  La3  1  0.706943  0.904805  0.391271  1
  La  La4  1  0.592166  0.790634  0.892436  1
  La  La5  1  0.587876  0.209503  0.391457  1
  La  La6  1  0.406836  0.791679  0.391895  1
  La  La7  1  0.406877  0.208254  0.891769  1
  La  La8  1  0.207827  0.407892  0.609450  1
  La  La9  1  0.207026  0.593136  0.109967  1
  La  La10  1  0.791769  0.412460  0.110520  1
  La  La11  1  0.793161  0.592898  0.609918  1
  La  La12  1  0.908460  0.708399  0.110279  1
  La  La13  1  0.909442  0.295324  0.617531  1
  La  La14  1  0.092667  0.705861  0.611132  1
  La  La15  1  0.094899  0.294449  0.110526  1
  La  La16  1  0.001786  0.997188  0.499198  1
  La  La17  1  0.002319  0.998520  0.997471  1
  La  La18  1  0.499260  0.499927  0.997391  1
  La  La19  1  0.500033  0.500638  0.498917  1
  Ir  Ir20  1  0.845290  0.848699  0.748202  1
  Ir  Ir21  1  0.153296  0.152541  0.749076  1
  Ir  Ir22  1  0.155570  0.846415  0.248694  1
  Ir  Ir23  1  0.653615  0.344168  0.748687  1
  Ir  Ir24  1  0.653560  0.653852  0.248639  1
  Ir  Ir25  1  0.347786  0.344637  0.248775  1
  Ir  Ir26  1  0.346757  0.655104  0.748739  1
  Ir  Ir27  1  0.999234  0.500426  0.881051  1
  Ir  Ir28  1  0.000296  0.498267  0.378790  1
  Pt  Pt29  1  0.844074  0.154327  0.248939  1
  Rh  Rh30  1  0.502125  0.000016  0.122494  1
  Rh  Rh31  1  0.500126  0.000713  0.620350  1
