# generated using pymatgen
data_K3Pr(PPt3)8
_symmetry_space_group_name_H-M   'P 1'
_cell_length_a   8.58115539
_cell_length_b   8.58115539
_cell_length_c   8.58115539
_cell_angle_alpha   89.97549304
_cell_angle_beta   90.02450696
_cell_angle_gamma   90.02450696
_symmetry_Int_Tables_number   1
_chemical_formula_structural   K3Pr(PPt3)8
_chemical_formula_sum   'K3 Pr1 P8 Pt24'
_cell_volume   631.88374049
_cell_formula_units_Z   1
loop_
 _symmetry_equiv_pos_site_id
 _symmetry_equiv_pos_as_xyz
  1  'x, y, z'
loop_
 _atom_site_type_symbol
 _atom_site_label
 _atom_site_symmetry_multiplicity
 _atom_site_fract_x
 _atom_site_fract_y
 _atom_site_fract_z
 _atom_site_occupancy
  K  K0  1  0.500000  0.000000  0.500000  1
  K  K1  1  0.000000  0.500000  0.500000  1
  K  K2  1  0.000000  0.000000  0.000000  1
  Pr  Pr3  1  0.500000  0.500000  0.000000  1
  P  P4  1  0.808327  0.302923  0.195097  1
  P  P5  1  0.194335  0.805665  0.305665  1
  P  P6  1  0.697077  0.695097  0.691673  1
  P  P7  1  0.304903  0.191673  0.802923  1
  P  P8  1  0.191673  0.697077  0.804903  1
  P  P9  1  0.805665  0.194335  0.694335  1
  P  P10  1  0.302923  0.304903  0.308327  1
  P  P11  1  0.695097  0.808327  0.197077  1
  Pt  Pt12  1  0.422987  0.838213  0.153236  1
  Pt  Pt13  1  0.578265  0.346110  0.337994  1
  Pt  Pt14  1  0.076942  0.158767  0.655162  1
  Pt  Pt15  1  0.923199  0.656705  0.844527  1
  Pt  Pt16  1  0.162006  0.421735  0.846110  1
  Pt  Pt17  1  0.346764  0.577013  0.338213  1
  Pt  Pt18  1  0.655473  0.076801  0.156705  1
  Pt  Pt19  1  0.844838  0.923058  0.658767  1
  Pt  Pt20  1  0.841233  0.155162  0.423058  1
  Pt  Pt21  1  0.343295  0.344527  0.576801  1
  Pt  Pt22  1  0.161787  0.653236  0.077013  1
  Pt  Pt23  1  0.653890  0.837994  0.921735  1
  Pt  Pt24  1  0.577013  0.161787  0.846764  1
  Pt  Pt25  1  0.421735  0.653890  0.662006  1
  Pt  Pt26  1  0.923058  0.841233  0.344838  1
  Pt  Pt27  1  0.076801  0.343295  0.155473  1
  Pt  Pt28  1  0.837994  0.578265  0.153890  1
  Pt  Pt29  1  0.653236  0.422987  0.661787  1
  Pt  Pt30  1  0.344527  0.923199  0.843295  1
  Pt  Pt31  1  0.155162  0.076942  0.341233  1
  Pt  Pt32  1  0.158767  0.844838  0.576942  1
  Pt  Pt33  1  0.656705  0.655473  0.423199  1
  Pt  Pt34  1  0.838213  0.346764  0.922987  1
  Pt  Pt35  1  0.346110  0.162006  0.078265  1
