# generated using pymatgen
data_Tm4Ga2Sn4Ir7
_symmetry_space_group_name_H-M   'P 1'
_cell_length_a   7.45257967
_cell_length_b   7.46536910
_cell_length_c   7.46536927
_cell_angle_alpha   109.71049321
_cell_angle_beta   109.38625628
_cell_angle_gamma   109.38624984
_symmetry_Int_Tables_number   1
_chemical_formula_structural   Tm4Ga2Sn4Ir7
_chemical_formula_sum   'Tm4 Ga2 Sn4 Ir7'
_cell_volume   319.45643935
_cell_formula_units_Z   1
loop_
 _symmetry_equiv_pos_site_id
 _symmetry_equiv_pos_as_xyz
  1  'x, y, z'
loop_
 _atom_site_type_symbol
 _atom_site_label
 _atom_site_symmetry_multiplicity
 _atom_site_fract_x
 _atom_site_fract_y
 _atom_site_fract_z
 _atom_site_occupancy
  Tm  Tm0  1  0.000000  0.990353  0.458651  1
  Tm  Tm1  1  0.000000  0.541349  0.009647  1
  Tm  Tm2  1  0.500000  0.990736  0.009264  1
  Tm  Tm3  1  0.500000  0.490736  0.509264  1
  Ga  Ga4  1  0.667148  0.673472  0.993676  1
  Ga  Ga5  1  0.332852  0.006324  0.326528  1
  Sn  Sn6  1  0.000000  0.319610  0.305421  1
  Sn  Sn7  1  0.294192  0.300840  0.993351  1
  Sn  Sn8  1  0.705808  0.006649  0.699160  1
  Sn  Sn9  1  0.000000  0.694579  0.680390  1
  Ir  Ir10  1  0.751144  0.250144  0.501000  1
  Ir  Ir11  1  0.739193  0.498754  0.240439  1
  Ir  Ir12  1  0.500000  0.249453  0.750547  1
  Ir  Ir13  1  0.248856  0.499000  0.749856  1
  Ir  Ir14  1  0.260807  0.759561  0.501246  1
  Ir  Ir15  1  0.500000  0.749453  0.250547  1
  Ir  Ir16  1  0.000000  0.978986  0.021014  1
