# generated using pymatgen
data_Ca3(As3Pd10)2
_symmetry_space_group_name_H-M   'P 1'
_cell_length_a   8.89196202
_cell_length_b   8.89196144
_cell_length_c   8.89196200
_cell_angle_alpha   59.99999792
_cell_angle_beta   60.00000006
_cell_angle_gamma   60.00000004
_symmetry_Int_Tables_number   1
_chemical_formula_structural   Ca3(As3Pd10)2
_chemical_formula_sum   'Ca3 As6 Pd20'
_cell_volume   497.13891858
_cell_formula_units_Z   1
loop_
 _symmetry_equiv_pos_site_id
 _symmetry_equiv_pos_as_xyz
  1  'x, y, z'
loop_
 _atom_site_type_symbol
 _atom_site_label
 _atom_site_symmetry_multiplicity
 _atom_site_fract_x
 _atom_site_fract_y
 _atom_site_fract_z
 _atom_site_occupancy
  Ca  Ca0  1  0.250000  0.250000  0.250000  1
  Ca  Ca1  1  0.750000  0.750000  0.750000  1
  Ca  Ca2  1  0.000000  0.000000  0.000000  1
  As  As3  1  0.735845  0.735845  0.264155  1
  As  As4  1  0.264155  0.264155  0.735845  1
  As  As5  1  0.264155  0.735845  0.735845  1
  As  As6  1  0.735845  0.264155  0.735845  1
  As  As7  1  0.264155  0.735845  0.264155  1
  As  As8  1  0.735845  0.264155  0.264155  1
  Pd  Pd9  1  0.615868  0.615868  0.615868  1
  Pd  Pd10  1  0.384132  0.847603  0.384132  1
  Pd  Pd11  1  0.650613  0.349387  0.000000  1
  Pd  Pd12  1  0.000000  0.349387  0.650613  1
  Pd  Pd13  1  0.650613  0.000000  0.000000  1
  Pd  Pd14  1  0.615868  0.615868  0.152397  1
  Pd  Pd15  1  0.000000  0.000000  0.650613  1
  Pd  Pd16  1  0.000000  0.349387  0.000000  1
  Pd  Pd17  1  0.650613  0.000000  0.349387  1
  Pd  Pd18  1  0.349387  0.000000  0.000000  1
  Pd  Pd19  1  0.000000  0.650613  0.000000  1
  Pd  Pd20  1  0.349387  0.000000  0.650613  1
  Pd  Pd21  1  0.000000  0.650613  0.349387  1
  Pd  Pd22  1  0.349387  0.650613  0.000000  1
  Pd  Pd23  1  0.152397  0.615868  0.615868  1
  Pd  Pd24  1  0.384132  0.384132  0.384132  1
  Pd  Pd25  1  0.847603  0.384132  0.384132  1
  Pd  Pd26  1  0.384132  0.384132  0.847603  1
  Pd  Pd27  1  0.615868  0.152397  0.615868  1
  Pd  Pd28  1  0.000000  0.000000  0.349387  1
