# generated using pymatgen
data_Pr4Zn4Ir2PdRh
_symmetry_space_group_name_H-M   'P 1'
_cell_length_a   4.05459200
_cell_length_b   7.39626326
_cell_length_c   16.78179859
_cell_angle_alpha   89.96958835
_cell_angle_beta   90.00000000
_cell_angle_gamma   90.00000000
_symmetry_Int_Tables_number   1
_chemical_formula_structural   Pr4Zn4Ir2PdRh
_chemical_formula_sum   'Pr8 Zn8 Ir4 Pd2 Rh2'
_cell_volume   503.26643156
_cell_formula_units_Z   2
loop_
 _symmetry_equiv_pos_site_id
 _symmetry_equiv_pos_as_xyz
  1  'x, y, z'
loop_
 _atom_site_type_symbol
 _atom_site_label
 _atom_site_symmetry_multiplicity
 _atom_site_fract_x
 _atom_site_fract_y
 _atom_site_fract_z
 _atom_site_occupancy
  Pr  Pr0  1  0.750000  0.455199  0.218316  1
  Pr  Pr1  1  0.750000  0.950717  0.284854  1
  Pr  Pr2  1  0.750000  0.827057  0.059695  1
  Pr  Pr3  1  0.250000  0.043797  0.718034  1
  Pr  Pr4  1  0.250000  0.166554  0.935355  1
  Pr  Pr5  1  0.250000  0.549529  0.784709  1
  Pr  Pr6  1  0.750000  0.332680  0.435570  1
  Pr  Pr7  1  0.250000  0.673241  0.560683  1
  Zn  Zn8  1  0.250000  0.995565  0.437295  1
  Zn  Zn9  1  0.750000  0.504505  0.937263  1
  Zn  Zn10  1  0.750000  0.998776  0.560145  1
  Zn  Zn11  1  0.250000  0.623856  0.349970  1
  Zn  Zn12  1  0.750000  0.379393  0.653382  1
  Zn  Zn13  1  0.750000  0.876143  0.850033  1
  Zn  Zn14  1  0.250000  0.501324  0.060063  1
  Zn  Zn15  1  0.250000  0.121374  0.153397  1
  Ir  Ir16  1  0.250000  0.246882  0.313705  1
  Ir  Ir17  1  0.750000  0.252521  0.813915  1
  Ir  Ir18  1  0.250000  0.743529  0.935816  1
  Ir  Ir19  1  0.750000  0.751631  0.685080  1
  Pd  Pd20  1  0.250000  0.241768  0.565814  1
  Pd  Pd21  1  0.750000  0.258596  0.066029  1
  Rh  Rh22  1  0.750000  0.757090  0.435107  1
  Rh  Rh23  1  0.250000  0.748273  0.185773  1
