# generated using pymatgen
data_Er4Hf4Ir3Pt
_symmetry_space_group_name_H-M   'P 1'
_cell_length_a   4.57933800
_cell_length_b   6.98472927
_cell_length_c   8.25420900
_cell_angle_alpha   90.06321490
_cell_angle_beta   90.00000000
_cell_angle_gamma   90.00000000
_symmetry_Int_Tables_number   1
_chemical_formula_structural   Er4Hf4Ir3Pt
_chemical_formula_sum   'Er4 Hf4 Ir3 Pt1'
_cell_volume   264.01431420
_cell_formula_units_Z   1
loop_
 _symmetry_equiv_pos_site_id
 _symmetry_equiv_pos_as_xyz
  1  'x, y, z'
loop_
 _atom_site_type_symbol
 _atom_site_label
 _atom_site_symmetry_multiplicity
 _atom_site_fract_x
 _atom_site_fract_y
 _atom_site_fract_z
 _atom_site_occupancy
  Er  Er0  1  0.250000  0.983543  0.323745  1
  Er  Er1  1  0.250000  0.484715  0.180460  1
  Er  Er2  1  0.750000  0.013902  0.676081  1
  Er  Er3  1  0.750000  0.519405  0.819317  1
  Hf  Hf4  1  0.250000  0.356763  0.570890  1
  Hf  Hf5  1  0.250000  0.852711  0.929650  1
  Hf  Hf6  1  0.750000  0.643048  0.428097  1
  Hf  Hf7  1  0.750000  0.142784  0.075162  1
  Ir  Ir8  1  0.250000  0.731963  0.595696  1
  Ir  Ir9  1  0.750000  0.769634  0.094093  1
  Ir  Ir10  1  0.750000  0.268801  0.404244  1
  Pt  Pt11  1  0.250000  0.232731  0.902563  1
