# generated using pymatgen
data_ZrScMo4
_symmetry_space_group_name_H-M   'P 1'
_cell_length_a   5.38218480
_cell_length_b   5.38218504
_cell_length_c   5.38218500
_cell_angle_alpha   60.00000640
_cell_angle_beta   60.00000494
_cell_angle_gamma   60.00000475
_symmetry_Int_Tables_number   1
_chemical_formula_structural   ZrScMo4
_chemical_formula_sum   'Zr1 Sc1 Mo4'
_cell_volume   110.24550905
_cell_formula_units_Z   1
loop_
 _symmetry_equiv_pos_site_id
 _symmetry_equiv_pos_as_xyz
  1  'x, y, z'
loop_
 _atom_site_type_symbol
 _atom_site_label
 _atom_site_symmetry_multiplicity
 _atom_site_fract_x
 _atom_site_fract_y
 _atom_site_fract_z
 _atom_site_occupancy
  Zr  Zr0  1  0.500000  0.500000  0.500000  1
  Sc  Sc1  1  0.750000  0.750000  0.750000  1
  Mo  Mo2  1  0.124910  0.625271  0.124910  1
  Mo  Mo3  1  0.124910  0.124910  0.625271  1
  Mo  Mo4  1  0.625271  0.124910  0.124910  1
  Mo  Mo5  1  0.124910  0.124910  0.124910  1
