# generated using pymatgen
data_La2Al20ReRh3
_symmetry_space_group_name_H-M   'P 1'
_cell_length_a   6.91831508
_cell_length_b   6.93371073
_cell_length_c   9.23698898
_cell_angle_alpha   90.23879959
_cell_angle_beta   90.38309269
_cell_angle_gamma   97.32011231
_symmetry_Int_Tables_number   1
_chemical_formula_structural   La2Al20ReRh3
_chemical_formula_sum   'La2 Al20 Re1 Rh3'
_cell_volume   439.46785351
_cell_formula_units_Z   1
loop_
 _symmetry_equiv_pos_site_id
 _symmetry_equiv_pos_as_xyz
  1  'x, y, z'
loop_
 _atom_site_type_symbol
 _atom_site_label
 _atom_site_symmetry_multiplicity
 _atom_site_fract_x
 _atom_site_fract_y
 _atom_site_fract_z
 _atom_site_occupancy
  La  La0  1  0.872272  0.120960  0.749530  1
  La  La1  1  0.127728  0.879040  0.250470  1
  Al  Al2  1  0.592531  0.859559  0.249848  1
  Al  Al3  1  0.774229  0.518299  0.249459  1
  Al  Al4  1  0.160724  0.837939  0.895649  1
  Al  Al5  1  0.407469  0.140441  0.750152  1
  Al  Al6  1  0.620219  0.379025  0.948061  1
  Al  Al7  1  0.839699  0.160693  0.397405  1
  Al  Al8  1  0.773533  0.773948  0.998752  1
  Al  Al9  1  0.859143  0.591289  0.749612  1
  Al  Al10  1  0.839276  0.162061  0.104351  1
  Al  Al11  1  0.225771  0.481701  0.750541  1
  Al  Al12  1  0.160301  0.839307  0.602595  1
  Al  Al13  1  0.775522  0.775650  0.500539  1
  Al  Al14  1  0.482818  0.224314  0.254095  1
  Al  Al15  1  0.619050  0.377072  0.549471  1
  Al  Al16  1  0.224478  0.224350  0.499461  1
  Al  Al17  1  0.380950  0.622928  0.450529  1
  Al  Al18  1  0.140857  0.408711  0.250388  1
  Al  Al19  1  0.517182  0.775686  0.745905  1
  Al  Al20  1  0.379781  0.620975  0.051939  1
  Al  Al21  1  0.226467  0.226052  0.001248  1
  Re  Re22  1  0.500000  0.000000  0.500000  1
  Rh  Rh23  1  0.500000  0.000000  0.000000  1
  Rh  Rh24  1  0.000000  0.500000  0.000000  1
  Rh  Rh25  1  0.000000  0.500000  0.500000  1
