# generated using pymatgen
data_HoNbFeB6
_symmetry_space_group_name_H-M   'P 1'
_cell_length_a   3.35811400
_cell_length_b   8.91224700
_cell_length_c   11.21885700
_cell_angle_alpha   90.00000000
_cell_angle_beta   90.00000000
_cell_angle_gamma   90.00000000
_symmetry_Int_Tables_number   1
_chemical_formula_structural   HoNbFeB6
_chemical_formula_sum   'Ho4 Nb4 Fe4 B24'
_cell_volume   335.76178266
_cell_formula_units_Z   4
loop_
 _symmetry_equiv_pos_site_id
 _symmetry_equiv_pos_as_xyz
  1  'x, y, z'
loop_
 _atom_site_type_symbol
 _atom_site_label
 _atom_site_symmetry_multiplicity
 _atom_site_fract_x
 _atom_site_fract_y
 _atom_site_fract_z
 _atom_site_occupancy
  Ho  Ho0  1  0.000000  0.823694  0.086192  1
  Ho  Ho1  1  0.000000  0.176306  0.913808  1
  Ho  Ho2  1  0.000000  0.323694  0.413808  1
  Ho  Ho3  1  0.000000  0.676306  0.586192  1
  Nb  Nb4  1  0.000000  0.445282  0.128018  1
  Nb  Nb5  1  0.000000  0.554718  0.871982  1
  Nb  Nb6  1  0.000000  0.945282  0.371982  1
  Nb  Nb7  1  0.000000  0.054718  0.628018  1
  Fe  Fe8  1  0.000000  0.144202  0.183610  1
  Fe  Fe9  1  0.000000  0.855798  0.816390  1
  Fe  Fe10  1  0.000000  0.644202  0.316390  1
  Fe  Fe11  1  0.000000  0.355798  0.683610  1
  B  B12  1  0.500000  0.055086  0.067723  1
  B  B13  1  0.500000  0.944914  0.932277  1
  B  B14  1  0.500000  0.555086  0.432277  1
  B  B15  1  0.500000  0.444914  0.567723  1
  B  B16  1  0.500000  0.251710  0.083413  1
  B  B17  1  0.500000  0.748290  0.916587  1
  B  B18  1  0.500000  0.751710  0.416587  1
  B  B19  1  0.500000  0.248290  0.583413  1
  B  B20  1  0.500000  0.297117  0.236589  1
  B  B21  1  0.500000  0.702883  0.763411  1
  B  B22  1  0.500000  0.797117  0.263411  1
  B  B23  1  0.500000  0.202883  0.736589  1
  B  B24  1  0.500000  0.130973  0.316726  1
  B  B25  1  0.500000  0.869027  0.683274  1
  B  B26  1  0.500000  0.630973  0.183274  1
  B  B27  1  0.500000  0.369027  0.816726  1
  B  B28  1  0.500000  0.483386  0.287087  1
  B  B29  1  0.500000  0.516614  0.712913  1
  B  B30  1  0.500000  0.983386  0.212913  1
  B  B31  1  0.500000  0.016614  0.787087  1
  B  B32  1  0.500000  0.100550  0.473703  1
  B  B33  1  0.500000  0.899450  0.526297  1
  B  B34  1  0.500000  0.600550  0.026297  1
  B  B35  1  0.500000  0.399450  0.973703  1
