# generated using pymatgen
data_Pr3Cd(Pd2O7)2
_symmetry_space_group_name_H-M   'P 1'
_cell_length_a   7.34311196
_cell_length_b   7.48582675
_cell_length_c   7.48582800
_cell_angle_alpha   60.00000330
_cell_angle_beta   59.35498264
_cell_angle_gamma   59.35497777
_symmetry_Int_Tables_number   1
_chemical_formula_structural   Pr3Cd(Pd2O7)2
_chemical_formula_sum   'Pr3 Cd1 Pd4 O14'
_cell_volume   288.09857403
_cell_formula_units_Z   1
loop_
 _symmetry_equiv_pos_site_id
 _symmetry_equiv_pos_as_xyz
  1  'x, y, z'
loop_
 _atom_site_type_symbol
 _atom_site_label
 _atom_site_symmetry_multiplicity
 _atom_site_fract_x
 _atom_site_fract_y
 _atom_site_fract_z
 _atom_site_occupancy
  Pr  Pr0  1  0.125000  0.125000  0.625000  1
  Pr  Pr1  1  0.125000  0.125000  0.125000  1
  Pr  Pr2  1  0.125000  0.625000  0.125000  1
  Cd  Cd3  1  0.625000  0.125000  0.125000  1
  Pd  Pd4  1  0.625000  0.625000  0.625000  1
  Pd  Pd5  1  0.125000  0.625000  0.625000  1
  Pd  Pd6  1  0.625000  0.125000  0.625000  1
  Pd  Pd7  1  0.625000  0.625000  0.125000  1
  O  O8  1  0.962048  0.539673  0.539673  1
  O  O9  1  0.287952  0.291393  0.710327  1
  O  O10  1  0.962048  0.539673  0.958607  1
  O  O11  1  0.702883  0.297250  0.297250  1
  O  O12  1  0.547117  0.547383  0.952750  1
  O  O13  1  0.547117  0.952750  0.547383  1
  O  O14  1  0.547117  0.952750  0.952750  1
  O  O15  1  0.262329  0.245890  0.245890  1
  O  O16  1  0.287952  0.710327  0.710327  1
  O  O17  1  0.702883  0.297250  0.702617  1
  O  O18  1  0.987671  0.004110  0.004110  1
  O  O19  1  0.962048  0.958607  0.539673  1
  O  O20  1  0.287952  0.710327  0.291393  1
  O  O21  1  0.702883  0.702617  0.297250  1
