# generated using pymatgen
data_Tb2PrBe2Co9B4
_symmetry_space_group_name_H-M   'P 1'
_cell_length_a   5.08167900
_cell_length_b   5.08243868
_cell_length_c   9.39701700
_cell_angle_alpha   89.99998050
_cell_angle_beta   90.00005028
_cell_angle_gamma   119.99506215
_symmetry_Int_Tables_number   1
_chemical_formula_structural   Tb2PrBe2Co9B4
_chemical_formula_sum   'Tb2 Pr1 Be2 Co9 B4'
_cell_volume   210.19463495
_cell_formula_units_Z   1
loop_
 _symmetry_equiv_pos_site_id
 _symmetry_equiv_pos_as_xyz
  1  'x, y, z'
loop_
 _atom_site_type_symbol
 _atom_site_label
 _atom_site_symmetry_multiplicity
 _atom_site_fract_x
 _atom_site_fract_y
 _atom_site_fract_z
 _atom_site_occupancy
  Tb  Tb0  1  0.999995  0.000000  0.339170  1
  Tb  Tb1  1  0.999997  0.000000  0.660838  1
  Pr  Pr2  1  0.999989  0.000000  0.000009  1
  Be  Be3  1  0.333307  0.666629  0.000010  1
  Be  Be4  1  0.666677  0.333371  0.000010  1
  Co  Co5  1  0.499996  0.000000  0.499995  1
  Co  Co6  1  0.499996  0.500000  0.499993  1
  Co  Co7  1  0.999996  0.500000  0.499993  1
  Co  Co8  1  0.499993  0.000000  0.193746  1
  Co  Co9  1  0.499994  0.500000  0.193756  1
  Co  Co10  1  0.999994  0.500000  0.193756  1
  Co  Co11  1  0.499996  0.000000  0.806250  1
  Co  Co12  1  0.499996  0.500000  0.806245  1
  Co  Co13  1  0.999995  0.500000  0.806245  1
  B  B14  1  0.333336  0.666684  0.343642  1
  B  B15  1  0.666652  0.333316  0.343642  1
  B  B16  1  0.666671  0.333350  0.656350  1
  B  B17  1  0.333320  0.666650  0.656350  1
