# generated using pymatgen
data_LaErBeCoSi4
_symmetry_space_group_name_H-M   'P 1'
_cell_length_a   8.51632859
_cell_length_b   8.51632880
_cell_length_c   3.95399400
_cell_angle_alpha   90.00000000
_cell_angle_beta   90.00000000
_cell_angle_gamma   152.22405923
_symmetry_Int_Tables_number   1
_chemical_formula_structural   LaErBeCoSi4
_chemical_formula_sum   'La1 Er1 Be1 Co1 Si4'
_cell_volume   133.64135607
_cell_formula_units_Z   1
loop_
 _symmetry_equiv_pos_site_id
 _symmetry_equiv_pos_as_xyz
  1  'x, y, z'
loop_
 _atom_site_type_symbol
 _atom_site_label
 _atom_site_symmetry_multiplicity
 _atom_site_fract_x
 _atom_site_fract_y
 _atom_site_fract_z
 _atom_site_occupancy
  La  La0  1  0.111836  0.888164  0.250000  1
  Er  Er1  1  0.896774  0.103226  0.750000  1
  Be  Be2  1  0.673838  0.326162  0.750000  1
  Co  Co3  1  0.319168  0.680832  0.250000  1
  Si  Si4  1  0.756373  0.243627  0.250000  1
  Si  Si5  1  0.253436  0.746564  0.750000  1
  Si  Si6  1  0.535163  0.464837  0.750000  1
  Si  Si7  1  0.453411  0.546589  0.250000  1
