# generated using pymatgen
data_Tb10Hg8PtRh3
_symmetry_space_group_name_H-M   'P 1'
_cell_length_a   3.70200200
_cell_length_b   7.99987745
_cell_length_c   17.92359828
_cell_angle_alpha   90.06911262
_cell_angle_beta   90.00000000
_cell_angle_gamma   90.00000000
_symmetry_Int_Tables_number   1
_chemical_formula_structural   Tb10Hg8PtRh3
_chemical_formula_sum   'Tb10 Hg8 Pt1 Rh3'
_cell_volume   530.81705542
_cell_formula_units_Z   1
loop_
 _symmetry_equiv_pos_site_id
 _symmetry_equiv_pos_as_xyz
  1  'x, y, z'
loop_
 _atom_site_type_symbol
 _atom_site_label
 _atom_site_symmetry_multiplicity
 _atom_site_fract_x
 _atom_site_fract_y
 _atom_site_fract_z
 _atom_site_occupancy
  Tb  Tb0  1  0.000000  0.111038  0.412805  1
  Tb  Tb1  1  0.000000  0.889211  0.588790  1
  Tb  Tb2  1  0.000000  0.389461  0.910872  1
  Tb  Tb3  1  0.000000  0.612032  0.086849  1
  Tb  Tb4  1  0.000000  0.231245  0.216856  1
  Tb  Tb5  1  0.000000  0.762785  0.783473  1
  Tb  Tb6  1  0.000000  0.261759  0.717076  1
  Tb  Tb7  1  0.000000  0.743273  0.283317  1
  Tb  Tb8  1  0.000000  0.998950  0.999389  1
  Tb  Tb9  1  0.000000  0.500743  0.500585  1
  Hg  Hg10  1  0.500000  0.413479  0.356229  1
  Hg  Hg11  1  0.500000  0.585589  0.647337  1
  Hg  Hg12  1  0.500000  0.085205  0.852552  1
  Hg  Hg13  1  0.500000  0.920677  0.146209  1
  Hg  Hg14  1  0.500000  0.288875  0.059008  1
  Hg  Hg15  1  0.500000  0.709154  0.936428  1
  Hg  Hg16  1  0.500000  0.209685  0.563365  1
  Hg  Hg17  1  0.500000  0.790671  0.436908  1
  Pt  Pt18  1  0.500000  0.522743  0.198824  1
  Rh  Rh19  1  0.500000  0.025626  0.303644  1
  Rh  Rh20  1  0.500000  0.973544  0.697226  1
  Rh  Rh21  1  0.500000  0.474255  0.802257  1
