# generated using pymatgen
data_Dy3AlGaRh2
_symmetry_space_group_name_H-M   'P 1'
_cell_length_a   5.59265200
_cell_length_b   7.87453000
_cell_length_c   13.67670800
_cell_angle_alpha   90.00000000
_cell_angle_beta   90.00000000
_cell_angle_gamma   90.00000000
_symmetry_Int_Tables_number   1
_chemical_formula_structural   Dy3AlGaRh2
_chemical_formula_sum   'Dy12 Al4 Ga4 Rh8'
_cell_volume   602.31546339
_cell_formula_units_Z   4
loop_
 _symmetry_equiv_pos_site_id
 _symmetry_equiv_pos_as_xyz
  1  'x, y, z'
loop_
 _atom_site_type_symbol
 _atom_site_label
 _atom_site_symmetry_multiplicity
 _atom_site_fract_x
 _atom_site_fract_y
 _atom_site_fract_z
 _atom_site_occupancy
  Dy  Dy0  1  0.145814  0.600529  0.099445  1
  Dy  Dy1  1  0.145814  0.899471  0.900555  1
  Dy  Dy2  1  0.854186  0.100529  0.400555  1
  Dy  Dy3  1  0.854186  0.399471  0.599445  1
  Dy  Dy4  1  0.854186  0.399471  0.900555  1
  Dy  Dy5  1  0.854186  0.100529  0.099445  1
  Dy  Dy6  1  0.145814  0.899471  0.599445  1
  Dy  Dy7  1  0.145814  0.600529  0.400555  1
  Dy  Dy8  1  0.370614  0.239000  0.250000  1
  Dy  Dy9  1  0.370614  0.261000  0.750000  1
  Dy  Dy10  1  0.629386  0.739000  0.250000  1
  Dy  Dy11  1  0.629386  0.761000  0.750000  1
  Al  Al12  1  0.374026  0.250000  0.000000  1
  Al  Al13  1  0.625974  0.750000  0.500000  1
  Al  Al14  1  0.625974  0.750000  0.000000  1
  Al  Al15  1  0.374026  0.250000  0.500000  1
  Ga  Ga16  1  0.871959  0.389595  0.250000  1
  Ga  Ga17  1  0.871959  0.110405  0.750000  1
  Ga  Ga18  1  0.128041  0.889595  0.250000  1
  Ga  Ga19  1  0.128041  0.610405  0.750000  1
  Rh  Rh20  1  0.642622  0.467226  0.091279  1
  Rh  Rh21  1  0.642622  0.032774  0.908721  1
  Rh  Rh22  1  0.357378  0.967226  0.408721  1
  Rh  Rh23  1  0.357378  0.532774  0.591279  1
  Rh  Rh24  1  0.357378  0.532774  0.908721  1
  Rh  Rh25  1  0.357378  0.967226  0.091279  1
  Rh  Rh26  1  0.642622  0.032774  0.591279  1
  Rh  Rh27  1  0.642622  0.467226  0.408721  1
