# generated using pymatgen
data_Y4Al4IrPdPt2
_symmetry_space_group_name_H-M   'P 1'
_cell_length_a   4.43225300
_cell_length_b   6.86573436
_cell_length_c   7.81683702
_cell_angle_alpha   89.88243039
_cell_angle_beta   90.00000000
_cell_angle_gamma   90.00000000
_symmetry_Int_Tables_number   1
_chemical_formula_structural   Y4Al4IrPdPt2
_chemical_formula_sum   'Y4 Al4 Ir1 Pd1 Pt2'
_cell_volume   237.87110038
_cell_formula_units_Z   1
loop_
 _symmetry_equiv_pos_site_id
 _symmetry_equiv_pos_as_xyz
  1  'x, y, z'
loop_
 _atom_site_type_symbol
 _atom_site_label
 _atom_site_symmetry_multiplicity
 _atom_site_fract_x
 _atom_site_fract_y
 _atom_site_fract_z
 _atom_site_occupancy
  Y  Y0  1  0.250000  0.023325  0.320704  1
  Y  Y1  1  0.250000  0.535193  0.182604  1
  Y  Y2  1  0.750000  0.967264  0.678098  1
  Y  Y3  1  0.750000  0.470970  0.819565  1
  Al  Al4  1  0.250000  0.143901  0.937698  1
  Al  Al5  1  0.250000  0.644704  0.561279  1
  Al  Al6  1  0.750000  0.852802  0.063732  1
  Al  Al7  1  0.750000  0.361203  0.439143  1
  Ir  Ir8  1  0.750000  0.729715  0.380128  1
  Pd  Pd9  1  0.750000  0.225585  0.118304  1
  Pt  Pt10  1  0.250000  0.272297  0.619036  1
  Pt  Pt11  1  0.250000  0.773041  0.879710  1
