# generated using pymatgen
data_TbY2P4Pd7
_symmetry_space_group_name_H-M   'P 1'
_cell_length_a   7.95913935
_cell_length_b   7.95913963
_cell_length_c   9.42409551
_cell_angle_alpha   55.80206069
_cell_angle_beta   55.80205882
_cell_angle_gamma   29.23845447
_symmetry_Int_Tables_number   1
_chemical_formula_structural   TbY2P4Pd7
_chemical_formula_sum   'Tb1 Y2 P4 Pd7'
_cell_volume   237.36380808
_cell_formula_units_Z   1
loop_
 _symmetry_equiv_pos_site_id
 _symmetry_equiv_pos_as_xyz
  1  'x, y, z'
loop_
 _atom_site_type_symbol
 _atom_site_label
 _atom_site_symmetry_multiplicity
 _atom_site_fract_x
 _atom_site_fract_y
 _atom_site_fract_z
 _atom_site_occupancy
  Tb  Tb0  1  0.000000  0.000000  0.000000  1
  Y  Y1  1  0.680332  0.680332  0.322572  1
  Y  Y2  1  0.319668  0.319668  0.677428  1
  P  P3  1  0.340494  0.340494  0.254144  1
  P  P4  1  0.659506  0.659506  0.745856  1
  P  P5  1  0.893969  0.893969  0.819972  1
  P  P6  1  0.106031  0.106031  0.180028  1
  Pd  Pd7  1  0.304973  0.304973  0.030120  1
  Pd  Pd8  1  0.695027  0.695027  0.969880  1
  Pd  Pd9  1  0.509639  0.509639  0.716298  1
  Pd  Pd10  1  0.831744  0.831744  0.421432  1
  Pd  Pd11  1  0.490361  0.490361  0.283702  1
  Pd  Pd12  1  0.168256  0.168256  0.578568  1
  Pd  Pd13  1  0.000000  0.000000  0.500000  1
