# generated using pymatgen
data_Tb2SmTeAs2
_symmetry_space_group_name_H-M   'P 1'
_cell_length_a   4.21373500
_cell_length_b   10.48315248
_cell_length_c   7.27645400
_cell_angle_alpha   89.86645013
_cell_angle_beta   90.00000000
_cell_angle_gamma   90.00000000
_symmetry_Int_Tables_number   1
_chemical_formula_structural   Tb2SmTeAs2
_chemical_formula_sum   'Tb4 Sm2 Te2 As4'
_cell_volume   321.42357754
_cell_formula_units_Z   2
loop_
 _symmetry_equiv_pos_site_id
 _symmetry_equiv_pos_as_xyz
  1  'x, y, z'
loop_
 _atom_site_type_symbol
 _atom_site_label
 _atom_site_symmetry_multiplicity
 _atom_site_fract_x
 _atom_site_fract_y
 _atom_site_fract_z
 _atom_site_occupancy
  Tb  Tb0  1  0.250000  0.808604  0.917017  1
  Tb  Tb1  1  0.750000  0.191396  0.082983  1
  Tb  Tb2  1  0.750000  0.807537  0.417799  1
  Tb  Tb3  1  0.250000  0.192463  0.582201  1
  Sm  Sm4  1  0.250000  0.500229  0.249358  1
  Sm  Sm5  1  0.750000  0.499771  0.750642  1
  Te  Te6  1  0.750000  0.000332  0.749201  1
  Te  Te7  1  0.250000  0.999668  0.250799  1
  As  As8  1  0.250000  0.664157  0.584560  1
  As  As9  1  0.750000  0.335843  0.415440  1
  As  As10  1  0.750000  0.665135  0.083966  1
  As  As11  1  0.250000  0.334865  0.916034  1
