# generated using pymatgen
data_Tb6HfZr(Co4P3)4
_symmetry_space_group_name_H-M   'P 1'
_cell_length_a   3.72951700
_cell_length_b   10.71043300
_cell_length_c   12.43459900
_cell_angle_alpha   90.00000000
_cell_angle_beta   90.00000000
_cell_angle_gamma   90.00000000
_symmetry_Int_Tables_number   1
_chemical_formula_structural   Tb6HfZr(Co4P3)4
_chemical_formula_sum   'Tb6 Hf1 Zr1 Co16 P12'
_cell_volume   496.69684832
_cell_formula_units_Z   1
loop_
 _symmetry_equiv_pos_site_id
 _symmetry_equiv_pos_as_xyz
  1  'x, y, z'
loop_
 _atom_site_type_symbol
 _atom_site_label
 _atom_site_symmetry_multiplicity
 _atom_site_fract_x
 _atom_site_fract_y
 _atom_site_fract_z
 _atom_site_occupancy
  Tb  Tb0  1  0.000000  0.500000  0.528464  1
  Tb  Tb1  1  0.500000  0.000000  0.470405  1
  Tb  Tb2  1  0.500000  0.821574  0.204861  1
  Tb  Tb3  1  0.500000  0.178426  0.204861  1
  Tb  Tb4  1  0.000000  0.678237  0.795376  1
  Tb  Tb5  1  0.000000  0.321763  0.795376  1
  Hf  Hf6  1  0.500000  0.500000  0.157519  1
  Zr  Zr7  1  0.000000  0.000000  0.842306  1
  Co  Co8  1  0.500000  0.500000  0.703703  1
  Co  Co9  1  0.000000  0.000000  0.296496  1
  Co  Co10  1  0.000000  0.500000  0.987272  1
  Co  Co11  1  0.500000  0.000000  0.014050  1
  Co  Co12  1  0.500000  0.332569  0.994142  1
  Co  Co13  1  0.500000  0.667431  0.994142  1
  Co  Co14  1  0.000000  0.168600  0.007577  1
  Co  Co15  1  0.000000  0.831400  0.007577  1
  Co  Co16  1  0.500000  0.295594  0.432876  1
  Co  Co17  1  0.500000  0.704406  0.432876  1
  Co  Co18  1  0.000000  0.205078  0.566376  1
  Co  Co19  1  0.000000  0.794922  0.566376  1
  Co  Co20  1  0.500000  0.877824  0.700999  1
  Co  Co21  1  0.500000  0.122176  0.700999  1
  Co  Co22  1  0.000000  0.621649  0.297025  1
  Co  Co23  1  0.000000  0.378351  0.297025  1
  P  P24  1  0.500000  0.500000  0.884313  1
  P  P25  1  0.000000  0.000000  0.116021  1
  P  P26  1  0.500000  0.500000  0.361269  1
  P  P27  1  0.000000  0.000000  0.637332  1
  P  P28  1  0.500000  0.309761  0.615147  1
  P  P29  1  0.500000  0.690239  0.615147  1
  P  P30  1  0.000000  0.190927  0.384374  1
  P  P31  1  0.000000  0.809073  0.384374  1
  P  P32  1  0.500000  0.837947  0.894865  1
  P  P33  1  0.500000  0.162053  0.894865  1
  P  P34  1  0.000000  0.660751  0.106809  1
  P  P35  1  0.000000  0.339249  0.106809  1
