# generated using pymatgen
data_CeErFe3Co9P7
_symmetry_space_group_name_H-M   'P 1'
_cell_length_a   9.00196600
_cell_length_b   9.00196593
_cell_length_c   3.63204000
_cell_angle_alpha   90.00000000
_cell_angle_beta   90.00000000
_cell_angle_gamma   119.99999588
_symmetry_Int_Tables_number   1
_chemical_formula_structural   CeErFe3Co9P7
_chemical_formula_sum   'Ce1 Er1 Fe3 Co9 P7'
_cell_volume   254.89188296
_cell_formula_units_Z   1
loop_
 _symmetry_equiv_pos_site_id
 _symmetry_equiv_pos_as_xyz
  1  'x, y, z'
loop_
 _atom_site_type_symbol
 _atom_site_label
 _atom_site_symmetry_multiplicity
 _atom_site_fract_x
 _atom_site_fract_y
 _atom_site_fract_z
 _atom_site_occupancy
  Ce  Ce0  1  0.000000  0.000000  0.000000  1
  Er  Er1  1  0.333333  0.666667  0.500000  1
  Fe  Fe2  1  0.884034  0.456057  0.500000  1
  Fe  Fe3  1  0.543943  0.427976  0.500000  1
  Fe  Fe4  1  0.572024  0.115966  0.500000  1
  Co  Co5  1  0.098433  0.703698  0.000000  1
  Co  Co6  1  0.296302  0.394734  0.000000  1
  Co  Co7  1  0.605266  0.901567  0.000000  1
  Co  Co8  1  0.823977  0.216631  0.000000  1
  Co  Co9  1  0.783369  0.607347  0.000000  1
  Co  Co10  1  0.392653  0.176023  0.000000  1
  Co  Co11  1  0.050309  0.282962  0.500000  1
  Co  Co12  1  0.717038  0.767348  0.500000  1
  Co  Co13  1  0.232652  0.949691  0.500000  1
  P  P14  1  0.077647  0.446577  0.000000  1
  P  P15  1  0.553423  0.631070  0.000000  1
  P  P16  1  0.368930  0.922353  0.000000  1
  P  P17  1  0.774518  0.043378  0.500000  1
  P  P18  1  0.956622  0.731138  0.500000  1
  P  P19  1  0.268862  0.225482  0.500000  1
  P  P20  1  0.666667  0.333333  0.000000  1
