# generated using pymatgen
data_Dy19Mg(Ir2Au)4
_symmetry_space_group_name_H-M   'P 1'
_cell_length_a   11.07168800
_cell_length_b   11.07168800
_cell_length_c   6.31471700
_cell_angle_alpha   90.00000000
_cell_angle_beta   90.00000000
_cell_angle_gamma   90.00000000
_symmetry_Int_Tables_number   1
_chemical_formula_structural   Dy19Mg(Ir2Au)4
_chemical_formula_sum   'Dy19 Mg1 Ir8 Au4'
_cell_volume   774.07237691
_cell_formula_units_Z   1
loop_
 _symmetry_equiv_pos_site_id
 _symmetry_equiv_pos_as_xyz
  1  'x, y, z'
loop_
 _atom_site_type_symbol
 _atom_site_label
 _atom_site_symmetry_multiplicity
 _atom_site_fract_x
 _atom_site_fract_y
 _atom_site_fract_z
 _atom_site_occupancy
  Dy  Dy0  1  0.296312  0.087978  0.367131  1
  Dy  Dy1  1  0.300341  0.906621  0.867230  1
  Dy  Dy2  1  0.699659  0.093379  0.867230  1
  Dy  Dy3  1  0.703688  0.912022  0.367131  1
  Dy  Dy4  1  0.585309  0.788513  0.881462  1
  Dy  Dy5  1  0.579805  0.211906  0.380253  1
  Dy  Dy6  1  0.420195  0.788094  0.380253  1
  Dy  Dy7  1  0.414691  0.211487  0.881462  1
  Dy  Dy8  1  0.211906  0.420195  0.619747  1
  Dy  Dy9  1  0.211487  0.585309  0.118538  1
  Dy  Dy10  1  0.788513  0.414691  0.118538  1
  Dy  Dy11  1  0.788094  0.579805  0.619747  1
  Dy  Dy12  1  0.906621  0.699659  0.132770  1
  Dy  Dy13  1  0.912022  0.296312  0.632869  1
  Dy  Dy14  1  0.087978  0.703688  0.632869  1
  Dy  Dy15  1  0.093379  0.300341  0.132770  1
  Dy  Dy16  1  0.000000  0.000000  0.000000  1
  Dy  Dy17  1  0.500000  0.500000  0.000000  1
  Dy  Dy18  1  0.500000  0.500000  0.500000  1
  Mg  Mg19  1  0.000000  0.000000  0.500000  1
  Ir  Ir20  1  0.654410  0.345615  0.748123  1
  Ir  Ir21  1  0.654385  0.654410  0.251877  1
  Ir  Ir22  1  0.345615  0.345590  0.251877  1
  Ir  Ir23  1  0.345590  0.654385  0.748123  1
  Ir  Ir24  1  0.500000  0.000000  0.121148  1
  Ir  Ir25  1  0.500000  0.000000  0.619359  1
  Ir  Ir26  1  0.000000  0.500000  0.878852  1
  Ir  Ir27  1  0.000000  0.500000  0.380641  1
  Au  Au28  1  0.846641  0.153553  0.254959  1
  Au  Au29  1  0.846447  0.846641  0.745041  1
  Au  Au30  1  0.153553  0.153359  0.745041  1
  Au  Au31  1  0.153359  0.846447  0.254959  1
