# generated using pymatgen
data_La16Ho(LuIr4)3
_symmetry_space_group_name_H-M   'P 1'
_cell_length_a   11.34364600
_cell_length_b   11.34364600
_cell_length_c   6.52180600
_cell_angle_alpha   90.00000000
_cell_angle_beta   90.00000000
_cell_angle_gamma   90.00000000
_symmetry_Int_Tables_number   1
_chemical_formula_structural   La16Ho(LuIr4)3
_chemical_formula_sum   'La16 Ho1 Lu3 Ir12'
_cell_volume   839.21493884
_cell_formula_units_Z   1
loop_
 _symmetry_equiv_pos_site_id
 _symmetry_equiv_pos_as_xyz
  1  'x, y, z'
loop_
 _atom_site_type_symbol
 _atom_site_label
 _atom_site_symmetry_multiplicity
 _atom_site_fract_x
 _atom_site_fract_y
 _atom_site_fract_z
 _atom_site_occupancy
  La  La0  1  0.286775  0.087546  0.390932  1
  La  La1  1  0.286876  0.912233  0.890867  1
  La  La2  1  0.713124  0.087767  0.890867  1
  La  La3  1  0.713225  0.912454  0.390932  1
  La  La4  1  0.587792  0.786953  0.890987  1
  La  La5  1  0.587673  0.212897  0.390690  1
  La  La6  1  0.412327  0.787103  0.390690  1
  La  La7  1  0.412208  0.213047  0.890987  1
  La  La8  1  0.212897  0.412327  0.609310  1
  La  La9  1  0.213047  0.587792  0.109013  1
  La  La10  1  0.786953  0.412208  0.109013  1
  La  La11  1  0.787103  0.587673  0.609310  1
  La  La12  1  0.912233  0.713124  0.109133  1
  La  La13  1  0.912454  0.286775  0.609068  1
  La  La14  1  0.087546  0.713225  0.609068  1
  La  La15  1  0.087767  0.286876  0.109133  1
  Ho  Ho16  1  0.500000  0.500000  0.500000  1
  Lu  Lu17  1  0.000000  0.000000  0.500000  1
  Lu  Lu18  1  0.000000  0.000000  0.000000  1
  Lu  Lu19  1  0.500000  0.500000  0.000000  1
  Ir  Ir20  1  0.852778  0.147303  0.249946  1
  Ir  Ir21  1  0.852697  0.852778  0.750054  1
  Ir  Ir22  1  0.147303  0.147222  0.750054  1
  Ir  Ir23  1  0.147222  0.852697  0.249946  1
  Ir  Ir24  1  0.647822  0.352159  0.751083  1
  Ir  Ir25  1  0.647841  0.647822  0.248917  1
  Ir  Ir26  1  0.352159  0.352178  0.248917  1
  Ir  Ir27  1  0.352178  0.647841  0.751083  1
  Ir  Ir28  1  0.500000  0.000000  0.121071  1
  Ir  Ir29  1  0.500000  0.000000  0.621293  1
  Ir  Ir30  1  0.000000  0.500000  0.878929  1
  Ir  Ir31  1  0.000000  0.500000  0.378707  1
