# generated using pymatgen
data_Cr2P4PbO14
_symmetry_space_group_name_H-M   'P 1'
_cell_length_a   4.85859209
_cell_length_b   7.14030689
_cell_length_c   7.95908959
_cell_angle_alpha   89.98318414
_cell_angle_beta   92.37237361
_cell_angle_gamma   105.59502368
_symmetry_Int_Tables_number   1
_chemical_formula_structural   Cr2P4PbO14
_chemical_formula_sum   'Cr2 P4 Pb1 O14'
_cell_volume   265.70572860
_cell_formula_units_Z   1
loop_
 _symmetry_equiv_pos_site_id
 _symmetry_equiv_pos_as_xyz
  1  'x, y, z'
loop_
 _atom_site_type_symbol
 _atom_site_label
 _atom_site_symmetry_multiplicity
 _atom_site_fract_x
 _atom_site_fract_y
 _atom_site_fract_z
 _atom_site_occupancy
  Cr  Cr0  1  0.500000  0.500000  0.500000  1
  Cr  Cr1  1  0.000000  0.000000  0.000000  1
  P  P2  1  0.024757  0.615395  0.251038  1
  P  P3  1  0.975243  0.384605  0.748962  1
  P  P4  1  0.615886  0.228826  0.201627  1
  P  P5  1  0.384114  0.771174  0.798373  1
  Pb  Pb6  1  0.000000  0.000000  0.500000  1
  O  O7  1  0.800126  0.443271  0.147587  1
  O  O8  1  0.199874  0.556729  0.852413  1
  O  O9  1  0.523270  0.243686  0.385832  1
  O  O10  1  0.476730  0.756314  0.614168  1
  O  O11  1  0.294557  0.554023  0.293847  1
  O  O12  1  0.705443  0.445977  0.706153  1
  O  O13  1  0.870662  0.649637  0.411408  1
  O  O14  1  0.180612  0.905699  0.795919  1
  O  O15  1  0.819388  0.094301  0.204081  1
  O  O16  1  0.911943  0.202568  0.853636  1
  O  O17  1  0.088057  0.797432  0.146364  1
  O  O18  1  0.624898  0.823351  0.929062  1
  O  O19  1  0.375102  0.176649  0.070938  1
  O  O20  1  0.129338  0.350363  0.588592  1
