# generated using pymatgen
data_PrZrTcB6
_symmetry_space_group_name_H-M   'P 1'
_cell_length_a   3.67304400
_cell_length_b   9.15262800
_cell_length_c   11.62542000
_cell_angle_alpha   90.00000000
_cell_angle_beta   90.00000000
_cell_angle_gamma   90.00000000
_symmetry_Int_Tables_number   1
_chemical_formula_structural   PrZrTcB6
_chemical_formula_sum   'Pr4 Zr4 Tc4 B24'
_cell_volume   390.82343187
_cell_formula_units_Z   4
loop_
 _symmetry_equiv_pos_site_id
 _symmetry_equiv_pos_as_xyz
  1  'x, y, z'
loop_
 _atom_site_type_symbol
 _atom_site_label
 _atom_site_symmetry_multiplicity
 _atom_site_fract_x
 _atom_site_fract_y
 _atom_site_fract_z
 _atom_site_occupancy
  Pr  Pr0  1  0.000000  0.322914  0.414833  1
  Pr  Pr1  1  0.000000  0.677086  0.585167  1
  Pr  Pr2  1  0.000000  0.822914  0.085167  1
  Pr  Pr3  1  0.000000  0.177086  0.914833  1
  Zr  Zr4  1  0.000000  0.945226  0.371800  1
  Zr  Zr5  1  0.000000  0.054774  0.628200  1
  Zr  Zr6  1  0.000000  0.445226  0.128200  1
  Zr  Zr7  1  0.000000  0.554774  0.871800  1
  Tc  Tc8  1  0.000000  0.641840  0.316245  1
  Tc  Tc9  1  0.000000  0.358160  0.683755  1
  Tc  Tc10  1  0.000000  0.141840  0.183755  1
  Tc  Tc11  1  0.000000  0.858160  0.816245  1
  B  B12  1  0.500000  0.556713  0.429668  1
  B  B13  1  0.500000  0.443287  0.570332  1
  B  B14  1  0.500000  0.056713  0.070332  1
  B  B15  1  0.500000  0.943287  0.929668  1
  B  B16  1  0.500000  0.752888  0.415036  1
  B  B17  1  0.500000  0.247112  0.584964  1
  B  B18  1  0.500000  0.252888  0.084964  1
  B  B19  1  0.500000  0.747112  0.915036  1
  B  B20  1  0.500000  0.794449  0.265351  1
  B  B21  1  0.500000  0.205551  0.734649  1
  B  B22  1  0.500000  0.294449  0.234649  1
  B  B23  1  0.500000  0.705551  0.765351  1
  B  B24  1  0.500000  0.629403  0.184037  1
  B  B25  1  0.500000  0.370597  0.815963  1
  B  B26  1  0.500000  0.129403  0.315963  1
  B  B27  1  0.500000  0.870597  0.684037  1
  B  B28  1  0.500000  0.984424  0.215167  1
  B  B29  1  0.500000  0.015576  0.784833  1
  B  B30  1  0.500000  0.484424  0.284833  1
  B  B31  1  0.500000  0.515576  0.715167  1
  B  B32  1  0.500000  0.597989  0.025871  1
  B  B33  1  0.500000  0.402011  0.974129  1
  B  B34  1  0.500000  0.097989  0.474129  1
  B  B35  1  0.500000  0.902011  0.525871  1
