# generated using pymatgen
data_LiLa16Hg3Ru4
_symmetry_space_group_name_H-M   'P 1'
_cell_length_a   10.09166392
_cell_length_b   10.09166469
_cell_length_c   10.09166418
_cell_angle_alpha   59.71291921
_cell_angle_beta   59.71291896
_cell_angle_gamma   59.71291479
_symmetry_Int_Tables_number   1
_chemical_formula_structural   LiLa16Hg3Ru4
_chemical_formula_sum   'Li1 La16 Hg3 Ru4'
_cell_volume   721.99182746
_cell_formula_units_Z   1
loop_
 _symmetry_equiv_pos_site_id
 _symmetry_equiv_pos_as_xyz
  1  'x, y, z'
loop_
 _atom_site_type_symbol
 _atom_site_label
 _atom_site_symmetry_multiplicity
 _atom_site_fract_x
 _atom_site_fract_y
 _atom_site_fract_z
 _atom_site_occupancy
  Li  Li0  1  0.811843  0.811843  0.811843  1
  La  La1  1  0.596569  0.596569  0.596569  1
  La  La2  1  0.595259  0.595259  0.213791  1
  La  La3  1  0.595259  0.213791  0.595259  1
  La  La4  1  0.213791  0.595259  0.595259  1
  La  La5  1  0.060775  0.441022  0.441022  1
  La  La6  1  0.437198  0.064687  0.064687  1
  La  La7  1  0.441022  0.060775  0.441022  1
  La  La8  1  0.064687  0.437198  0.064687  1
  La  La9  1  0.441022  0.441022  0.060775  1
  La  La10  1  0.064687  0.064687  0.437198  1
  La  La11  1  0.188424  0.813465  0.813465  1
  La  La12  1  0.810733  0.191320  0.191320  1
  La  La13  1  0.813465  0.188424  0.813465  1
  La  La14  1  0.191320  0.810733  0.191320  1
  La  La15  1  0.813465  0.813465  0.188424  1
  La  La16  1  0.191320  0.191320  0.810733  1
  Hg  Hg17  1  0.835520  0.835520  0.498718  1
  Hg  Hg18  1  0.835520  0.498718  0.835520  1
  Hg  Hg19  1  0.498718  0.835520  0.835520  1
  Ru  Ru20  1  0.387153  0.387153  0.387153  1
  Ru  Ru21  1  0.385947  0.385947  0.840353  1
  Ru  Ru22  1  0.385947  0.840353  0.385947  1
  Ru  Ru23  1  0.840353  0.385947  0.385947  1
