# generated using pymatgen
data_Ba2Ga6PdAu
_symmetry_space_group_name_H-M   'P 1'
_cell_length_a   6.41707075
_cell_length_b   6.41707056
_cell_length_c   6.25249600
_cell_angle_alpha   90.00000000
_cell_angle_beta   90.00000000
_cell_angle_gamma   117.13706541
_symmetry_Int_Tables_number   1
_chemical_formula_structural   Ba2Ga6PdAu
_chemical_formula_sum   'Ba2 Ga6 Pd1 Au1'
_cell_volume   229.12739468
_cell_formula_units_Z   1
loop_
 _symmetry_equiv_pos_site_id
 _symmetry_equiv_pos_as_xyz
  1  'x, y, z'
loop_
 _atom_site_type_symbol
 _atom_site_label
 _atom_site_symmetry_multiplicity
 _atom_site_fract_x
 _atom_site_fract_y
 _atom_site_fract_z
 _atom_site_occupancy
  Ba  Ba0  1  0.234605  0.765395  0.750000  1
  Ba  Ba1  1  0.766445  0.233555  0.250000  1
  Ga  Ga2  1  0.725829  0.720082  0.010096  1
  Ga  Ga3  1  0.725829  0.720082  0.489904  1
  Ga  Ga4  1  0.279918  0.274171  0.010096  1
  Ga  Ga5  1  0.279918  0.274171  0.489904  1
  Ga  Ga6  1  0.646050  0.353950  0.750000  1
  Ga  Ga7  1  0.343693  0.656307  0.250000  1
  Pd  Pd8  1  0.103558  0.896442  0.250000  1
  Au  Au9  1  0.894156  0.105844  0.750000  1
