# generated using pymatgen
data_CeHoZn3CuRu
_symmetry_space_group_name_H-M   'P 1'
_cell_length_a   7.11664400
_cell_length_b   7.09357432
_cell_length_c   5.06179669
_cell_angle_alpha   90.15448831
_cell_angle_beta   90.00000000
_cell_angle_gamma   90.00000000
_symmetry_Int_Tables_number   1
_chemical_formula_structural   CeHoZn3CuRu
_chemical_formula_sum   'Ce2 Ho2 Zn6 Cu2 Ru2'
_cell_volume   255.53093468
_cell_formula_units_Z   2
loop_
 _symmetry_equiv_pos_site_id
 _symmetry_equiv_pos_as_xyz
  1  'x, y, z'
loop_
 _atom_site_type_symbol
 _atom_site_label
 _atom_site_symmetry_multiplicity
 _atom_site_fract_x
 _atom_site_fract_y
 _atom_site_fract_z
 _atom_site_occupancy
  Ce  Ce0  1  0.000000  0.992065  0.011103  1
  Ce  Ce1  1  0.500000  0.506924  0.009373  1
  Ho  Ho2  1  0.000000  0.510016  0.759501  1
  Ho  Ho3  1  0.500000  0.993845  0.232574  1
  Zn  Zn4  1  0.814096  0.318468  0.287611  1
  Zn  Zn5  1  0.313117  0.186237  0.716397  1
  Zn  Zn6  1  0.185904  0.318468  0.287611  1
  Zn  Zn7  1  0.686883  0.186237  0.716397  1
  Zn  Zn8  1  0.689423  0.810795  0.703703  1
  Zn  Zn9  1  0.310577  0.810795  0.703703  1
  Cu  Cu10  1  0.180308  0.682249  0.282247  1
  Cu  Cu11  1  0.819692  0.682249  0.282247  1
  Ru  Ru12  1  0.500000  0.496701  0.504309  1
  Ru  Ru13  1  0.000000  0.004952  0.503224  1
