# generated using pymatgen
data_AcAgSeO
_symmetry_space_group_name_H-M   'P 1'
_cell_length_a   6.02972500
_cell_length_b   9.60148000
_cell_length_c   6.02831900
_cell_angle_alpha   89.99968327
_cell_angle_beta   89.99986695
_cell_angle_gamma   90.00008609
_symmetry_Int_Tables_number   1
_chemical_formula_structural   AcAgSeO
_chemical_formula_sum   'Ac4 Ag4 Se4 O4'
_cell_volume   349.00521225
_cell_formula_units_Z   4
loop_
 _symmetry_equiv_pos_site_id
 _symmetry_equiv_pos_as_xyz
  1  'x, y, z'
loop_
 _atom_site_type_symbol
 _atom_site_label
 _atom_site_symmetry_multiplicity
 _atom_site_fract_x
 _atom_site_fract_y
 _atom_site_fract_z
 _atom_site_occupancy
  Ac  Ac0  1  0.500001  0.133414  0.249998  1
  Ac  Ac1  1  0.999999  0.866589  0.250002  1
  Ac  Ac2  1  0.000002  0.133412  0.749998  1
  Ac  Ac3  1  0.500000  0.866589  0.750001  1
  Ag  Ag4  1  0.750000  0.500001  0.026192  1
  Ag  Ag5  1  0.250000  0.499999  0.473807  1
  Ag  Ag6  1  0.750001  0.500001  0.526192  1
  Ag  Ag7  1  0.250003  0.500000  0.973808  1
  Se  Se8  1  0.999991  0.309934  0.250007  1
  Se  Se9  1  0.500001  0.690065  0.249999  1
  Se  Se10  1  0.499999  0.309936  0.750000  1
  Se  Se11  1  0.000000  0.690065  0.750000  1
  O  O12  1  0.750000  0.000000  0.000314  1
  O  O13  1  0.249999  0.000000  0.499685  1
  O  O14  1  0.750002  0.000000  0.500314  1
  O  O15  1  0.250000  0.000000  0.999686  1
