# generated using pymatgen
data_DyHo5Al24ZnOs7
_symmetry_space_group_name_H-M   'P 1'
_cell_length_a   8.85571672
_cell_length_b   8.85458784
_cell_length_c   9.54288795
_cell_angle_alpha   89.94561158
_cell_angle_beta   90.04433123
_cell_angle_gamma   120.00240315
_symmetry_Int_Tables_number   1
_chemical_formula_structural   DyHo5Al24ZnOs7
_chemical_formula_sum   'Dy1 Ho5 Al24 Zn1 Os7'
_cell_volume   648.02503411
_cell_formula_units_Z   1
loop_
 _symmetry_equiv_pos_site_id
 _symmetry_equiv_pos_as_xyz
  1  'x, y, z'
loop_
 _atom_site_type_symbol
 _atom_site_label
 _atom_site_symmetry_multiplicity
 _atom_site_fract_x
 _atom_site_fract_y
 _atom_site_fract_z
 _atom_site_occupancy
  Dy  Dy0  1  0.191421  0.385911  0.247903  1
  Ho  Ho1  1  0.808415  0.613359  0.751899  1
  Ho  Ho2  1  0.613415  0.808484  0.248163  1
  Ho  Ho3  1  0.386625  0.191573  0.751842  1
  Ho  Ho4  1  0.194794  0.805311  0.253756  1
  Ho  Ho5  1  0.805273  0.194856  0.746225  1
  Al  Al6  1  0.329655  0.670477  0.021675  1
  Al  Al7  1  0.670313  0.329685  0.978067  1
  Al  Al8  1  0.666047  0.334026  0.518056  1
  Al  Al9  1  0.334039  0.666108  0.482108  1
  Al  Al10  1  0.162670  0.325937  0.573928  1
  Al  Al11  1  0.837391  0.674100  0.426348  1
  Al  Al12  1  0.674128  0.837354  0.573810  1
  Al  Al13  1  0.848727  0.677123  0.081044  1
  Al  Al14  1  0.325994  0.162589  0.426341  1
  Al  Al15  1  0.151241  0.322904  0.918722  1
  Al  Al16  1  0.162891  0.837096  0.575523  1
  Al  Al17  1  0.322943  0.151171  0.081013  1
  Al  Al18  1  0.836974  0.162893  0.424595  1
  Al  Al19  1  0.677171  0.848797  0.918865  1
  Al  Al20  1  0.836492  0.163247  0.075974  1
  Al  Al21  1  0.163333  0.836740  0.923871  1
  Al  Al22  1  0.561701  0.121298  0.249269  1
  Al  Al23  1  0.438312  0.878712  0.750756  1
  Al  Al24  1  0.878516  0.438385  0.249260  1
  Al  Al25  1  0.121330  0.561757  0.750703  1
  Al  Al26  1  0.563858  0.436504  0.254519  1
  Al  Al27  1  0.436454  0.563603  0.745630  1
  Al  Al28  1  0.998831  0.000370  0.250539  1
  Al  Al29  1  0.000863  0.999101  0.749517  1
  Zn  Zn30  1  0.499998  0.500045  0.000008  1
  Os  Os31  1  0.500014  0.000043  0.999970  1
  Os  Os32  1  0.999895  0.500093  0.999833  1
  Os  Os33  1  0.500064  0.000123  0.500049  1
  Os  Os34  1  0.999914  0.500087  0.500154  1
  Os  Os35  1  0.500218  0.500070  0.500169  1
  Os  Os36  1  0.000056  0.000055  0.000007  1
  Os  Os37  1  0.000025  0.000015  0.499888  1
