# generated using pymatgen
data_HoTm2(Co3P2)3
_symmetry_space_group_name_H-M   'P 1'
_cell_length_a   3.66349000
_cell_length_b   10.45217400
_cell_length_c   12.10265400
_cell_angle_alpha   90.00000000
_cell_angle_beta   90.00000000
_cell_angle_gamma   90.00000000
_symmetry_Int_Tables_number   1
_chemical_formula_structural   HoTm2(Co3P2)3
_chemical_formula_sum   'Ho2 Tm4 Co18 P12'
_cell_volume   463.42798809
_cell_formula_units_Z   2
loop_
 _symmetry_equiv_pos_site_id
 _symmetry_equiv_pos_as_xyz
  1  'x, y, z'
loop_
 _atom_site_type_symbol
 _atom_site_label
 _atom_site_symmetry_multiplicity
 _atom_site_fract_x
 _atom_site_fract_y
 _atom_site_fract_z
 _atom_site_occupancy
  Ho  Ho0  1  0.000000  0.500000  0.522424  1
  Ho  Ho1  1  0.500000  0.000000  0.477576  1
  Tm  Tm2  1  0.500000  0.817715  0.205785  1
  Tm  Tm3  1  0.500000  0.182285  0.205785  1
  Tm  Tm4  1  0.000000  0.682285  0.794215  1
  Tm  Tm5  1  0.000000  0.317715  0.794215  1
  Co  Co6  1  0.500000  0.500000  0.159033  1
  Co  Co7  1  0.000000  0.000000  0.840967  1
  Co  Co8  1  0.500000  0.500000  0.703812  1
  Co  Co9  1  0.000000  0.000000  0.296188  1
  Co  Co10  1  0.000000  0.500000  0.985975  1
  Co  Co11  1  0.500000  0.000000  0.014025  1
  Co  Co12  1  0.500000  0.333153  0.994475  1
  Co  Co13  1  0.500000  0.666847  0.994475  1
  Co  Co14  1  0.000000  0.166847  0.005525  1
  Co  Co15  1  0.000000  0.833153  0.005525  1
  Co  Co16  1  0.500000  0.297501  0.430429  1
  Co  Co17  1  0.500000  0.702499  0.430429  1
  Co  Co18  1  0.000000  0.202499  0.569571  1
  Co  Co19  1  0.000000  0.797501  0.569571  1
  Co  Co20  1  0.500000  0.878649  0.709866  1
  Co  Co21  1  0.500000  0.121351  0.709866  1
  Co  Co22  1  0.000000  0.621351  0.290134  1
  Co  Co23  1  0.000000  0.378649  0.290134  1
  P  P24  1  0.500000  0.500000  0.882077  1
  P  P25  1  0.000000  0.000000  0.117923  1
  P  P26  1  0.500000  0.500000  0.344552  1
  P  P27  1  0.000000  0.000000  0.655448  1
  P  P28  1  0.500000  0.311191  0.616788  1
  P  P29  1  0.500000  0.688809  0.616788  1
  P  P30  1  0.000000  0.188809  0.383212  1
  P  P31  1  0.000000  0.811191  0.383212  1
  P  P32  1  0.500000  0.846922  0.892361  1
  P  P33  1  0.500000  0.153078  0.892361  1
  P  P34  1  0.000000  0.653078  0.107639  1
  P  P35  1  0.000000  0.346922  0.107639  1
