# generated using pymatgen
data_SmSc(NbSe2)8
_symmetry_space_group_name_H-M   'P 1'
_cell_length_a   7.01486800
_cell_length_b   7.01486809
_cell_length_c   14.21293800
_cell_angle_alpha   90.00000000
_cell_angle_beta   90.00000000
_cell_angle_gamma   119.99999956
_symmetry_Int_Tables_number   1
_chemical_formula_structural   SmSc(NbSe2)8
_chemical_formula_sum   'Sm1 Sc1 Nb8 Se16'
_cell_volume   605.69432897
_cell_formula_units_Z   1
loop_
 _symmetry_equiv_pos_site_id
 _symmetry_equiv_pos_as_xyz
  1  'x, y, z'
loop_
 _atom_site_type_symbol
 _atom_site_label
 _atom_site_symmetry_multiplicity
 _atom_site_fract_x
 _atom_site_fract_y
 _atom_site_fract_z
 _atom_site_occupancy
  Sm  Sm0  1  0.000000  0.000000  0.000000  1
  Sc  Sc1  1  0.000000  0.000000  0.500000  1
  Nb  Nb2  1  0.985714  0.492857  0.258167  1
  Nb  Nb3  1  0.014286  0.507143  0.741833  1
  Nb  Nb4  1  0.492857  0.507143  0.741833  1
  Nb  Nb5  1  0.507143  0.014286  0.258167  1
  Nb  Nb6  1  0.000000  0.000000  0.743119  1
  Nb  Nb7  1  0.000000  0.000000  0.256881  1
  Nb  Nb8  1  0.507143  0.492857  0.258167  1
  Nb  Nb9  1  0.492857  0.985714  0.741833  1
  Se  Se10  1  0.333333  0.666667  0.620826  1
  Se  Se11  1  0.666667  0.333333  0.135939  1
  Se  Se12  1  0.666667  0.333333  0.379174  1
  Se  Se13  1  0.333333  0.666667  0.864061  1
  Se  Se14  1  0.167980  0.335962  0.374822  1
  Se  Se15  1  0.829553  0.170447  0.858965  1
  Se  Se16  1  0.340895  0.170447  0.858965  1
  Se  Se17  1  0.664038  0.832020  0.374822  1
  Se  Se18  1  0.167980  0.832020  0.374822  1
  Se  Se19  1  0.829553  0.659105  0.858965  1
  Se  Se20  1  0.170447  0.340895  0.141035  1
  Se  Se21  1  0.832020  0.167980  0.625178  1
  Se  Se22  1  0.335962  0.167980  0.625178  1
  Se  Se23  1  0.659105  0.829553  0.141035  1
  Se  Se24  1  0.170447  0.829553  0.141035  1
  Se  Se25  1  0.832020  0.664038  0.625178  1
