# generated using pymatgen
data_SrY2Ho4PtI12
_symmetry_space_group_name_H-M   'P 1'
_cell_length_a   9.81381771
_cell_length_b   9.80576525
_cell_length_c   9.81073434
_cell_angle_alpha   106.42022637
_cell_angle_beta   106.43237382
_cell_angle_gamma   106.41684719
_symmetry_Int_Tables_number   1
_chemical_formula_structural   SrY2Ho4PtI12
_chemical_formula_sum   'Sr1 Y2 Ho4 Pt1 I12'
_cell_volume   798.31035905
_cell_formula_units_Z   1
loop_
 _symmetry_equiv_pos_site_id
 _symmetry_equiv_pos_as_xyz
  1  'x, y, z'
loop_
 _atom_site_type_symbol
 _atom_site_label
 _atom_site_symmetry_multiplicity
 _atom_site_fract_x
 _atom_site_fract_y
 _atom_site_fract_z
 _atom_site_occupancy
  Sr  Sr0  1  0.999960  0.000015  0.999991  1
  Y  Y1  1  0.404256  0.477007  0.200189  1
  Y  Y2  1  0.200295  0.403988  0.477047  1
  Ho  Ho3  1  0.477245  0.202465  0.405036  1
  Ho  Ho4  1  0.595829  0.523158  0.797884  1
  Ho  Ho5  1  0.797732  0.595435  0.523280  1
  Ho  Ho6  1  0.523419  0.797728  0.595656  1
  Pt  Pt7  1  0.500853  0.500195  0.500709  1
  I  I8  1  0.048506  0.363491  0.128117  1
  I  I9  1  0.128744  0.048440  0.363348  1
  I  I10  1  0.363576  0.127894  0.049203  1
  I  I11  1  0.950860  0.636329  0.871382  1
  I  I12  1  0.871359  0.950896  0.636364  1
  I  I13  1  0.636334  0.871417  0.950827  1
  I  I14  1  0.722717  0.574004  0.176333  1
  I  I15  1  0.176407  0.722790  0.573997  1
  I  I16  1  0.573660  0.176062  0.721728  1
  I  I17  1  0.278419  0.426290  0.824170  1
  I  I18  1  0.823499  0.277923  0.426098  1
  I  I19  1  0.426330  0.824473  0.278640  1
