# generated using pymatgen
data_Li3Hf2Co4Ni5As7
_symmetry_space_group_name_H-M   'P 1'
_cell_length_a   9.46998382
_cell_length_b   9.41414084
_cell_length_c   3.78041900
_cell_angle_alpha   90.00000000
_cell_angle_beta   90.00000000
_cell_angle_gamma   119.72879080
_symmetry_Int_Tables_number   1
_chemical_formula_structural   Li3Hf2Co4Ni5As7
_chemical_formula_sum   'Li3 Hf2 Co4 Ni5 As7'
_cell_volume   292.67181294
_cell_formula_units_Z   1
loop_
 _symmetry_equiv_pos_site_id
 _symmetry_equiv_pos_as_xyz
  1  'x, y, z'
loop_
 _atom_site_type_symbol
 _atom_site_label
 _atom_site_symmetry_multiplicity
 _atom_site_fract_x
 _atom_site_fract_y
 _atom_site_fract_z
 _atom_site_occupancy
  Li  Li0  1  0.442942  0.216441  0.500000  1
  Li  Li1  1  0.777957  0.221274  0.500000  1
  Li  Li2  1  0.002537  0.009038  0.500000  1
  Hf  Hf3  1  0.770010  0.558557  0.500000  1
  Hf  Hf4  1  0.322587  0.663531  0.000000  1
  Co  Co5  1  0.273624  0.377231  0.500000  1
  Co  Co6  1  0.621251  0.894588  0.500000  1
  Co  Co7  1  0.110925  0.719376  0.500000  1
  Co  Co8  1  0.496494  0.460482  0.000000  1
  Ni  Ni9  1  0.544770  0.034590  0.000000  1
  Ni  Ni10  1  0.958742  0.505558  0.000000  1
  Ni  Ni11  1  0.726535  0.761587  0.000000  1
  Ni  Ni12  1  0.246508  0.962891  0.000000  1
  Ni  Ni13  1  0.043039  0.281577  0.000000  1
  As  As14  1  0.981789  0.770025  0.000000  1
  As  As15  1  0.247646  0.215065  0.000000  1
  As  As16  1  0.790472  0.031867  0.000000  1
  As  As17  1  0.659996  0.325833  0.000000  1
  As  As18  1  0.521554  0.619236  0.500000  1
  As  As19  1  0.383136  0.917724  0.500000  1
  As  As20  1  0.077489  0.453528  0.500000  1
