# generated using pymatgen
data_TbNd6CoI12
_symmetry_space_group_name_H-M   'P 1'
_cell_length_a   9.98540341
_cell_length_b   9.98540411
_cell_length_c   9.98540350
_cell_angle_alpha   106.88490793
_cell_angle_beta   106.88490315
_cell_angle_gamma   106.88490553
_symmetry_Int_Tables_number   1
_chemical_formula_structural   TbNd6CoI12
_chemical_formula_sum   'Tb1 Nd6 Co1 I12'
_cell_volume   831.75766799
_cell_formula_units_Z   1
loop_
 _symmetry_equiv_pos_site_id
 _symmetry_equiv_pos_as_xyz
  1  'x, y, z'
loop_
 _atom_site_type_symbol
 _atom_site_label
 _atom_site_symmetry_multiplicity
 _atom_site_fract_x
 _atom_site_fract_y
 _atom_site_fract_z
 _atom_site_occupancy
  Tb  Tb0  1  0.500000  0.500000  0.500000  1
  Nd  Nd1  1  0.022887  0.095036  0.294858  1
  Nd  Nd2  1  0.095036  0.294858  0.022887  1
  Nd  Nd3  1  0.294858  0.022887  0.095036  1
  Nd  Nd4  1  0.977113  0.904964  0.705142  1
  Nd  Nd5  1  0.904964  0.705142  0.977113  1
  Nd  Nd6  1  0.705142  0.977113  0.904964  1
  Co  Co7  1  0.000000  0.000000  0.000000  1
  I  I8  1  0.166634  0.466101  0.389306  1
  I  I9  1  0.466101  0.389306  0.166634  1
  I  I10  1  0.389306  0.166634  0.466101  1
  I  I11  1  0.833366  0.533899  0.610694  1
  I  I12  1  0.533899  0.610694  0.833366  1
  I  I13  1  0.610694  0.833366  0.533899  1
  I  I14  1  0.678337  0.072215  0.226472  1
  I  I15  1  0.072215  0.226472  0.678337  1
  I  I16  1  0.226472  0.678337  0.072215  1
  I  I17  1  0.321663  0.927785  0.773528  1
  I  I18  1  0.927785  0.773528  0.321663  1
  I  I19  1  0.773528  0.321663  0.927785  1
