# generated using pymatgen
data_Sm5Hf3(Ni4As3)4
_symmetry_space_group_name_H-M   'P 1'
_cell_length_a   12.78989900
_cell_length_b   12.78989844
_cell_length_c   3.96719700
_cell_angle_alpha   90.00000000
_cell_angle_beta   90.00000000
_cell_angle_gamma   119.99189055
_symmetry_Int_Tables_number   1
_chemical_formula_structural   Sm5Hf3(Ni4As3)4
_chemical_formula_sum   'Sm5 Hf3 Ni16 As12'
_cell_volume   562.06182927
_cell_formula_units_Z   1
loop_
 _symmetry_equiv_pos_site_id
 _symmetry_equiv_pos_as_xyz
  1  'x, y, z'
loop_
 _atom_site_type_symbol
 _atom_site_label
 _atom_site_symmetry_multiplicity
 _atom_site_fract_x
 _atom_site_fract_y
 _atom_site_fract_z
 _atom_site_occupancy
  Sm  Sm0  1  0.666703  0.333480  0.000000  1
  Sm  Sm1  1  0.333481  0.666704  0.000000  1
  Sm  Sm2  1  0.186594  0.000007  0.500001  1
  Sm  Sm3  1  0.000007  0.186594  0.500001  1
  Sm  Sm4  1  0.813261  0.813262  0.500001  1
  Hf  Hf5  1  0.567812  0.999908  0.000000  1
  Hf  Hf6  1  0.432278  0.432278  0.000000  1
  Hf  Hf7  1  0.999908  0.567812  0.000000  1
  Ni  Ni8  1  0.999969  0.999969  0.000000  1
  Ni  Ni9  1  0.805862  0.184203  0.000000  1
  Ni  Ni10  1  0.378300  0.194059  0.000000  1
  Ni  Ni11  1  0.194059  0.378300  0.000000  1
  Ni  Ni12  1  0.815693  0.621716  0.000000  1
  Ni  Ni13  1  0.184204  0.805862  0.000000  1
  Ni  Ni14  1  0.621716  0.815693  0.000000  1
  Ni  Ni15  1  0.722946  0.000044  0.500001  1
  Ni  Ni16  1  0.485187  0.119134  0.500001  1
  Ni  Ni17  1  0.277085  0.277085  0.500001  1
  Ni  Ni18  1  0.880918  0.366007  0.500001  1
  Ni  Ni19  1  0.119134  0.485187  0.500001  1
  Ni  Ni20  1  0.634070  0.514947  0.500001  1
  Ni  Ni21  1  0.514947  0.634071  0.500001  1
  Ni  Ni22  1  0.000044  0.722946  0.500001  1
  Ni  Ni23  1  0.366006  0.880918  0.500001  1
  As  As24  1  0.360708  0.999979  0.000000  1
  As  As25  1  0.821004  0.999966  0.000000  1
  As  As26  1  0.178984  0.178984  0.000000  1
  As  As27  1  0.999979  0.360708  0.000000  1
  As  As28  1  0.639231  0.639231  0.000000  1
  As  As29  1  0.999966  0.821004  0.000000  1
  As  As30  1  0.695146  0.171987  0.500001  1
  As  As31  1  0.476825  0.304888  0.500001  1
  As  As32  1  0.304887  0.476824  0.500001  1
  As  As33  1  0.828045  0.523191  0.500001  1
  As  As34  1  0.171987  0.695147  0.500001  1
  As  As35  1  0.523190  0.828045  0.500001  1
