# generated using pymatgen
data_NdSn3GeRh6
_symmetry_space_group_name_H-M   'P 1'
_cell_length_a   7.54364600
_cell_length_b   7.54364544
_cell_length_c   4.03612800
_cell_angle_alpha   90.00000000
_cell_angle_beta   90.00000000
_cell_angle_gamma   119.99999370
_symmetry_Int_Tables_number   1
_chemical_formula_structural   NdSn3GeRh6
_chemical_formula_sum   'Nd1 Sn3 Ge1 Rh6'
_cell_volume   198.91070555
_cell_formula_units_Z   1
loop_
 _symmetry_equiv_pos_site_id
 _symmetry_equiv_pos_as_xyz
  1  'x, y, z'
loop_
 _atom_site_type_symbol
 _atom_site_label
 _atom_site_symmetry_multiplicity
 _atom_site_fract_x
 _atom_site_fract_y
 _atom_site_fract_z
 _atom_site_occupancy
  Nd  Nd0  1  0.000000  0.000000  0.000000  1
  Sn  Sn1  1  0.391122  0.195561  0.499999  1
  Sn  Sn2  1  0.804439  0.195561  0.499999  1
  Sn  Sn3  1  0.804440  0.608879  0.499999  1
  Ge  Ge4  1  0.333333  0.666667  0.000000  1
  Rh  Rh5  1  0.525515  0.051029  0.000000  1
  Rh  Rh6  1  0.525514  0.474485  0.000000  1
  Rh  Rh7  1  0.948970  0.474485  0.000000  1
  Rh  Rh8  1  0.207803  0.415605  0.499999  1
  Rh  Rh9  1  0.207803  0.792196  0.499999  1
  Rh  Rh10  1  0.584394  0.792196  0.499999  1
