# generated using pymatgen
data_Lu4HfCo4
_symmetry_space_group_name_H-M   'P 1'
_cell_length_a   5.47104164
_cell_length_b   5.47104154
_cell_length_c   9.07145400
_cell_angle_alpha   71.01654557
_cell_angle_beta   71.01655699
_cell_angle_gamma   42.46382691
_symmetry_Int_Tables_number   1
_chemical_formula_structural   Lu4HfCo4
_chemical_formula_sum   'Lu4 Hf1 Co4'
_cell_volume   171.79093211
_cell_formula_units_Z   1
loop_
 _symmetry_equiv_pos_site_id
 _symmetry_equiv_pos_as_xyz
  1  'x, y, z'
loop_
 _atom_site_type_symbol
 _atom_site_label
 _atom_site_symmetry_multiplicity
 _atom_site_fract_x
 _atom_site_fract_y
 _atom_site_fract_z
 _atom_site_occupancy
  Lu  Lu0  1  0.740184  0.740184  0.671974  1
  Lu  Lu1  1  0.259816  0.259816  0.328026  1
  Lu  Lu2  1  0.389593  0.389593  0.893939  1
  Lu  Lu3  1  0.610407  0.610407  0.106061  1
  Hf  Hf4  1  0.500000  0.500000  0.500000  1
  Co  Co5  1  0.041481  0.041481  0.653727  1
  Co  Co6  1  0.958519  0.958519  0.346273  1
  Co  Co7  1  0.094726  0.094726  0.883617  1
  Co  Co8  1  0.905274  0.905274  0.116383  1
