# generated using pymatgen
data_Y12AlCo2Si2Sn
_symmetry_space_group_name_H-M   'P 1'
_cell_length_a   8.46892600
_cell_length_b   8.46892656
_cell_length_c   8.46892617
_cell_angle_alpha   112.93734168
_cell_angle_beta   111.14450152
_cell_angle_gamma   104.45114740
_symmetry_Int_Tables_number   1
_chemical_formula_structural   Y12AlCo2Si2Sn
_chemical_formula_sum   'Y12 Al1 Co2 Si2 Sn1'
_cell_volume   464.80181903
_cell_formula_units_Z   1
loop_
 _symmetry_equiv_pos_site_id
 _symmetry_equiv_pos_as_xyz
  1  'x, y, z'
loop_
 _atom_site_type_symbol
 _atom_site_label
 _atom_site_symmetry_multiplicity
 _atom_site_fract_x
 _atom_site_fract_y
 _atom_site_fract_z
 _atom_site_occupancy
  Y  Y0  1  0.435510  0.239505  0.196005  1
  Y  Y1  1  0.564490  0.760495  0.803995  1
  Y  Y2  1  0.043502  0.239505  0.803995  1
  Y  Y3  1  0.956498  0.760495  0.196005  1
  Y  Y4  1  0.184134  0.282715  0.466849  1
  Y  Y5  1  0.815866  0.717285  0.533151  1
  Y  Y6  1  0.184134  0.717285  0.901419  1
  Y  Y7  1  0.815866  0.282715  0.098581  1
  Y  Y8  1  0.306512  0.619633  0.313121  1
  Y  Y9  1  0.693488  0.380367  0.686879  1
  Y  Y10  1  0.306512  0.993390  0.686879  1
  Y  Y11  1  0.693488  0.006610  0.313121  1
  Al  Al12  1  0.000000  0.000000  0.000000  1
  Co  Co13  1  0.106350  0.606350  0.500000  1
  Co  Co14  1  0.893650  0.393650  0.500000  1
  Si  Si15  1  0.357078  0.000000  0.357078  1
  Si  Si16  1  0.642922  0.000000  0.642922  1
  Sn  Sn17  1  0.500000  0.500000  0.000000  1
