# generated using pymatgen
data_Ba10Er4MnAl4RuO26
_symmetry_space_group_name_H-M   'P 1'
_cell_length_a   5.91098100
_cell_length_b   5.91098014
_cell_length_c   24.72380100
_cell_angle_alpha   90.00000000
_cell_angle_beta   90.00000000
_cell_angle_gamma   119.99999923
_symmetry_Int_Tables_number   1
_chemical_formula_structural   Ba10Er4MnAl4RuO26
_chemical_formula_sum   'Ba10 Er4 Mn1 Al4 Ru1 O26'
_cell_volume   748.10910040
_cell_formula_units_Z   1
loop_
 _symmetry_equiv_pos_site_id
 _symmetry_equiv_pos_as_xyz
  1  'x, y, z'
loop_
 _atom_site_type_symbol
 _atom_site_label
 _atom_site_symmetry_multiplicity
 _atom_site_fract_x
 _atom_site_fract_y
 _atom_site_fract_z
 _atom_site_occupancy
  Ba  Ba0  1  0.000000  0.000000  0.363689  1
  Ba  Ba1  1  0.666667  0.333333  0.958845  1
  Ba  Ba2  1  0.000000  0.000000  0.636311  1
  Ba  Ba3  1  0.000000  0.000000  0.864975  1
  Ba  Ba4  1  0.666667  0.333333  0.541262  1
  Ba  Ba5  1  0.333333  0.666667  0.458738  1
  Ba  Ba6  1  0.000000  0.000000  0.135025  1
  Ba  Ba7  1  0.333333  0.666667  0.041155  1
  Ba  Ba8  1  0.666667  0.333333  0.249268  1
  Ba  Ba9  1  0.333333  0.666667  0.750732  1
  Er  Er10  1  0.666667  0.333333  0.099583  1
  Er  Er11  1  0.333333  0.666667  0.900417  1
  Er  Er12  1  0.333333  0.666667  0.601697  1
  Er  Er13  1  0.666667  0.333333  0.398303  1
  Mn  Mn14  1  0.000000  0.000000  0.000000  1
  Al  Al15  1  0.666667  0.333333  0.820840  1
  Al  Al16  1  0.333333  0.666667  0.179160  1
  Al  Al17  1  0.666667  0.333333  0.680615  1
  Al  Al18  1  0.333333  0.666667  0.319385  1
  Ru  Ru19  1  0.000000  0.000000  0.500000  1
  O  O20  1  0.843967  0.687933  0.046793  1
  O  O21  1  0.840046  0.680092  0.451560  1
  O  O22  1  0.156033  0.843967  0.953207  1
  O  O23  1  0.159954  0.319908  0.548440  1
  O  O24  1  0.503447  0.496553  0.844232  1
  O  O25  1  0.843967  0.156033  0.046793  1
  O  O26  1  0.496553  0.993105  0.155768  1
  O  O27  1  0.006895  0.503447  0.155768  1
  O  O28  1  0.840046  0.159954  0.451560  1
  O  O29  1  0.312067  0.156033  0.046793  1
  O  O30  1  0.992497  0.496248  0.657382  1
  O  O31  1  0.503752  0.007503  0.657382  1
  O  O32  1  0.007503  0.503752  0.342618  1
  O  O33  1  0.680092  0.840046  0.548440  1
  O  O34  1  0.666667  0.333333  0.750724  1
  O  O35  1  0.496248  0.503752  0.342618  1
  O  O36  1  0.687933  0.843967  0.953207  1
  O  O37  1  0.503447  0.006895  0.844232  1
  O  O38  1  0.993105  0.496553  0.844232  1
  O  O39  1  0.503752  0.496248  0.657382  1
  O  O40  1  0.159954  0.840046  0.548440  1
  O  O41  1  0.156033  0.312067  0.953207  1
  O  O42  1  0.496553  0.503447  0.155768  1
  O  O43  1  0.319908  0.159954  0.451560  1
  O  O44  1  0.333333  0.666667  0.249276  1
  O  O45  1  0.496248  0.992497  0.342618  1
