# generated using pymatgen
data_Hf10Zn2(SnSb)3
_symmetry_space_group_name_H-M   'P 1'
_cell_length_a   8.61429200
_cell_length_b   8.61289193
_cell_length_c   5.79147300
_cell_angle_alpha   90.00000000
_cell_angle_beta   90.00000000
_cell_angle_gamma   120.00537743
_symmetry_Int_Tables_number   1
_chemical_formula_structural   Hf10Zn2(SnSb)3
_chemical_formula_sum   'Hf10 Zn2 Sn3 Sb3'
_cell_volume   372.10432602
_cell_formula_units_Z   1
loop_
 _symmetry_equiv_pos_site_id
 _symmetry_equiv_pos_as_xyz
  1  'x, y, z'
loop_
 _atom_site_type_symbol
 _atom_site_label
 _atom_site_symmetry_multiplicity
 _atom_site_fract_x
 _atom_site_fract_y
 _atom_site_fract_z
 _atom_site_occupancy
  Hf  Hf0  1  0.731109  0.731124  0.250000  1
  Hf  Hf1  1  0.731133  0.000000  0.750000  1
  Hf  Hf2  1  0.999986  0.268876  0.250000  1
  Hf  Hf3  1  0.999912  0.731223  0.750000  1
  Hf  Hf4  1  0.268689  0.268777  0.750000  1
  Hf  Hf5  1  0.268736  0.000000  0.250000  1
  Hf  Hf6  1  0.333523  0.666635  0.499742  1
  Hf  Hf7  1  0.666889  0.333365  0.000258  1
  Hf  Hf8  1  0.666889  0.333365  0.499742  1
  Hf  Hf9  1  0.333523  0.666635  0.000258  1
  Zn  Zn10  1  0.000815  0.000000  0.000278  1
  Zn  Zn11  1  0.000815  0.000000  0.499722  1
  Sn  Sn12  1  0.384787  0.000000  0.750000  1
  Sn  Sn13  1  0.385111  0.384925  0.250000  1
  Sn  Sn14  1  0.000186  0.615075  0.250000  1
  Sb  Sb15  1  0.000334  0.386408  0.750000  1
  Sb  Sb16  1  0.613926  0.613592  0.750000  1
  Sb  Sb17  1  0.613638  0.000000  0.250000  1
