# generated using pymatgen
data_CF11
_symmetry_space_group_name_H-M   'P 1'
_cell_length_a   7.60456862
_cell_length_b   7.60456734
_cell_length_c   7.60456681
_cell_angle_alpha   85.89198124
_cell_angle_beta   85.89198404
_cell_angle_gamma   85.89197484
_symmetry_Int_Tables_number   1
_chemical_formula_structural   CF11
_chemical_formula_sum   'C2 F22'
_cell_volume   436.53247162
_cell_formula_units_Z   2
loop_
 _symmetry_equiv_pos_site_id
 _symmetry_equiv_pos_as_xyz
  1  'x, y, z'
loop_
 _atom_site_type_symbol
 _atom_site_label
 _atom_site_symmetry_multiplicity
 _atom_site_fract_x
 _atom_site_fract_y
 _atom_site_fract_z
 _atom_site_occupancy
  C  C0  1  0.495302  0.495302  0.495302  1
  C  C1  1  0.995302  0.995302  0.995302  1
  F  F2  1  0.590632  0.590632  0.590632  1
  F  F3  1  0.090632  0.090632  0.090632  1
  F  F4  1  0.472913  0.581129  0.337016  1
  F  F5  1  0.337016  0.472913  0.581129  1
  F  F6  1  0.581129  0.337016  0.472913  1
  F  F7  1  0.972913  0.837016  0.081129  1
  F  F8  1  0.081129  0.972913  0.837016  1
  F  F9  1  0.837016  0.081129  0.972913  1
  F  F10  1  0.795453  0.943855  0.544161  1
  F  F11  1  0.544161  0.795453  0.943855  1
  F  F12  1  0.044161  0.443855  0.295453  1
  F  F13  1  0.443855  0.295453  0.044161  1
  F  F14  1  0.295453  0.044161  0.443855  1
  F  F15  1  0.943855  0.544161  0.795453  1
  F  F16  1  0.802625  0.051221  0.378663  1
  F  F17  1  0.378663  0.802625  0.051221  1
  F  F18  1  0.051221  0.378663  0.802625  1
  F  F19  1  0.302625  0.878663  0.551221  1
  F  F20  1  0.551221  0.302625  0.878663  1
  F  F21  1  0.878663  0.551221  0.302625  1
  F  F22  1  0.777531  0.777531  0.777531  1
  F  F23  1  0.277531  0.277531  0.277531  1
