# generated using pymatgen
data_Na3Ca(ReN3)2
_symmetry_space_group_name_H-M   'P 1'
_cell_length_a   6.13069647
_cell_length_b   6.13069710
_cell_length_c   12.09067306
_cell_angle_alpha   89.64164721
_cell_angle_beta   89.64164592
_cell_angle_gamma   122.67093941
_symmetry_Int_Tables_number   1
_chemical_formula_structural   Na3Ca(ReN3)2
_chemical_formula_sum   'Na6 Ca2 Re4 N12'
_cell_volume   382.50247728
_cell_formula_units_Z   2
loop_
 _symmetry_equiv_pos_site_id
 _symmetry_equiv_pos_as_xyz
  1  'x, y, z'
loop_
 _atom_site_type_symbol
 _atom_site_label
 _atom_site_symmetry_multiplicity
 _atom_site_fract_x
 _atom_site_fract_y
 _atom_site_fract_z
 _atom_site_occupancy
  Na  Na0  1  0.945135  0.544859  0.370869  1
  Na  Na1  1  0.455141  0.054865  0.129131  1
  Na  Na2  1  0.057386  0.453782  0.630210  1
  Na  Na3  1  0.546218  0.942614  0.869790  1
  Na  Na4  1  0.107092  0.338406  0.083517  1
  Na  Na5  1  0.661594  0.892908  0.416483  1
  Ca  Ca6  1  0.894940  0.670470  0.918037  1
  Ca  Ca7  1  0.329530  0.105060  0.581963  1
  Re  Re8  1  0.748502  0.732222  0.159987  1
  Re  Re9  1  0.267778  0.251498  0.340013  1
  Re  Re10  1  0.247915  0.268619  0.841946  1
  Re  Re11  1  0.731381  0.752085  0.658054  1
  N  N12  1  0.443120  0.556880  0.250000  1
  N  N13  1  0.555331  0.444669  0.750000  1
  N  N14  1  0.854421  0.527426  0.115794  1
  N  N15  1  0.472574  0.145579  0.384206  1
  N  N16  1  0.135040  0.472492  0.881276  1
  N  N17  1  0.527508  0.864960  0.618724  1
  N  N18  1  0.887195  0.698598  0.543870  1
  N  N19  1  0.301402  0.112805  0.956130  1
  N  N20  1  0.135132  0.306771  0.461235  1
  N  N21  1  0.693229  0.864868  0.038765  1
  N  N22  1  0.002732  0.997268  0.250000  1
  N  N23  1  0.999706  0.000294  0.750000  1
