# generated using pymatgen
data_Lu2U3O10
_symmetry_space_group_name_H-M   'P 1'
_cell_length_a   6.53374322
_cell_length_b   6.53374310
_cell_length_c   8.40056327
_cell_angle_alpha   49.71848624
_cell_angle_beta   49.71849106
_cell_angle_gamma   48.08186795
_symmetry_Int_Tables_number   1
_chemical_formula_structural   Lu2U3O10
_chemical_formula_sum   'Lu2 U3 O10'
_cell_volume   188.46326797
_cell_formula_units_Z   1
loop_
 _symmetry_equiv_pos_site_id
 _symmetry_equiv_pos_as_xyz
  1  'x, y, z'
loop_
 _atom_site_type_symbol
 _atom_site_label
 _atom_site_symmetry_multiplicity
 _atom_site_fract_x
 _atom_site_fract_y
 _atom_site_fract_z
 _atom_site_occupancy
  Lu  Lu0  1  0.301591  0.301591  0.096367  1
  Lu  Lu1  1  0.698409  0.698409  0.903633  1
  U  U2  1  0.096900  0.096900  0.704807  1
  U  U3  1  0.500000  0.500000  0.500000  1
  U  U4  1  0.903100  0.903100  0.295193  1
  O  O5  1  0.652780  0.152679  0.794118  1
  O  O6  1  0.152679  0.652780  0.794118  1
  O  O7  1  0.453732  0.950690  0.400040  1
  O  O8  1  0.950690  0.453732  0.400040  1
  O  O9  1  0.847321  0.347220  0.205882  1
  O  O10  1  0.247237  0.752763  0.000000  1
  O  O11  1  0.347220  0.847321  0.205882  1
  O  O12  1  0.752763  0.247237  0.000000  1
  O  O13  1  0.049310  0.546268  0.599960  1
  O  O14  1  0.546268  0.049310  0.599960  1
