# generated using pymatgen
data_CaTc2P2O11
_symmetry_space_group_name_H-M   'P 1'
_cell_length_a   9.21999553
_cell_length_b   9.21999593
_cell_length_c   5.18616435
_cell_angle_alpha   87.46992304
_cell_angle_beta   87.46992419
_cell_angle_gamma   71.34129352
_symmetry_Int_Tables_number   1
_chemical_formula_structural   CaTc2P2O11
_chemical_formula_sum   'Ca2 Tc4 P4 O22'
_cell_volume   417.07851406
_cell_formula_units_Z   2
loop_
 _symmetry_equiv_pos_site_id
 _symmetry_equiv_pos_as_xyz
  1  'x, y, z'
loop_
 _atom_site_type_symbol
 _atom_site_label
 _atom_site_symmetry_multiplicity
 _atom_site_fract_x
 _atom_site_fract_y
 _atom_site_fract_z
 _atom_site_occupancy
  Ca  Ca0  1  0.608020  0.391980  0.250000  1
  Ca  Ca1  1  0.391980  0.608020  0.750000  1
  Tc  Tc2  1  0.005904  0.242783  0.270680  1
  Tc  Tc3  1  0.242783  0.005904  0.770680  1
  Tc  Tc4  1  0.757217  0.994096  0.229320  1
  Tc  Tc5  1  0.994096  0.757217  0.729320  1
  P  P6  1  0.181840  0.520013  0.243671  1
  P  P7  1  0.818160  0.479987  0.756329  1
  P  P8  1  0.479987  0.818160  0.256329  1
  P  P9  1  0.520013  0.181840  0.743671  1
  O  O10  1  0.626520  0.071430  0.549533  1
  O  O11  1  0.098963  0.135935  0.556547  1
  O  O12  1  0.071430  0.626520  0.049533  1
  O  O13  1  0.835652  0.399049  0.489863  1
  O  O14  1  0.851676  0.148324  0.250000  1
  O  O15  1  0.399049  0.835652  0.989863  1
  O  O16  1  0.600951  0.164348  0.010137  1
  O  O17  1  0.369285  0.144867  0.795170  1
  O  O18  1  0.901037  0.864065  0.443453  1
  O  O19  1  0.135935  0.098963  0.056547  1
  O  O20  1  0.928570  0.373480  0.950467  1
  O  O21  1  0.513009  0.653733  0.361604  1
  O  O22  1  0.346267  0.486991  0.138396  1
  O  O23  1  0.855133  0.630715  0.704830  1
  O  O24  1  0.148324  0.851676  0.750000  1
  O  O25  1  0.864065  0.901037  0.943453  1
  O  O26  1  0.164348  0.600951  0.510137  1
  O  O27  1  0.630715  0.855133  0.204830  1
  O  O28  1  0.653733  0.513009  0.861604  1
  O  O29  1  0.373480  0.928570  0.450467  1
  O  O30  1  0.486991  0.346267  0.638396  1
  O  O31  1  0.144867  0.369285  0.295170  1
