# generated using pymatgen
data_Tm2Mn5Fe3(P3W)2
_symmetry_space_group_name_H-M   'P 1'
_cell_length_a   3.66225600
_cell_length_b   10.55498000
_cell_length_c   12.22244000
_cell_angle_alpha   90.00000000
_cell_angle_beta   90.00000000
_cell_angle_gamma   90.00000000
_symmetry_Int_Tables_number   1
_chemical_formula_structural   Tm2Mn5Fe3(P3W)2
_chemical_formula_sum   'Tm4 Mn10 Fe6 P12 W4'
_cell_volume   472.45889286
_cell_formula_units_Z   2
loop_
 _symmetry_equiv_pos_site_id
 _symmetry_equiv_pos_as_xyz
  1  'x, y, z'
loop_
 _atom_site_type_symbol
 _atom_site_label
 _atom_site_symmetry_multiplicity
 _atom_site_fract_x
 _atom_site_fract_y
 _atom_site_fract_z
 _atom_site_occupancy
  Tm  Tm0  1  0.250000  0.581071  0.711145  1
  Tm  Tm1  1  0.250000  0.918929  0.211145  1
  Tm  Tm2  1  0.750000  0.415125  0.291036  1
  Tm  Tm3  1  0.750000  0.084875  0.791036  1
  Mn  Mn4  1  0.250000  0.406930  0.493158  1
  Mn  Mn5  1  0.250000  0.093070  0.993158  1
  Mn  Mn6  1  0.750000  0.589826  0.506904  1
  Mn  Mn7  1  0.750000  0.910174  0.006904  1
  Mn  Mn8  1  0.250000  0.216688  0.176190  1
  Mn  Mn9  1  0.250000  0.283312  0.676190  1
  Mn  Mn10  1  0.750000  0.782315  0.822603  1
  Mn  Mn11  1  0.750000  0.717685  0.322603  1
  Mn  Mn12  1  0.250000  0.877318  0.697913  1
  Mn  Mn13  1  0.250000  0.622682  0.197913  1
  Fe  Fe14  1  0.750000  0.122198  0.301899  1
  Fe  Fe15  1  0.750000  0.377802  0.801899  1
  Fe  Fe16  1  0.250000  0.463384  0.935099  1
  Fe  Fe17  1  0.250000  0.036616  0.435099  1
  Fe  Fe18  1  0.750000  0.537581  0.066075  1
  Fe  Fe19  1  0.750000  0.962419  0.566075  1
  P  P20  1  0.250000  0.425391  0.113954  1
  P  P21  1  0.250000  0.074609  0.613954  1
  P  P22  1  0.750000  0.571801  0.885978  1
  P  P23  1  0.750000  0.928199  0.385978  1
  P  P24  1  0.250000  0.268626  0.865781  1
  P  P25  1  0.250000  0.231374  0.365781  1
  P  P26  1  0.750000  0.738336  0.131401  1
  P  P27  1  0.750000  0.761664  0.631401  1
  P  P28  1  0.250000  0.589216  0.384699  1
  P  P29  1  0.250000  0.910784  0.884699  1
  P  P30  1  0.750000  0.409175  0.616873  1
  P  P31  1  0.750000  0.090825  0.116873  1
  W  W32  1  0.250000  0.705953  0.986603  1
  W  W33  1  0.250000  0.794047  0.486603  1
  W  W34  1  0.750000  0.295214  0.012687  1
  W  W35  1  0.750000  0.204786  0.512687  1
