# generated using pymatgen
data_Nd5HoIr18
_symmetry_space_group_name_H-M   'P 1'
_cell_length_a   5.38069100
_cell_length_b   5.38069030
_cell_length_c   17.60710100
_cell_angle_alpha   90.00000000
_cell_angle_beta   90.00000000
_cell_angle_gamma   120.00001045
_symmetry_Int_Tables_number   1
_chemical_formula_structural   Nd5HoIr18
_chemical_formula_sum   'Nd5 Ho1 Ir18'
_cell_volume   441.46318234
_cell_formula_units_Z   1
loop_
 _symmetry_equiv_pos_site_id
 _symmetry_equiv_pos_as_xyz
  1  'x, y, z'
loop_
 _atom_site_type_symbol
 _atom_site_label
 _atom_site_symmetry_multiplicity
 _atom_site_fract_x
 _atom_site_fract_y
 _atom_site_fract_z
 _atom_site_occupancy
  Nd  Nd0  1  0.666667  0.333333  0.040363  1
  Nd  Nd1  1  0.666667  0.333333  0.458728  1
  Nd  Nd2  1  0.333333  0.666667  0.540519  1
  Nd  Nd3  1  0.333333  0.666667  0.751247  1
  Nd  Nd4  1  0.666667  0.333333  0.249587  1
  Ho  Ho5  1  0.333333  0.666667  0.958836  1
  Ir  Ir6  1  0.166296  0.833704  0.371010  1
  Ir  Ir7  1  0.166296  0.332592  0.371010  1
  Ir  Ir8  1  0.667408  0.833704  0.371010  1
  Ir  Ir9  1  0.833693  0.166307  0.628229  1
  Ir  Ir10  1  0.833693  0.667386  0.628229  1
  Ir  Ir11  1  0.332614  0.166307  0.628229  1
  Ir  Ir12  1  0.833299  0.166701  0.873871  1
  Ir  Ir13  1  0.833299  0.666595  0.873871  1
  Ir  Ir14  1  0.333405  0.166701  0.873871  1
  Ir  Ir15  1  0.166888  0.833112  0.127267  1
  Ir  Ir16  1  0.166888  0.333776  0.127267  1
  Ir  Ir17  1  0.666224  0.833112  0.127267  1
  Ir  Ir18  1  0.333333  0.666667  0.249544  1
  Ir  Ir19  1  0.666667  0.333333  0.750567  1
  Ir  Ir20  1  0.000000  0.000000  0.248989  1
  Ir  Ir21  1  0.000000  0.000000  0.750825  1
  Ir  Ir22  1  0.000000  0.000000  0.499589  1
  Ir  Ir23  1  0.000000  0.000000  0.000076  1
