# generated using pymatgen
data_Tb6Y6Si11Ni
_symmetry_space_group_name_H-M   'P 1'
_cell_length_a   3.86766900
_cell_length_b   5.73077764
_cell_length_c   23.84296257
_cell_angle_alpha   82.74226732
_cell_angle_beta   90.00000000
_cell_angle_gamma   90.00000000
_symmetry_Int_Tables_number   1
_chemical_formula_structural   Tb6Y6Si11Ni
_chemical_formula_sum   'Tb6 Y6 Si11 Ni1'
_cell_volume   524.23915213
_cell_formula_units_Z   1
loop_
 _symmetry_equiv_pos_site_id
 _symmetry_equiv_pos_as_xyz
  1  'x, y, z'
loop_
 _atom_site_type_symbol
 _atom_site_label
 _atom_site_symmetry_multiplicity
 _atom_site_fract_x
 _atom_site_fract_y
 _atom_site_fract_z
 _atom_site_occupancy
  Tb  Tb0  1  0.750000  0.356481  0.066126  1
  Tb  Tb1  1  0.750000  0.519029  0.220726  1
  Tb  Tb2  1  0.750000  0.167264  0.392375  1
  Tb  Tb3  1  0.750000  0.353168  0.559414  1
  Tb  Tb4  1  0.750000  0.996676  0.726891  1
  Tb  Tb5  1  0.750000  0.169364  0.893856  1
  Y  Y6  1  0.250000  0.660174  0.940897  1
  Y  Y7  1  0.250000  0.469785  0.773756  1
  Y  Y8  1  0.250000  0.829260  0.606532  1
  Y  Y9  1  0.250000  0.643673  0.439047  1
  Y  Y10  1  0.250000  0.994043  0.271943  1
  Y  Y11  1  0.250000  0.837613  0.108190  1
  Si  Si12  1  0.750000  0.877301  0.013446  1
  Si  Si13  1  0.250000  0.147736  0.989525  1
  Si  Si14  1  0.750000  0.050876  0.178786  1
  Si  Si15  1  0.250000  0.955595  0.821511  1
  Si  Si16  1  0.750000  0.701321  0.344315  1
  Si  Si17  1  0.250000  0.292588  0.654103  1
  Si  Si18  1  0.750000  0.864824  0.511745  1
  Si  Si19  1  0.250000  0.132980  0.486822  1
  Si  Si20  1  0.750000  0.534868  0.679132  1
  Si  Si21  1  0.250000  0.462112  0.318436  1
  Si  Si22  1  0.750000  0.683865  0.846261  1
  Ni  Ni23  1  0.250000  0.299405  0.156162  1
