# generated using pymatgen
data_La20Ge8Ir3Rh
_symmetry_space_group_name_H-M   'P 1'
_cell_length_a   8.20111800
_cell_length_b   9.02283500
_cell_length_c   12.62320500
_cell_angle_alpha   89.99715689
_cell_angle_beta   90.00084131
_cell_angle_gamma   90.00089799
_symmetry_Int_Tables_number   1
_chemical_formula_structural   La20Ge8Ir3Rh
_chemical_formula_sum   'La20 Ge8 Ir3 Rh1'
_cell_volume   934.08352254
_cell_formula_units_Z   1
loop_
 _symmetry_equiv_pos_site_id
 _symmetry_equiv_pos_as_xyz
  1  'x, y, z'
loop_
 _atom_site_type_symbol
 _atom_site_label
 _atom_site_symmetry_multiplicity
 _atom_site_fract_x
 _atom_site_fract_y
 _atom_site_fract_z
 _atom_site_occupancy
  La  La0  1  0.680662  0.465492  0.073849  1
  La  La1  1  0.181205  0.533795  0.425807  1
  La  La2  1  0.319368  0.965375  0.926145  1
  La  La3  1  0.819208  0.034298  0.573955  1
  La  La4  1  0.319369  0.534626  0.926131  1
  La  La5  1  0.819185  0.465721  0.573963  1
  La  La6  1  0.680655  0.034494  0.073874  1
  La  La7  1  0.181205  0.966204  0.425824  1
  La  La8  1  0.956965  0.750014  0.999717  1
  La  La9  1  0.457329  0.249991  0.500272  1
  La  La10  1  0.042929  0.250004  0.999993  1
  La  La11  1  0.542677  0.750001  0.500115  1
  La  La12  1  0.354809  0.750002  0.204108  1
  La  La13  1  0.855185  0.250005  0.296152  1
  La  La14  1  0.644919  0.249995  0.795768  1
  La  La15  1  0.145598  0.749986  0.704570  1
  La  La16  1  0.832007  0.750006  0.284301  1
  La  La17  1  0.332430  0.249995  0.214713  1
  La  La18  1  0.167341  0.249994  0.714559  1
  La  La19  1  0.667335  0.750013  0.785365  1
  Ge  Ge20  1  0.561757  0.495154  0.328948  1
  Ge  Ge21  1  0.061399  0.505139  0.171357  1
  Ge  Ge22  1  0.438504  0.994940  0.671084  1
  Ge  Ge23  1  0.938540  0.004791  0.828549  1
  Ge  Ge24  1  0.438469  0.505037  0.671091  1
  Ge  Ge25  1  0.938523  0.495208  0.828556  1
  Ge  Ge26  1  0.561793  0.004837  0.328946  1
  Ge  Ge27  1  0.061477  0.994882  0.171331  1
  Ir  Ir28  1  0.578174  0.750001  0.015487  1
  Ir  Ir29  1  0.077822  0.250001  0.484660  1
  Ir  Ir30  1  0.422187  0.250000  0.984801  1
  Rh  Rh31  1  0.920974  0.749998  0.516007  1
