# generated using pymatgen
data_Cs3K3(AgPb4)2
_symmetry_space_group_name_H-M   'P 1'
_cell_length_a   7.13124101
_cell_length_b   7.34470300
_cell_length_c   13.19003493
_cell_angle_alpha   90.00000000
_cell_angle_beta   89.87258161
_cell_angle_gamma   90.00000000
_symmetry_Int_Tables_number   1
_chemical_formula_structural   Cs3K3(AgPb4)2
_chemical_formula_sum   'Cs3 K3 Ag2 Pb8'
_cell_volume   690.85073609
_cell_formula_units_Z   1
loop_
 _symmetry_equiv_pos_site_id
 _symmetry_equiv_pos_as_xyz
  1  'x, y, z'
loop_
 _atom_site_type_symbol
 _atom_site_label
 _atom_site_symmetry_multiplicity
 _atom_site_fract_x
 _atom_site_fract_y
 _atom_site_fract_z
 _atom_site_occupancy
  Cs  Cs0  1  0.434345  0.500000  0.497340  1
  Cs  Cs1  1  0.565224  0.000000  0.001590  1
  Cs  Cs2  1  0.832360  0.500000  0.745263  1
  K  K3  1  0.165032  0.000000  0.751569  1
  K  K4  1  0.162771  0.000000  0.248553  1
  K  K5  1  0.837626  0.500000  0.252123  1
  Ag  Ag6  1  0.302788  0.000000  0.499779  1
  Ag  Ag7  1  0.697211  0.500000  0.005456  1
  Pb  Pb8  1  0.050130  0.270712  0.004020  1
  Pb  Pb9  1  0.050130  0.729288  0.004020  1
  Pb  Pb10  1  0.339185  0.500000  0.880679  1
  Pb  Pb11  1  0.340158  0.500000  0.127869  1
  Pb  Pb12  1  0.659455  0.000000  0.372474  1
  Pb  Pb13  1  0.661673  0.000000  0.619814  1
  Pb  Pb14  1  0.950955  0.772916  0.494726  1
  Pb  Pb15  1  0.950955  0.227084  0.494726  1
