# generated using pymatgen
data_Ce4Co3Ru9C10
_symmetry_space_group_name_H-M   'P 1'
_cell_length_a   8.83839680
_cell_length_b   8.93335471
_cell_length_c   4.15749300
_cell_angle_alpha   90.00000000
_cell_angle_beta   90.00000000
_cell_angle_gamma   89.53913578
_symmetry_Int_Tables_number   1
_chemical_formula_structural   Ce4Co3Ru9C10
_chemical_formula_sum   'Ce4 Co3 Ru9 C10'
_cell_volume   328.25061726
_cell_formula_units_Z   1
loop_
 _symmetry_equiv_pos_site_id
 _symmetry_equiv_pos_as_xyz
  1  'x, y, z'
loop_
 _atom_site_type_symbol
 _atom_site_label
 _atom_site_symmetry_multiplicity
 _atom_site_fract_x
 _atom_site_fract_y
 _atom_site_fract_z
 _atom_site_occupancy
  Ce  Ce0  1  0.321380  0.820472  0.500000  1
  Ce  Ce1  1  0.824372  0.681445  0.500000  1
  Ce  Ce2  1  0.176211  0.322608  0.500000  1
  Ce  Ce3  1  0.678500  0.174644  0.500000  1
  Co  Co4  1  0.719229  0.437861  0.000000  1
  Co  Co5  1  0.498241  0.996099  0.000000  1
  Co  Co6  1  0.994314  0.502374  0.000000  1
  Ru  Ru7  1  0.442945  0.280372  0.000000  1
  Ru  Ru8  1  0.998551  0.003525  0.500000  1
  Ru  Ru9  1  0.512661  0.494710  0.500000  1
  Ru  Ru10  1  0.782205  0.936249  0.000000  1
  Ru  Ru11  1  0.929414  0.222897  0.000000  1
  Ru  Ru12  1  0.065787  0.783404  0.000000  1
  Ru  Ru13  1  0.216615  0.067992  0.000000  1
  Ru  Ru14  1  0.567809  0.713289  0.000000  1
  Ru  Ru15  1  0.285296  0.559290  0.000000  1
  C  C16  1  0.508739  0.495746  0.000000  1
  C  C17  1  0.998896  0.003517  0.000000  1
  C  C18  1  0.872730  0.390433  0.672277  1
  C  C19  1  0.116835  0.614366  0.672452  1
  C  C20  1  0.872730  0.390433  0.327723  1
  C  C21  1  0.384914  0.115104  0.328679  1
  C  C22  1  0.614936  0.881850  0.328453  1
  C  C23  1  0.116835  0.614366  0.327548  1
  C  C24  1  0.614936  0.881850  0.671547  1
  C  C25  1  0.384914  0.115104  0.671321  1
