# generated using pymatgen
data_NaVPbF6
_symmetry_space_group_name_H-M   'P 1'
_cell_length_a   5.55271200
_cell_length_b   9.57792400
_cell_length_c   10.67375500
_cell_angle_alpha   90.00000000
_cell_angle_beta   90.00000000
_cell_angle_gamma   90.00000000
_symmetry_Int_Tables_number   1
_chemical_formula_structural   NaVPbF6
_chemical_formula_sum   'Na4 V4 Pb4 F24'
_cell_volume   567.66715303
_cell_formula_units_Z   4
loop_
 _symmetry_equiv_pos_site_id
 _symmetry_equiv_pos_as_xyz
  1  'x, y, z'
loop_
 _atom_site_type_symbol
 _atom_site_label
 _atom_site_symmetry_multiplicity
 _atom_site_fract_x
 _atom_site_fract_y
 _atom_site_fract_z
 _atom_site_occupancy
  Na  Na0  1  0.044957  0.647753  0.086340  1
  Na  Na1  1  0.455043  0.352247  0.586339  1
  Na  Na2  1  0.955043  0.147753  0.413661  1
  Na  Na3  1  0.544957  0.852247  0.913661  1
  V  V4  1  0.038905  0.000087  0.126301  1
  V  V5  1  0.461095  0.999913  0.626301  1
  V  V6  1  0.961095  0.500087  0.373699  1
  V  V7  1  0.538905  0.499913  0.873699  1
  Pb  Pb8  1  0.507292  0.319651  0.175594  1
  Pb  Pb9  1  0.992708  0.680349  0.675594  1
  Pb  Pb10  1  0.492708  0.819651  0.324406  1
  Pb  Pb11  1  0.007292  0.180349  0.824406  1
  F  F12  1  0.215246  0.142727  0.581404  1
  F  F13  1  0.284754  0.857273  0.081404  1
  F  F14  1  0.784754  0.642727  0.918596  1
  F  F15  1  0.715246  0.357273  0.418596  1
  F  F16  1  0.206302  0.623764  0.297524  1
  F  F17  1  0.293698  0.376236  0.797524  1
  F  F18  1  0.793698  0.123764  0.202476  1
  F  F19  1  0.706302  0.876236  0.702476  1
  F  F20  1  0.214239  0.159127  0.051018  1
  F  F21  1  0.285761  0.840873  0.551018  1
  F  F22  1  0.785761  0.659127  0.448982  1
  F  F23  1  0.714239  0.340873  0.948982  1
  F  F24  1  0.155764  0.340745  0.316879  1
  F  F25  1  0.344236  0.659255  0.816879  1
  F  F26  1  0.844236  0.840745  0.183121  1
  F  F27  1  0.655764  0.159255  0.683121  1
  F  F28  1  0.360380  0.504827  0.036202  1
  F  F29  1  0.139620  0.495173  0.536202  1
  F  F30  1  0.639620  0.004827  0.463798  1
  F  F31  1  0.860380  0.995173  0.963798  1
  F  F32  1  0.216879  0.016883  0.287448  1
  F  F33  1  0.283121  0.983117  0.787448  1
  F  F34  1  0.783121  0.516883  0.212552  1
  F  F35  1  0.716879  0.483117  0.712552  1
