# generated using pymatgen
data_VZn3P7N12
_symmetry_space_group_name_H-M   'P 1'
_cell_length_a   7.16299794
_cell_length_b   7.15133492
_cell_length_c   7.16299819
_cell_angle_alpha   109.43825357
_cell_angle_beta   109.50417421
_cell_angle_gamma   109.43824761
_symmetry_Int_Tables_number   1
_chemical_formula_structural   VZn3P7N12
_chemical_formula_sum   'V1 Zn3 P7 N12'
_cell_volume   282.57349611
_cell_formula_units_Z   1
loop_
 _symmetry_equiv_pos_site_id
 _symmetry_equiv_pos_as_xyz
  1  'x, y, z'
loop_
 _atom_site_type_symbol
 _atom_site_label
 _atom_site_symmetry_multiplicity
 _atom_site_fract_x
 _atom_site_fract_y
 _atom_site_fract_z
 _atom_site_occupancy
  V  V0  1  0.000000  0.341348  0.000000  1
  Zn  Zn1  1  0.677572  0.677266  0.677572  1
  Zn  Zn2  1  0.322428  0.999693  0.000000  1
  Zn  Zn3  1  0.000000  0.999693  0.322428  1
  P  P4  1  0.750231  0.248860  0.498101  1
  P  P5  1  0.252130  0.750759  0.501899  1
  P  P6  1  0.501899  0.750759  0.252130  1
  P  P7  1  0.498101  0.248860  0.750231  1
  P  P8  1  0.747870  0.498629  0.249769  1
  P  P9  1  0.249769  0.498629  0.747870  1
  P  P10  1  0.000000  0.005965  0.000000  1
  N  N11  1  0.558560  0.267877  0.000000  1
  N  N12  1  0.447042  0.446387  0.719325  1
  N  N13  1  0.000000  0.267877  0.558560  1
  N  N14  1  0.272283  0.999345  0.552958  1
  N  N15  1  0.719325  0.446387  0.447042  1
  N  N16  1  0.000000  0.553064  0.270315  1
  N  N17  1  0.552958  0.999345  0.272283  1
  N  N18  1  0.441440  0.709317  0.441440  1
  N  N19  1  0.270315  0.553064  0.000000  1
  N  N20  1  0.729685  0.282749  0.729685  1
  N  N21  1  0.727717  0.727062  0.280675  1
  N  N22  1  0.280675  0.727062  0.727717  1
