# generated using pymatgen
data_Yb3Dy(GaNi)4
_symmetry_space_group_name_H-M   'P 1'
_cell_length_a   4.03291600
_cell_length_b   6.84698763
_cell_length_c   7.65987189
_cell_angle_alpha   90.58027826
_cell_angle_beta   90.00000000
_cell_angle_gamma   90.00000000
_symmetry_Int_Tables_number   1
_chemical_formula_structural   Yb3Dy(GaNi)4
_chemical_formula_sum   'Yb3 Dy1 Ga4 Ni4'
_cell_volume   211.50369162
_cell_formula_units_Z   1
loop_
 _symmetry_equiv_pos_site_id
 _symmetry_equiv_pos_as_xyz
  1  'x, y, z'
loop_
 _atom_site_type_symbol
 _atom_site_label
 _atom_site_symmetry_multiplicity
 _atom_site_fract_x
 _atom_site_fract_y
 _atom_site_fract_z
 _atom_site_occupancy
  Yb  Yb0  1  0.250000  0.529003  0.179780  1
  Yb  Yb1  1  0.750000  0.969882  0.683252  1
  Yb  Yb2  1  0.750000  0.469765  0.819052  1
  Dy  Dy3  1  0.250000  0.031478  0.318171  1
  Ga  Ga4  1  0.250000  0.147366  0.934984  1
  Ga  Ga5  1  0.250000  0.645679  0.564063  1
  Ga  Ga6  1  0.750000  0.851150  0.062287  1
  Ga  Ga7  1  0.750000  0.356600  0.436761  1
  Ni  Ni8  1  0.250000  0.276724  0.623506  1
  Ni  Ni9  1  0.250000  0.778923  0.877754  1
  Ni  Ni10  1  0.750000  0.723580  0.375603  1
  Ni  Ni11  1  0.750000  0.219851  0.124789  1
