# generated using pymatgen
data_Y4Ga17SiRh6
_symmetry_space_group_name_H-M   'P 1'
_cell_length_a   7.58037684
_cell_length_b   7.55263578
_cell_length_c   9.51771006
_cell_angle_alpha   90.04680046
_cell_angle_beta   89.89765907
_cell_angle_gamma   119.88310974
_symmetry_Int_Tables_number   1
_chemical_formula_structural   Y4Ga17SiRh6
_chemical_formula_sum   'Y4 Ga17 Si1 Rh6'
_cell_volume   472.45677558
_cell_formula_units_Z   1
loop_
 _symmetry_equiv_pos_site_id
 _symmetry_equiv_pos_as_xyz
  1  'x, y, z'
loop_
 _atom_site_type_symbol
 _atom_site_label
 _atom_site_symmetry_multiplicity
 _atom_site_fract_x
 _atom_site_fract_y
 _atom_site_fract_z
 _atom_site_occupancy
  Y  Y0  1  0.995810  0.663611  0.247696  1
  Y  Y1  1  0.003515  0.330967  0.752315  1
  Y  Y2  1  0.674163  0.003030  0.247754  1
  Y  Y3  1  0.329840  0.002567  0.749661  1
  Ga  Ga4  1  0.128345  0.127685  0.250531  1
  Ga  Ga5  1  0.872103  0.874158  0.750506  1
  Ga  Ga6  1  0.998934  0.670736  0.918642  1
  Ga  Ga7  1  0.000088  0.665458  0.578800  1
  Ga  Ga8  1  0.333817  0.998322  0.420283  1
  Ga  Ga9  1  0.000389  0.334727  0.422541  1
  Ga  Ga10  1  0.665444  0.999973  0.578866  1
  Ga  Ga11  1  0.659022  0.995019  0.918592  1
  Ga  Ga12  1  0.333198  0.998409  0.080122  1
  Ga  Ga13  1  0.333750  0.332888  0.565472  1
  Ga  Ga14  1  0.668307  0.668715  0.434094  1
  Ga  Ga15  1  0.667026  0.668605  0.067929  1
  Ga  Ga16  1  0.338824  0.333031  0.933108  1
  Ga  Ga17  1  0.339025  0.547293  0.250961  1
  Ga  Ga18  1  0.663230  0.451561  0.751104  1
  Ga  Ga19  1  0.546640  0.338169  0.250530  1
  Ga  Ga20  1  0.450865  0.659554  0.750301  1
  Si  Si21  1  0.000945  0.334518  0.074204  1
  Rh  Rh22  1  0.684215  0.329954  0.003726  1
  Rh  Rh23  1  0.314486  0.657632  0.001351  1
  Rh  Rh24  1  0.328448  0.671433  0.499960  1
  Rh  Rh25  1  0.671568  0.328474  0.499907  1
  Rh  Rh26  1  0.998014  0.013202  0.001168  1
  Rh  Rh27  1  0.999987  0.000307  0.499872  1
