# generated using pymatgen
data_Tb7ErTi11Si16Hg
_symmetry_space_group_name_H-M   'P 1'
_cell_length_a   7.09519015
_cell_length_b   7.09652295
_cell_length_c   12.95517706
_cell_angle_alpha   90.10023896
_cell_angle_beta   89.91377256
_cell_angle_gamma   89.56969571
_symmetry_Int_Tables_number   1
_chemical_formula_structural   Tb7ErTi11Si16Hg
_chemical_formula_sum   'Tb7 Er1 Ti11 Si16 Hg1'
_cell_volume   652.28830227
_cell_formula_units_Z   1
loop_
 _symmetry_equiv_pos_site_id
 _symmetry_equiv_pos_as_xyz
  1  'x, y, z'
loop_
 _atom_site_type_symbol
 _atom_site_label
 _atom_site_symmetry_multiplicity
 _atom_site_fract_x
 _atom_site_fract_y
 _atom_site_fract_z
 _atom_site_occupancy
  Tb  Tb0  1  0.497437  0.839145  0.715807  1
  Tb  Tb1  1  0.501236  0.157856  0.215092  1
  Tb  Tb2  1  0.838951  0.497587  0.284044  1
  Tb  Tb3  1  0.157964  0.501311  0.785020  1
  Tb  Tb4  1  0.657188  0.000268  0.968359  1
  Tb  Tb5  1  0.002709  0.340520  0.533013  1
  Tb  Tb6  1  0.000285  0.657197  0.031622  1
  Er  Er7  1  0.341285  0.001651  0.467087  1
  Ti  Ti8  1  0.173732  0.826752  0.250843  1
  Ti  Ti9  1  0.826689  0.173620  0.749270  1
  Ti  Ti10  1  0.672645  0.673163  0.499974  1
  Ti  Ti11  1  0.148049  0.008911  0.877199  1
  Ti  Ti12  1  0.495032  0.650637  0.124128  1
  Ti  Ti13  1  0.507568  0.350493  0.624622  1
  Ti  Ti14  1  0.650561  0.495061  0.875899  1
  Ti  Ti15  1  0.350600  0.507873  0.375331  1
  Ti  Ti16  1  0.848980  0.991140  0.375057  1
  Ti  Ti17  1  0.009046  0.147904  0.122779  1
  Ti  Ti18  1  0.991304  0.848948  0.624843  1
  Si  Si19  1  0.201452  0.130617  0.684354  1
  Si  Si20  1  0.374654  0.724043  0.928251  1
  Si  Si21  1  0.629551  0.294360  0.433669  1
  Si  Si22  1  0.724001  0.374622  0.071733  1
  Si  Si23  1  0.295121  0.631053  0.566116  1
  Si  Si24  1  0.798712  0.868545  0.183875  1
  Si  Si25  1  0.131334  0.200553  0.315831  1
  Si  Si26  1  0.868463  0.798715  0.816090  1
  Si  Si27  1  0.285566  0.932990  0.067652  1
  Si  Si28  1  0.545732  0.791380  0.315265  1
  Si  Si29  1  0.458961  0.205769  0.805242  1
  Si  Si30  1  0.790773  0.546335  0.685164  1
  Si  Si31  1  0.205827  0.459003  0.194740  1
  Si  Si32  1  0.709105  0.047611  0.563943  1
  Si  Si33  1  0.932973  0.285552  0.932299  1
  Si  Si34  1  0.048368  0.710645  0.435791  1
  Hg  Hg35  1  0.328145  0.328172  0.999997  1
