# generated using pymatgen
data_Tb4CeZn2Ru3
_symmetry_space_group_name_H-M   'P 1'
_cell_length_a   8.47899752
_cell_length_b   8.38671050
_cell_length_c   8.35501900
_cell_angle_alpha   109.92073188
_cell_angle_beta   109.35932414
_cell_angle_gamma   110.26740530
_symmetry_Int_Tables_number   1
_chemical_formula_structural   Tb4CeZn2Ru3
_chemical_formula_sum   'Tb8 Ce2 Zn4 Ru6'
_cell_volume   450.82899659
_cell_formula_units_Z   2
loop_
 _symmetry_equiv_pos_site_id
 _symmetry_equiv_pos_as_xyz
  1  'x, y, z'
loop_
 _atom_site_type_symbol
 _atom_site_label
 _atom_site_symmetry_multiplicity
 _atom_site_fract_x
 _atom_site_fract_y
 _atom_site_fract_z
 _atom_site_occupancy
  Tb  Tb0  1  0.775821  0.780412  0.774558  1
  Tb  Tb1  1  0.317314  0.565291  0.753972  1
  Tb  Tb2  1  0.750844  0.316307  0.567292  1
  Tb  Tb3  1  0.568817  0.749706  0.314373  1
  Tb  Tb4  1  0.726558  0.503583  0.998362  1
  Tb  Tb5  1  0.998575  0.725683  0.505490  1
  Tb  Tb6  1  0.500711  0.992401  0.721366  1
  Tb  Tb7  1  0.253291  0.187841  0.933096  1
  Ce  Ce8  1  0.944003  0.250892  0.195190  1
  Ce  Ce9  1  0.198160  0.943646  0.250336  1
  Zn  Zn10  1  0.420015  0.415470  0.413652  1
  Zn  Zn11  1  0.088960  0.491477  0.998116  1
  Zn  Zn12  1  0.999094  0.087445  0.501002  1
  Zn  Zn13  1  0.502972  0.011395  0.091129  1
  Ru  Ru14  1  0.860890  0.110032  0.736832  1
  Ru  Ru15  1  0.755218  0.898824  0.116452  1
  Ru  Ru16  1  0.123866  0.766869  0.908595  1
  Ru  Ru17  1  0.218812  0.589372  0.370921  1
  Ru  Ru18  1  0.365246  0.220027  0.598426  1
  Ru  Ru19  1  0.630830  0.393326  0.250837  1
