# generated using pymatgen
data_GaCu6WS8
_symmetry_space_group_name_H-M   'P 1'
_cell_length_a   7.56442900
_cell_length_b   7.56442903
_cell_length_c   12.47706400
_cell_angle_alpha   90.00000000
_cell_angle_beta   90.00000000
_cell_angle_gamma   119.99999550
_symmetry_Int_Tables_number   1
_chemical_formula_structural   GaCu6WS8
_chemical_formula_sum   'Ga2 Cu12 W2 S16'
_cell_volume   618.29446344
_cell_formula_units_Z   2
loop_
 _symmetry_equiv_pos_site_id
 _symmetry_equiv_pos_as_xyz
  1  'x, y, z'
loop_
 _atom_site_type_symbol
 _atom_site_label
 _atom_site_symmetry_multiplicity
 _atom_site_fract_x
 _atom_site_fract_y
 _atom_site_fract_z
 _atom_site_occupancy
  Ga  Ga0  1  0.000000  0.000000  0.852083  1
  Ga  Ga1  1  0.000000  0.000000  0.352083  1
  Cu  Cu2  1  0.839332  0.678666  0.106124  1
  Cu  Cu3  1  0.504295  0.495705  0.352850  1
  Cu  Cu4  1  0.008590  0.504295  0.852850  1
  Cu  Cu5  1  0.839332  0.160668  0.106124  1
  Cu  Cu6  1  0.495705  0.504295  0.852850  1
  Cu  Cu7  1  0.160668  0.321334  0.606124  1
  Cu  Cu8  1  0.504295  0.008590  0.352850  1
  Cu  Cu9  1  0.991410  0.495705  0.352850  1
  Cu  Cu10  1  0.160668  0.839332  0.606124  1
  Cu  Cu11  1  0.495705  0.991410  0.852850  1
  Cu  Cu12  1  0.678666  0.839332  0.606124  1
  Cu  Cu13  1  0.321334  0.160668  0.106124  1
  W  W14  1  0.333333  0.666667  0.480732  1
  W  W15  1  0.666667  0.333333  0.980732  1
  S  S16  1  0.000000  0.000000  0.037284  1
  S  S17  1  0.333946  0.166973  0.289587  1
  S  S18  1  0.833027  0.166973  0.289587  1
  S  S19  1  0.006682  0.503342  0.540334  1
  S  S20  1  0.833027  0.666054  0.289587  1
  S  S21  1  0.666667  0.333333  0.799218  1
  S  S22  1  0.166973  0.333946  0.789587  1
  S  S23  1  0.496658  0.503342  0.540334  1
  S  S24  1  0.000000  0.000000  0.537284  1
  S  S25  1  0.333333  0.666667  0.299218  1
  S  S26  1  0.993318  0.496658  0.040334  1
  S  S27  1  0.496658  0.993318  0.540334  1
  S  S28  1  0.166973  0.833027  0.789587  1
  S  S29  1  0.666054  0.833027  0.789587  1
  S  S30  1  0.503342  0.006682  0.040334  1
  S  S31  1  0.503342  0.496658  0.040334  1
