# generated using pymatgen
data_Rb2Sn(TeO4)3
_symmetry_space_group_name_H-M   'P 1'
_cell_length_a   7.29798372
_cell_length_b   7.29798334
_cell_length_c   7.29799677
_cell_angle_alpha   60.31267040
_cell_angle_beta   60.31267105
_cell_angle_gamma   60.30564396
_symmetry_Int_Tables_number   1
_chemical_formula_structural   Rb2Sn(TeO4)3
_chemical_formula_sum   'Rb2 Sn1 Te3 O12'
_cell_volume   276.77916292
_cell_formula_units_Z   1
loop_
 _symmetry_equiv_pos_site_id
 _symmetry_equiv_pos_as_xyz
  1  'x, y, z'
loop_
 _atom_site_type_symbol
 _atom_site_label
 _atom_site_symmetry_multiplicity
 _atom_site_fract_x
 _atom_site_fract_y
 _atom_site_fract_z
 _atom_site_occupancy
  Rb  Rb0  1  0.860089  0.884665  0.375709  1
  Rb  Rb1  1  0.115335  0.139911  0.624291  1
  Sn  Sn2  1  0.496181  0.503819  0.000000  1
  Te  Te3  1  0.996836  0.503242  0.000170  1
  Te  Te4  1  0.496758  0.003164  0.999830  1
  Te  Te5  1  0.496857  0.503143  0.500000  1
  O  O6  1  0.176275  0.182596  0.075197  1
  O  O7  1  0.575296  0.579022  0.660875  1
  O  O8  1  0.157108  0.579583  0.078917  1
  O  O9  1  0.573361  0.182595  0.679385  1
  O  O10  1  0.573544  0.164619  0.076652  1
  O  O11  1  0.176691  0.577914  0.679855  1
  O  O12  1  0.817404  0.823725  0.924803  1
  O  O13  1  0.420978  0.424704  0.339125  1
  O  O14  1  0.835381  0.426456  0.923348  1
  O  O15  1  0.422086  0.823309  0.320145  1
  O  O16  1  0.420417  0.842892  0.921083  1
  O  O17  1  0.817405  0.426639  0.320615  1
