# generated using pymatgen
data_MgZr10Bi4Sb
_symmetry_space_group_name_H-M   'P 1'
_cell_length_a   5.66377902
_cell_length_b   8.57422406
_cell_length_c   8.57422346
_cell_angle_alpha   96.26253898
_cell_angle_beta   109.28572349
_cell_angle_gamma   70.71426231
_symmetry_Int_Tables_number   1
_chemical_formula_structural   MgZr10Bi4Sb
_chemical_formula_sum   'Mg1 Zr10 Bi4 Sb1'
_cell_volume   370.96460379
_cell_formula_units_Z   1
loop_
 _symmetry_equiv_pos_site_id
 _symmetry_equiv_pos_as_xyz
  1  'x, y, z'
loop_
 _atom_site_type_symbol
 _atom_site_label
 _atom_site_symmetry_multiplicity
 _atom_site_fract_x
 _atom_site_fract_y
 _atom_site_fract_z
 _atom_site_occupancy
  Mg  Mg0  1  0.750000  0.000000  0.000000  1
  Zr  Zr1  1  0.427351  0.857256  0.703912  1
  Zr  Zr2  1  0.580696  0.142744  0.296088  1
  Zr  Zr3  1  0.919304  0.296088  0.142744  1
  Zr  Zr4  1  0.072649  0.703912  0.857256  1
  Zr  Zr5  1  0.723438  0.703912  0.142744  1
  Zr  Zr6  1  0.284607  0.296088  0.857256  1
  Zr  Zr7  1  0.776562  0.142744  0.703912  1
  Zr  Zr8  1  0.215393  0.857256  0.296088  1
  Zr  Zr9  1  0.250000  0.500000  0.500000  1
  Zr  Zr10  1  0.750000  0.500000  0.500000  1
  Bi  Bi11  1  0.335848  0.500000  0.171698  1
  Bi  Bi12  1  0.664152  0.500000  0.828302  1
  Bi  Bi13  1  0.835848  0.828302  0.500000  1
  Bi  Bi14  1  0.164152  0.171698  0.500000  1
  Sb  Sb15  1  0.250000  0.000000  0.000000  1
