# generated using pymatgen
data_Tb2Ho6Re(B8Os)3
_symmetry_space_group_name_H-M   'P 1'
_cell_length_a   3.65955100
_cell_length_b   9.14612381
_cell_length_c   11.53168500
_cell_angle_alpha   90.08974838
_cell_angle_beta   90.00000000
_cell_angle_gamma   90.00000000
_symmetry_Int_Tables_number   1
_chemical_formula_structural   Tb2Ho6Re(B8Os)3
_chemical_formula_sum   'Tb2 Ho6 Re1 B24 Os3'
_cell_volume   385.97317126
_cell_formula_units_Z   1
loop_
 _symmetry_equiv_pos_site_id
 _symmetry_equiv_pos_as_xyz
  1  'x, y, z'
loop_
 _atom_site_type_symbol
 _atom_site_label
 _atom_site_symmetry_multiplicity
 _atom_site_fract_x
 _atom_site_fract_y
 _atom_site_fract_z
 _atom_site_occupancy
  Tb  Tb0  1  0.000000  0.322502  0.414743  1
  Tb  Tb1  1  0.000000  0.679881  0.588119  1
  Ho  Ho2  1  0.000000  0.822646  0.083597  1
  Ho  Ho3  1  0.000000  0.176367  0.913247  1
  Ho  Ho4  1  0.000000  0.943270  0.371802  1
  Ho  Ho5  1  0.000000  0.055933  0.627815  1
  Ho  Ho6  1  0.000000  0.442930  0.127530  1
  Ho  Ho7  1  0.000000  0.556541  0.873049  1
  Re  Re8  1  0.000000  0.862784  0.821840  1
  B  B9  1  0.500000  0.554033  0.432821  1
  B  B10  1  0.500000  0.446117  0.567480  1
  B  B11  1  0.500000  0.053512  0.067225  1
  B  B12  1  0.500000  0.947232  0.933229  1
  B  B13  1  0.500000  0.748468  0.419076  1
  B  B14  1  0.500000  0.251657  0.580784  1
  B  B15  1  0.500000  0.247971  0.080568  1
  B  B16  1  0.500000  0.751689  0.919454  1
  B  B17  1  0.500000  0.790530  0.265996  1
  B  B18  1  0.500000  0.209035  0.733283  1
  B  B19  1  0.500000  0.290675  0.233539  1
  B  B20  1  0.500000  0.708739  0.766487  1
  B  B21  1  0.500000  0.631180  0.185322  1
  B  B22  1  0.500000  0.368361  0.814308  1
  B  B23  1  0.500000  0.131456  0.314427  1
  B  B24  1  0.500000  0.868883  0.685900  1
  B  B25  1  0.500000  0.983152  0.212588  1
  B  B26  1  0.500000  0.017893  0.787332  1
  B  B27  1  0.500000  0.483340  0.287458  1
  B  B28  1  0.500000  0.516652  0.713071  1
  B  B29  1  0.500000  0.605967  0.030032  1
  B  B30  1  0.500000  0.392492  0.970600  1
  B  B31  1  0.500000  0.106601  0.470120  1
  B  B32  1  0.500000  0.893949  0.528837  1
  Os  Os33  1  0.000000  0.637729  0.321080  1
  Os  Os34  1  0.000000  0.362295  0.678428  1
  Os  Os35  1  0.000000  0.137538  0.178814  1
