# generated using pymatgen
data_ScSb14
_symmetry_space_group_name_H-M   'P 1'
_cell_length_a   4.25539222
_cell_length_b   4.25539253
_cell_length_c   27.98868300
_cell_angle_alpha   91.88886840
_cell_angle_beta   91.88886854
_cell_angle_gamma   60.69231373
_symmetry_Int_Tables_number   1
_chemical_formula_structural   ScSb14
_chemical_formula_sum   'Sc1 Sb14'
_cell_volume   441.63447528
_cell_formula_units_Z   1
loop_
 _symmetry_equiv_pos_site_id
 _symmetry_equiv_pos_as_xyz
  1  'x, y, z'
loop_
 _atom_site_type_symbol
 _atom_site_label
 _atom_site_symmetry_multiplicity
 _atom_site_fract_x
 _atom_site_fract_y
 _atom_site_fract_z
 _atom_site_occupancy
  Sc  Sc0  1  0.000000  0.000000  0.800000  1
  Sb  Sb1  1  0.660295  0.660295  0.067180  1
  Sb  Sb2  1  0.672433  0.672433  0.260903  1
  Sb  Sb3  1  0.661106  0.661106  0.474259  1
  Sb  Sb4  1  0.674582  0.674582  0.667841  1
  Sb  Sb5  1  0.671156  0.671156  0.857992  1
  Sb  Sb6  1  0.338894  0.338894  0.125741  1
  Sb  Sb7  1  0.327567  0.327567  0.339097  1
  Sb  Sb8  1  0.339705  0.339705  0.532820  1
  Sb  Sb9  1  0.328844  0.328844  0.742008  1
  Sb  Sb10  1  0.325418  0.325418  0.932159  1
  Sb  Sb11  1  0.003648  0.003648  0.992500  1
  Sb  Sb12  1  0.994638  0.994638  0.203016  1
  Sb  Sb13  1  0.005362  0.005362  0.396984  1
  Sb  Sb14  1  0.996352  0.996352  0.607500  1
