# generated using pymatgen
data_Cs2Ti3Cr3Si4(P6O25)2
_symmetry_space_group_name_H-M   'P 1'
_cell_length_a   8.36275500
_cell_length_b   8.36275538
_cell_length_c   17.52852100
_cell_angle_alpha   90.00000000
_cell_angle_beta   90.00000000
_cell_angle_gamma   119.99999455
_symmetry_Int_Tables_number   1
_chemical_formula_structural   Cs2Ti3Cr3Si4(P6O25)2
_chemical_formula_sum   'Cs2 Ti3 Cr3 Si4 P12 O50'
_cell_volume   1061.63369893
_cell_formula_units_Z   1
loop_
 _symmetry_equiv_pos_site_id
 _symmetry_equiv_pos_as_xyz
  1  'x, y, z'
loop_
 _atom_site_type_symbol
 _atom_site_label
 _atom_site_symmetry_multiplicity
 _atom_site_fract_x
 _atom_site_fract_y
 _atom_site_fract_z
 _atom_site_occupancy
  Cs  Cs0  1  0.333333  0.666667  0.250187  1
  Cs  Cs1  1  0.666667  0.333333  0.752307  1
  Ti  Ti2  1  0.666667  0.333333  0.523391  1
  Ti  Ti3  1  0.666667  0.333333  0.249874  1
  Ti  Ti4  1  0.333333  0.666667  0.750840  1
  Cr  Cr5  1  0.333333  0.666667  0.022400  1
  Cr  Cr6  1  0.333333  0.666667  0.477707  1
  Cr  Cr7  1  0.666667  0.333333  0.977895  1
  Si  Si8  1  0.000000  0.000000  0.092110  1
  Si  Si9  1  0.000000  0.000000  0.409727  1
  Si  Si10  1  0.000000  0.000000  0.909476  1
  Si  Si11  1  0.000000  0.000000  0.592600  1
  P  P12  1  0.384807  0.333689  0.107800  1
  P  P13  1  0.666311  0.051119  0.107800  1
  P  P14  1  0.948881  0.615193  0.107800  1
  P  P15  1  0.664688  0.613817  0.391091  1
  P  P16  1  0.949128  0.335312  0.391091  1
  P  P17  1  0.386183  0.050872  0.391091  1
  P  P18  1  0.612827  0.665264  0.892219  1
  P  P19  1  0.334736  0.947562  0.892219  1
  P  P20  1  0.052438  0.387173  0.892219  1
  P  P21  1  0.330712  0.385229  0.608391  1
  P  P22  1  0.054518  0.669288  0.608391  1
  P  P23  1  0.614771  0.945482  0.608391  1
  O  O24  1  0.118425  0.596098  0.089539  1
  O  O25  1  0.403902  0.522328  0.089539  1
  O  O26  1  0.477672  0.881575  0.089539  1
  O  O27  1  0.405744  0.883236  0.406868  1
  O  O28  1  0.477491  0.594256  0.406868  1
  O  O29  1  0.116764  0.522509  0.406868  1
  O  O30  1  0.883963  0.405230  0.908114  1
  O  O31  1  0.594770  0.478732  0.908114  1
  O  O32  1  0.521268  0.116037  0.908114  1
  O  O33  1  0.603351  0.119345  0.588699  1
  O  O34  1  0.515995  0.396649  0.588699  1
  O  O35  1  0.880655  0.484005  0.588699  1
  O  O36  1  0.808803  0.258965  0.457072  1
  O  O37  1  0.741035  0.549839  0.457072  1
  O  O38  1  0.450161  0.191197  0.457072  1
  O  O39  1  0.747466  0.189639  0.042634  1
  O  O40  1  0.442171  0.252534  0.042634  1
  O  O41  1  0.810361  0.557829  0.042634  1
  O  O42  1  0.193013  0.750808  0.543510  1
  O  O43  1  0.249192  0.442204  0.543510  1
  O  O44  1  0.557796  0.806987  0.543510  1
  O  O45  1  0.253399  0.804843  0.957196  1
  O  O46  1  0.551445  0.746601  0.957196  1
  O  O47  1  0.195157  0.448555  0.957196  1
  O  O48  1  0.482589  0.348850  0.184094  1
  O  O49  1  0.651150  0.133740  0.184094  1
  O  O50  1  0.866260  0.517411  0.184094  1
  O  O51  1  0.659358  0.519879  0.314739  1
  O  O52  1  0.860520  0.340642  0.314739  1
  O  O53  1  0.480121  0.139480  0.314739  1
  O  O54  1  0.518465  0.657404  0.815495  1
  O  O55  1  0.342596  0.861060  0.815495  1
  O  O56  1  0.138940  0.481535  0.815495  1
  O  O57  1  0.350816  0.483944  0.684693  1
  O  O58  1  0.133129  0.649184  0.684693  1
  O  O59  1  0.516056  0.866871  0.684693  1
  O  O60  1  0.000000  0.000000  0.000824  1
  O  O61  1  0.000000  0.000000  0.501193  1
  O  O62  1  0.021121  0.828582  0.125385  1
  O  O63  1  0.171418  0.192540  0.125385  1
  O  O64  1  0.807460  0.978879  0.125385  1
  O  O65  1  0.173224  0.983280  0.376266  1
  O  O66  1  0.810055  0.826776  0.376266  1
  O  O67  1  0.016720  0.189945  0.376266  1
  O  O68  1  0.984805  0.174352  0.876236  1
  O  O69  1  0.825648  0.810452  0.876236  1
  O  O70  1  0.189548  0.015195  0.876236  1
  O  O71  1  0.827943  0.018759  0.626450  1
  O  O72  1  0.190817  0.172057  0.626450  1
  O  O73  1  0.981241  0.809183  0.626450  1
