# generated using pymatgen
data_CeEr3(ScSb5)4
_symmetry_space_group_name_H-M   'P 1'
_cell_length_a   4.19763600
_cell_length_b   13.02564633
_cell_length_c   14.20672400
_cell_angle_alpha   78.83200101
_cell_angle_beta   90.00000000
_cell_angle_gamma   90.00000000
_symmetry_Int_Tables_number   1
_chemical_formula_structural   CeEr3(ScSb5)4
_chemical_formula_sum   'Ce1 Er3 Sc4 Sb20'
_cell_volume   762.07043547
_cell_formula_units_Z   1
loop_
 _symmetry_equiv_pos_site_id
 _symmetry_equiv_pos_as_xyz
  1  'x, y, z'
loop_
 _atom_site_type_symbol
 _atom_site_label
 _atom_site_symmetry_multiplicity
 _atom_site_fract_x
 _atom_site_fract_y
 _atom_site_fract_z
 _atom_site_occupancy
  Ce  Ce0  1  0.750000  0.046468  0.644541  1
  Er  Er1  1  0.250000  0.667103  0.575975  1
  Er  Er2  1  0.750000  0.332602  0.422450  1
  Er  Er3  1  0.250000  0.953674  0.356040  1
  Sc  Sc4  1  0.250000  0.397912  0.772575  1
  Sc  Sc5  1  0.750000  0.603592  0.227371  1
  Sc  Sc6  1  0.250000  0.656128  0.859409  1
  Sc  Sc7  1  0.750000  0.342517  0.141470  1
  Sb  Sb8  1  0.250000  0.149834  0.781893  1
  Sb  Sb9  1  0.750000  0.852844  0.219586  1
  Sb  Sb10  1  0.250000  0.145349  0.482172  1
  Sb  Sb11  1  0.750000  0.855424  0.517615  1
  Sb  Sb12  1  0.250000  0.162672  0.159853  1
  Sb  Sb13  1  0.750000  0.836722  0.839553  1
  Sb  Sb14  1  0.250000  0.421635  0.975550  1
  Sb  Sb15  1  0.750000  0.577873  0.024704  1
  Sb  Sb16  1  0.750000  0.030051  0.912820  1
  Sb  Sb17  1  0.250000  0.969578  0.086646  1
  Sb  Sb18  1  0.750000  0.143804  0.314232  1
  Sb  Sb19  1  0.250000  0.851951  0.685848  1
  Sb  Sb20  1  0.750000  0.279331  0.936605  1
  Sb  Sb21  1  0.250000  0.720325  0.064070  1
  Sb  Sb22  1  0.750000  0.290507  0.658739  1
  Sb  Sb23  1  0.250000  0.711155  0.340958  1
  Sb  Sb24  1  0.750000  0.573793  0.740460  1
  Sb  Sb25  1  0.250000  0.426557  0.259413  1
  Sb  Sb26  1  0.750000  0.571435  0.444100  1
  Sb  Sb27  1  0.250000  0.429165  0.555347  1
