# generated using pymatgen
data_SrTh2(SnIr)3
_symmetry_space_group_name_H-M   'P 1'
_cell_length_a   7.64832977
_cell_length_b   7.64832875
_cell_length_c   4.17009400
_cell_angle_alpha   90.00000000
_cell_angle_beta   90.00000000
_cell_angle_gamma   121.07780959
_symmetry_Int_Tables_number   1
_chemical_formula_structural   SrTh2(SnIr)3
_chemical_formula_sum   'Sr1 Th2 Sn3 Ir3'
_cell_volume   208.92464227
_cell_formula_units_Z   1
loop_
 _symmetry_equiv_pos_site_id
 _symmetry_equiv_pos_as_xyz
  1  'x, y, z'
loop_
 _atom_site_type_symbol
 _atom_site_label
 _atom_site_symmetry_multiplicity
 _atom_site_fract_x
 _atom_site_fract_y
 _atom_site_fract_z
 _atom_site_occupancy
  Sr  Sr0  1  0.409859  0.409859  0.500000  1
  Th  Th1  1  0.588795  0.002524  0.500000  1
  Th  Th2  1  0.002524  0.588795  0.500000  1
  Sn  Sn3  1  0.738677  0.738677  0.000000  1
  Sn  Sn4  1  0.248521  0.009977  0.000000  1
  Sn  Sn5  1  0.009977  0.248521  0.000000  1
  Ir  Ir6  1  0.693956  0.329462  0.000000  1
  Ir  Ir7  1  0.329462  0.693956  0.000000  1
  Ir  Ir8  1  0.978230  0.978230  0.500000  1
