# generated using pymatgen
data_Yb4Dy5Er(CuPb3)2
_symmetry_space_group_name_H-M   'P 1'
_cell_length_a   9.20010015
_cell_length_b   9.20009948
_cell_length_c   6.78653300
_cell_angle_alpha   90.00000000
_cell_angle_beta   90.00000000
_cell_angle_gamma   119.97945766
_symmetry_Int_Tables_number   1
_chemical_formula_structural   Yb4Dy5Er(CuPb3)2
_chemical_formula_sum   'Yb4 Dy5 Er1 Cu2 Pb6'
_cell_volume   497.56925360
_cell_formula_units_Z   1
loop_
 _symmetry_equiv_pos_site_id
 _symmetry_equiv_pos_as_xyz
  1  'x, y, z'
loop_
 _atom_site_type_symbol
 _atom_site_label
 _atom_site_symmetry_multiplicity
 _atom_site_fract_x
 _atom_site_fract_y
 _atom_site_fract_z
 _atom_site_occupancy
  Yb  Yb0  1  0.333179  0.666423  0.999870  1
  Yb  Yb1  1  0.666423  0.333179  0.999870  1
  Yb  Yb2  1  0.666423  0.333179  0.500130  1
  Yb  Yb3  1  0.333179  0.666423  0.500130  1
  Dy  Dy4  1  0.258697  0.000013  0.250000  1
  Dy  Dy5  1  0.741125  0.999667  0.750000  1
  Dy  Dy6  1  0.000013  0.258697  0.250000  1
  Dy  Dy7  1  0.999667  0.741125  0.750000  1
  Dy  Dy8  1  0.741755  0.741755  0.250000  1
  Er  Er9  1  0.257943  0.257943  0.750000  1
  Cu  Cu10  1  0.001319  0.001319  0.999206  1
  Cu  Cu11  1  0.001319  0.001319  0.500794  1
  Pb  Pb12  1  0.613478  0.000006  0.250000  1
  Pb  Pb13  1  0.386036  0.000789  0.750000  1
  Pb  Pb14  1  0.000006  0.613478  0.250000  1
  Pb  Pb15  1  0.000789  0.386036  0.750000  1
  Pb  Pb16  1  0.386398  0.386398  0.250000  1
  Pb  Pb17  1  0.612249  0.612249  0.750000  1
