# generated using pymatgen
data_Ac2SmIn4Te
_symmetry_space_group_name_H-M   'P 1'
_cell_length_a   8.78968640
_cell_length_b   8.78968573
_cell_length_c   8.78968700
_cell_angle_alpha   119.26223730
_cell_angle_beta   119.26223484
_cell_angle_gamma   91.28266773
_symmetry_Int_Tables_number   1
_chemical_formula_structural   Ac2SmIn4Te
_chemical_formula_sum   'Ac4 Sm2 In8 Te2'
_cell_volume   485.40417453
_cell_formula_units_Z   2
loop_
 _symmetry_equiv_pos_site_id
 _symmetry_equiv_pos_as_xyz
  1  'x, y, z'
loop_
 _atom_site_type_symbol
 _atom_site_label
 _atom_site_symmetry_multiplicity
 _atom_site_fract_x
 _atom_site_fract_y
 _atom_site_fract_z
 _atom_site_occupancy
  Ac  Ac0  1  0.658721  0.158721  0.817442  1
  Ac  Ac1  1  0.341279  0.841279  0.182558  1
  Ac  Ac2  1  0.158721  0.341279  0.500000  1
  Ac  Ac3  1  0.841279  0.658721  0.500000  1
  Sm  Sm4  1  0.750000  0.750000  0.000000  1
  Sm  Sm5  1  0.250000  0.250000  0.000000  1
  In  In6  1  0.337326  0.837326  0.791841  1
  In  In7  1  0.662674  0.162674  0.208159  1
  In  In8  1  0.045485  0.545485  0.208159  1
  In  In9  1  0.837326  0.045485  0.500000  1
  In  In10  1  0.454515  0.662674  0.500000  1
  In  In11  1  0.954515  0.454515  0.791841  1
  In  In12  1  0.162674  0.954515  0.500000  1
  In  In13  1  0.545485  0.337326  0.500000  1
  Te  Te14  1  0.500000  0.500000  0.000000  1
  Te  Te15  1  0.000000  0.000000  0.000000  1
