# generated using pymatgen
data_Y3Tm(Lu3Sn4)2
_symmetry_space_group_name_H-M   'P 1'
_cell_length_a   7.96648000
_cell_length_b   8.09402803
_cell_length_c   15.28866300
_cell_angle_alpha   90.00491267
_cell_angle_beta   90.00000000
_cell_angle_gamma   90.00000000
_symmetry_Int_Tables_number   1
_chemical_formula_structural   Y3Tm(Lu3Sn4)2
_chemical_formula_sum   'Y6 Tm2 Lu12 Sn16'
_cell_volume   985.82693627
_cell_formula_units_Z   2
loop_
 _symmetry_equiv_pos_site_id
 _symmetry_equiv_pos_as_xyz
  1  'x, y, z'
loop_
 _atom_site_type_symbol
 _atom_site_label
 _atom_site_symmetry_multiplicity
 _atom_site_fract_x
 _atom_site_fract_y
 _atom_site_fract_z
 _atom_site_occupancy
  Y  Y0  1  0.521958  0.320849  0.903202  1
  Y  Y1  1  0.021958  0.179151  0.596798  1
  Y  Y2  1  0.478091  0.679152  0.403228  1
  Y  Y3  1  0.978091  0.820848  0.096772  1
  Y  Y4  1  0.478125  0.679310  0.096805  1
  Y  Y5  1  0.978125  0.820690  0.403195  1
  Tm  Tm6  1  0.521915  0.320900  0.596983  1
  Tm  Tm7  1  0.021915  0.179100  0.903017  1
  Lu  Lu8  1  0.366883  0.837267  0.876689  1
  Lu  Lu9  1  0.866883  0.662733  0.623311  1
  Lu  Lu10  1  0.632963  0.163133  0.377008  1
  Lu  Lu11  1  0.132963  0.336867  0.122992  1
  Lu  Lu12  1  0.633017  0.162929  0.123189  1
  Lu  Lu13  1  0.133017  0.337071  0.376811  1
  Lu  Lu14  1  0.366787  0.837194  0.623304  1
  Lu  Lu15  1  0.866787  0.662806  0.876696  1
  Lu  Lu16  1  0.197670  0.504690  0.749995  1
  Lu  Lu17  1  0.697670  0.995310  0.750005  1
  Lu  Lu18  1  0.802494  0.495030  0.249986  1
  Lu  Lu19  1  0.302494  0.004970  0.250014  1
  Sn  Sn20  1  0.294856  0.039080  0.041138  1
  Sn  Sn21  1  0.794856  0.460920  0.458862  1
  Sn  Sn22  1  0.704066  0.961841  0.541783  1
  Sn  Sn23  1  0.204066  0.538159  0.958217  1
  Sn  Sn24  1  0.705914  0.962466  0.958156  1
  Sn  Sn25  1  0.205914  0.537534  0.541844  1
  Sn  Sn26  1  0.295635  0.038892  0.458429  1
  Sn  Sn27  1  0.795635  0.461108  0.041571  1
  Sn  Sn28  1  0.563530  0.620682  0.749901  1
  Sn  Sn29  1  0.063530  0.879318  0.750099  1
  Sn  Sn30  1  0.436200  0.379018  0.250036  1
  Sn  Sn31  1  0.936200  0.120982  0.249964  1
  Sn  Sn32  1  0.331607  0.149253  0.749629  1
  Sn  Sn33  1  0.831607  0.350747  0.750371  1
  Sn  Sn34  1  0.668290  0.851554  0.250063  1
  Sn  Sn35  1  0.168290  0.648446  0.249937  1
