# generated using pymatgen
data_TbTl2Bi(Rh2O7)2
_symmetry_space_group_name_H-M   'P 1'
_cell_length_a   7.26259785
_cell_length_b   7.27539671
_cell_length_c   7.15354100
_cell_angle_alpha   60.55252787
_cell_angle_beta   60.49550663
_cell_angle_gamma   61.20065139
_symmetry_Int_Tables_number   1
_chemical_formula_structural   TbTl2Bi(Rh2O7)2
_chemical_formula_sum   'Tb1 Tl2 Bi1 Rh4 O14'
_cell_volume   271.76800716
_cell_formula_units_Z   1
loop_
 _symmetry_equiv_pos_site_id
 _symmetry_equiv_pos_as_xyz
  1  'x, y, z'
loop_
 _atom_site_type_symbol
 _atom_site_label
 _atom_site_symmetry_multiplicity
 _atom_site_fract_x
 _atom_site_fract_y
 _atom_site_fract_z
 _atom_site_occupancy
  Tb  Tb0  1  0.625000  0.125000  0.125000  1
  Tl  Tl1  1  0.125000  0.125000  0.125000  1
  Tl  Tl2  1  0.125000  0.125000  0.625000  1
  Bi  Bi3  1  0.125000  0.625000  0.125000  1
  Rh  Rh4  1  0.625000  0.625000  0.625000  1
  Rh  Rh5  1  0.625000  0.625000  0.125000  1
  Rh  Rh6  1  0.125000  0.625000  0.625000  1
  Rh  Rh7  1  0.625000  0.125000  0.625000  1
  O  O8  1  0.254109  0.253613  0.246139  1
  O  O9  1  0.293214  0.706921  0.290436  1
  O  O10  1  0.957916  0.956634  0.542725  1
  O  O11  1  0.545363  0.954407  0.542786  1
  O  O12  1  0.710970  0.712610  0.288209  1
  O  O13  1  0.956786  0.543079  0.540573  1
  O  O14  1  0.704637  0.295593  0.707214  1
  O  O15  1  0.292084  0.293366  0.707275  1
  O  O16  1  0.704637  0.295593  0.292557  1
  O  O17  1  0.293214  0.706921  0.709427  1
  O  O18  1  0.956786  0.543079  0.959564  1
  O  O19  1  0.539030  0.537390  0.961791  1
  O  O20  1  0.995891  0.996387  0.003861  1
  O  O21  1  0.545363  0.954407  0.957443  1
