# generated using pymatgen
data_Sm2Ho2TcB12Os
_symmetry_space_group_name_H-M   'P 1'
_cell_length_a   3.69641100
_cell_length_b   9.19929031
_cell_length_c   11.62224900
_cell_angle_alpha   89.92013700
_cell_angle_beta   90.00000000
_cell_angle_gamma   90.00000000
_symmetry_Int_Tables_number   1
_chemical_formula_structural   Sm2Ho2TcB12Os
_chemical_formula_sum   'Sm4 Ho4 Tc2 B24 Os2'
_cell_volume   395.20673072
_cell_formula_units_Z   2
loop_
 _symmetry_equiv_pos_site_id
 _symmetry_equiv_pos_as_xyz
  1  'x, y, z'
loop_
 _atom_site_type_symbol
 _atom_site_label
 _atom_site_symmetry_multiplicity
 _atom_site_fract_x
 _atom_site_fract_y
 _atom_site_fract_z
 _atom_site_occupancy
  Sm  Sm0  1  0.000000  0.324366  0.415114  1
  Sm  Sm1  1  0.000000  0.675634  0.584886  1
  Sm  Sm2  1  0.000000  0.821188  0.087089  1
  Sm  Sm3  1  0.000000  0.178812  0.912911  1
  Ho  Ho4  1  0.000000  0.941572  0.370756  1
  Ho  Ho5  1  0.000000  0.058428  0.629244  1
  Ho  Ho6  1  0.000000  0.443635  0.130171  1
  Ho  Ho7  1  0.000000  0.556365  0.869829  1
  Tc  Tc8  1  0.000000  0.638980  0.319475  1
  Tc  Tc9  1  0.000000  0.361020  0.680525  1
  B  B10  1  0.500000  0.554035  0.431621  1
  B  B11  1  0.500000  0.445965  0.568379  1
  B  B12  1  0.500000  0.054622  0.068417  1
  B  B13  1  0.500000  0.945378  0.931583  1
  B  B14  1  0.500000  0.748778  0.417468  1
  B  B15  1  0.500000  0.251222  0.582532  1
  B  B16  1  0.500000  0.249173  0.082709  1
  B  B17  1  0.500000  0.750827  0.917291  1
  B  B18  1  0.500000  0.790758  0.265978  1
  B  B19  1  0.500000  0.209242  0.734022  1
  B  B20  1  0.500000  0.290135  0.233747  1
  B  B21  1  0.500000  0.709865  0.766253  1
  B  B22  1  0.500000  0.630421  0.185697  1
  B  B23  1  0.500000  0.369579  0.814303  1
  B  B24  1  0.500000  0.129951  0.313643  1
  B  B25  1  0.500000  0.870049  0.686357  1
  B  B26  1  0.500000  0.983760  0.212662  1
  B  B27  1  0.500000  0.016240  0.787338  1
  B  B28  1  0.500000  0.483715  0.286920  1
  B  B29  1  0.500000  0.516285  0.713080  1
  B  B30  1  0.500000  0.600904  0.027669  1
  B  B31  1  0.500000  0.399096  0.972331  1
  B  B32  1  0.500000  0.100709  0.471906  1
  B  B33  1  0.500000  0.899291  0.528094  1
  Os  Os34  1  0.000000  0.138085  0.179346  1
  Os  Os35  1  0.000000  0.861915  0.820654  1
