# generated using pymatgen
data_Hf2Sc(GaPd)3
_symmetry_space_group_name_H-M   'P 1'
_cell_length_a   7.27973200
_cell_length_b   7.28412246
_cell_length_c   6.82477700
_cell_angle_alpha   90.00000000
_cell_angle_beta   90.00000000
_cell_angle_gamma   119.98006340
_symmetry_Int_Tables_number   1
_chemical_formula_structural   Hf2Sc(GaPd)3
_chemical_formula_sum   'Hf4 Sc2 Ga6 Pd6'
_cell_volume   313.47213294
_cell_formula_units_Z   2
loop_
 _symmetry_equiv_pos_site_id
 _symmetry_equiv_pos_as_xyz
  1  'x, y, z'
loop_
 _atom_site_type_symbol
 _atom_site_label
 _atom_site_symmetry_multiplicity
 _atom_site_fract_x
 _atom_site_fract_y
 _atom_site_fract_z
 _atom_site_occupancy
  Hf  Hf0  1  0.403128  0.013489  0.250000  1
  Hf  Hf1  1  0.985673  0.390466  0.250000  1
  Hf  Hf2  1  0.389639  0.986511  0.750000  1
  Hf  Hf3  1  0.595208  0.609534  0.750000  1
  Sc  Sc4  1  0.611286  0.598737  0.250000  1
  Sc  Sc5  1  0.012549  0.401263  0.750000  1
  Ga  Ga6  1  0.271306  0.272291  0.502951  1
  Ga  Ga7  1  0.730083  0.000000  0.500000  1
  Ga  Ga8  1  0.999016  0.727709  0.497049  1
  Ga  Ga9  1  0.730083  0.000000  0.000000  1
  Ga  Ga10  1  0.271306  0.272291  0.997049  1
  Ga  Ga11  1  0.999016  0.727709  0.002951  1
  Pd  Pd12  1  0.333990  0.668789  0.480022  1
  Pd  Pd13  1  0.998065  0.992809  0.750000  1
  Pd  Pd14  1  0.005257  0.007191  0.250000  1
  Pd  Pd15  1  0.333990  0.668789  0.019978  1
  Pd  Pd16  1  0.665202  0.331211  0.519978  1
  Pd  Pd17  1  0.665202  0.331211  0.980022  1
