# generated using pymatgen
data_CeTh3(FeSi3)2
_symmetry_space_group_name_H-M   'P 1'
_cell_length_a   8.12664500
_cell_length_b   8.12664523
_cell_length_c   4.13325400
_cell_angle_alpha   90.00000000
_cell_angle_beta   90.00000000
_cell_angle_gamma   120.00000311
_symmetry_Int_Tables_number   1
_chemical_formula_structural   CeTh3(FeSi3)2
_chemical_formula_sum   'Ce1 Th3 Fe2 Si6'
_cell_volume   236.39881906
_cell_formula_units_Z   1
loop_
 _symmetry_equiv_pos_site_id
 _symmetry_equiv_pos_as_xyz
  1  'x, y, z'
loop_
 _atom_site_type_symbol
 _atom_site_label
 _atom_site_symmetry_multiplicity
 _atom_site_fract_x
 _atom_site_fract_y
 _atom_site_fract_z
 _atom_site_occupancy
  Ce  Ce0  1  0.000000  0.000000  0.000000  1
  Th  Th1  1  0.500000  0.500000  0.000000  1
  Th  Th2  1  0.000000  0.500000  0.000000  1
  Th  Th3  1  0.500000  0.000000  0.000000  1
  Fe  Fe4  1  0.333333  0.666667  0.500000  1
  Fe  Fe5  1  0.666667  0.333333  0.500000  1
  Si  Si6  1  0.830871  0.661742  0.500000  1
  Si  Si7  1  0.169129  0.830871  0.500000  1
  Si  Si8  1  0.661742  0.830871  0.500000  1
  Si  Si9  1  0.169129  0.338258  0.500000  1
  Si  Si10  1  0.830871  0.169129  0.500000  1
  Si  Si11  1  0.338258  0.169129  0.500000  1
