# generated using pymatgen
data_Tm16Tl2CdInIr4
_symmetry_space_group_name_H-M   'P 1'
_cell_length_a   9.55753058
_cell_length_b   9.57829942
_cell_length_c   9.57909375
_cell_angle_alpha   59.70665493
_cell_angle_beta   59.77024438
_cell_angle_gamma   59.76316759
_symmetry_Int_Tables_number   1
_chemical_formula_structural   Tm16Tl2CdInIr4
_chemical_formula_sum   'Tm16 Tl2 Cd1 In1 Ir4'
_cell_volume   616.50671691
_cell_formula_units_Z   1
loop_
 _symmetry_equiv_pos_site_id
 _symmetry_equiv_pos_as_xyz
  1  'x, y, z'
loop_
 _atom_site_type_symbol
 _atom_site_label
 _atom_site_symmetry_multiplicity
 _atom_site_fract_x
 _atom_site_fract_y
 _atom_site_fract_z
 _atom_site_occupancy
  Tm  Tm0  1  0.599247  0.597969  0.598779  1
  Tm  Tm1  1  0.599933  0.599968  0.202335  1
  Tm  Tm2  1  0.599693  0.202433  0.600439  1
  Tm  Tm3  1  0.202136  0.599825  0.600385  1
  Tm  Tm4  1  0.057513  0.440289  0.441781  1
  Tm  Tm5  1  0.438342  0.060250  0.060366  1
  Tm  Tm6  1  0.439446  0.058681  0.440914  1
  Tm  Tm7  1  0.057986  0.440023  0.058477  1
  Tm  Tm8  1  0.440726  0.440483  0.058243  1
  Tm  Tm9  1  0.058424  0.058685  0.440499  1
  Tm  Tm10  1  0.191654  0.811403  0.811515  1
  Tm  Tm11  1  0.810948  0.190088  0.189051  1
  Tm  Tm12  1  0.812296  0.189635  0.809862  1
  Tm  Tm13  1  0.192767  0.810227  0.187613  1
  Tm  Tm14  1  0.811923  0.809423  0.189600  1
  Tm  Tm15  1  0.191536  0.188025  0.810497  1
  Tl  Tl16  1  0.833143  0.835747  0.837074  1
  Tl  Tl17  1  0.832915  0.835624  0.494243  1
  Cd  Cd18  1  0.499819  0.832395  0.833711  1
  In  In19  1  0.831051  0.499026  0.834798  1
  Ir  Ir20  1  0.391132  0.390852  0.390846  1
  Ir  Ir21  1  0.390535  0.391530  0.826360  1
  Ir  Ir22  1  0.390599  0.826288  0.391398  1
  Ir  Ir23  1  0.826236  0.391130  0.391213  1
