# generated using pymatgen
data_La6Cr(SiS7)2
_symmetry_space_group_name_H-M   'P 1'
_cell_length_a   5.81468562
_cell_length_b   10.24477599
_cell_length_c   10.37929490
_cell_angle_alpha   60.74450362
_cell_angle_beta   89.57140029
_cell_angle_gamma   90.04376989
_symmetry_Int_Tables_number   1
_chemical_formula_structural   La6Cr(SiS7)2
_chemical_formula_sum   'La6 Cr1 Si2 S14'
_cell_volume   539.40994237
_cell_formula_units_Z   1
loop_
 _symmetry_equiv_pos_site_id
 _symmetry_equiv_pos_as_xyz
  1  'x, y, z'
loop_
 _atom_site_type_symbol
 _atom_site_label
 _atom_site_symmetry_multiplicity
 _atom_site_fract_x
 _atom_site_fract_y
 _atom_site_fract_z
 _atom_site_occupancy
  La  La0  1  0.749394  0.233515  0.637864  1
  La  La1  1  0.754054  0.643179  0.128806  1
  La  La2  1  0.752374  0.123713  0.230675  1
  La  La3  1  0.249776  0.769330  0.361542  1
  La  La4  1  0.249084  0.354248  0.871951  1
  La  La5  1  0.246668  0.875061  0.772216  1
  Cr  Cr6  1  0.523493  0.999685  0.999064  1
  Si  Si7  1  0.168188  0.331436  0.332505  1
  Si  Si8  1  0.660746  0.667929  0.667537  1
  S  S9  1  0.271108  0.164662  0.743971  1
  S  S10  1  0.290616  0.767113  0.085361  1
  S  S11  1  0.290179  0.083126  0.148964  1
  S  S12  1  0.766436  0.833857  0.255969  1
  S  S13  1  0.747041  0.234551  0.917420  1
  S  S14  1  0.748528  0.919473  0.847192  1
  S  S15  1  0.531292  0.334214  0.330830  1
  S  S16  1  0.024071  0.665582  0.669672  1
  S  S17  1  0.028312  0.111641  0.471866  1
  S  S18  1  0.027626  0.477571  0.406041  1
  S  S19  1  0.031435  0.408149  0.115126  1
  S  S20  1  0.523301  0.887721  0.529730  1
  S  S21  1  0.521934  0.524551  0.590443  1
  S  S22  1  0.521348  0.589696  0.885258  1
