# generated using pymatgen
data_Sc8Ti3Nb(Si2Mo)8
_symmetry_space_group_name_H-M   'P 1'
_cell_length_a   6.60290219
_cell_length_b   6.80099294
_cell_length_c   12.80276700
_cell_angle_alpha   90.00000000
_cell_angle_beta   90.00000000
_cell_angle_gamma   90.02960276
_symmetry_Int_Tables_number   1
_chemical_formula_structural   Sc8Ti3Nb(Si2Mo)8
_chemical_formula_sum   'Sc8 Ti3 Nb1 Si16 Mo8'
_cell_volume   574.92470555
_cell_formula_units_Z   1
loop_
 _symmetry_equiv_pos_site_id
 _symmetry_equiv_pos_as_xyz
  1  'x, y, z'
loop_
 _atom_site_type_symbol
 _atom_site_label
 _atom_site_symmetry_multiplicity
 _atom_site_fract_x
 _atom_site_fract_y
 _atom_site_fract_z
 _atom_site_occupancy
  Sc  Sc0  1  0.499756  0.672593  0.595262  1
  Sc  Sc1  1  0.000685  0.826983  0.904389  1
  Sc  Sc2  1  0.500545  0.327453  0.094880  1
  Sc  Sc3  1  0.999758  0.172669  0.405301  1
  Sc  Sc4  1  0.500545  0.327453  0.405120  1
  Sc  Sc5  1  0.999758  0.172669  0.094699  1
  Sc  Sc6  1  0.499756  0.672593  0.904738  1
  Sc  Sc7  1  0.000685  0.826983  0.595611  1
  Ti  Ti8  1  0.838437  0.493141  0.750000  1
  Ti  Ti9  1  0.337516  0.006904  0.750000  1
  Ti  Ti10  1  0.162515  0.506930  0.250000  1
  Nb  Nb11  1  0.662999  0.997066  0.250000  1
  Si  Si12  1  0.666734  0.963422  0.460287  1
  Si  Si13  1  0.166791  0.534998  0.040962  1
  Si  Si14  1  0.332711  0.035877  0.958449  1
  Si  Si15  1  0.833358  0.463988  0.541524  1
  Si  Si16  1  0.332711  0.035877  0.541551  1
  Si  Si17  1  0.833358  0.463988  0.958476  1
  Si  Si18  1  0.666734  0.963422  0.039713  1
  Si  Si19  1  0.166791  0.534998  0.459038  1
  Si  Si20  1  0.459069  0.379669  0.750000  1
  Si  Si21  1  0.959292  0.120024  0.750000  1
  Si  Si22  1  0.539549  0.618944  0.250000  1
  Si  Si23  1  0.042355  0.878100  0.250000  1
  Si  Si24  1  0.703306  0.864504  0.750000  1
  Si  Si25  1  0.203385  0.635113  0.750000  1
  Si  Si26  1  0.294458  0.137715  0.250000  1
  Si  Si27  1  0.798887  0.367572  0.250000  1
  Mo  Mo28  1  0.662802  0.173688  0.623763  1
  Mo  Mo29  1  0.163042  0.326261  0.876201  1
  Mo  Mo30  1  0.336143  0.826662  0.123556  1
  Mo  Mo31  1  0.836791  0.672564  0.376543  1
  Mo  Mo32  1  0.336143  0.826662  0.376444  1
  Mo  Mo33  1  0.836791  0.672564  0.123457  1
  Mo  Mo34  1  0.662802  0.173688  0.876237  1
  Mo  Mo35  1  0.163042  0.326261  0.623799  1
