# generated using pymatgen
data_K3Rb(Al3Se5)4
_symmetry_space_group_name_H-M   'P 1'
_cell_length_a   13.46064134
_cell_length_b   7.55531718
_cell_length_c   11.16990724
_cell_angle_alpha   75.75915497
_cell_angle_beta   89.83606858
_cell_angle_gamma   90.12190311
_symmetry_Int_Tables_number   1
_chemical_formula_structural   K3Rb(Al3Se5)4
_chemical_formula_sum   'K3 Rb1 Al12 Se20'
_cell_volume   1101.05563304
_cell_formula_units_Z   1
loop_
 _symmetry_equiv_pos_site_id
 _symmetry_equiv_pos_as_xyz
  1  'x, y, z'
loop_
 _atom_site_type_symbol
 _atom_site_label
 _atom_site_symmetry_multiplicity
 _atom_site_fract_x
 _atom_site_fract_y
 _atom_site_fract_z
 _atom_site_occupancy
  K  K0  1  0.129221  0.161279  0.132349  1
  K  K1  1  0.370035  0.161774  0.632674  1
  K  K2  1  0.871005  0.838725  0.867671  1
  Rb  Rb3  1  0.619394  0.838948  0.382388  1
  Al  Al4  1  0.925376  0.798727  0.399524  1
  Al  Al5  1  0.576406  0.797954  0.897775  1
  Al  Al6  1  0.423184  0.203280  0.100118  1
  Al  Al7  1  0.397142  0.564461  0.808078  1
  Al  Al8  1  0.102945  0.563948  0.308438  1
  Al  Al9  1  0.337094  0.706705  0.125117  1
  Al  Al10  1  0.603409  0.435307  0.189904  1
  Al  Al11  1  0.076088  0.201693  0.600655  1
  Al  Al12  1  0.662171  0.293863  0.872904  1
  Al  Al13  1  0.898578  0.434661  0.692520  1
  Al  Al14  1  0.162348  0.706737  0.625439  1
  Al  Al15  1  0.838559  0.292808  0.374120  1
  Se  Se16  1  0.831277  0.716623  0.584324  1
  Se  Se17  1  0.107016  0.814895  0.411319  1
  Se  Se18  1  0.673782  0.714330  0.078821  1
  Se  Se19  1  0.394641  0.815339  0.911215  1
  Se  Se20  1  0.327187  0.284638  0.918039  1
  Se  Se21  1  0.664444  0.340096  0.396035  1
  Se  Se22  1  0.577945  0.577434  0.764918  1
  Se  Se23  1  0.604511  0.184069  0.086685  1
  Se  Se24  1  0.894421  0.184589  0.588569  1
  Se  Se25  1  0.629978  0.072320  0.756861  1
  Se  Se26  1  0.365937  0.930938  0.239798  1
  Se  Se27  1  0.172614  0.284557  0.418065  1
  Se  Se28  1  0.079269  0.421455  0.733557  1
  Se  Se29  1  0.922107  0.577890  0.267575  1
  Se  Se30  1  0.873945  0.073249  0.258182  1
  Se  Se31  1  0.129929  0.928108  0.741224  1
  Se  Se32  1  0.835621  0.342830  0.897986  1
  Se  Se33  1  0.336151  0.657080  0.602311  1
  Se  Se34  1  0.422318  0.424131  0.232742  1
  Se  Se35  1  0.163954  0.654557  0.102100  1
