# generated using pymatgen
data_YbPa7TlPt8Pb3
_symmetry_space_group_name_H-M   'P 1'
_cell_length_a   7.92048223
_cell_length_b   7.92295544
_cell_length_c   7.27235019
_cell_angle_alpha   90.00894583
_cell_angle_beta   90.06442229
_cell_angle_gamma   90.40583902
_symmetry_Int_Tables_number   1
_chemical_formula_structural   YbPa7TlPt8Pb3
_chemical_formula_sum   'Yb1 Pa7 Tl1 Pt8 Pb3'
_cell_volume   456.35461418
_cell_formula_units_Z   1
loop_
 _symmetry_equiv_pos_site_id
 _symmetry_equiv_pos_as_xyz
  1  'x, y, z'
loop_
 _atom_site_type_symbol
 _atom_site_label
 _atom_site_symmetry_multiplicity
 _atom_site_fract_x
 _atom_site_fract_y
 _atom_site_fract_z
 _atom_site_occupancy
  Yb  Yb0  1  0.179519  0.823115  0.500994  1
  Pa  Pa1  1  0.680568  0.679701  0.999404  1
  Pa  Pa2  1  0.337685  0.338251  0.500721  1
  Pa  Pa3  1  0.821233  0.177958  0.499987  1
  Pa  Pa4  1  0.660196  0.663328  0.500360  1
  Pa  Pa5  1  0.321625  0.318231  0.999660  1
  Pa  Pa6  1  0.839593  0.158958  0.999251  1
  Pa  Pa7  1  0.164658  0.835930  0.999316  1
  Tl  Tl8  1  0.491859  0.996831  0.745290  1
  Pt  Pt9  1  0.864752  0.874598  0.736393  1
  Pt  Pt10  1  0.126780  0.133641  0.737638  1
  Pt  Pt11  1  0.631708  0.366456  0.769686  1
  Pt  Pt12  1  0.632294  0.367861  0.229418  1
  Pt  Pt13  1  0.377941  0.622193  0.226029  1
  Pt  Pt14  1  0.126030  0.133732  0.262911  1
  Pt  Pt15  1  0.866838  0.873717  0.263355  1
  Pt  Pt16  1  0.378373  0.622960  0.774220  1
  Pb  Pb17  1  0.492692  0.997359  0.255262  1
  Pb  Pb18  1  0.002697  0.507493  0.745804  1
  Pb  Pb19  1  0.002956  0.507689  0.254303  1
