# generated using pymatgen
data_Y7Er3(Ga2Sb)2
_symmetry_space_group_name_H-M   'P 1'
_cell_length_a   8.68030123
_cell_length_b   8.70712347
_cell_length_c   6.53405703
_cell_angle_alpha   90.01172119
_cell_angle_beta   89.99411587
_cell_angle_gamma   120.10228171
_symmetry_Int_Tables_number   1
_chemical_formula_structural   Y7Er3(Ga2Sb)2
_chemical_formula_sum   'Y7 Er3 Ga4 Sb2'
_cell_volume   427.24256220
_cell_formula_units_Z   1
loop_
 _symmetry_equiv_pos_site_id
 _symmetry_equiv_pos_as_xyz
  1  'x, y, z'
loop_
 _atom_site_type_symbol
 _atom_site_label
 _atom_site_symmetry_multiplicity
 _atom_site_fract_x
 _atom_site_fract_y
 _atom_site_fract_z
 _atom_site_occupancy
  Y  Y0  1  0.986994  0.750221  0.750196  1
  Y  Y1  1  0.986994  0.236773  0.249804  1
  Y  Y2  1  0.764882  0.764886  0.249810  1
  Y  Y3  1  0.764882  0.999997  0.750190  1
  Y  Y4  1  0.237268  0.249441  0.750213  1
  Y  Y5  1  0.237268  0.987826  0.249787  1
  Y  Y6  1  0.331839  0.665920  0.500000  1
  Er  Er7  1  0.684748  0.342374  0.000000  1
  Er  Er8  1  0.685083  0.342542  0.500000  1
  Er  Er9  1  0.332007  0.666004  0.000000  1
  Ga  Ga10  1  0.000816  0.600520  0.249287  1
  Ga  Ga11  1  0.000816  0.400296  0.750713  1
  Ga  Ga12  1  0.597597  0.600813  0.750772  1
  Ga  Ga13  1  0.597597  0.996783  0.249228  1
  Sb  Sb14  1  0.395604  0.004813  0.750645  1
  Sb  Sb15  1  0.395604  0.390791  0.249355  1
