# generated using pymatgen
data_PrSi4IrRh5
_symmetry_space_group_name_H-M   'P 1'
_cell_length_a   7.02728600
_cell_length_b   7.05664450
_cell_length_c   3.85215500
_cell_angle_alpha   90.00000000
_cell_angle_beta   90.00000000
_cell_angle_gamma   119.86247006
_symmetry_Int_Tables_number   1
_chemical_formula_structural   PrSi4IrRh5
_chemical_formula_sum   'Pr1 Si4 Ir1 Rh5'
_cell_volume   165.66106568
_cell_formula_units_Z   1
loop_
 _symmetry_equiv_pos_site_id
 _symmetry_equiv_pos_as_xyz
  1  'x, y, z'
loop_
 _atom_site_type_symbol
 _atom_site_label
 _atom_site_symmetry_multiplicity
 _atom_site_fract_x
 _atom_site_fract_y
 _atom_site_fract_z
 _atom_site_occupancy
  Pr  Pr0  1  0.000040  0.000079  0.000000  1
  Si  Si1  1  0.332814  0.665629  0.000000  1
  Si  Si2  1  0.404110  0.201256  0.499999  1
  Si  Si3  1  0.797146  0.201256  0.499999  1
  Si  Si4  1  0.798922  0.597843  0.499999  1
  Ir  Ir5  1  0.532532  0.065064  0.000000  1
  Rh  Rh6  1  0.934940  0.468804  0.000000  1
  Rh  Rh7  1  0.533863  0.468804  0.000000  1
  Rh  Rh8  1  0.199339  0.398678  0.499999  1
  Rh  Rh9  1  0.200032  0.799628  0.499999  1
  Rh  Rh10  1  0.599596  0.799628  0.499999  1
