# generated using pymatgen
data_Sm3In3Ag2Ru
_symmetry_space_group_name_H-M   'P 1'
_cell_length_a   7.83906900
_cell_length_b   7.83906797
_cell_length_c   4.05374100
_cell_angle_alpha   90.00000000
_cell_angle_beta   90.00000000
_cell_angle_gamma   120.00000011
_symmetry_Int_Tables_number   1
_chemical_formula_structural   Sm3In3Ag2Ru
_chemical_formula_sum   'Sm3 In3 Ag2 Ru1'
_cell_volume   215.73248503
_cell_formula_units_Z   1
loop_
 _symmetry_equiv_pos_site_id
 _symmetry_equiv_pos_as_xyz
  1  'x, y, z'
loop_
 _atom_site_type_symbol
 _atom_site_label
 _atom_site_symmetry_multiplicity
 _atom_site_fract_x
 _atom_site_fract_y
 _atom_site_fract_z
 _atom_site_occupancy
  Sm  Sm0  1  0.029895  0.428148  0.500000  1
  Sm  Sm1  1  0.571852  0.601746  0.500000  1
  Sm  Sm2  1  0.398254  0.970105  0.500000  1
  In  In3  1  0.001168  0.740209  0.000000  1
  In  In4  1  0.259791  0.260960  0.000000  1
  In  In5  1  0.739040  0.998832  0.000000  1
  Ag  Ag6  1  0.666667  0.333333  0.000000  1
  Ag  Ag7  1  0.000000  0.000000  0.500000  1
  Ru  Ru8  1  0.333333  0.666667  0.000000  1
