# generated using pymatgen
data_KHf2F9
_symmetry_space_group_name_H-M   'P 1'
_cell_length_a   5.45714705
_cell_length_b   5.45879204
_cell_length_c   8.64803400
_cell_angle_alpha   89.98946558
_cell_angle_beta   89.99183665
_cell_angle_gamma   59.99773238
_symmetry_Int_Tables_number   1
_chemical_formula_structural   KHf2F9
_chemical_formula_sum   'K1 Hf2 F9'
_cell_volume   223.10037149
_cell_formula_units_Z   1
loop_
 _symmetry_equiv_pos_site_id
 _symmetry_equiv_pos_as_xyz
  1  'x, y, z'
loop_
 _atom_site_type_symbol
 _atom_site_label
 _atom_site_symmetry_multiplicity
 _atom_site_fract_x
 _atom_site_fract_y
 _atom_site_fract_z
 _atom_site_occupancy
  K  K0  1  0.666532  0.666812  0.333848  1
  Hf  Hf1  1  0.333318  0.333441  0.678527  1
  Hf  Hf2  1  0.000126  0.999916  0.988082  1
  F  F3  1  0.971988  0.312187  0.107748  1
  F  F4  1  0.312680  0.715337  0.107466  1
  F  F5  1  0.715530  0.971630  0.107506  1
  F  F6  1  0.021021  0.360927  0.559052  1
  F  F7  1  0.618098  0.021253  0.558969  1
  F  F8  1  0.360683  0.618310  0.558968  1
  F  F9  1  0.252794  0.080648  0.833290  1
  F  F10  1  0.080527  0.666717  0.833280  1
  F  F11  1  0.666702  0.252823  0.833266  1
