# generated using pymatgen
data_Tm6Co13P12Ru5
_symmetry_space_group_name_H-M   'P 1'
_cell_length_a   3.73605200
_cell_length_b   10.52036022
_cell_length_c   12.28311523
_cell_angle_alpha   90.33489945
_cell_angle_beta   90.00000000
_cell_angle_gamma   90.00000000
_symmetry_Int_Tables_number   1
_chemical_formula_structural   Tm6Co13P12Ru5
_chemical_formula_sum   'Tm6 Co13 P12 Ru5'
_cell_volume   482.77484158
_cell_formula_units_Z   1
loop_
 _symmetry_equiv_pos_site_id
 _symmetry_equiv_pos_as_xyz
  1  'x, y, z'
loop_
 _atom_site_type_symbol
 _atom_site_label
 _atom_site_symmetry_multiplicity
 _atom_site_fract_x
 _atom_site_fract_y
 _atom_site_fract_z
 _atom_site_occupancy
  Tm  Tm0  1  0.000000  0.502564  0.527390  1
  Tm  Tm1  1  0.500000  0.995337  0.476648  1
  Tm  Tm2  1  0.500000  0.818990  0.202912  1
  Tm  Tm3  1  0.500000  0.182949  0.201420  1
  Tm  Tm4  1  0.000000  0.682157  0.795847  1
  Tm  Tm5  1  0.000000  0.317244  0.798535  1
  Co  Co6  1  0.000000  0.500507  0.984765  1
  Co  Co7  1  0.500000  0.999455  0.014587  1
  Co  Co8  1  0.000000  0.798515  0.573933  1
  Co  Co9  1  0.500000  0.876569  0.711854  1
  Co  Co10  1  0.500000  0.118086  0.715402  1
  Co  Co11  1  0.000000  0.622919  0.286052  1
  Co  Co12  1  0.000000  0.380807  0.284114  1
  Co  Co13  1  0.500000  0.332737  0.989352  1
  Co  Co14  1  0.500000  0.668062  0.989453  1
  Co  Co15  1  0.000000  0.166915  0.009717  1
  Co  Co16  1  0.000000  0.832258  0.009944  1
  Co  Co17  1  0.500000  0.500197  0.704645  1
  Co  Co18  1  0.000000  0.000904  0.295095  1
  P  P19  1  0.500000  0.313398  0.623026  1
  P  P20  1  0.500000  0.688338  0.621632  1
  P  P21  1  0.000000  0.186145  0.377549  1
  P  P22  1  0.000000  0.817220  0.381011  1
  P  P23  1  0.500000  0.500229  0.881250  1
  P  P24  1  0.000000  0.000156  0.118266  1
  P  P25  1  0.500000  0.845264  0.894046  1
  P  P26  1  0.500000  0.153062  0.894683  1
  P  P27  1  0.000000  0.654587  0.105320  1
  P  P28  1  0.000000  0.346598  0.104349  1
  P  P29  1  0.500000  0.500656  0.344160  1
  P  P30  1  0.000000  0.995805  0.653739  1
  Ru  Ru31  1  0.500000  0.298867  0.426873  1
  Ru  Ru32  1  0.500000  0.704003  0.430301  1
  Ru  Ru33  1  0.000000  0.199876  0.573572  1
  Ru  Ru34  1  0.500000  0.501493  0.155533  1
  Ru  Ru35  1  0.000000  0.997131  0.843024  1
