# generated using pymatgen
data_Y6InSi2
_symmetry_space_group_name_H-M   'P 1'
_cell_length_a   8.54997921
_cell_length_b   8.54998017
_cell_length_c   8.54997983
_cell_angle_alpha   112.26722194
_cell_angle_beta   110.98311649
_cell_angle_gamma   105.24697794
_symmetry_Int_Tables_number   1
_chemical_formula_structural   Y6InSi2
_chemical_formula_sum   'Y12 In2 Si4'
_cell_volume   479.13434397
_cell_formula_units_Z   2
loop_
 _symmetry_equiv_pos_site_id
 _symmetry_equiv_pos_as_xyz
  1  'x, y, z'
loop_
 _atom_site_type_symbol
 _atom_site_label
 _atom_site_symmetry_multiplicity
 _atom_site_fract_x
 _atom_site_fract_y
 _atom_site_fract_z
 _atom_site_occupancy
  Y  Y0  1  0.443510  0.239707  0.203803  1
  Y  Y1  1  0.556490  0.760293  0.796197  1
  Y  Y2  1  0.035903  0.239707  0.796197  1
  Y  Y3  1  0.964097  0.760293  0.203803  1
  Y  Y4  1  0.184692  0.276932  0.461624  1
  Y  Y5  1  0.815308  0.723068  0.538376  1
  Y  Y6  1  0.184692  0.723068  0.907761  1
  Y  Y7  1  0.815308  0.276932  0.092239  1
  Y  Y8  1  0.320109  0.618078  0.297970  1
  Y  Y9  1  0.679891  0.381922  0.702030  1
  Y  Y10  1  0.320109  0.022139  0.702030  1
  Y  Y11  1  0.679891  0.977861  0.297970  1
  In  In12  1  0.500000  0.500000  0.000000  1
  In  In13  1  0.000000  0.000000  0.000000  1
  Si  Si14  1  0.368435  0.000000  0.368435  1
  Si  Si15  1  0.631565  0.000000  0.631565  1
  Si  Si16  1  0.115363  0.615363  0.500000  1
  Si  Si17  1  0.884637  0.384637  0.500000  1
