# generated using pymatgen
data_Ti2Nb4V4Si6B
_symmetry_space_group_name_H-M   'P 1'
_cell_length_a   7.44185260
_cell_length_b   7.43600871
_cell_length_c   5.02378775
_cell_angle_alpha   90.04794962
_cell_angle_beta   89.90417605
_cell_angle_gamma   120.02600937
_symmetry_Int_Tables_number   1
_chemical_formula_structural   Ti2Nb4V4Si6B
_chemical_formula_sum   'Ti2 Nb4 V4 Si6 B1'
_cell_volume   240.69572589
_cell_formula_units_Z   1
loop_
 _symmetry_equiv_pos_site_id
 _symmetry_equiv_pos_as_xyz
  1  'x, y, z'
loop_
 _atom_site_type_symbol
 _atom_site_label
 _atom_site_symmetry_multiplicity
 _atom_site_fract_x
 _atom_site_fract_y
 _atom_site_fract_z
 _atom_site_occupancy
  Ti  Ti0  1  0.999567  0.755183  0.245513  1
  Ti  Ti1  1  0.244384  0.244817  0.245513  1
  Nb  Nb2  1  0.755449  0.000000  0.244983  1
  Nb  Nb3  1  0.001314  0.247706  0.753866  1
  Nb  Nb4  1  0.753608  0.752294  0.753866  1
  Nb  Nb5  1  0.246766  0.000000  0.753074  1
  V  V6  1  0.333491  0.666861  0.499402  1
  V  V7  1  0.666631  0.333139  0.499402  1
  V  V8  1  0.666383  0.333407  0.002024  1
  V  V9  1  0.332975  0.666593  0.002024  1
  Si  Si10  1  0.002166  0.406065  0.248191  1
  Si  Si11  1  0.596101  0.593935  0.248191  1
  Si  Si12  1  0.399473  0.000000  0.248002  1
  Si  Si13  1  0.000281  0.597779  0.754011  1
  Si  Si14  1  0.402503  0.402221  0.754011  1
  Si  Si15  1  0.596986  0.000000  0.752218  1
  B  B16  1  0.001919  0.000000  0.495709  1
