# generated using pymatgen
data_Dy13Ho7Si15Pt
_symmetry_space_group_name_H-M   'P 1'
_cell_length_a   7.43995763
_cell_length_b   7.68231444
_cell_length_c   14.57387300
_cell_angle_alpha   89.71660443
_cell_angle_beta   89.70647939
_cell_angle_gamma   90.21822537
_symmetry_Int_Tables_number   1
_chemical_formula_structural   Dy13Ho7Si15Pt
_chemical_formula_sum   'Dy13 Ho7 Si15 Pt1'
_cell_volume   832.95841157
_cell_formula_units_Z   1
loop_
 _symmetry_equiv_pos_site_id
 _symmetry_equiv_pos_as_xyz
  1  'x, y, z'
loop_
 _atom_site_type_symbol
 _atom_site_label
 _atom_site_symmetry_multiplicity
 _atom_site_fract_x
 _atom_site_fract_y
 _atom_site_fract_z
 _atom_site_occupancy
  Dy  Dy0  1  0.649051  0.992756  0.249185  1
  Dy  Dy1  1  0.148950  0.510764  0.247787  1
  Dy  Dy2  1  0.846566  0.488028  0.756383  1
  Dy  Dy3  1  0.351481  0.010186  0.751783  1
  Dy  Dy4  1  0.974687  0.817334  0.098224  1
  Dy  Dy5  1  0.472005  0.682326  0.401347  1
  Dy  Dy6  1  0.527253  0.321463  0.901006  1
  Dy  Dy7  1  0.028864  0.183821  0.599265  1
  Dy  Dy8  1  0.028264  0.182491  0.901516  1
  Dy  Dy9  1  0.528675  0.317947  0.598425  1
  Dy  Dy10  1  0.474321  0.682140  0.100094  1
  Dy  Dy11  1  0.970565  0.817444  0.400456  1
  Dy  Dy12  1  0.681247  0.814649  0.881426  1
  Ho  Ho13  1  0.178565  0.681349  0.621955  1
  Ho  Ho14  1  0.817987  0.331940  0.119847  1
  Ho  Ho15  1  0.316717  0.177820  0.376190  1
  Ho  Ho16  1  0.321673  0.178845  0.123853  1
  Ho  Ho17  1  0.819882  0.319564  0.377256  1
  Ho  Ho18  1  0.177467  0.675757  0.877638  1
  Ho  Ho19  1  0.682152  0.819381  0.622506  1
  Si  Si20  1  0.765798  0.629027  0.252038  1
  Si  Si21  1  0.266478  0.873059  0.250784  1
  Si  Si22  1  0.732681  0.123593  0.748728  1
  Si  Si23  1  0.233519  0.373690  0.746514  1
  Si  Si24  1  0.020921  0.107268  0.248898  1
  Si  Si25  1  0.523911  0.395541  0.251741  1
  Si  Si26  1  0.471623  0.606678  0.746646  1
  Si  Si27  1  0.976614  0.895866  0.748233  1
  Si  Si28  1  0.353642  0.971575  0.539750  1
  Si  Si29  1  0.647034  0.028243  0.042043  1
  Si  Si30  1  0.148188  0.469952  0.460091  1
  Si  Si31  1  0.157760  0.471147  0.041294  1
  Si  Si32  1  0.644603  0.028967  0.459581  1
  Si  Si33  1  0.352381  0.969164  0.961779  1
  Si  Si34  1  0.853939  0.529128  0.538877  1
  Pt  Pt35  1  0.854533  0.521099  0.956862  1
