# generated using pymatgen
data_Y2ErZnCd3Au2
_symmetry_space_group_name_H-M   'P 1'
_cell_length_a   7.85593779
_cell_length_b   7.85593758
_cell_length_c   3.78880300
_cell_angle_alpha   90.00000000
_cell_angle_beta   90.00000000
_cell_angle_gamma   119.73634678
_symmetry_Int_Tables_number   1
_chemical_formula_structural   Y2ErZnCd3Au2
_chemical_formula_sum   'Y2 Er1 Zn1 Cd3 Au2'
_cell_volume   203.03756948
_cell_formula_units_Z   1
loop_
 _symmetry_equiv_pos_site_id
 _symmetry_equiv_pos_as_xyz
  1  'x, y, z'
loop_
 _atom_site_type_symbol
 _atom_site_label
 _atom_site_symmetry_multiplicity
 _atom_site_fract_x
 _atom_site_fract_y
 _atom_site_fract_z
 _atom_site_occupancy
  Y  Y0  1  0.590957  0.999875  0.000000  1
  Y  Y1  1  0.999875  0.590957  0.000000  1
  Er  Er2  1  0.409637  0.409637  0.000000  1
  Zn  Zn3  1  0.000447  0.000447  0.000000  1
  Cd  Cd4  1  0.257303  0.000812  0.500000  1
  Cd  Cd5  1  0.000812  0.257303  0.500000  1
  Cd  Cd6  1  0.742243  0.742243  0.500000  1
  Au  Au7  1  0.333967  0.664758  0.500000  1
  Au  Au8  1  0.664758  0.333967  0.500000  1
