# generated using pymatgen
data_CsHo2LuTe5
_symmetry_space_group_name_H-M   'P 1'
_cell_length_a   4.40670000
_cell_length_b   13.37652900
_cell_length_c   23.69292100
_cell_angle_alpha   90.00000000
_cell_angle_beta   90.00000000
_cell_angle_gamma   90.00000000
_symmetry_Int_Tables_number   1
_chemical_formula_structural   CsHo2LuTe5
_chemical_formula_sum   'Cs4 Ho8 Lu4 Te20'
_cell_volume   1396.61122195
_cell_formula_units_Z   4
loop_
 _symmetry_equiv_pos_site_id
 _symmetry_equiv_pos_as_xyz
  1  'x, y, z'
loop_
 _atom_site_type_symbol
 _atom_site_label
 _atom_site_symmetry_multiplicity
 _atom_site_fract_x
 _atom_site_fract_y
 _atom_site_fract_z
 _atom_site_occupancy
  Cs  Cs0  1  0.250000  0.353650  0.088914  1
  Cs  Cs1  1  0.750000  0.646350  0.911086  1
  Cs  Cs2  1  0.750000  0.853650  0.411086  1
  Cs  Cs3  1  0.250000  0.146350  0.588914  1
  Ho  Ho4  1  0.250000  0.453945  0.697392  1
  Ho  Ho5  1  0.750000  0.546055  0.302608  1
  Ho  Ho6  1  0.750000  0.953945  0.802608  1
  Ho  Ho7  1  0.250000  0.046055  0.197392  1
  Ho  Ho8  1  0.250000  0.796298  0.674347  1
  Ho  Ho9  1  0.750000  0.203702  0.325653  1
  Ho  Ho10  1  0.750000  0.296298  0.825653  1
  Ho  Ho11  1  0.250000  0.703702  0.174347  1
  Lu  Lu12  1  0.250000  0.393001  0.444567  1
  Lu  Lu13  1  0.750000  0.606999  0.555433  1
  Lu  Lu14  1  0.750000  0.893001  0.055433  1
  Lu  Lu15  1  0.250000  0.106999  0.944567  1
  Te  Te16  1  0.250000  0.447613  0.568078  1
  Te  Te17  1  0.750000  0.552387  0.431922  1
  Te  Te18  1  0.750000  0.947613  0.931922  1
  Te  Te19  1  0.250000  0.052387  0.068078  1
  Te  Te20  1  0.250000  0.762765  0.546074  1
  Te  Te21  1  0.750000  0.237235  0.453926  1
  Te  Te22  1  0.750000  0.262765  0.953926  1
  Te  Te23  1  0.250000  0.737235  0.046074  1
  Te  Te24  1  0.250000  0.799983  0.803153  1
  Te  Te25  1  0.750000  0.200017  0.196847  1
  Te  Te26  1  0.750000  0.299983  0.696847  1
  Te  Te27  1  0.250000  0.700017  0.303153  1
  Te  Te28  1  0.250000  0.452093  0.826807  1
  Te  Te29  1  0.750000  0.547907  0.173193  1
  Te  Te30  1  0.750000  0.952093  0.673193  1
  Te  Te31  1  0.250000  0.047907  0.326807  1
  Te  Te32  1  0.250000  0.375314  0.314698  1
  Te  Te33  1  0.750000  0.624686  0.685302  1
  Te  Te34  1  0.750000  0.875314  0.185302  1
  Te  Te35  1  0.250000  0.124686  0.814698  1
