# generated using pymatgen
data_ErHf4Zr5Sn6
_symmetry_space_group_name_H-M   'P 1'
_cell_length_a   8.58882166
_cell_length_b   8.58882273
_cell_length_c   5.81681300
_cell_angle_alpha   90.00000000
_cell_angle_beta   90.00000000
_cell_angle_gamma   120.82328104
_symmetry_Int_Tables_number   1
_chemical_formula_structural   ErHf4Zr5Sn6
_chemical_formula_sum   'Er1 Hf4 Zr5 Sn6'
_cell_volume   368.48513322
_cell_formula_units_Z   1
loop_
 _symmetry_equiv_pos_site_id
 _symmetry_equiv_pos_as_xyz
  1  'x, y, z'
loop_
 _atom_site_type_symbol
 _atom_site_label
 _atom_site_symmetry_multiplicity
 _atom_site_fract_x
 _atom_site_fract_y
 _atom_site_fract_z
 _atom_site_occupancy
  Er  Er0  1  0.764546  0.764546  0.750000  1
  Hf  Hf1  1  0.665350  0.333173  0.000569  1
  Hf  Hf2  1  0.333173  0.665350  0.000569  1
  Hf  Hf3  1  0.333173  0.665350  0.499431  1
  Hf  Hf4  1  0.665350  0.333173  0.499431  1
  Zr  Zr5  1  0.250575  0.001745  0.750000  1
  Zr  Zr6  1  0.001745  0.250575  0.750000  1
  Zr  Zr7  1  0.240319  0.240319  0.250000  1
  Zr  Zr8  1  0.749421  0.999105  0.250000  1
  Zr  Zr9  1  0.999105  0.749421  0.250000  1
  Sn  Sn10  1  0.392465  0.392465  0.750000  1
  Sn  Sn11  1  0.606047  0.002609  0.750000  1
  Sn  Sn12  1  0.002609  0.606047  0.750000  1
  Sn  Sn13  1  0.605677  0.605677  0.250000  1
  Sn  Sn14  1  0.390964  0.999482  0.250000  1
  Sn  Sn15  1  0.999482  0.390964  0.250000  1
