# generated using pymatgen
data_ThGaBRh3
_symmetry_space_group_name_H-M   'P 1'
_cell_length_a   5.57621100
_cell_length_b   5.57621092
_cell_length_c   6.99857900
_cell_angle_alpha   90.00000000
_cell_angle_beta   90.00000000
_cell_angle_gamma   120.00000642
_symmetry_Int_Tables_number   1
_chemical_formula_structural   ThGaBRh3
_chemical_formula_sum   'Th2 Ga2 B2 Rh6'
_cell_volume   188.45986000
_cell_formula_units_Z   2
loop_
 _symmetry_equiv_pos_site_id
 _symmetry_equiv_pos_as_xyz
  1  'x, y, z'
loop_
 _atom_site_type_symbol
 _atom_site_label
 _atom_site_symmetry_multiplicity
 _atom_site_fract_x
 _atom_site_fract_y
 _atom_site_fract_z
 _atom_site_occupancy
  Th  Th0  1  0.000000  0.000000  0.000000  1
  Th  Th1  1  0.000000  0.000000  0.500000  1
  Ga  Ga2  1  0.333333  0.666667  0.000000  1
  Ga  Ga3  1  0.666667  0.333333  0.000000  1
  B  B4  1  0.333333  0.666667  0.500000  1
  B  B5  1  0.666667  0.333333  0.500000  1
  Rh  Rh6  1  0.500000  0.000000  0.710547  1
  Rh  Rh7  1  0.000000  0.500000  0.289453  1
  Rh  Rh8  1  0.500000  0.000000  0.289453  1
  Rh  Rh9  1  0.500000  0.500000  0.710547  1
  Rh  Rh10  1  0.500000  0.500000  0.289453  1
  Rh  Rh11  1  0.000000  0.500000  0.710547  1
