# generated using pymatgen
data_Sc2Ga2IrAu
_symmetry_space_group_name_H-M   'P 1'
_cell_length_a   7.25532300
_cell_length_b   7.25532222
_cell_length_c   7.14256100
_cell_angle_alpha   90.00000000
_cell_angle_beta   90.00000000
_cell_angle_gamma   119.99998986
_symmetry_Int_Tables_number   1
_chemical_formula_structural   Sc2Ga2IrAu
_chemical_formula_sum   'Sc6 Ga6 Ir3 Au3'
_cell_volume   325.61026731
_cell_formula_units_Z   3
loop_
 _symmetry_equiv_pos_site_id
 _symmetry_equiv_pos_as_xyz
  1  'x, y, z'
loop_
 _atom_site_type_symbol
 _atom_site_label
 _atom_site_symmetry_multiplicity
 _atom_site_fract_x
 _atom_site_fract_y
 _atom_site_fract_z
 _atom_site_occupancy
  Sc  Sc0  1  0.614284  0.010237  0.759148  1
  Sc  Sc1  1  0.989763  0.604047  0.759148  1
  Sc  Sc2  1  0.395953  0.385716  0.759148  1
  Sc  Sc3  1  0.987629  0.602910  0.240858  1
  Sc  Sc4  1  0.615281  0.012371  0.240858  1
  Sc  Sc5  1  0.397090  0.384719  0.240858  1
  Ga  Ga6  1  0.725806  0.720019  0.999845  1
  Ga  Ga7  1  0.279981  0.005787  0.999845  1
  Ga  Ga8  1  0.994213  0.274194  0.999845  1
  Ga  Ga9  1  0.755001  0.759940  0.499908  1
  Ga  Ga10  1  0.240060  0.995061  0.499908  1
  Ga  Ga11  1  0.004939  0.244999  0.499908  1
  Ir  Ir12  1  0.000000  0.000000  0.775341  1
  Ir  Ir13  1  0.000000  0.000000  0.224434  1
  Ir  Ir14  1  0.666667  0.333333  0.999102  1
  Au  Au15  1  0.666667  0.333333  0.501689  1
  Au  Au16  1  0.333333  0.666667  0.498349  1
  Au  Au17  1  0.333333  0.666667  0.001805  1
