# generated using pymatgen
data_Ba20Ga5Pt7O44
_symmetry_space_group_name_H-M   'P 1'
_cell_length_a   5.89772500
_cell_length_b   11.26774549
_cell_length_c   19.09295500
_cell_angle_alpha   90.23340435
_cell_angle_beta   90.00000000
_cell_angle_gamma   90.00000000
_symmetry_Int_Tables_number   1
_chemical_formula_structural   Ba20Ga5Pt7O44
_chemical_formula_sum   'Ba20 Ga5 Pt7 O44'
_cell_volume   1268.79393123
_cell_formula_units_Z   1
loop_
 _symmetry_equiv_pos_site_id
 _symmetry_equiv_pos_as_xyz
  1  'x, y, z'
loop_
 _atom_site_type_symbol
 _atom_site_label
 _atom_site_symmetry_multiplicity
 _atom_site_fract_x
 _atom_site_fract_y
 _atom_site_fract_z
 _atom_site_occupancy
  Ba  Ba0  1  0.250000  0.127183  0.749143  1
  Ba  Ba1  1  0.250000  0.373341  0.254044  1
  Ba  Ba2  1  0.750000  0.873313  0.249266  1
  Ba  Ba3  1  0.750000  0.625423  0.747695  1
  Ba  Ba4  1  0.250000  0.448842  0.669673  1
  Ba  Ba5  1  0.250000  0.048397  0.172885  1
  Ba  Ba6  1  0.750000  0.547399  0.329059  1
  Ba  Ba7  1  0.750000  0.952450  0.826067  1
  Ba  Ba8  1  0.250000  0.896124  0.972148  1
  Ba  Ba9  1  0.250000  0.599781  0.473176  1
  Ba  Ba10  1  0.750000  0.103864  0.026982  1
  Ba  Ba11  1  0.750000  0.389101  0.527624  1
  Ba  Ba12  1  0.250000  0.811181  0.636538  1
  Ba  Ba13  1  0.250000  0.692607  0.138588  1
  Ba  Ba14  1  0.750000  0.192197  0.364531  1
  Ba  Ba15  1  0.750000  0.306453  0.860780  1
  Ba  Ba16  1  0.250000  0.524203  0.928392  1
  Ba  Ba17  1  0.250000  0.980752  0.436135  1
  Ba  Ba18  1  0.750000  0.475634  0.070578  1
  Ba  Ba19  1  0.750000  0.032611  0.569046  1
  Ga  Ga20  1  0.250000  0.758527  0.807612  1
  Ga  Ga21  1  0.250000  0.741765  0.309505  1
  Ga  Ga22  1  0.750000  0.240977  0.192041  1
  Ga  Ga23  1  0.750000  0.261199  0.689041  1
  Ga  Ga24  1  0.250000  0.195120  0.570356  1
  Pt  Pt25  1  0.250000  0.206297  0.931684  1
  Pt  Pt26  1  0.250000  0.292867  0.435418  1
  Pt  Pt27  1  0.750000  0.793143  0.068392  1
  Pt  Pt28  1  0.750000  0.707618  0.568714  1
  Pt  Pt29  1  0.250000  0.297576  0.066384  1
  Pt  Pt30  1  0.750000  0.796309  0.434069  1
  Pt  Pt31  1  0.750000  0.703152  0.933579  1
  O  O32  1  0.250000  0.030913  0.589485  1
  O  O33  1  0.250000  0.468832  0.094663  1
  O  O34  1  0.750000  0.966331  0.405485  1
  O  O35  1  0.750000  0.531676  0.905202  1
  O  O36  1  0.250000  0.310886  0.846439  1
  O  O37  1  0.250000  0.188418  0.349578  1
  O  O38  1  0.750000  0.687442  0.153498  1
  O  O39  1  0.750000  0.813927  0.652903  1
  O  O40  1  0.250000  0.905259  0.767561  1
  O  O41  1  0.250000  0.594847  0.268556  1
  O  O42  1  0.750000  0.094469  0.231641  1
  O  O43  1  0.750000  0.405715  0.733594  1
  O  O44  1  0.250000  0.630579  0.750274  1
  O  O45  1  0.250000  0.865530  0.249311  1
  O  O46  1  0.750000  0.367353  0.250658  1
  O  O47  1  0.750000  0.135486  0.749486  1
  O  O48  1  0.250000  0.379033  0.528031  1
  O  O49  1  0.250000  0.124049  0.028222  1
  O  O50  1  0.750000  0.623694  0.472502  1
  O  O51  1  0.750000  0.876344  0.972176  1
  O  O52  1  0.024270  0.319379  0.986217  1
  O  O53  1  0.478204  0.184311  0.484135  1
  O  O54  1  0.524373  0.680450  0.013657  1
  O  O55  1  0.975211  0.818595  0.513977  1
  O  O56  1  0.975627  0.680450  0.013657  1
  O  O57  1  0.524789  0.818595  0.513977  1
  O  O58  1  0.475730  0.319379  0.986217  1
  O  O59  1  0.021796  0.184311  0.484135  1
  O  O60  1  0.010571  0.097677  0.898087  1
  O  O61  1  0.486197  0.400704  0.398391  1
  O  O62  1  0.510332  0.901028  0.102435  1
  O  O63  1  0.987259  0.600479  0.603484  1
  O  O64  1  0.989668  0.901028  0.102435  1
  O  O65  1  0.512741  0.600479  0.603484  1
  O  O66  1  0.489429  0.097677  0.898087  1
  O  O67  1  0.013803  0.400704  0.398391  1
  O  O68  1  0.005838  0.249253  0.632286  1
  O  O69  1  0.488092  0.250057  0.137528  1
  O  O70  1  0.514186  0.747950  0.362470  1
  O  O71  1  0.989488  0.752027  0.863130  1
  O  O72  1  0.985814  0.747950  0.362470  1
  O  O73  1  0.510512  0.752027  0.863130  1
  O  O74  1  0.494162  0.249253  0.632286  1
  O  O75  1  0.011908  0.250057  0.137528  1
