# generated using pymatgen
data_AcHoFe3Re14C3
_symmetry_space_group_name_H-M   'P 1'
_cell_length_a   6.95715428
_cell_length_b   6.95715389
_cell_length_c   6.95715269
_cell_angle_alpha   82.84866631
_cell_angle_beta   82.84866412
_cell_angle_gamma   82.84867180
_symmetry_Int_Tables_number   1
_chemical_formula_structural   AcHoFe3Re14C3
_chemical_formula_sum   'Ac1 Ho1 Fe3 Re14 C3'
_cell_volume   329.48341682
_cell_formula_units_Z   1
loop_
 _symmetry_equiv_pos_site_id
 _symmetry_equiv_pos_as_xyz
  1  'x, y, z'
loop_
 _atom_site_type_symbol
 _atom_site_label
 _atom_site_symmetry_multiplicity
 _atom_site_fract_x
 _atom_site_fract_y
 _atom_site_fract_z
 _atom_site_occupancy
  Ac  Ac0  1  0.647482  0.647482  0.647482  1
  Ho  Ho1  1  0.349369  0.349369  0.349369  1
  Fe  Fe2  1  0.997403  0.997403  0.501500  1
  Fe  Fe3  1  0.501500  0.997403  0.997403  1
  Fe  Fe4  1  0.997403  0.501500  0.997403  1
  Re  Re5  1  0.721827  0.276617  0.001479  1
  Re  Re6  1  0.001479  0.721827  0.276617  1
  Re  Re7  1  0.276617  0.001479  0.721827  1
  Re  Re8  1  0.001479  0.276617  0.721827  1
  Re  Re9  1  0.721827  0.001479  0.276617  1
  Re  Re10  1  0.276617  0.721827  0.001479  1
  Re  Re11  1  0.343103  0.869215  0.343103  1
  Re  Re12  1  0.343103  0.343103  0.869215  1
  Re  Re13  1  0.869215  0.343103  0.343103  1
  Re  Re14  1  0.653846  0.139673  0.653846  1
  Re  Re15  1  0.653846  0.653846  0.139673  1
  Re  Re16  1  0.139673  0.653846  0.653846  1
  Re  Re17  1  0.900150  0.900150  0.900150  1
  Re  Re18  1  0.101687  0.101687  0.101687  1
  C  C19  1  0.492799  0.492799  0.016777  1
  C  C20  1  0.016777  0.492799  0.492799  1
  C  C21  1  0.492799  0.016777  0.492799  1
