# generated using pymatgen
data_Dy6Er4TlSb5
_symmetry_space_group_name_H-M   'P 1'
_cell_length_a   6.36112100
_cell_length_b   8.93232954
_cell_length_c   8.94410800
_cell_angle_alpha   119.95645962
_cell_angle_beta   90.00001801
_cell_angle_gamma   89.99997176
_symmetry_Int_Tables_number   1
_chemical_formula_structural   Dy6Er4TlSb5
_chemical_formula_sum   'Dy6 Er4 Tl1 Sb5'
_cell_volume   440.30785772
_cell_formula_units_Z   1
loop_
 _symmetry_equiv_pos_site_id
 _symmetry_equiv_pos_as_xyz
  1  'x, y, z'
loop_
 _atom_site_type_symbol
 _atom_site_label
 _atom_site_symmetry_multiplicity
 _atom_site_fract_x
 _atom_site_fract_y
 _atom_site_fract_z
 _atom_site_occupancy
  Dy  Dy0  1  0.750001  0.242949  0.000000  1
  Dy  Dy1  1  0.750001  0.753745  0.757350  1
  Dy  Dy2  1  0.750001  0.996395  0.242650  1
  Dy  Dy3  1  0.249999  0.757608  0.000000  1
  Dy  Dy4  1  0.250001  0.246738  0.244596  1
  Dy  Dy5  1  0.250001  0.002141  0.755404  1
  Er  Er6  1  0.499275  0.334937  0.668688  1
  Er  Er7  1  0.499275  0.666249  0.331312  1
  Er  Er8  1  0.000724  0.666250  0.331312  1
  Er  Er9  1  0.000724  0.334938  0.668688  1
  Tl  Tl10  1  0.749999  0.604944  0.000000  1
  Sb  Sb11  1  0.750001  0.389793  0.390633  1
  Sb  Sb12  1  0.750001  0.999160  0.609367  1
  Sb  Sb13  1  0.250000  0.392145  0.000000  1
  Sb  Sb14  1  0.250000  0.610645  0.609280  1
  Sb  Sb15  1  0.250000  0.001364  0.390720  1
