# generated using pymatgen
data_Zr3SnPd2N
_symmetry_space_group_name_H-M   'P 1'
_cell_length_a   8.81037426
_cell_length_b   8.81037464
_cell_length_c   8.81037500
_cell_angle_alpha   60.00000241
_cell_angle_beta   60.00000097
_cell_angle_gamma   60.00000209
_symmetry_Int_Tables_number   1
_chemical_formula_structural   Zr3SnPd2N
_chemical_formula_sum   'Zr12 Sn4 Pd8 N4'
_cell_volume   483.57979595
_cell_formula_units_Z   4
loop_
 _symmetry_equiv_pos_site_id
 _symmetry_equiv_pos_as_xyz
  1  'x, y, z'
loop_
 _atom_site_type_symbol
 _atom_site_label
 _atom_site_symmetry_multiplicity
 _atom_site_fract_x
 _atom_site_fract_y
 _atom_site_fract_z
 _atom_site_occupancy
  Zr  Zr0  1  0.814366  0.814366  0.185634  1
  Zr  Zr1  1  0.185634  0.185634  0.814366  1
  Zr  Zr2  1  0.814366  0.185634  0.814366  1
  Zr  Zr3  1  0.185634  0.814366  0.185634  1
  Zr  Zr4  1  0.185634  0.814366  0.814366  1
  Zr  Zr5  1  0.814366  0.185634  0.185634  1
  Zr  Zr6  1  0.435634  0.435634  0.064366  1
  Zr  Zr7  1  0.064366  0.064366  0.435634  1
  Zr  Zr8  1  0.435634  0.064366  0.435634  1
  Zr  Zr9  1  0.064366  0.435634  0.064366  1
  Zr  Zr10  1  0.064366  0.435634  0.435634  1
  Zr  Zr11  1  0.435634  0.064366  0.064366  1
  Sn  Sn12  1  0.125000  0.625000  0.625000  1
  Sn  Sn13  1  0.625000  0.125000  0.625000  1
  Sn  Sn14  1  0.625000  0.625000  0.125000  1
  Sn  Sn15  1  0.625000  0.625000  0.625000  1
  Pd  Pd16  1  0.772111  0.409297  0.409297  1
  Pd  Pd17  1  0.409297  0.772111  0.409297  1
  Pd  Pd18  1  0.409297  0.409297  0.772111  1
  Pd  Pd19  1  0.409297  0.409297  0.409297  1
  Pd  Pd20  1  0.477889  0.840703  0.840703  1
  Pd  Pd21  1  0.840703  0.477889  0.840703  1
  Pd  Pd22  1  0.840703  0.840703  0.477889  1
  Pd  Pd23  1  0.840703  0.840703  0.840703  1
  N  N24  1  0.625000  0.125000  0.125000  1
  N  N25  1  0.125000  0.625000  0.125000  1
  N  N26  1  0.125000  0.125000  0.625000  1
  N  N27  1  0.125000  0.125000  0.125000  1
