# generated using pymatgen
data_Yb2MgReN4
_symmetry_space_group_name_H-M   'P 1'
_cell_length_a   5.77005300
_cell_length_b   5.93934012
_cell_length_c   6.55158187
_cell_angle_alpha   74.11153544
_cell_angle_beta   90.00000000
_cell_angle_gamma   90.00000000
_symmetry_Int_Tables_number   1
_chemical_formula_structural   Yb2MgReN4
_chemical_formula_sum   'Yb4 Mg2 Re2 N8'
_cell_volume   215.94708167
_cell_formula_units_Z   2
loop_
 _symmetry_equiv_pos_site_id
 _symmetry_equiv_pos_as_xyz
  1  'x, y, z'
loop_
 _atom_site_type_symbol
 _atom_site_label
 _atom_site_symmetry_multiplicity
 _atom_site_fract_x
 _atom_site_fract_y
 _atom_site_fract_z
 _atom_site_occupancy
  Yb  Yb0  1  0.250000  0.270776  0.056551  1
  Yb  Yb1  1  0.750000  0.729224  0.943449  1
  Yb  Yb2  1  0.750000  0.752097  0.431770  1
  Yb  Yb3  1  0.250000  0.247903  0.568230  1
  Mg  Mg4  1  0.750000  0.277587  0.307691  1
  Mg  Mg5  1  0.250000  0.722413  0.692309  1
  Re  Re6  1  0.250000  0.741141  0.191572  1
  Re  Re7  1  0.750000  0.258859  0.808428  1
  N  N8  1  0.503709  0.472172  0.755127  1
  N  N9  1  0.003709  0.527828  0.244873  1
  N  N10  1  0.496291  0.527828  0.244873  1
  N  N11  1  0.996291  0.472172  0.755127  1
  N  N12  1  0.750000  0.071145  0.619967  1
  N  N13  1  0.250000  0.928855  0.380033  1
  N  N14  1  0.750000  0.078564  0.089641  1
  N  N15  1  0.250000  0.921436  0.910359  1
