# generated using pymatgen
data_Pr4DyY3(SiO5)4
_symmetry_space_group_name_H-M   'P 1'
_cell_length_a   8.16229419
_cell_length_b   8.16300605
_cell_length_c   10.84221401
_cell_angle_alpha   61.10372473
_cell_angle_beta   61.10074162
_cell_angle_gamma   50.31932404
_symmetry_Int_Tables_number   1
_chemical_formula_structural   Pr4DyY3(SiO5)4
_chemical_formula_sum   'Pr4 Dy1 Y3 Si4 O20'
_cell_volume   470.10133562
_cell_formula_units_Z   1
loop_
 _symmetry_equiv_pos_site_id
 _symmetry_equiv_pos_as_xyz
  1  'x, y, z'
loop_
 _atom_site_type_symbol
 _atom_site_label
 _atom_site_symmetry_multiplicity
 _atom_site_fract_x
 _atom_site_fract_y
 _atom_site_fract_z
 _atom_site_occupancy
  Pr  Pr0  1  0.782938  0.291407  0.035444  1
  Pr  Pr1  1  0.708603  0.217057  0.464571  1
  Pr  Pr2  1  0.217028  0.708603  0.964628  1
  Pr  Pr3  1  0.291394  0.782945  0.535376  1
  Dy  Dy4  1  0.237004  0.477247  0.336860  1
  Y  Y5  1  0.522516  0.763159  0.163158  1
  Y  Y6  1  0.763267  0.522576  0.663088  1
  Y  Y7  1  0.477421  0.236793  0.836876  1
  Si  Si8  1  0.728263  0.903354  0.306760  1
  Si  Si9  1  0.096747  0.271813  0.193295  1
  Si  Si10  1  0.271705  0.096753  0.693237  1
  Si  Si11  1  0.903323  0.728273  0.806704  1
  O  O12  1  0.421354  0.611493  0.109633  1
  O  O13  1  0.387964  0.578249  0.390606  1
  O  O14  1  0.578390  0.388275  0.890718  1
  O  O15  1  0.611726  0.421639  0.609255  1
  O  O16  1  0.867527  0.724038  0.432287  1
  O  O17  1  0.275744  0.132936  0.067565  1
  O  O18  1  0.133199  0.275903  0.567289  1
  O  O19  1  0.724257  0.867088  0.932443  1
  O  O20  1  0.565302  0.842949  0.317330  1
  O  O21  1  0.157200  0.434687  0.182841  1
  O  O22  1  0.434731  0.157046  0.682691  1
  O  O23  1  0.842946  0.565280  0.817312  1
  O  O24  1  0.158543  0.588184  0.822841  1
  O  O25  1  0.411811  0.841495  0.677139  1
  O  O26  1  0.841501  0.411823  0.177158  1
  O  O27  1  0.587583  0.158857  0.322901  1
  O  O28  1  0.908850  0.905230  0.645560  1
  O  O29  1  0.094775  0.091178  0.854407  1
  O  O30  1  0.091164  0.094792  0.354424  1
  O  O31  1  0.905223  0.908876  0.145603  1
