# generated using pymatgen
data_Ti8Nb8AsP11
_symmetry_space_group_name_H-M   'P 1'
_cell_length_a   7.22966735
_cell_length_b   7.22966798
_cell_length_c   18.48965600
_cell_angle_alpha   90.00000000
_cell_angle_beta   90.00000000
_cell_angle_gamma   152.74087328
_symmetry_Int_Tables_number   1
_chemical_formula_structural   Ti8Nb8AsP11
_chemical_formula_sum   'Ti8 Nb8 As1 P11'
_cell_volume   442.63494325
_cell_formula_units_Z   1
loop_
 _symmetry_equiv_pos_site_id
 _symmetry_equiv_pos_as_xyz
  1  'x, y, z'
loop_
 _atom_site_type_symbol
 _atom_site_label
 _atom_site_symmetry_multiplicity
 _atom_site_fract_x
 _atom_site_fract_y
 _atom_site_fract_z
 _atom_site_occupancy
  Ti  Ti0  1  0.736678  0.263321  0.158150  1
  Ti  Ti1  1  0.264828  0.735172  0.839673  1
  Ti  Ti2  1  0.264828  0.735172  0.660327  1
  Ti  Ti3  1  0.736678  0.263321  0.341850  1
  Ti  Ti4  1  0.533026  0.466974  0.119567  1
  Ti  Ti5  1  0.466204  0.533797  0.877666  1
  Ti  Ti6  1  0.466204  0.533797  0.622334  1
  Ti  Ti7  1  0.533026  0.466974  0.380433  1
  Nb  Nb8  1  0.668411  0.331589  0.972436  1
  Nb  Nb9  1  0.331386  0.668614  0.027003  1
  Nb  Nb10  1  0.331386  0.668614  0.472997  1
  Nb  Nb11  1  0.668411  0.331589  0.527564  1
  Nb  Nb12  1  0.000050  0.999950  0.999491  1
  Nb  Nb13  1  0.000050  0.999950  0.500509  1
  Nb  Nb14  1  0.060522  0.939477  0.750000  1
  Nb  Nb15  1  0.935317  0.064683  0.250000  1
  As  As16  1  0.585318  0.414682  0.250000  1
  P  P17  1  0.901955  0.098045  0.117482  1
  P  P18  1  0.098287  0.901713  0.881760  1
  P  P19  1  0.098287  0.901713  0.618240  1
  P  P20  1  0.901955  0.098045  0.382518  1
  P  P21  1  0.843596  0.156404  0.920813  1
  P  P22  1  0.156461  0.843539  0.078600  1
  P  P23  1  0.156461  0.843539  0.421400  1
  P  P24  1  0.843596  0.156404  0.579187  1
  P  P25  1  0.701906  0.298094  0.750000  1
  P  P26  1  0.297006  0.702994  0.250000  1
  P  P27  1  0.418169  0.581832  0.750000  1
