# generated using pymatgen
data_Tb3Pr7Pb8
_symmetry_space_group_name_H-M   'P 1'
_cell_length_a   8.36049700
_cell_length_b   8.51192708
_cell_length_c   16.23986400
_cell_angle_alpha   90.00782843
_cell_angle_beta   90.00000000
_cell_angle_gamma   90.00000000
_symmetry_Int_Tables_number   1
_chemical_formula_structural   Tb3Pr7Pb8
_chemical_formula_sum   'Tb6 Pr14 Pb16'
_cell_volume   1155.69270970
_cell_formula_units_Z   2
loop_
 _symmetry_equiv_pos_site_id
 _symmetry_equiv_pos_as_xyz
  1  'x, y, z'
loop_
 _atom_site_type_symbol
 _atom_site_label
 _atom_site_symmetry_multiplicity
 _atom_site_fract_x
 _atom_site_fract_y
 _atom_site_fract_z
 _atom_site_occupancy
  Tb  Tb0  1  0.634017  0.156535  0.623888  1
  Tb  Tb1  1  0.134017  0.343465  0.876112  1
  Tb  Tb2  1  0.799092  0.495722  0.750221  1
  Tb  Tb3  1  0.299092  0.004278  0.749779  1
  Tb  Tb4  1  0.200786  0.503684  0.248953  1
  Tb  Tb5  1  0.700786  0.996316  0.251047  1
  Pr  Pr6  1  0.366663  0.842831  0.118200  1
  Pr  Pr7  1  0.866663  0.657169  0.381800  1
  Pr  Pr8  1  0.370085  0.840545  0.379431  1
  Pr  Pr9  1  0.870085  0.659455  0.120569  1
  Pr  Pr10  1  0.628892  0.157832  0.880527  1
  Pr  Pr11  1  0.128892  0.342168  0.619473  1
  Pr  Pr12  1  0.472682  0.678400  0.599400  1
  Pr  Pr13  1  0.972682  0.821600  0.900600  1
  Pr  Pr14  1  0.526628  0.320937  0.098517  1
  Pr  Pr15  1  0.026628  0.179063  0.401483  1
  Pr  Pr16  1  0.524524  0.319173  0.402663  1
  Pr  Pr17  1  0.024524  0.180827  0.097337  1
  Pr  Pr18  1  0.475483  0.676990  0.899845  1
  Pr  Pr19  1  0.975483  0.823010  0.600155  1
  Pb  Pb20  1  0.712201  0.968449  0.458897  1
  Pb  Pb21  1  0.212201  0.531551  0.041103  1
  Pb  Pb22  1  0.281262  0.039862  0.953610  1
  Pb  Pb23  1  0.781262  0.460138  0.546390  1
  Pb  Pb24  1  0.296243  0.036989  0.546047  1
  Pb  Pb25  1  0.796243  0.463011  0.953953  1
  Pb  Pb26  1  0.712316  0.966410  0.046257  1
  Pb  Pb27  1  0.212316  0.533590  0.453743  1
  Pb  Pb28  1  0.436515  0.373820  0.749382  1
  Pb  Pb29  1  0.936515  0.126180  0.750618  1
  Pb  Pb30  1  0.563607  0.623198  0.248766  1
  Pb  Pb31  1  0.063607  0.876802  0.251234  1
  Pb  Pb32  1  0.664470  0.848417  0.749020  1
  Pb  Pb33  1  0.164470  0.651583  0.750980  1
  Pb  Pb34  1  0.334534  0.153420  0.249647  1
  Pb  Pb35  1  0.834534  0.346580  0.250353  1
