# generated using pymatgen
data_Nd4Tc3OsBr2
_symmetry_space_group_name_H-M   'P 1'
_cell_length_a   4.17176900
_cell_length_b   4.17176794
_cell_length_c   17.53725100
_cell_angle_alpha   90.00000000
_cell_angle_beta   90.00000000
_cell_angle_gamma   120.00000046
_symmetry_Int_Tables_number   1
_chemical_formula_structural   Nd4Tc3OsBr2
_chemical_formula_sum   'Nd4 Tc3 Os1 Br2'
_cell_volume   264.32153185
_cell_formula_units_Z   1
loop_
 _symmetry_equiv_pos_site_id
 _symmetry_equiv_pos_as_xyz
  1  'x, y, z'
loop_
 _atom_site_type_symbol
 _atom_site_label
 _atom_site_symmetry_multiplicity
 _atom_site_fract_x
 _atom_site_fract_y
 _atom_site_fract_z
 _atom_site_occupancy
  Nd  Nd0  1  0.000000  0.000000  0.116715  1
  Nd  Nd1  1  0.000000  0.000000  0.883500  1
  Nd  Nd2  1  0.000000  0.000000  0.618084  1
  Nd  Nd3  1  0.000000  0.000000  0.381688  1
  Tc  Tc4  1  0.333333  0.666667  0.515954  1
  Tc  Tc5  1  0.666667  0.333333  0.484006  1
  Tc  Tc6  1  0.666667  0.333333  0.013558  1
  Os  Os7  1  0.333333  0.666667  0.986094  1
  Br  Br8  1  0.333333  0.666667  0.249309  1
  Br  Br9  1  0.666667  0.333333  0.751093  1
