# generated using pymatgen
data_Er8Zr11Si16Tc
_symmetry_space_group_name_H-M   'P 1'
_cell_length_a   7.04798136
_cell_length_b   7.24976574
_cell_length_c   13.85913800
_cell_angle_alpha   90.00000000
_cell_angle_beta   90.00000000
_cell_angle_gamma   89.96158464
_symmetry_Int_Tables_number   1
_chemical_formula_structural   Er8Zr11Si16Tc
_chemical_formula_sum   'Er8 Zr11 Si16 Tc1'
_cell_volume   708.14931925
_cell_formula_units_Z   1
loop_
 _symmetry_equiv_pos_site_id
 _symmetry_equiv_pos_as_xyz
  1  'x, y, z'
loop_
 _atom_site_type_symbol
 _atom_site_label
 _atom_site_symmetry_multiplicity
 _atom_site_fract_x
 _atom_site_fract_y
 _atom_site_fract_z
 _atom_site_occupancy
  Er  Er0  1  0.014101  0.177581  0.094858  1
  Er  Er1  1  0.987859  0.822000  0.900788  1
  Er  Er2  1  0.485231  0.674230  0.902175  1
  Er  Er3  1  0.987859  0.822000  0.599212  1
  Er  Er4  1  0.515347  0.323257  0.095995  1
  Er  Er5  1  0.014101  0.177581  0.405142  1
  Er  Er6  1  0.515347  0.323257  0.404005  1
  Er  Er7  1  0.485231  0.674230  0.597825  1
  Zr  Zr8  1  0.846634  0.500495  0.250000  1
  Zr  Zr9  1  0.345077  0.998258  0.250000  1
  Zr  Zr10  1  0.653905  0.001349  0.750000  1
  Zr  Zr11  1  0.324698  0.177612  0.625942  1
  Zr  Zr12  1  0.672317  0.823572  0.375692  1
  Zr  Zr13  1  0.173096  0.676525  0.377264  1
  Zr  Zr14  1  0.672317  0.823572  0.124308  1
  Zr  Zr15  1  0.827996  0.326372  0.626736  1
  Zr  Zr16  1  0.324698  0.177612  0.874058  1
  Zr  Zr17  1  0.827996  0.326372  0.873264  1
  Zr  Zr18  1  0.173096  0.676525  0.122736  1
  Si  Si19  1  0.031654  0.114207  0.750000  1
  Si  Si20  1  0.969322  0.882444  0.250000  1
  Si  Si21  1  0.469351  0.614680  0.250000  1
  Si  Si22  1  0.521014  0.390366  0.750000  1
  Si  Si23  1  0.281118  0.862142  0.750000  1
  Si  Si24  1  0.720565  0.129843  0.250000  1
  Si  Si25  1  0.218650  0.369946  0.250000  1
  Si  Si26  1  0.790316  0.628537  0.750000  1
  Si  Si27  1  0.154271  0.470186  0.545748  1
  Si  Si28  1  0.843079  0.533429  0.461780  1
  Si  Si29  1  0.345271  0.970544  0.459828  1
  Si  Si30  1  0.843079  0.533429  0.038220  1
  Si  Si31  1  0.657218  0.032284  0.540817  1
  Si  Si32  1  0.154271  0.470186  0.954252  1
  Si  Si33  1  0.657218  0.032284  0.959183  1
  Si  Si34  1  0.345271  0.970544  0.040172  1
  Tc  Tc35  1  0.151422  0.492556  0.750000  1
