# generated using pymatgen
data_Hf4V5Fe2Os
_symmetry_space_group_name_H-M   'P 1'
_cell_length_a   5.11369277
_cell_length_b   5.12505406
_cell_length_c   8.26489800
_cell_angle_alpha   90.00000000
_cell_angle_beta   90.00000000
_cell_angle_gamma   119.44121200
_symmetry_Int_Tables_number   1
_chemical_formula_structural   Hf4V5Fe2Os
_chemical_formula_sum   'Hf4 V5 Fe2 Os1'
_cell_volume   188.63364921
_cell_formula_units_Z   1
loop_
 _symmetry_equiv_pos_site_id
 _symmetry_equiv_pos_as_xyz
  1  'x, y, z'
loop_
 _atom_site_type_symbol
 _atom_site_label
 _atom_site_symmetry_multiplicity
 _atom_site_fract_x
 _atom_site_fract_y
 _atom_site_fract_z
 _atom_site_occupancy
  Hf  Hf0  1  0.667666  0.333629  0.942037  1
  Hf  Hf1  1  0.334638  0.665082  0.065972  1
  Hf  Hf2  1  0.334638  0.665082  0.434028  1
  Hf  Hf3  1  0.667666  0.333629  0.557963  1
  V  V4  1  0.169411  0.831896  0.750000  1
  V  V5  1  0.820585  0.179555  0.250000  1
  V  V6  1  0.665598  0.831396  0.750000  1
  V  V7  1  0.003798  0.996591  0.015596  1
  V  V8  1  0.003798  0.996591  0.484404  1
  Fe  Fe9  1  0.335111  0.170037  0.250000  1
  Fe  Fe10  1  0.826996  0.659551  0.250000  1
  Os  Os11  1  0.170095  0.336960  0.750000  1
