# generated using pymatgen
data_Ho16MgTl(InRh2)2
_symmetry_space_group_name_H-M   'P 1'
_cell_length_a   9.62135162
_cell_length_b   9.62135194
_cell_length_c   9.61817955
_cell_angle_alpha   60.04338812
_cell_angle_beta   60.04338394
_cell_angle_gamma   59.95473870
_symmetry_Int_Tables_number   1
_chemical_formula_structural   Ho16MgTl(InRh2)2
_chemical_formula_sum   'Ho16 Mg1 Tl1 In2 Rh4'
_cell_volume   629.77525222
_cell_formula_units_Z   1
loop_
 _symmetry_equiv_pos_site_id
 _symmetry_equiv_pos_as_xyz
  1  'x, y, z'
loop_
 _atom_site_type_symbol
 _atom_site_label
 _atom_site_symmetry_multiplicity
 _atom_site_fract_x
 _atom_site_fract_y
 _atom_site_fract_z
 _atom_site_occupancy
  Ho  Ho0  1  0.188054  0.188054  0.811824  1
  Ho  Ho1  1  0.598952  0.598952  0.203952  1
  Ho  Ho2  1  0.438718  0.060129  0.440807  1
  Ho  Ho3  1  0.440053  0.440053  0.060387  1
  Ho  Ho4  1  0.813745  0.186484  0.813373  1
  Ho  Ho5  1  0.188328  0.811632  0.187761  1
  Ho  Ho6  1  0.437494  0.061743  0.062839  1
  Ho  Ho7  1  0.186484  0.813745  0.813373  1
  Ho  Ho8  1  0.061743  0.437494  0.062839  1
  Ho  Ho9  1  0.813956  0.813956  0.185303  1
  Ho  Ho10  1  0.202513  0.599901  0.598961  1
  Ho  Ho11  1  0.060129  0.438718  0.440807  1
  Ho  Ho12  1  0.062967  0.062967  0.438186  1
  Ho  Ho13  1  0.811632  0.188328  0.187761  1
  Ho  Ho14  1  0.599901  0.202513  0.598961  1
  Ho  Ho15  1  0.599463  0.599463  0.598565  1
  Mg  Mg16  1  0.827413  0.827413  0.828187  1
  Tl  Tl17  1  0.834428  0.834428  0.497974  1
  In  In18  1  0.500701  0.832788  0.833843  1
  In  In19  1  0.832788  0.500701  0.833843  1
  Rh  Rh20  1  0.392189  0.823397  0.392212  1
  Rh  Rh21  1  0.392719  0.392719  0.392832  1
  Rh  Rh22  1  0.823397  0.392189  0.392212  1
  Rh  Rh23  1  0.392236  0.392236  0.823199  1
