# generated using pymatgen
data_Dy8Mg2Co4BiPt
_symmetry_space_group_name_H-M   'P 1'
_cell_length_a   8.71451066
_cell_length_b   8.71451008
_cell_length_c   8.71451017
_cell_angle_alpha   130.67955204
_cell_angle_beta   130.67954671
_cell_angle_gamma   72.32270472
_symmetry_Int_Tables_number   1
_chemical_formula_structural   Dy8Mg2Co4BiPt
_chemical_formula_sum   'Dy8 Mg2 Co4 Bi1 Pt1'
_cell_volume   372.06560666
_cell_formula_units_Z   1
loop_
 _symmetry_equiv_pos_site_id
 _symmetry_equiv_pos_as_xyz
  1  'x, y, z'
loop_
 _atom_site_type_symbol
 _atom_site_label
 _atom_site_symmetry_multiplicity
 _atom_site_fract_x
 _atom_site_fract_y
 _atom_site_fract_z
 _atom_site_occupancy
  Dy  Dy0  1  0.821245  0.296717  0.859103  1
  Dy  Dy1  1  0.203283  0.678755  0.140898  1
  Dy  Dy2  1  0.437616  0.962144  0.140898  1
  Dy  Dy3  1  0.296717  0.437616  0.475472  1
  Dy  Dy4  1  0.062384  0.203283  0.524528  1
  Dy  Dy5  1  0.537856  0.062384  0.859102  1
  Dy  Dy6  1  0.678755  0.537856  0.475472  1
  Dy  Dy7  1  0.962144  0.821245  0.524528  1
  Mg  Mg8  1  0.992070  0.992070  0.000000  1
  Mg  Mg9  1  0.507930  0.507930  0.000000  1
  Co  Co10  1  0.111356  0.611356  0.722712  1
  Co  Co11  1  0.888644  0.388644  0.277288  1
  Co  Co12  1  0.611356  0.888644  0.500000  1
  Co  Co13  1  0.388644  0.111356  0.500000  1
  Bi  Bi14  1  0.750000  0.750000  0.000000  1
  Pt  Pt15  1  0.250000  0.250000  0.000000  1
