# generated using pymatgen
data_Tb3YbRu8
_symmetry_space_group_name_H-M   'P 1'
_cell_length_a   5.24495955
_cell_length_b   5.24523060
_cell_length_c   8.99844600
_cell_angle_alpha   89.99897405
_cell_angle_beta   90.00073818
_cell_angle_gamma   119.99462176
_symmetry_Int_Tables_number   1
_chemical_formula_structural   Tb3YbRu8
_chemical_formula_sum   'Tb3 Yb1 Ru8'
_cell_volume   214.40179112
_cell_formula_units_Z   1
loop_
 _symmetry_equiv_pos_site_id
 _symmetry_equiv_pos_as_xyz
  1  'x, y, z'
loop_
 _atom_site_type_symbol
 _atom_site_label
 _atom_site_symmetry_multiplicity
 _atom_site_fract_x
 _atom_site_fract_y
 _atom_site_fract_z
 _atom_site_occupancy
  Tb  Tb0  1  0.666692  0.333309  0.572386  1
  Tb  Tb1  1  0.333337  0.666716  0.431757  1
  Tb  Tb2  1  0.333336  0.666707  0.062667  1
  Yb  Yb3  1  0.666682  0.333305  0.935290  1
  Ru  Ru4  1  0.000022  0.000046  0.498243  1
  Ru  Ru5  1  0.000013  0.000028  0.999575  1
  Ru  Ru6  1  0.170657  0.341284  0.750171  1
  Ru  Ru7  1  0.170555  0.829411  0.750160  1
  Ru  Ru8  1  0.658740  0.829321  0.750172  1
  Ru  Ru9  1  0.828511  0.657051  0.249866  1
  Ru  Ru10  1  0.828616  0.171385  0.249852  1
  Ru  Ru11  1  0.342840  0.171438  0.249860  1
