# generated using pymatgen
data_Cd3GaPd2
_symmetry_space_group_name_H-M   'P 1'
_cell_length_a   8.54497671
_cell_length_b   8.54448522
_cell_length_c   8.54296906
_cell_angle_alpha   60.01398047
_cell_angle_beta   59.99878886
_cell_angle_gamma   59.98300609
_symmetry_Int_Tables_number   1
_chemical_formula_structural   Cd3GaPd2
_chemical_formula_sum   'Cd12 Ga4 Pd8'
_cell_volume   441.03869260
_cell_formula_units_Z   4
loop_
 _symmetry_equiv_pos_site_id
 _symmetry_equiv_pos_as_xyz
  1  'x, y, z'
loop_
 _atom_site_type_symbol
 _atom_site_label
 _atom_site_symmetry_multiplicity
 _atom_site_fract_x
 _atom_site_fract_y
 _atom_site_fract_z
 _atom_site_occupancy
  Cd  Cd0  1  0.813239  0.813254  0.186757  1
  Cd  Cd1  1  0.186755  0.186773  0.813238  1
  Cd  Cd2  1  0.813244  0.186747  0.813259  1
  Cd  Cd3  1  0.186738  0.813248  0.186761  1
  Cd  Cd4  1  0.186738  0.813248  0.813255  1
  Cd  Cd5  1  0.813256  0.186730  0.186739  1
  Cd  Cd6  1  0.436761  0.436746  0.063243  1
  Cd  Cd7  1  0.063245  0.063227  0.436762  1
  Cd  Cd8  1  0.436756  0.063253  0.436741  1
  Cd  Cd9  1  0.063262  0.436752  0.063239  1
  Cd  Cd10  1  0.063262  0.436752  0.436745  1
  Cd  Cd11  1  0.436744  0.063270  0.063261  1
  Ga  Ga12  1  0.125000  0.625000  0.625000  1
  Ga  Ga13  1  0.625000  0.125000  0.625000  1
  Ga  Ga14  1  0.625000  0.625000  0.125000  1
  Ga  Ga15  1  0.625000  0.625000  0.625000  1
  Pd  Pd16  1  0.760528  0.413171  0.413148  1
  Pd  Pd17  1  0.413173  0.760513  0.413156  1
  Pd  Pd18  1  0.413195  0.413170  0.760468  1
  Pd  Pd19  1  0.413175  0.413166  0.413161  1
  Pd  Pd20  1  0.489472  0.836829  0.836852  1
  Pd  Pd21  1  0.836827  0.489487  0.836844  1
  Pd  Pd22  1  0.836805  0.836830  0.489532  1
  Pd  Pd23  1  0.836825  0.836834  0.836839  1
