# generated using pymatgen
data_Ho10Cd3Ir
_symmetry_space_group_name_H-M   'P 1'
_cell_length_a   9.56689100
_cell_length_b   9.56689156
_cell_length_c   9.83191900
_cell_angle_alpha   90.00000000
_cell_angle_beta   90.00000000
_cell_angle_gamma   120.00000152
_symmetry_Int_Tables_number   1
_chemical_formula_structural   Ho10Cd3Ir
_chemical_formula_sum   'Ho20 Cd6 Ir2'
_cell_volume   779.31061932
_cell_formula_units_Z   2
loop_
 _symmetry_equiv_pos_site_id
 _symmetry_equiv_pos_as_xyz
  1  'x, y, z'
loop_
 _atom_site_type_symbol
 _atom_site_label
 _atom_site_symmetry_multiplicity
 _atom_site_fract_x
 _atom_site_fract_y
 _atom_site_fract_z
 _atom_site_occupancy
  Ho  Ho0  1  0.000000  0.000000  0.500000  1
  Ho  Ho1  1  0.000000  0.000000  0.000000  1
  Ho  Ho2  1  0.209618  0.790382  0.441046  1
  Ho  Ho3  1  0.209618  0.419236  0.441046  1
  Ho  Ho4  1  0.580764  0.790382  0.441046  1
  Ho  Ho5  1  0.790382  0.209618  0.558954  1
  Ho  Ho6  1  0.790382  0.580764  0.558954  1
  Ho  Ho7  1  0.419236  0.209618  0.558954  1
  Ho  Ho8  1  0.790382  0.209618  0.941046  1
  Ho  Ho9  1  0.790382  0.580764  0.941046  1
  Ho  Ho10  1  0.419236  0.209618  0.941046  1
  Ho  Ho11  1  0.209618  0.790382  0.058954  1
  Ho  Ho12  1  0.209618  0.419236  0.058954  1
  Ho  Ho13  1  0.580764  0.790382  0.058954  1
  Ho  Ho14  1  0.541315  0.458685  0.250000  1
  Ho  Ho15  1  0.541315  0.082629  0.250000  1
  Ho  Ho16  1  0.917371  0.458685  0.250000  1
  Ho  Ho17  1  0.458685  0.541315  0.750000  1
  Ho  Ho18  1  0.458685  0.917371  0.750000  1
  Ho  Ho19  1  0.082629  0.541315  0.750000  1
  Cd  Cd20  1  0.885561  0.114439  0.250000  1
  Cd  Cd21  1  0.885561  0.771123  0.250000  1
  Cd  Cd22  1  0.228877  0.114439  0.250000  1
  Cd  Cd23  1  0.114439  0.885561  0.750000  1
  Cd  Cd24  1  0.114439  0.228877  0.750000  1
  Cd  Cd25  1  0.771123  0.885561  0.750000  1
  Ir  Ir26  1  0.333333  0.666667  0.250000  1
  Ir  Ir27  1  0.666667  0.333333  0.750000  1
