# generated using pymatgen
data_Ho11ThTc3Pt
_symmetry_space_group_name_H-M   'P 1'
_cell_length_a   6.31354700
_cell_length_b   7.37465095
_cell_length_c   9.18312700
_cell_angle_alpha   90.00000000
_cell_angle_beta   90.00000000
_cell_angle_gamma   90.42297159
_symmetry_Int_Tables_number   1
_chemical_formula_structural   Ho11ThTc3Pt
_chemical_formula_sum   'Ho11 Th1 Tc3 Pt1'
_cell_volume   427.55662846
_cell_formula_units_Z   1
loop_
 _symmetry_equiv_pos_site_id
 _symmetry_equiv_pos_as_xyz
  1  'x, y, z'
loop_
 _atom_site_type_symbol
 _atom_site_label
 _atom_site_symmetry_multiplicity
 _atom_site_fract_x
 _atom_site_fract_y
 _atom_site_fract_z
 _atom_site_occupancy
  Ho  Ho0  1  0.332823  0.677992  0.066269  1
  Ho  Ho1  1  0.165194  0.176581  0.437421  1
  Ho  Ho2  1  0.667607  0.316986  0.563194  1
  Ho  Ho3  1  0.835471  0.829459  0.936084  1
  Ho  Ho4  1  0.667607  0.316986  0.936806  1
  Ho  Ho5  1  0.835471  0.829459  0.563916  1
  Ho  Ho6  1  0.332823  0.677992  0.433731  1
  Ho  Ho7  1  0.165194  0.176581  0.062579  1
  Ho  Ho8  1  0.625880  0.040424  0.250000  1
  Ho  Ho9  1  0.129773  0.458488  0.750000  1
  Ho  Ho10  1  0.369251  0.963041  0.750000  1
  Th  Th11  1  0.862958  0.547615  0.250000  1
  Tc  Tc12  1  0.025142  0.870695  0.250000  1
  Tc  Tc13  1  0.479335  0.387790  0.250000  1
  Tc  Tc14  1  0.961373  0.115168  0.750000  1
  Pt  Pt15  1  0.544100  0.614743  0.750000  1
