# generated using pymatgen
data_YSc(Si7Ir3)2
_symmetry_space_group_name_H-M   'P 1'
_cell_length_a   8.02468489
_cell_length_b   8.02468439
_cell_length_c   8.02468456
_cell_angle_alpha   56.48760431
_cell_angle_beta   56.48760674
_cell_angle_gamma   56.48760814
_symmetry_Int_Tables_number   1
_chemical_formula_structural   YSc(Si7Ir3)2
_chemical_formula_sum   'Y1 Sc1 Si14 Ir6'
_cell_volume   335.73394005
_cell_formula_units_Z   1
loop_
 _symmetry_equiv_pos_site_id
 _symmetry_equiv_pos_as_xyz
  1  'x, y, z'
loop_
 _atom_site_type_symbol
 _atom_site_label
 _atom_site_symmetry_multiplicity
 _atom_site_fract_x
 _atom_site_fract_y
 _atom_site_fract_z
 _atom_site_occupancy
  Y  Y0  1  0.500000  0.500000  0.500000  1
  Sc  Sc1  1  0.000000  0.000000  0.000000  1
  Si  Si2  1  0.749870  0.749870  0.749870  1
  Si  Si3  1  0.250130  0.250130  0.250130  1
  Si  Si4  1  0.851285  0.063410  0.673306  1
  Si  Si5  1  0.673306  0.851285  0.063410  1
  Si  Si6  1  0.063410  0.673306  0.851285  1
  Si  Si7  1  0.650329  0.828294  0.434606  1
  Si  Si8  1  0.434606  0.650329  0.828294  1
  Si  Si9  1  0.828294  0.434606  0.650329  1
  Si  Si10  1  0.171706  0.565394  0.349671  1
  Si  Si11  1  0.565394  0.349671  0.171706  1
  Si  Si12  1  0.349671  0.171706  0.565394  1
  Si  Si13  1  0.936590  0.326694  0.148715  1
  Si  Si14  1  0.326694  0.148715  0.936590  1
  Si  Si15  1  0.148715  0.936590  0.326694  1
  Ir  Ir16  1  0.070205  0.426416  0.752132  1
  Ir  Ir17  1  0.247868  0.929795  0.573584  1
  Ir  Ir18  1  0.573584  0.247868  0.929795  1
  Ir  Ir19  1  0.929795  0.573584  0.247868  1
  Ir  Ir20  1  0.426416  0.752132  0.070205  1
  Ir  Ir21  1  0.752132  0.070205  0.426416  1
