# generated using pymatgen
data_DyHoRh2O7
_symmetry_space_group_name_H-M   'P 1'
_cell_length_a   7.21956479
_cell_length_b   7.22460659
_cell_length_c   7.22460601
_cell_angle_alpha   60.05022114
_cell_angle_beta   60.02307953
_cell_angle_gamma   60.02307842
_symmetry_Int_Tables_number   1
_chemical_formula_structural   DyHoRh2O7
_chemical_formula_sum   'Dy2 Ho2 Rh4 O14'
_cell_volume   266.64932035
_cell_formula_units_Z   2
loop_
 _symmetry_equiv_pos_site_id
 _symmetry_equiv_pos_as_xyz
  1  'x, y, z'
loop_
 _atom_site_type_symbol
 _atom_site_label
 _atom_site_symmetry_multiplicity
 _atom_site_fract_x
 _atom_site_fract_y
 _atom_site_fract_z
 _atom_site_occupancy
  Dy  Dy0  1  0.125000  0.625000  0.125000  1
  Dy  Dy1  1  0.125000  0.125000  0.625000  1
  Ho  Ho2  1  0.125000  0.125000  0.125000  1
  Ho  Ho3  1  0.625000  0.125000  0.125000  1
  Rh  Rh4  1  0.625000  0.625000  0.625000  1
  Rh  Rh5  1  0.625000  0.625000  0.125000  1
  Rh  Rh6  1  0.125000  0.625000  0.625000  1
  Rh  Rh7  1  0.625000  0.125000  0.625000  1
  O  O8  1  0.250971  0.249029  0.249029  1
  O  O9  1  0.287480  0.713629  0.287412  1
  O  O10  1  0.962520  0.962588  0.536371  1
  O  O11  1  0.538521  0.962588  0.536371  1
  O  O12  1  0.711479  0.713629  0.287412  1
  O  O13  1  0.962718  0.537282  0.537282  1
  O  O14  1  0.711479  0.287412  0.713629  1
  O  O15  1  0.287480  0.287412  0.713629  1
  O  O16  1  0.712132  0.287868  0.287868  1
  O  O17  1  0.287282  0.712718  0.712718  1
  O  O18  1  0.962520  0.536371  0.962588  1
  O  O19  1  0.538521  0.536371  0.962588  1
  O  O20  1  0.999029  0.000971  0.000971  1
  O  O21  1  0.537868  0.962132  0.962132  1
