# generated using pymatgen
data_Hf3Zr3Sn2P
_symmetry_space_group_name_H-M   'P 1'
_cell_length_a   7.57633100
_cell_length_b   7.57633115
_cell_length_c   3.82342800
_cell_angle_alpha   90.00000000
_cell_angle_beta   90.00000000
_cell_angle_gamma   120.00000370
_symmetry_Int_Tables_number   1
_chemical_formula_structural   Hf3Zr3Sn2P
_chemical_formula_sum   'Hf3 Zr3 Sn2 P1'
_cell_volume   190.06468089
_cell_formula_units_Z   1
loop_
 _symmetry_equiv_pos_site_id
 _symmetry_equiv_pos_as_xyz
  1  'x, y, z'
loop_
 _atom_site_type_symbol
 _atom_site_label
 _atom_site_symmetry_multiplicity
 _atom_site_fract_x
 _atom_site_fract_y
 _atom_site_fract_z
 _atom_site_occupancy
  Hf  Hf0  1  0.240682  0.000000  0.500000  1
  Hf  Hf1  1  0.000000  0.240682  0.500000  1
  Hf  Hf2  1  0.759318  0.759318  0.500000  1
  Zr  Zr3  1  0.611725  0.000000  0.000000  1
  Zr  Zr4  1  0.000000  0.611725  0.000000  1
  Zr  Zr5  1  0.388275  0.388275  0.000000  1
  Sn  Sn6  1  0.333333  0.666667  0.500000  1
  Sn  Sn7  1  0.666667  0.333333  0.500000  1
  P  P8  1  0.000000  0.000000  0.000000  1
