# generated using pymatgen
data_Tm5Zr3(Ta3Ge4)4
_symmetry_space_group_name_H-M   'P 1'
_cell_length_a   6.91992361
_cell_length_b   7.05365884
_cell_length_c   13.43764254
_cell_angle_alpha   90.10278345
_cell_angle_beta   89.92204472
_cell_angle_gamma   89.99444173
_symmetry_Int_Tables_number   1
_chemical_formula_structural   Tm5Zr3(Ta3Ge4)4
_chemical_formula_sum   'Tm5 Zr3 Ta12 Ge16'
_cell_volume   655.90015195
_cell_formula_units_Z   1
loop_
 _symmetry_equiv_pos_site_id
 _symmetry_equiv_pos_as_xyz
  1  'x, y, z'
loop_
 _atom_site_type_symbol
 _atom_site_label
 _atom_site_symmetry_multiplicity
 _atom_site_fract_x
 _atom_site_fract_y
 _atom_site_fract_z
 _atom_site_occupancy
  Tm  Tm0  1  0.490853  0.675043  0.592538  1
  Tm  Tm1  1  0.990289  0.826156  0.908192  1
  Tm  Tm2  1  0.509129  0.326207  0.091905  1
  Tm  Tm3  1  0.007948  0.172861  0.407965  1
  Tm  Tm4  1  0.507749  0.325150  0.407089  1
  Zr  Zr5  1  0.009668  0.175086  0.093186  1
  Zr  Zr6  1  0.489994  0.675974  0.906484  1
  Zr  Zr7  1  0.989639  0.823089  0.594319  1
  Ta  Ta8  1  0.661128  0.164490  0.626372  1
  Ta  Ta9  1  0.159639  0.333857  0.874671  1
  Ta  Ta10  1  0.340449  0.833790  0.124242  1
  Ta  Ta11  1  0.842290  0.668422  0.374304  1
  Ta  Ta12  1  0.340257  0.833768  0.373401  1
  Ta  Ta13  1  0.841020  0.667526  0.125593  1
  Ta  Ta14  1  0.659710  0.166362  0.874309  1
  Ta  Ta15  1  0.159708  0.334172  0.626029  1
  Ta  Ta16  1  0.836528  0.488575  0.749873  1
  Ta  Ta17  1  0.335857  0.011136  0.751138  1
  Ta  Ta18  1  0.163841  0.511914  0.248330  1
  Ta  Ta19  1  0.665272  0.987243  0.249110  1
  Ge  Ge20  1  0.679901  0.960428  0.459670  1
  Ge  Ge21  1  0.179218  0.538461  0.040762  1
  Ge  Ge22  1  0.321048  0.039018  0.959029  1
  Ge  Ge23  1  0.822988  0.461790  0.541809  1
  Ge  Ge24  1  0.317182  0.037560  0.541875  1
  Ge  Ge25  1  0.818129  0.460208  0.959346  1
  Ge  Ge26  1  0.681413  0.960413  0.040530  1
  Ge  Ge27  1  0.177967  0.541543  0.459553  1
  Ge  Ge28  1  0.460593  0.384310  0.750411  1
  Ge  Ge29  1  0.960710  0.115268  0.749677  1
  Ge  Ge30  1  0.539650  0.616946  0.249900  1
  Ge  Ge31  1  0.040177  0.884403  0.249114  1
  Ge  Ge32  1  0.692845  0.850899  0.750585  1
  Ge  Ge33  1  0.193235  0.648593  0.749787  1
  Ge  Ge34  1  0.306019  0.147887  0.249535  1
  Ge  Ge35  1  0.807957  0.351452  0.249368  1
