# generated using pymatgen
data_La7Pr3Al4(Os2Ru)2
_symmetry_space_group_name_H-M   'P 1'
_cell_length_a   8.67081774
_cell_length_b   8.65370139
_cell_length_c   8.65350145
_cell_angle_alpha   109.39675308
_cell_angle_beta   109.75003920
_cell_angle_gamma   109.32872721
_symmetry_Int_Tables_number   1
_chemical_formula_structural   La7Pr3Al4(Os2Ru)2
_chemical_formula_sum   'La7 Pr3 Al4 Os4 Ru2'
_cell_volume   499.45328804
_cell_formula_units_Z   1
loop_
 _symmetry_equiv_pos_site_id
 _symmetry_equiv_pos_as_xyz
  1  'x, y, z'
loop_
 _atom_site_type_symbol
 _atom_site_label
 _atom_site_symmetry_multiplicity
 _atom_site_fract_x
 _atom_site_fract_y
 _atom_site_fract_z
 _atom_site_occupancy
  La  La0  1  0.248669  0.684602  0.436760  1
  La  La1  1  0.748418  0.814107  0.062295  1
  La  La2  1  0.435992  0.248140  0.685470  1
  La  La3  1  0.685499  0.436038  0.250463  1
  La  La4  1  0.063720  0.749789  0.814724  1
  La  La5  1  0.814001  0.064021  0.747029  1
  La  La6  1  0.211180  0.211971  0.212164  1
  Pr  Pr7  1  0.499548  0.999857  0.285608  1
  Pr  Pr8  1  0.286955  0.500624  0.000882  1
  Pr  Pr9  1  0.999655  0.285462  0.499521  1
  Al  Al10  1  0.589124  0.587863  0.589394  1
  Al  Al11  1  0.500400  0.001528  0.912648  1
  Al  Al12  1  0.912392  0.500388  0.000444  1
  Al  Al13  1  0.001367  0.912374  0.499588  1
  Os  Os14  1  0.249754  0.114706  0.864826  1
  Os  Os15  1  0.750274  0.385829  0.635939  1
  Os  Os16  1  0.863897  0.249950  0.113881  1
  Os  Os17  1  0.113786  0.864421  0.249778  1
  Ru  Ru18  1  0.637727  0.750666  0.387819  1
  Ru  Ru19  1  0.387638  0.637664  0.750768  1
