# generated using pymatgen
data_Ba13Si14O
_symmetry_space_group_name_H-M   'P 1'
_cell_length_a   11.82108110
_cell_length_b   11.82108222
_cell_length_c   17.48293207
_cell_angle_alpha   56.04421411
_cell_angle_beta   56.04421106
_cell_angle_gamma   25.26620759
_symmetry_Int_Tables_number   1
_chemical_formula_structural   Ba13Si14O
_chemical_formula_sum   'Ba13 Si14 O1'
_cell_volume   855.01652775
_cell_formula_units_Z   1
loop_
 _symmetry_equiv_pos_site_id
 _symmetry_equiv_pos_as_xyz
  1  'x, y, z'
loop_
 _atom_site_type_symbol
 _atom_site_label
 _atom_site_symmetry_multiplicity
 _atom_site_fract_x
 _atom_site_fract_y
 _atom_site_fract_z
 _atom_site_occupancy
  Ba  Ba0  1  0.189616  0.189616  0.857447  1
  Ba  Ba1  1  0.997929  0.997929  0.345652  1
  Ba  Ba2  1  0.998041  0.998041  0.121207  1
  Ba  Ba3  1  0.189945  0.189945  0.614136  1
  Ba  Ba4  1  0.184214  0.184214  0.104638  1
  Ba  Ba5  1  0.155577  0.155577  0.381794  1
  Ba  Ba6  1  0.500000  0.500000  0.500000  1
  Ba  Ba7  1  0.844423  0.844423  0.618206  1
  Ba  Ba8  1  0.810055  0.810055  0.385864  1
  Ba  Ba9  1  0.815786  0.815786  0.895362  1
  Ba  Ba10  1  0.810384  0.810384  0.142553  1
  Ba  Ba11  1  0.001959  0.001959  0.878793  1
  Ba  Ba12  1  0.002071  0.002071  0.654348  1
  Si  Si13  1  0.437811  0.437811  0.810898  1
  Si  Si14  1  0.563618  0.563618  0.952060  1
  Si  Si15  1  0.432707  0.432707  0.286789  1
  Si  Si16  1  0.562189  0.562189  0.189102  1
  Si  Si17  1  0.567293  0.567293  0.713211  1
  Si  Si18  1  0.436382  0.436382  0.047940  1
  Si  Si19  1  0.629179  0.629179  0.020396  1
  Si  Si20  1  0.633697  0.633697  0.782699  1
  Si  Si21  1  0.366303  0.366303  0.217301  1
  Si  Si22  1  0.370494  0.370494  0.744475  1
  Si  Si23  1  0.369051  0.369051  0.453273  1
  Si  Si24  1  0.630949  0.630949  0.546727  1
  Si  Si25  1  0.629506  0.629506  0.255525  1
  Si  Si26  1  0.370821  0.370821  0.979604  1
  O  O27  1  0.000000  0.000000  0.500000  1
