# generated using pymatgen
data_Y4Lu(SiBi)2
_symmetry_space_group_name_H-M   'P 1'
_cell_length_a   8.64490227
_cell_length_b   8.64490324
_cell_length_c   7.90008700
_cell_angle_alpha   90.00000000
_cell_angle_beta   90.00000000
_cell_angle_gamma   125.72645960
_symmetry_Int_Tables_number   1
_chemical_formula_structural   Y4Lu(SiBi)2
_chemical_formula_sum   'Y8 Lu2 Si4 Bi4'
_cell_volume   479.30130543
_cell_formula_units_Z   2
loop_
 _symmetry_equiv_pos_site_id
 _symmetry_equiv_pos_as_xyz
  1  'x, y, z'
loop_
 _atom_site_type_symbol
 _atom_site_label
 _atom_site_symmetry_multiplicity
 _atom_site_fract_x
 _atom_site_fract_y
 _atom_site_fract_z
 _atom_site_occupancy
  Y  Y0  1  0.042272  0.286330  0.336025  1
  Y  Y1  1  0.957728  0.713670  0.663975  1
  Y  Y2  1  0.457728  0.213670  0.836025  1
  Y  Y3  1  0.786330  0.542272  0.163975  1
  Y  Y4  1  0.542272  0.786330  0.163975  1
  Y  Y5  1  0.213670  0.457728  0.836025  1
  Y  Y6  1  0.713670  0.957728  0.663975  1
  Y  Y7  1  0.286330  0.042272  0.336025  1
  Lu  Lu8  1  0.000000  0.000000  0.000000  1
  Lu  Lu9  1  0.500000  0.500000  0.500000  1
  Si  Si10  1  0.363333  0.363333  0.135333  1
  Si  Si11  1  0.636667  0.636667  0.864667  1
  Si  Si12  1  0.136667  0.136667  0.635333  1
  Si  Si13  1  0.863333  0.863333  0.364667  1
  Bi  Bi14  1  0.793690  0.206310  0.000000  1
  Bi  Bi15  1  0.206310  0.793690  0.000000  1
  Bi  Bi16  1  0.706310  0.293690  0.500000  1
  Bi  Bi17  1  0.293690  0.706310  0.500000  1
