# generated using pymatgen
data_Y3Ho4Er(CdPt)2
_symmetry_space_group_name_H-M   'P 1'
_cell_length_a   9.67812099
_cell_length_b   9.67812072
_cell_length_c   9.67814200
_cell_angle_alpha   59.99992044
_cell_angle_beta   59.99992136
_cell_angle_gamma   60.00014579
_symmetry_Int_Tables_number   1
_chemical_formula_structural   Y3Ho4Er(CdPt)2
_chemical_formula_sum   'Y6 Ho8 Er2 Cd4 Pt4'
_cell_volume   641.00148207
_cell_formula_units_Z   2
loop_
 _symmetry_equiv_pos_site_id
 _symmetry_equiv_pos_as_xyz
  1  'x, y, z'
loop_
 _atom_site_type_symbol
 _atom_site_label
 _atom_site_symmetry_multiplicity
 _atom_site_fract_x
 _atom_site_fract_y
 _atom_site_fract_z
 _atom_site_occupancy
  Y  Y0  1  0.936100  0.563900  0.563900  1
  Y  Y1  1  0.563900  0.936100  0.936100  1
  Y  Y2  1  0.563900  0.936100  0.563900  1
  Y  Y3  1  0.936100  0.563900  0.936100  1
  Y  Y4  1  0.563909  0.563909  0.936091  1
  Y  Y5  1  0.936091  0.936091  0.563909  1
  Ho  Ho6  1  0.352339  0.352339  0.352366  1
  Ho  Ho7  1  0.352339  0.352339  0.942954  1
  Ho  Ho8  1  0.352366  0.942954  0.352339  1
  Ho  Ho9  1  0.942954  0.352366  0.352339  1
  Ho  Ho10  1  0.810762  0.189238  0.189238  1
  Ho  Ho11  1  0.189238  0.810762  0.810762  1
  Ho  Ho12  1  0.189238  0.810762  0.189238  1
  Ho  Ho13  1  0.810762  0.189238  0.810762  1
  Er  Er14  1  0.189285  0.189285  0.810715  1
  Er  Er15  1  0.810715  0.810715  0.189285  1
  Cd  Cd16  1  0.581725  0.581725  0.581687  1
  Cd  Cd17  1  0.581725  0.581725  0.254863  1
  Cd  Cd18  1  0.581687  0.254863  0.581725  1
  Cd  Cd19  1  0.254863  0.581687  0.581725  1
  Pt  Pt20  1  0.143397  0.143397  0.143393  1
  Pt  Pt21  1  0.143397  0.143397  0.569814  1
  Pt  Pt22  1  0.143393  0.569814  0.143397  1
  Pt  Pt23  1  0.569814  0.143393  0.143397  1
