# generated using pymatgen
data_Np3Mn(P3Ir4)2
_symmetry_space_group_name_H-M   'P 1'
_cell_length_a   4.07602000
_cell_length_b   11.46826600
_cell_length_c   12.99021100
_cell_angle_alpha   90.00000000
_cell_angle_beta   90.00000000
_cell_angle_gamma   90.00000000
_symmetry_Int_Tables_number   1
_chemical_formula_structural   Np3Mn(P3Ir4)2
_chemical_formula_sum   'Np6 Mn2 P12 Ir16'
_cell_volume   607.22587491
_cell_formula_units_Z   2
loop_
 _symmetry_equiv_pos_site_id
 _symmetry_equiv_pos_as_xyz
  1  'x, y, z'
loop_
 _atom_site_type_symbol
 _atom_site_label
 _atom_site_symmetry_multiplicity
 _atom_site_fract_x
 _atom_site_fract_y
 _atom_site_fract_z
 _atom_site_occupancy
  Np  Np0  1  0.000000  0.500000  0.525984  1
  Np  Np1  1  0.500000  0.000000  0.474016  1
  Np  Np2  1  0.500000  0.821864  0.207588  1
  Np  Np3  1  0.500000  0.178136  0.207588  1
  Np  Np4  1  0.000000  0.678136  0.792412  1
  Np  Np5  1  0.000000  0.321864  0.792412  1
  Mn  Mn6  1  0.500000  0.500000  0.175629  1
  Mn  Mn7  1  0.000000  0.000000  0.824371  1
  P  P8  1  0.500000  0.500000  0.885030  1
  P  P9  1  0.000000  0.000000  0.114970  1
  P  P10  1  0.500000  0.500000  0.355261  1
  P  P11  1  0.000000  0.000000  0.644739  1
  P  P12  1  0.500000  0.311415  0.616823  1
  P  P13  1  0.500000  0.688585  0.616823  1
  P  P14  1  0.000000  0.188585  0.383177  1
  P  P15  1  0.000000  0.811415  0.383177  1
  P  P16  1  0.500000  0.840892  0.887979  1
  P  P17  1  0.500000  0.159108  0.887979  1
  P  P18  1  0.000000  0.659108  0.112021  1
  P  P19  1  0.000000  0.340892  0.112021  1
  Ir  Ir20  1  0.500000  0.500000  0.698888  1
  Ir  Ir21  1  0.000000  0.000000  0.301112  1
  Ir  Ir22  1  0.000000  0.500000  0.999847  1
  Ir  Ir23  1  0.500000  0.000000  0.000153  1
  Ir  Ir24  1  0.500000  0.331713  0.988274  1
  Ir  Ir25  1  0.500000  0.668287  0.988274  1
  Ir  Ir26  1  0.000000  0.168287  0.011726  1
  Ir  Ir27  1  0.000000  0.831713  0.011726  1
  Ir  Ir28  1  0.500000  0.298149  0.434136  1
  Ir  Ir29  1  0.500000  0.701851  0.434136  1
  Ir  Ir30  1  0.000000  0.201851  0.565864  1
  Ir  Ir31  1  0.000000  0.798149  0.565864  1
  Ir  Ir32  1  0.500000  0.869838  0.709857  1
  Ir  Ir33  1  0.500000  0.130162  0.709857  1
  Ir  Ir34  1  0.000000  0.630162  0.290143  1
  Ir  Ir35  1  0.000000  0.369838  0.290143  1
