# generated using pymatgen
data_AcCdPt4
_symmetry_space_group_name_H-M   'P 1'
_cell_length_a   5.52745270
_cell_length_b   5.52745235
_cell_length_c   5.52745330
_cell_angle_alpha   119.99374661
_cell_angle_beta   119.95072306
_cell_angle_gamma   90.04810242
_symmetry_Int_Tables_number   1
_chemical_formula_structural   AcCdPt4
_chemical_formula_sum   'Ac1 Cd1 Pt4'
_cell_volume   119.46538932
_cell_formula_units_Z   1
loop_
 _symmetry_equiv_pos_site_id
 _symmetry_equiv_pos_as_xyz
  1  'x, y, z'
loop_
 _atom_site_type_symbol
 _atom_site_label
 _atom_site_symmetry_multiplicity
 _atom_site_fract_x
 _atom_site_fract_y
 _atom_site_fract_z
 _atom_site_occupancy
  Ac  Ac0  1  0.874951  0.624952  0.249999  1
  Cd  Cd1  1  0.125067  0.375067  0.749999  1
  Pt  Pt2  1  0.002887  0.000957  0.001931  1
  Pt  Pt3  1  0.499033  0.000940  0.001906  1
  Pt  Pt4  1  0.499026  0.000957  0.498069  1
  Pt  Pt5  1  0.499033  0.497128  0.498094  1
