# generated using pymatgen
data_DyNp3Ga12Ag
_symmetry_space_group_name_H-M   'P 1'
_cell_length_a   7.51447714
_cell_length_b   7.51447643
_cell_length_c   7.56832500
_cell_angle_alpha   109.61645602
_cell_angle_beta   109.61645408
_cell_angle_gamma   109.32559564
_symmetry_Int_Tables_number   1
_chemical_formula_structural   DyNp3Ga12Ag
_chemical_formula_sum   'Dy1 Np3 Ga12 Ag1'
_cell_volume   328.39294339
_cell_formula_units_Z   1
loop_
 _symmetry_equiv_pos_site_id
 _symmetry_equiv_pos_as_xyz
  1  'x, y, z'
loop_
 _atom_site_type_symbol
 _atom_site_label
 _atom_site_symmetry_multiplicity
 _atom_site_fract_x
 _atom_site_fract_y
 _atom_site_fract_z
 _atom_site_occupancy
  Dy  Dy0  1  0.000000  0.000000  0.500000  1
  Np  Np1  1  0.500000  0.500000  0.500000  1
  Np  Np2  1  0.000000  0.500000  0.000000  1
  Np  Np3  1  0.500000  0.000000  0.000000  1
  Ga  Ga4  1  0.499425  0.749712  0.249712  1
  Ga  Ga5  1  0.500575  0.250288  0.750288  1
  Ga  Ga6  1  0.250288  0.500575  0.750288  1
  Ga  Ga7  1  0.749712  0.499425  0.249712  1
  Ga  Ga8  1  0.749712  0.250288  0.500000  1
  Ga  Ga9  1  0.250288  0.749712  0.500000  1
  Ga  Ga10  1  0.000000  0.303107  0.301357  1
  Ga  Ga11  1  0.000000  0.696893  0.698643  1
  Ga  Ga12  1  0.303107  0.000000  0.301357  1
  Ga  Ga13  1  0.696893  0.000000  0.698643  1
  Ga  Ga14  1  0.303107  0.303107  0.001750  1
  Ga  Ga15  1  0.696893  0.696893  0.998250  1
  Ag  Ag16  1  0.000000  0.000000  0.000000  1
