# generated using pymatgen
data_Mn2V4FeNiP4
_symmetry_space_group_name_H-M   'P 1'
_cell_length_a   3.51195300
_cell_length_b   5.88951953
_cell_length_c   6.75519230
_cell_angle_alpha   90.49003420
_cell_angle_beta   90.00000000
_cell_angle_gamma   90.00000000
_symmetry_Int_Tables_number   1
_chemical_formula_structural   Mn2V4FeNiP4
_chemical_formula_sum   'Mn2 V4 Fe1 Ni1 P4'
_cell_volume   139.71736742
_cell_formula_units_Z   1
loop_
 _symmetry_equiv_pos_site_id
 _symmetry_equiv_pos_as_xyz
  1  'x, y, z'
loop_
 _atom_site_type_symbol
 _atom_site_label
 _atom_site_symmetry_multiplicity
 _atom_site_fract_x
 _atom_site_fract_y
 _atom_site_fract_z
 _atom_site_occupancy
  Mn  Mn0  1  0.750000  0.861479  0.442348  1
  Mn  Mn1  1  0.250000  0.646365  0.938952  1
  V  V2  1  0.750000  0.477262  0.674960  1
  V  V3  1  0.750000  0.964714  0.828743  1
  V  V4  1  0.250000  0.529211  0.323150  1
  V  V5  1  0.250000  0.022992  0.169819  1
  Fe  Fe6  1  0.750000  0.355053  0.058356  1
  Ni  Ni7  1  0.250000  0.149001  0.564100  1
  P  P8  1  0.750000  0.728281  0.128277  1
  P  P9  1  0.750000  0.233795  0.368608  1
  P  P10  1  0.250000  0.268595  0.878964  1
  P  P11  1  0.250000  0.763249  0.623722  1
