# generated using pymatgen
data_Nd5Te4S
_symmetry_space_group_name_H-M   'P 1'
_cell_length_a   7.72387808
_cell_length_b   7.72387717
_cell_length_c   10.81316988
_cell_angle_alpha   61.80064331
_cell_angle_beta   61.80064644
_cell_angle_gamma   33.04214287
_symmetry_Int_Tables_number   1
_chemical_formula_structural   Nd5Te4S
_chemical_formula_sum   'Nd5 Te4 S1'
_cell_volume   306.04771014
_cell_formula_units_Z   1
loop_
 _symmetry_equiv_pos_site_id
 _symmetry_equiv_pos_as_xyz
  1  'x, y, z'
loop_
 _atom_site_type_symbol
 _atom_site_label
 _atom_site_symmetry_multiplicity
 _atom_site_fract_x
 _atom_site_fract_y
 _atom_site_fract_z
 _atom_site_occupancy
  Nd  Nd0  1  0.000000  0.000000  0.500000  1
  Nd  Nd1  1  0.580594  0.580594  0.087400  1
  Nd  Nd2  1  0.180627  0.180627  0.736531  1
  Nd  Nd3  1  0.819373  0.819373  0.263469  1
  Nd  Nd4  1  0.419406  0.419406  0.912600  1
  Te  Te5  1  0.610012  0.610012  0.590155  1
  Te  Te6  1  0.195057  0.195057  0.191008  1
  Te  Te7  1  0.804943  0.804943  0.808992  1
  Te  Te8  1  0.389988  0.389988  0.409845  1
  S  S9  1  0.000000  0.000000  0.000000  1
