# generated using pymatgen
data_Tb7FeO12
_symmetry_space_group_name_H-M   'P 1'
_cell_length_a   6.65431429
_cell_length_b   6.65431604
_cell_length_c   6.65431600
_cell_angle_alpha   93.23750599
_cell_angle_beta   93.23751547
_cell_angle_gamma   93.23751260
_symmetry_Int_Tables_number   1
_chemical_formula_structural   Tb7FeO12
_chemical_formula_sum   'Tb7 Fe1 O12'
_cell_volume   293.18612573
_cell_formula_units_Z   1
loop_
 _symmetry_equiv_pos_site_id
 _symmetry_equiv_pos_as_xyz
  1  'x, y, z'
loop_
 _atom_site_type_symbol
 _atom_site_label
 _atom_site_symmetry_multiplicity
 _atom_site_fract_x
 _atom_site_fract_y
 _atom_site_fract_z
 _atom_site_occupancy
  Tb  Tb0  1  0.738910  0.924371  0.436450  1
  Tb  Tb1  1  0.436450  0.738910  0.924371  1
  Tb  Tb2  1  0.075629  0.563550  0.261090  1
  Tb  Tb3  1  0.924371  0.436450  0.738910  1
  Tb  Tb4  1  0.563550  0.261090  0.075629  1
  Tb  Tb5  1  0.261090  0.075629  0.563550  1
  Tb  Tb6  1  0.000000  0.000000  0.000000  1
  Fe  Fe7  1  0.500000  0.500000  0.500000  1
  O  O8  1  0.067739  0.906096  0.319183  1
  O  O9  1  0.680817  0.932261  0.093904  1
  O  O10  1  0.462495  0.798659  0.588279  1
  O  O11  1  0.093904  0.680817  0.932261  1
  O  O12  1  0.798659  0.588279  0.462495  1
  O  O13  1  0.411721  0.537505  0.201341  1
  O  O14  1  0.588279  0.462495  0.798659  1
  O  O15  1  0.201341  0.411721  0.537505  1
  O  O16  1  0.906096  0.319183  0.067739  1
  O  O17  1  0.537505  0.201341  0.411721  1
  O  O18  1  0.319183  0.067739  0.906096  1
  O  O19  1  0.932261  0.093904  0.680817  1
