# generated using pymatgen
data_HfNb3(Al3Au)2
_symmetry_space_group_name_H-M   'P 1'
_cell_length_a   5.27146400
_cell_length_b   5.27146473
_cell_length_c   8.26174700
_cell_angle_alpha   90.00000000
_cell_angle_beta   90.00000000
_cell_angle_gamma   120.00000800
_symmetry_Int_Tables_number   1
_chemical_formula_structural   HfNb3(Al3Au)2
_chemical_formula_sum   'Hf1 Nb3 Al6 Au2'
_cell_volume   198.82227455
_cell_formula_units_Z   1
loop_
 _symmetry_equiv_pos_site_id
 _symmetry_equiv_pos_as_xyz
  1  'x, y, z'
loop_
 _atom_site_type_symbol
 _atom_site_label
 _atom_site_symmetry_multiplicity
 _atom_site_fract_x
 _atom_site_fract_y
 _atom_site_fract_z
 _atom_site_occupancy
  Hf  Hf0  1  0.666666  0.333333  0.068369  1
  Nb  Nb1  1  0.666666  0.333333  0.432364  1
  Nb  Nb2  1  0.333333  0.666666  0.572542  1
  Nb  Nb3  1  0.333333  0.666666  0.921054  1
  Al  Al4  1  0.172992  0.345985  0.252045  1
  Al  Al5  1  0.172993  0.827007  0.252045  1
  Al  Al6  1  0.654014  0.827007  0.252045  1
  Al  Al7  1  0.346301  0.173150  0.749040  1
  Al  Al8  1  0.826849  0.173150  0.749040  1
  Al  Al9  1  0.826849  0.653698  0.749040  1
  Au  Au10  1  0.000000  0.000000  0.000579  1
  Au  Au11  1  0.000000  0.000000  0.501839  1
