# generated using pymatgen
data_Nd3Dy2Er3(CdIr)2
_symmetry_space_group_name_H-M   'P 1'
_cell_length_a   9.71850953
_cell_length_b   9.71850979
_cell_length_c   9.71850900
_cell_angle_alpha   59.99999930
_cell_angle_beta   59.99999839
_cell_angle_gamma   59.99999984
_symmetry_Int_Tables_number   1
_chemical_formula_structural   Nd3Dy2Er3(CdIr)2
_chemical_formula_sum   'Nd6 Dy4 Er6 Cd4 Ir4'
_cell_volume   649.05870161
_cell_formula_units_Z   2
loop_
 _symmetry_equiv_pos_site_id
 _symmetry_equiv_pos_as_xyz
  1  'x, y, z'
loop_
 _atom_site_type_symbol
 _atom_site_label
 _atom_site_symmetry_multiplicity
 _atom_site_fract_x
 _atom_site_fract_y
 _atom_site_fract_z
 _atom_site_occupancy
  Nd  Nd0  1  0.941160  0.558840  0.558840  1
  Nd  Nd1  1  0.558840  0.941160  0.941160  1
  Nd  Nd2  1  0.558840  0.941160  0.558840  1
  Nd  Nd3  1  0.941160  0.558840  0.941160  1
  Nd  Nd4  1  0.558840  0.558840  0.941160  1
  Nd  Nd5  1  0.941160  0.941160  0.558840  1
  Dy  Dy6  1  0.347973  0.347973  0.347973  1
  Dy  Dy7  1  0.347973  0.347973  0.956081  1
  Dy  Dy8  1  0.347973  0.956081  0.347973  1
  Dy  Dy9  1  0.956081  0.347973  0.347973  1
  Er  Er10  1  0.812890  0.187110  0.187110  1
  Er  Er11  1  0.187110  0.812890  0.812890  1
  Er  Er12  1  0.187110  0.812890  0.187110  1
  Er  Er13  1  0.812890  0.187110  0.812890  1
  Er  Er14  1  0.187110  0.187110  0.812890  1
  Er  Er15  1  0.812890  0.812890  0.187110  1
  Cd  Cd16  1  0.579321  0.579321  0.579321  1
  Cd  Cd17  1  0.579321  0.579321  0.262038  1
  Cd  Cd18  1  0.579321  0.262038  0.579321  1
  Cd  Cd19  1  0.262038  0.579321  0.579321  1
  Ir  Ir20  1  0.140865  0.140865  0.140865  1
  Ir  Ir21  1  0.140865  0.140865  0.577405  1
  Ir  Ir22  1  0.140865  0.577405  0.140865  1
  Ir  Ir23  1  0.577405  0.140865  0.140865  1
