# generated using pymatgen
data_La3TbNd6C4I15
_symmetry_space_group_name_H-M   'P 1'
_cell_length_a   9.81749383
_cell_length_b   10.69532126
_cell_length_c   11.81435325
_cell_angle_alpha   93.67088294
_cell_angle_beta   114.26212731
_cell_angle_gamma   109.50466943
_symmetry_Int_Tables_number   1
_chemical_formula_structural   La3TbNd6C4I15
_chemical_formula_sum   'La3 Tb1 Nd6 C4 I15'
_cell_volume   1036.41562754
_cell_formula_units_Z   1
loop_
 _symmetry_equiv_pos_site_id
 _symmetry_equiv_pos_as_xyz
  1  'x, y, z'
loop_
 _atom_site_type_symbol
 _atom_site_label
 _atom_site_symmetry_multiplicity
 _atom_site_fract_x
 _atom_site_fract_y
 _atom_site_fract_z
 _atom_site_occupancy
  La  La0  1  0.706790  0.568854  0.045353  1
  La  La1  1  0.292661  0.432014  0.955379  1
  La  La2  1  0.658571  0.252951  0.832061  1
  Tb  Tb3  1  0.594249  0.544982  0.336875  1
  Nd  Nd4  1  0.346734  0.747187  0.165361  1
  Nd  Nd5  1  0.776039  0.883130  0.257961  1
  Nd  Nd6  1  0.527287  0.185201  0.101640  1
  Nd  Nd7  1  0.224888  0.115852  0.743607  1
  Nd  Nd8  1  0.402068  0.458027  0.657782  1
  Nd  Nd9  1  0.472435  0.814615  0.899267  1
  C  C10  1  0.482630  0.299369  0.937133  1
  C  C11  1  0.518544  0.700072  0.063228  1
  C  C12  1  0.452909  0.361489  0.833504  1
  C  C13  1  0.547002  0.637448  0.166694  1
  I  I14  1  0.208137  0.906731  0.938147  1
  I  I15  1  0.104670  0.187591  0.469799  1
  I  I16  1  0.153732  0.558146  0.701506  1
  I  I17  1  0.400037  0.964757  0.645720  1
  I  I18  1  0.710573  0.735356  0.818473  1
  I  I19  1  0.296579  0.270682  0.187087  1
  I  I20  1  0.839460  0.444097  0.302190  1
  I  I21  1  0.886556  0.802939  0.527508  1
  I  I22  1  0.365747  0.628466  0.411480  1
  I  I23  1  0.056291  0.836408  0.223346  1
  I  I24  1  0.792588  0.093465  0.064908  1
  I  I25  1  0.639722  0.375218  0.581926  1
  I  I26  1  0.944166  0.161995  0.777376  1
  I  I27  1  0.594863  0.030041  0.351833  1
  I  I28  1  0.004071  0.502917  0.002856  1
