# generated using pymatgen
data_Ho16Cd4OsPt3
_symmetry_space_group_name_H-M   'P 1'
_cell_length_a   9.66699291
_cell_length_b   9.66699369
_cell_length_c   9.66699323
_cell_angle_alpha   59.44927695
_cell_angle_beta   59.44927511
_cell_angle_gamma   59.44927541
_symmetry_Int_Tables_number   1
_chemical_formula_structural   Ho16Cd4OsPt3
_chemical_formula_sum   'Ho16 Cd4 Os1 Pt3'
_cell_volume   630.78839286
_cell_formula_units_Z   1
loop_
 _symmetry_equiv_pos_site_id
 _symmetry_equiv_pos_as_xyz
  1  'x, y, z'
loop_
 _atom_site_type_symbol
 _atom_site_label
 _atom_site_symmetry_multiplicity
 _atom_site_fract_x
 _atom_site_fract_y
 _atom_site_fract_z
 _atom_site_occupancy
  Ho  Ho0  1  0.601506  0.601506  0.601506  1
  Ho  Ho1  1  0.600156  0.600156  0.197212  1
  Ho  Ho2  1  0.600156  0.197212  0.600156  1
  Ho  Ho3  1  0.197212  0.600156  0.600156  1
  Ho  Ho4  1  0.064084  0.439138  0.439138  1
  Ho  Ho5  1  0.438964  0.059938  0.059938  1
  Ho  Ho6  1  0.439138  0.064084  0.439138  1
  Ho  Ho7  1  0.059938  0.438964  0.059938  1
  Ho  Ho8  1  0.439138  0.439138  0.064084  1
  Ho  Ho9  1  0.059938  0.059938  0.438964  1
  Ho  Ho10  1  0.185396  0.815604  0.815604  1
  Ho  Ho11  1  0.808886  0.187427  0.187427  1
  Ho  Ho12  1  0.815604  0.185396  0.815604  1
  Ho  Ho13  1  0.187427  0.808886  0.187427  1
  Ho  Ho14  1  0.815604  0.815604  0.185396  1
  Ho  Ho15  1  0.187427  0.187427  0.808886  1
  Cd  Cd16  1  0.830705  0.830705  0.830705  1
  Cd  Cd17  1  0.831256  0.831256  0.504156  1
  Cd  Cd18  1  0.831256  0.504156  0.831256  1
  Cd  Cd19  1  0.504156  0.831256  0.831256  1
  Os  Os20  1  0.393465  0.393465  0.393465  1
  Pt  Pt21  1  0.393181  0.393181  0.822227  1
  Pt  Pt22  1  0.393181  0.822227  0.393181  1
  Pt  Pt23  1  0.822227  0.393181  0.393181  1
