# generated using pymatgen
data_Dy7Ho(Nb3Si4)4
_symmetry_space_group_name_H-M   'P 1'
_cell_length_a   7.07194813
_cell_length_b   7.07174123
_cell_length_c   13.04740525
_cell_angle_alpha   90.00865650
_cell_angle_beta   90.00090572
_cell_angle_gamma   89.97462398
_symmetry_Int_Tables_number   1
_chemical_formula_structural   Dy7Ho(Nb3Si4)4
_chemical_formula_sum   'Dy7 Ho1 Nb12 Si16'
_cell_volume   652.51354453
_cell_formula_units_Z   1
loop_
 _symmetry_equiv_pos_site_id
 _symmetry_equiv_pos_as_xyz
  1  'x, y, z'
loop_
 _atom_site_type_symbol
 _atom_site_label
 _atom_site_symmetry_multiplicity
 _atom_site_fract_x
 _atom_site_fract_y
 _atom_site_fract_z
 _atom_site_occupancy
  Dy  Dy0  1  0.001214  0.659419  0.717852  1
  Dy  Dy1  1  0.159244  0.498529  0.467856  1
  Dy  Dy2  1  0.501475  0.840847  0.032259  1
  Dy  Dy3  1  0.840751  0.501406  0.967905  1
  Dy  Dy4  1  0.498749  0.159288  0.531996  1
  Dy  Dy5  1  0.340734  0.998870  0.782164  1
  Dy  Dy6  1  0.659181  0.001060  0.282123  1
  Ho  Ho7  1  0.999078  0.340782  0.217877  1
  Nb  Nb8  1  0.170759  0.170914  0.000085  1
  Nb  Nb9  1  0.829253  0.829208  0.499925  1
  Nb  Nb10  1  0.329203  0.670551  0.250012  1
  Nb  Nb11  1  0.670685  0.329411  0.750014  1
  Nb  Nb12  1  0.153888  0.992538  0.376122  1
  Nb  Nb13  1  0.846050  0.007410  0.876328  1
  Nb  Nb14  1  0.507298  0.653937  0.625958  1
  Nb  Nb15  1  0.346101  0.492819  0.874101  1
  Nb  Nb16  1  0.492649  0.346046  0.126021  1
  Nb  Nb17  1  0.653906  0.506921  0.373908  1
  Nb  Nb18  1  0.992757  0.154065  0.623654  1
  Nb  Nb19  1  0.007099  0.846037  0.123839  1
  Si  Si20  1  0.293578  0.044931  0.186408  1
  Si  Si21  1  0.706133  0.955349  0.686389  1
  Si  Si22  1  0.455148  0.793544  0.436342  1
  Si  Si23  1  0.206054  0.544781  0.063824  1
  Si  Si24  1  0.544970  0.206406  0.936401  1
  Si  Si25  1  0.793705  0.455153  0.563595  1
  Si  Si26  1  0.044818  0.293991  0.813553  1
  Si  Si27  1  0.955176  0.705527  0.313521  1
  Si  Si28  1  0.367500  0.294933  0.317746  1
  Si  Si29  1  0.632041  0.705153  0.817868  1
  Si  Si30  1  0.204859  0.867883  0.567830  1
  Si  Si31  1  0.132205  0.795310  0.932229  1
  Si  Si32  1  0.795513  0.132553  0.068101  1
  Si  Si33  1  0.867925  0.204803  0.431888  1
  Si  Si34  1  0.295060  0.367993  0.682157  1
  Si  Si35  1  0.705247  0.631630  0.182148  1
