# generated using pymatgen
data_Y3Ho3Co8(P6Ru5)2
_symmetry_space_group_name_H-M   'P 1'
_cell_length_a   3.85942900
_cell_length_b   10.67781202
_cell_length_c   12.56491902
_cell_angle_alpha   90.00663041
_cell_angle_beta   90.00000000
_cell_angle_gamma   90.00000000
_symmetry_Int_Tables_number   1
_chemical_formula_structural   Y3Ho3Co8(P6Ru5)2
_chemical_formula_sum   'Y3 Ho3 Co8 P12 Ru10'
_cell_volume   517.80354308
_cell_formula_units_Z   1
loop_
 _symmetry_equiv_pos_site_id
 _symmetry_equiv_pos_as_xyz
  1  'x, y, z'
loop_
 _atom_site_type_symbol
 _atom_site_label
 _atom_site_symmetry_multiplicity
 _atom_site_fract_x
 _atom_site_fract_y
 _atom_site_fract_z
 _atom_site_occupancy
  Y  Y0  1  0.000000  0.499974  0.526828  1
  Y  Y1  1  0.500000  0.000041  0.473130  1
  Y  Y2  1  0.500000  0.821662  0.200534  1
  Ho  Ho3  1  0.500000  0.178527  0.200809  1
  Ho  Ho4  1  0.000000  0.678569  0.799358  1
  Ho  Ho5  1  0.000000  0.321378  0.799232  1
  Co  Co6  1  0.000000  0.499827  0.983708  1
  Co  Co7  1  0.500000  0.000325  0.015900  1
  Co  Co8  1  0.500000  0.332303  0.988748  1
  Co  Co9  1  0.500000  0.667449  0.988582  1
  Co  Co10  1  0.000000  0.167862  0.011079  1
  Co  Co11  1  0.000000  0.832275  0.010871  1
  Co  Co12  1  0.500000  0.499977  0.703076  1
  Co  Co13  1  0.000000  0.000520  0.297185  1
  P  P14  1  0.500000  0.314212  0.618360  1
  P  P15  1  0.500000  0.685730  0.618461  1
  P  P16  1  0.000000  0.185803  0.381753  1
  P  P17  1  0.000000  0.814252  0.382151  1
  P  P18  1  0.500000  0.499899  0.881186  1
  P  P19  1  0.000000  0.000641  0.118497  1
  P  P20  1  0.500000  0.845781  0.901113  1
  P  P21  1  0.500000  0.154300  0.900964  1
  P  P22  1  0.000000  0.653615  0.098820  1
  P  P23  1  0.000000  0.345755  0.098831  1
  P  P24  1  0.500000  0.499983  0.336047  1
  P  P25  1  0.000000  0.000038  0.664003  1
  Ru  Ru26  1  0.500000  0.297829  0.427351  1
  Ru  Ru27  1  0.500000  0.702111  0.427681  1
  Ru  Ru28  1  0.000000  0.202249  0.572694  1
  Ru  Ru29  1  0.000000  0.797836  0.572883  1
  Ru  Ru30  1  0.500000  0.874755  0.719478  1
  Ru  Ru31  1  0.500000  0.125228  0.719309  1
  Ru  Ru32  1  0.000000  0.624723  0.280972  1
  Ru  Ru33  1  0.000000  0.374553  0.280561  1
  Ru  Ru34  1  0.500000  0.499891  0.146297  1
  Ru  Ru35  1  0.000000  0.000128  0.853548  1
