# generated using pymatgen
data_Hf5Zr2Pt9Au
_symmetry_space_group_name_H-M   'P 1'
_cell_length_a   8.19049580
_cell_length_b   8.19049587
_cell_length_c   9.72698678
_cell_angle_alpha   90.07220518
_cell_angle_beta   90.07220428
_cell_angle_gamma   107.20078556
_symmetry_Int_Tables_number   1
_chemical_formula_structural   Hf5Zr2Pt9Au
_chemical_formula_sum   'Hf10 Zr4 Pt18 Au2'
_cell_volume   623.34119783
_cell_formula_units_Z   2
loop_
 _symmetry_equiv_pos_site_id
 _symmetry_equiv_pos_as_xyz
  1  'x, y, z'
loop_
 _atom_site_type_symbol
 _atom_site_label
 _atom_site_symmetry_multiplicity
 _atom_site_fract_x
 _atom_site_fract_y
 _atom_site_fract_z
 _atom_site_occupancy
  Hf  Hf0  1  0.000000  0.000000  0.000000  1
  Hf  Hf1  1  0.500000  0.500000  0.500000  1
  Hf  Hf2  1  0.000399  0.502383  0.250625  1
  Hf  Hf3  1  0.999601  0.497617  0.749375  1
  Hf  Hf4  1  0.497617  0.999601  0.749375  1
  Hf  Hf5  1  0.502383  0.000399  0.250625  1
  Hf  Hf6  1  0.310457  0.310457  0.191172  1
  Hf  Hf7  1  0.689543  0.689543  0.808828  1
  Hf  Hf8  1  0.175265  0.175265  0.675235  1
  Hf  Hf9  1  0.824735  0.824735  0.324765  1
  Zr  Zr10  1  0.696375  0.303625  0.000000  1
  Zr  Zr11  1  0.303625  0.696375  0.000000  1
  Zr  Zr12  1  0.809123  0.190877  0.500000  1
  Zr  Zr13  1  0.190877  0.809123  0.500000  1
  Pt  Pt14  1  0.851702  0.142380  0.208219  1
  Pt  Pt15  1  0.148298  0.857620  0.791781  1
  Pt  Pt16  1  0.650411  0.358886  0.707935  1
  Pt  Pt17  1  0.641114  0.349589  0.292065  1
  Pt  Pt18  1  0.349589  0.641114  0.292065  1
  Pt  Pt19  1  0.358886  0.650411  0.707935  1
  Pt  Pt20  1  0.857620  0.148298  0.791781  1
  Pt  Pt21  1  0.142380  0.851702  0.208219  1
  Pt  Pt22  1  0.936203  0.645248  0.995847  1
  Pt  Pt23  1  0.063797  0.354752  0.004153  1
  Pt  Pt24  1  0.562539  0.854116  0.497530  1
  Pt  Pt25  1  0.145884  0.437461  0.502470  1
  Pt  Pt26  1  0.437461  0.145884  0.502470  1
  Pt  Pt27  1  0.854116  0.562539  0.497530  1
  Pt  Pt28  1  0.354752  0.063797  0.004153  1
  Pt  Pt29  1  0.645248  0.936203  0.995847  1
  Pt  Pt30  1  0.106976  0.106976  0.393399  1
  Pt  Pt31  1  0.893024  0.893024  0.606601  1
  Au  Au32  1  0.390539  0.390539  0.889985  1
  Au  Au33  1  0.609461  0.609461  0.110015  1
