# generated using pymatgen
data_MgSc3Ga4Cu
_symmetry_space_group_name_H-M   'P 1'
_cell_length_a   6.82254500
_cell_length_b   6.72315919
_cell_length_c   4.05774400
_cell_angle_alpha   90.00000000
_cell_angle_beta   90.00000000
_cell_angle_gamma   120.49022635
_symmetry_Int_Tables_number   1
_chemical_formula_structural   MgSc3Ga4Cu
_chemical_formula_sum   'Mg1 Sc3 Ga4 Cu1'
_cell_volume   160.38674227
_cell_formula_units_Z   1
loop_
 _symmetry_equiv_pos_site_id
 _symmetry_equiv_pos_as_xyz
  1  'x, y, z'
loop_
 _atom_site_type_symbol
 _atom_site_label
 _atom_site_symmetry_multiplicity
 _atom_site_fract_x
 _atom_site_fract_y
 _atom_site_fract_z
 _atom_site_occupancy
  Mg  Mg0  1  0.235174  0.000000  0.000000  1
  Sc  Sc1  1  0.585365  0.000000  0.500000  1
  Sc  Sc2  1  0.426620  0.423658  0.500000  1
  Sc  Sc3  1  0.002962  0.576342  0.500000  1
  Ga  Ga4  1  0.997472  0.242183  0.000000  1
  Ga  Ga5  1  0.673240  0.336200  0.000000  1
  Ga  Ga6  1  0.337040  0.663800  0.000000  1
  Ga  Ga7  1  0.755289  0.757817  0.000000  1
  Cu  Cu8  1  0.986840  0.000000  0.500000  1
