# generated using pymatgen
data_Pr5ErAl24(Ru3Rh)2
_symmetry_space_group_name_H-M   'P 1'
_cell_length_a   8.88802400
_cell_length_b   8.90683623
_cell_length_c   9.68560000
_cell_angle_alpha   90.00000000
_cell_angle_beta   90.00000000
_cell_angle_gamma   119.93014906
_symmetry_Int_Tables_number   1
_chemical_formula_structural   Pr5ErAl24(Ru3Rh)2
_chemical_formula_sum   'Pr5 Er1 Al24 Ru6 Rh2'
_cell_volume   664.49405694
_cell_formula_units_Z   1
loop_
 _symmetry_equiv_pos_site_id
 _symmetry_equiv_pos_as_xyz
  1  'x, y, z'
loop_
 _atom_site_type_symbol
 _atom_site_label
 _atom_site_symmetry_multiplicity
 _atom_site_fract_x
 _atom_site_fract_y
 _atom_site_fract_z
 _atom_site_occupancy
  Pr  Pr0  1  0.807062  0.614125  0.750000  1
  Pr  Pr1  1  0.617266  0.806637  0.250000  1
  Pr  Pr2  1  0.382661  0.193198  0.750000  1
  Pr  Pr3  1  0.189372  0.806637  0.250000  1
  Pr  Pr4  1  0.810536  0.193198  0.750000  1
  Er  Er5  1  0.195217  0.390434  0.250000  1
  Al  Al6  1  0.331596  0.663192  0.014881  1
  Al  Al7  1  0.667225  0.334448  0.989535  1
  Al  Al8  1  0.667225  0.334448  0.510465  1
  Al  Al9  1  0.331596  0.663192  0.485119  1
  Al  Al10  1  0.163236  0.326473  0.572851  1
  Al  Al11  1  0.836506  0.673012  0.422610  1
  Al  Al12  1  0.673913  0.835518  0.575561  1
  Al  Al13  1  0.836506  0.673012  0.077390  1
  Al  Al14  1  0.324142  0.165575  0.422020  1
  Al  Al15  1  0.163236  0.326473  0.927149  1
  Al  Al16  1  0.161606  0.835518  0.575561  1
  Al  Al17  1  0.324142  0.165575  0.077980  1
  Al  Al18  1  0.841432  0.165575  0.422020  1
  Al  Al19  1  0.673913  0.835518  0.924439  1
  Al  Al20  1  0.841432  0.165575  0.077980  1
  Al  Al21  1  0.161606  0.835518  0.924439  1
  Al  Al22  1  0.562917  0.125833  0.250000  1
  Al  Al23  1  0.436918  0.873837  0.750000  1
  Al  Al24  1  0.876726  0.436076  0.250000  1
  Al  Al25  1  0.126447  0.562676  0.750000  1
  Al  Al26  1  0.559349  0.436076  0.250000  1
  Al  Al27  1  0.436229  0.562676  0.750000  1
  Al  Al28  1  0.002944  0.005888  0.250000  1
  Al  Al29  1  0.999907  0.999814  0.750000  1
  Ru  Ru30  1  0.001166  0.498932  0.001677  1
  Ru  Ru31  1  0.497766  0.498932  0.001677  1
  Ru  Ru32  1  0.001166  0.498932  0.498323  1
  Ru  Ru33  1  0.497766  0.498932  0.498323  1
  Ru  Ru34  1  0.999988  0.999976  0.000367  1
  Ru  Ru35  1  0.999988  0.999976  0.499633  1
  Rh  Rh36  1  0.499649  0.999298  0.000321  1
  Rh  Rh37  1  0.499649  0.999298  0.499679  1
