# generated using pymatgen
data_YbHo6(CCl5)2
_symmetry_space_group_name_H-M   'P 1'
_cell_length_a   10.06456610
_cell_length_b   10.06456531
_cell_length_c   12.59873856
_cell_angle_alpha   81.14371676
_cell_angle_beta   81.14371678
_cell_angle_gamma   21.69712457
_symmetry_Int_Tables_number   1
_chemical_formula_structural   YbHo6(CCl5)2
_chemical_formula_sum   'Yb1 Ho6 C2 Cl10'
_cell_volume   465.97659922
_cell_formula_units_Z   1
loop_
 _symmetry_equiv_pos_site_id
 _symmetry_equiv_pos_as_xyz
  1  'x, y, z'
loop_
 _atom_site_type_symbol
 _atom_site_label
 _atom_site_symmetry_multiplicity
 _atom_site_fract_x
 _atom_site_fract_y
 _atom_site_fract_z
 _atom_site_occupancy
  Yb  Yb0  1  0.000000  0.000000  0.000000  1
  Ho  Ho1  1  0.818691  0.818691  0.510751  1
  Ho  Ho2  1  0.181309  0.181309  0.489249  1
  Ho  Ho3  1  0.697484  0.697484  0.726192  1
  Ho  Ho4  1  0.302516  0.302516  0.273808  1
  Ho  Ho5  1  0.348530  0.348530  0.736961  1
  Ho  Ho6  1  0.651470  0.651470  0.263039  1
  C  C7  1  0.263247  0.263247  0.627333  1
  C  C8  1  0.736753  0.736753  0.372667  1
  Cl  Cl9  1  0.450360  0.450360  0.881007  1
  Cl  Cl10  1  0.549640  0.549640  0.118993  1
  Cl  Cl11  1  0.787419  0.787419  0.873510  1
  Cl  Cl12  1  0.212581  0.212581  0.126490  1
  Cl  Cl13  1  0.124467  0.124467  0.861759  1
  Cl  Cl14  1  0.073083  0.073083  0.368645  1
  Cl  Cl15  1  0.926917  0.926917  0.631355  1
  Cl  Cl16  1  0.403938  0.403938  0.387379  1
  Cl  Cl17  1  0.596062  0.596062  0.612621  1
  Cl  Cl18  1  0.875533  0.875533  0.138241  1
