# generated using pymatgen
data_Pr6Al24Os5PtRh2
_symmetry_space_group_name_H-M   'P 1'
_cell_length_a   8.90111979
_cell_length_b   8.94216612
_cell_length_c   9.70702931
_cell_angle_alpha   89.88198876
_cell_angle_beta   90.11831668
_cell_angle_gamma   119.66571363
_symmetry_Int_Tables_number   1
_chemical_formula_structural   Pr6Al24Os5PtRh2
_chemical_formula_sum   'Pr6 Al24 Os5 Pt1 Rh2'
_cell_volume   671.36114044
_cell_formula_units_Z   1
loop_
 _symmetry_equiv_pos_site_id
 _symmetry_equiv_pos_as_xyz
  1  'x, y, z'
loop_
 _atom_site_type_symbol
 _atom_site_label
 _atom_site_symmetry_multiplicity
 _atom_site_fract_x
 _atom_site_fract_y
 _atom_site_fract_z
 _atom_site_occupancy
  Pr  Pr0  1  0.190776  0.379583  0.250435  1
  Pr  Pr1  1  0.809224  0.620417  0.749565  1
  Pr  Pr2  1  0.616946  0.811271  0.250266  1
  Pr  Pr3  1  0.383054  0.188729  0.749734  1
  Pr  Pr4  1  0.193532  0.811892  0.250625  1
  Pr  Pr5  1  0.806468  0.188108  0.749375  1
  Al  Al6  1  0.333613  0.668273  0.017657  1
  Al  Al7  1  0.666387  0.331727  0.982343  1
  Al  Al8  1  0.662519  0.330986  0.517060  1
  Al  Al9  1  0.337481  0.669014  0.482940  1
  Al  Al10  1  0.168321  0.326098  0.574820  1
  Al  Al11  1  0.831679  0.673902  0.425180  1
  Al  Al12  1  0.671590  0.834846  0.574717  1
  Al  Al13  1  0.836923  0.673812  0.075257  1
  Al  Al14  1  0.328410  0.165154  0.425283  1
  Al  Al15  1  0.163077  0.326188  0.924743  1
  Al  Al16  1  0.167243  0.840973  0.575640  1
  Al  Al17  1  0.327676  0.162097  0.075436  1
  Al  Al18  1  0.832757  0.159027  0.424360  1
  Al  Al19  1  0.672324  0.837903  0.924564  1
  Al  Al20  1  0.834818  0.161728  0.074102  1
  Al  Al21  1  0.165182  0.838272  0.925898  1
  Al  Al22  1  0.562277  0.126379  0.249534  1
  Al  Al23  1  0.437723  0.873621  0.750466  1
  Al  Al24  1  0.874712  0.437865  0.247148  1
  Al  Al25  1  0.125288  0.562135  0.752852  1
  Al  Al26  1  0.562911  0.437282  0.250661  1
  Al  Al27  1  0.437089  0.562718  0.749339  1
  Al  Al28  1  0.001499  0.002590  0.250055  1
  Al  Al29  1  0.998501  0.997410  0.749945  1
  Os  Os30  1  0.500000  0.000000  0.000000  1
  Os  Os31  1  0.500000  0.000000  0.500000  1
  Os  Os32  1  0.500000  0.500000  0.500000  1
  Os  Os33  1  0.000000  0.000000  0.000000  1
  Os  Os34  1  0.000000  0.000000  0.500000  1
  Pt  Pt35  1  0.000000  0.500000  0.500000  1
  Rh  Rh36  1  0.000000  0.500000  0.000000  1
  Rh  Rh37  1  0.500000  0.500000  0.000000  1
