# generated using pymatgen
data_Sc6Nb5Ga11Os7
_symmetry_space_group_name_H-M   'P 1'
_cell_length_a   8.94313249
_cell_length_b   8.94313116
_cell_length_c   8.87880221
_cell_angle_alpha   59.76003196
_cell_angle_beta   59.76003524
_cell_angle_gamma   59.99999788
_symmetry_Int_Tables_number   1
_chemical_formula_structural   Sc6Nb5Ga11Os7
_chemical_formula_sum   'Sc6 Nb5 Ga11 Os7'
_cell_volume   500.30386316
_cell_formula_units_Z   1
loop_
 _symmetry_equiv_pos_site_id
 _symmetry_equiv_pos_as_xyz
  1  'x, y, z'
loop_
 _atom_site_type_symbol
 _atom_site_label
 _atom_site_symmetry_multiplicity
 _atom_site_fract_x
 _atom_site_fract_y
 _atom_site_fract_z
 _atom_site_occupancy
  Sc  Sc0  1  0.713582  0.713582  0.290577  1
  Sc  Sc1  1  0.282259  0.713582  0.290577  1
  Sc  Sc2  1  0.713582  0.282259  0.290577  1
  Sc  Sc3  1  0.295062  0.295062  0.715222  1
  Sc  Sc4  1  0.694654  0.295062  0.715222  1
  Sc  Sc5  1  0.295062  0.694654  0.715222  1
  Nb  Nb6  1  0.877997  0.877997  0.366010  1
  Nb  Nb7  1  0.874861  0.370250  0.880029  1
  Nb  Nb8  1  0.370250  0.874861  0.880029  1
  Nb  Nb9  1  0.874861  0.874861  0.880029  1
  Nb  Nb10  1  0.127485  0.127485  0.617547  1
  Ga  Ga11  1  0.118085  0.644125  0.119704  1
  Ga  Ga12  1  0.644125  0.118085  0.119704  1
  Ga  Ga13  1  0.118085  0.118085  0.119704  1
  Ga  Ga14  1  0.657005  0.657005  0.028987  1
  Ga  Ga15  1  0.657034  0.030554  0.655380  1
  Ga  Ga16  1  0.030554  0.657034  0.655380  1
  Ga  Ga17  1  0.657034  0.657034  0.655380  1
  Ga  Ga18  1  0.337502  0.337502  0.987495  1
  Ga  Ga19  1  0.341640  0.979066  0.337652  1
  Ga  Ga20  1  0.979066  0.341640  0.337652  1
  Ga  Ga21  1  0.341640  0.341640  0.337652  1
  Os  Os22  1  0.006270  0.006270  0.981190  1
  Os  Os23  1  0.998242  0.998242  0.506580  1
  Os  Os24  1  0.496937  0.998242  0.506580  1
  Os  Os25  1  0.998242  0.496937  0.506580  1
  Os  Os26  1  0.502409  0.502409  0.001114  1
  Os  Os27  1  0.994070  0.502409  0.001114  1
  Os  Os28  1  0.502409  0.994070  0.001114  1
