# generated using pymatgen
data_Dy3Mn(Co4P3)2
_symmetry_space_group_name_H-M   'P 1'
_cell_length_a   3.69280500
_cell_length_b   10.53893900
_cell_length_c   12.20399100
_cell_angle_alpha   90.00000000
_cell_angle_beta   90.00000000
_cell_angle_gamma   90.00000000
_symmetry_Int_Tables_number   1
_chemical_formula_structural   Dy3Mn(Co4P3)2
_chemical_formula_sum   'Dy6 Mn2 Co16 P12'
_cell_volume   474.95793166
_cell_formula_units_Z   2
loop_
 _symmetry_equiv_pos_site_id
 _symmetry_equiv_pos_as_xyz
  1  'x, y, z'
loop_
 _atom_site_type_symbol
 _atom_site_label
 _atom_site_symmetry_multiplicity
 _atom_site_fract_x
 _atom_site_fract_y
 _atom_site_fract_z
 _atom_site_occupancy
  Dy  Dy0  1  0.000000  0.500000  0.522842  1
  Dy  Dy1  1  0.500000  0.000000  0.477158  1
  Dy  Dy2  1  0.500000  0.817854  0.205134  1
  Dy  Dy3  1  0.500000  0.182146  0.205134  1
  Dy  Dy4  1  0.000000  0.682146  0.794866  1
  Dy  Dy5  1  0.000000  0.317854  0.794866  1
  Mn  Mn6  1  0.500000  0.500000  0.158800  1
  Mn  Mn7  1  0.000000  0.000000  0.841200  1
  Co  Co8  1  0.500000  0.500000  0.702716  1
  Co  Co9  1  0.000000  0.000000  0.297284  1
  Co  Co10  1  0.000000  0.500000  0.986026  1
  Co  Co11  1  0.500000  0.000000  0.013974  1
  Co  Co12  1  0.500000  0.333182  0.993909  1
  Co  Co13  1  0.500000  0.666818  0.993909  1
  Co  Co14  1  0.000000  0.166818  0.006091  1
  Co  Co15  1  0.000000  0.833182  0.006091  1
  Co  Co16  1  0.500000  0.296590  0.430465  1
  Co  Co17  1  0.500000  0.703410  0.430465  1
  Co  Co18  1  0.000000  0.203410  0.569535  1
  Co  Co19  1  0.000000  0.796590  0.569535  1
  Co  Co20  1  0.500000  0.879633  0.709231  1
  Co  Co21  1  0.500000  0.120367  0.709231  1
  Co  Co22  1  0.000000  0.620367  0.290769  1
  Co  Co23  1  0.000000  0.379633  0.290769  1
  P  P24  1  0.500000  0.500000  0.882651  1
  P  P25  1  0.000000  0.000000  0.117349  1
  P  P26  1  0.500000  0.500000  0.345153  1
  P  P27  1  0.000000  0.000000  0.654847  1
  P  P28  1  0.500000  0.310916  0.616063  1
  P  P29  1  0.500000  0.689084  0.616063  1
  P  P30  1  0.000000  0.189084  0.383937  1
  P  P31  1  0.000000  0.810916  0.383937  1
  P  P32  1  0.500000  0.847466  0.893081  1
  P  P33  1  0.500000  0.152534  0.893081  1
  P  P34  1  0.000000  0.652534  0.106919  1
  P  P35  1  0.000000  0.347466  0.106919  1
