# generated using pymatgen
data_Tm3Lu5B24IrRu3
_symmetry_space_group_name_H-M   'P 1'
_cell_length_a   3.60367500
_cell_length_b   9.04370319
_cell_length_c   11.39339400
_cell_angle_alpha   90.03037874
_cell_angle_beta   90.00000000
_cell_angle_gamma   90.00000000
_symmetry_Int_Tables_number   1
_chemical_formula_structural   Tm3Lu5B24IrRu3
_chemical_formula_sum   'Tm3 Lu5 B24 Ir1 Ru3'
_cell_volume   371.31711963
_cell_formula_units_Z   1
loop_
 _symmetry_equiv_pos_site_id
 _symmetry_equiv_pos_as_xyz
  1  'x, y, z'
loop_
 _atom_site_type_symbol
 _atom_site_label
 _atom_site_symmetry_multiplicity
 _atom_site_fract_x
 _atom_site_fract_y
 _atom_site_fract_z
 _atom_site_occupancy
  Tm  Tm0  1  0.000000  0.318024  0.414485  1
  Tm  Tm1  1  0.000000  0.679888  0.589048  1
  Tm  Tm2  1  0.000000  0.822572  0.084083  1
  Lu  Lu3  1  0.000000  0.179621  0.913322  1
  Lu  Lu4  1  0.000000  0.945916  0.373508  1
  Lu  Lu5  1  0.000000  0.056006  0.626789  1
  Lu  Lu6  1  0.000000  0.441751  0.125167  1
  Lu  Lu7  1  0.000000  0.555777  0.873514  1
  B  B8  1  0.500000  0.553777  0.434286  1
  B  B9  1  0.500000  0.446028  0.566432  1
  B  B10  1  0.500000  0.054218  0.066137  1
  B  B11  1  0.500000  0.946522  0.933353  1
  B  B12  1  0.500000  0.750590  0.421581  1
  B  B13  1  0.500000  0.250322  0.579772  1
  B  B14  1  0.500000  0.248913  0.079071  1
  B  B15  1  0.500000  0.750945  0.920362  1
  B  B16  1  0.500000  0.793106  0.265078  1
  B  B17  1  0.500000  0.207813  0.734471  1
  B  B18  1  0.500000  0.292343  0.234602  1
  B  B19  1  0.500000  0.707785  0.765824  1
  B  B20  1  0.500000  0.631263  0.183024  1
  B  B21  1  0.500000  0.368775  0.815677  1
  B  B22  1  0.500000  0.131207  0.315722  1
  B  B23  1  0.500000  0.868759  0.684600  1
  B  B24  1  0.500000  0.981944  0.213115  1
  B  B25  1  0.500000  0.018355  0.786838  1
  B  B26  1  0.500000  0.480786  0.286339  1
  B  B27  1  0.500000  0.517857  0.713530  1
  B  B28  1  0.500000  0.607048  0.029663  1
  B  B29  1  0.500000  0.392500  0.970431  1
  B  B30  1  0.500000  0.106468  0.470761  1
  B  B31  1  0.500000  0.892986  0.529128  1
  Ir  Ir32  1  0.000000  0.637717  0.321318  1
  Ru  Ru33  1  0.000000  0.362142  0.678829  1
  Ru  Ru34  1  0.000000  0.138134  0.179324  1
  Ru  Ru35  1  0.000000  0.862143  0.820818  1
