# generated using pymatgen
data_Pr5Nb2BiO14
_symmetry_space_group_name_H-M   'P 1'
_cell_length_a   6.71226908
_cell_length_b   6.88634722
_cell_length_c   7.72528100
_cell_angle_alpha   90.00000000
_cell_angle_beta   90.00000000
_cell_angle_gamma   110.54310581
_symmetry_Int_Tables_number   1
_chemical_formula_structural   Pr5Nb2BiO14
_chemical_formula_sum   'Pr5 Nb2 Bi1 O14'
_cell_volume   334.37814456
_cell_formula_units_Z   1
loop_
 _symmetry_equiv_pos_site_id
 _symmetry_equiv_pos_as_xyz
  1  'x, y, z'
loop_
 _atom_site_type_symbol
 _atom_site_label
 _atom_site_symmetry_multiplicity
 _atom_site_fract_x
 _atom_site_fract_y
 _atom_site_fract_z
 _atom_site_occupancy
  Pr  Pr0  1  0.524190  0.075908  0.250000  1
  Pr  Pr1  1  0.943482  0.492705  0.750000  1
  Pr  Pr2  1  0.073769  0.528226  0.250000  1
  Pr  Pr3  1  0.029397  0.042566  0.500762  1
  Pr  Pr4  1  0.029397  0.042566  0.999238  1
  Nb  Nb5  1  0.511047  0.514639  0.497400  1
  Nb  Nb6  1  0.511047  0.514639  0.002600  1
  Bi  Bi7  1  0.473181  0.973466  0.750000  1
  O  O8  1  0.575599  0.538706  0.750000  1
  O  O9  1  0.422784  0.412156  0.250000  1
  O  O10  1  0.833490  0.125489  0.750000  1
  O  O11  1  0.148512  0.891213  0.250000  1
  O  O12  1  0.091524  0.855618  0.750000  1
  O  O13  1  0.894050  0.163331  0.250000  1
  O  O14  1  0.421619  0.167136  0.965060  1
  O  O15  1  0.560287  0.798232  0.452649  1
  O  O16  1  0.187602  0.429196  0.966089  1
  O  O17  1  0.799758  0.519822  0.458612  1
  O  O18  1  0.421619  0.167136  0.534940  1
  O  O19  1  0.560287  0.798232  0.047351  1
  O  O20  1  0.799758  0.519822  0.041388  1
  O  O21  1  0.187602  0.429196  0.533911  1
