# generated using pymatgen
data_Lu4HfSc3Pt4
_symmetry_space_group_name_H-M   'P 1'
_cell_length_a   4.58897800
_cell_length_b   6.88356275
_cell_length_c   8.32010709
_cell_angle_alpha   90.60631225
_cell_angle_beta   90.00000000
_cell_angle_gamma   90.00000000
_symmetry_Int_Tables_number   1
_chemical_formula_structural   Lu4HfSc3Pt4
_chemical_formula_sum   'Lu4 Hf1 Sc3 Pt4'
_cell_volume   262.80513742
_cell_formula_units_Z   1
loop_
 _symmetry_equiv_pos_site_id
 _symmetry_equiv_pos_as_xyz
  1  'x, y, z'
loop_
 _atom_site_type_symbol
 _atom_site_label
 _atom_site_symmetry_multiplicity
 _atom_site_fract_x
 _atom_site_fract_y
 _atom_site_fract_z
 _atom_site_occupancy
  Lu  Lu0  1  0.250000  0.016721  0.675867  1
  Lu  Lu1  1  0.250000  0.516058  0.825780  1
  Lu  Lu2  1  0.750000  0.982166  0.323872  1
  Lu  Lu3  1  0.750000  0.482773  0.173469  1
  Hf  Hf4  1  0.750000  0.357530  0.572586  1
  Sc  Sc5  1  0.250000  0.144350  0.074419  1
  Sc  Sc6  1  0.250000  0.644589  0.425083  1
  Sc  Sc7  1  0.750000  0.856882  0.927300  1
  Pt  Pt8  1  0.250000  0.255555  0.405561  1
  Pt  Pt9  1  0.250000  0.752499  0.101637  1
  Pt  Pt10  1  0.750000  0.743870  0.599131  1
  Pt  Pt11  1  0.750000  0.247007  0.895296  1
