# generated using pymatgen
data_La3Al12TcOs3
_symmetry_space_group_name_H-M   'P 1'
_cell_length_a   8.97923000
_cell_length_b   8.97923025
_cell_length_c   9.77974300
_cell_angle_alpha   90.00000000
_cell_angle_beta   90.00000000
_cell_angle_gamma   120.00000644
_symmetry_Int_Tables_number   1
_chemical_formula_structural   La3Al12TcOs3
_chemical_formula_sum   'La6 Al24 Tc2 Os6'
_cell_volume   682.86719538
_cell_formula_units_Z   2
loop_
 _symmetry_equiv_pos_site_id
 _symmetry_equiv_pos_as_xyz
  1  'x, y, z'
loop_
 _atom_site_type_symbol
 _atom_site_label
 _atom_site_symmetry_multiplicity
 _atom_site_fract_x
 _atom_site_fract_y
 _atom_site_fract_z
 _atom_site_occupancy
  La  La0  1  0.192417  0.384832  0.250000  1
  La  La1  1  0.807583  0.615168  0.750000  1
  La  La2  1  0.615168  0.807583  0.250000  1
  La  La3  1  0.384832  0.192417  0.750000  1
  La  La4  1  0.192417  0.807583  0.250000  1
  La  La5  1  0.807583  0.192417  0.750000  1
  Al  Al6  1  0.333333  0.666667  0.001488  1
  Al  Al7  1  0.666667  0.333333  0.998512  1
  Al  Al8  1  0.666667  0.333333  0.501488  1
  Al  Al9  1  0.333333  0.666667  0.498512  1
  Al  Al10  1  0.162446  0.324892  0.575860  1
  Al  Al11  1  0.837554  0.675108  0.424140  1
  Al  Al12  1  0.675108  0.837554  0.575860  1
  Al  Al13  1  0.837554  0.675108  0.075860  1
  Al  Al14  1  0.324892  0.162446  0.424140  1
  Al  Al15  1  0.162446  0.324892  0.924140  1
  Al  Al16  1  0.162446  0.837554  0.575860  1
  Al  Al17  1  0.324892  0.162446  0.075860  1
  Al  Al18  1  0.837554  0.162446  0.424140  1
  Al  Al19  1  0.675108  0.837554  0.924140  1
  Al  Al20  1  0.837554  0.162446  0.075860  1
  Al  Al21  1  0.162446  0.837554  0.924140  1
  Al  Al22  1  0.563069  0.126137  0.250000  1
  Al  Al23  1  0.436931  0.873863  0.750000  1
  Al  Al24  1  0.873863  0.436931  0.250000  1
  Al  Al25  1  0.126137  0.563069  0.750000  1
  Al  Al26  1  0.563069  0.436931  0.250000  1
  Al  Al27  1  0.436931  0.563069  0.750000  1
  Al  Al28  1  0.000000  0.000000  0.250000  1
  Al  Al29  1  0.000000  0.000000  0.750000  1
  Tc  Tc30  1  0.000000  0.000000  0.000000  1
  Tc  Tc31  1  0.000000  0.000000  0.500000  1
  Os  Os32  1  0.500000  0.000000  0.000000  1
  Os  Os33  1  0.000000  0.500000  0.000000  1
  Os  Os34  1  0.500000  0.000000  0.500000  1
  Os  Os35  1  0.500000  0.500000  0.000000  1
  Os  Os36  1  0.000000  0.500000  0.500000  1
  Os  Os37  1  0.500000  0.500000  0.500000  1
