# generated using pymatgen
data_HfVN2
_symmetry_space_group_name_H-M   'P 1'
_cell_length_a   3.02674800
_cell_length_b   5.36489800
_cell_length_c   10.06774900
_cell_angle_alpha   90.00000000
_cell_angle_beta   90.00000000
_cell_angle_gamma   90.00000000
_symmetry_Int_Tables_number   1
_chemical_formula_structural   HfVN2
_chemical_formula_sum   'Hf4 V4 N8'
_cell_volume   163.48206434
_cell_formula_units_Z   4
loop_
 _symmetry_equiv_pos_site_id
 _symmetry_equiv_pos_as_xyz
  1  'x, y, z'
loop_
 _atom_site_type_symbol
 _atom_site_label
 _atom_site_symmetry_multiplicity
 _atom_site_fract_x
 _atom_site_fract_y
 _atom_site_fract_z
 _atom_site_occupancy
  Hf  Hf0  1  0.750000  0.089450  0.851777  1
  Hf  Hf1  1  0.750000  0.589450  0.648223  1
  Hf  Hf2  1  0.250000  0.910550  0.148223  1
  Hf  Hf3  1  0.250000  0.410550  0.351777  1
  V  V4  1  0.250000  0.075856  0.589511  1
  V  V5  1  0.750000  0.424144  0.089511  1
  V  V6  1  0.250000  0.575856  0.910489  1
  V  V7  1  0.750000  0.924144  0.410489  1
  N  N8  1  0.250000  0.342191  0.746355  1
  N  N9  1  0.750000  0.157809  0.246355  1
  N  N10  1  0.250000  0.227790  0.002218  1
  N  N11  1  0.750000  0.657809  0.253645  1
  N  N12  1  0.250000  0.842191  0.753645  1
  N  N13  1  0.750000  0.772210  0.997782  1
  N  N14  1  0.750000  0.272210  0.502218  1
  N  N15  1  0.250000  0.727790  0.497782  1
