# generated using pymatgen
data_Mn5S8
_symmetry_space_group_name_H-M   'P 1'
_cell_length_a   6.64230607
_cell_length_b   6.64230581
_cell_length_c   8.12808469
_cell_angle_alpha   53.02323081
_cell_angle_beta   53.02323670
_cell_angle_gamma   60.72483806
_symmetry_Int_Tables_number   1
_chemical_formula_structural   Mn5S8
_chemical_formula_sum   'Mn5 S8'
_cell_volume   224.27704024
_cell_formula_units_Z   1
loop_
 _symmetry_equiv_pos_site_id
 _symmetry_equiv_pos_as_xyz
  1  'x, y, z'
loop_
 _atom_site_type_symbol
 _atom_site_label
 _atom_site_symmetry_multiplicity
 _atom_site_fract_x
 _atom_site_fract_y
 _atom_site_fract_z
 _atom_site_occupancy
  Mn  Mn0  1  0.000000  0.000000  0.000000  1
  Mn  Mn1  1  0.257172  0.257172  0.993483  1
  Mn  Mn2  1  0.742828  0.742828  0.006517  1
  Mn  Mn3  1  0.260466  0.739534  0.500000  1
  Mn  Mn4  1  0.739534  0.260466  0.500000  1
  S  S5  1  0.974360  0.974360  0.329094  1
  S  S6  1  0.025640  0.025640  0.670906  1
  S  S7  1  0.467305  0.467305  0.331410  1
  S  S8  1  0.532695  0.532695  0.668590  1
  S  S9  1  0.030873  0.535136  0.168537  1
  S  S10  1  0.535136  0.030873  0.168537  1
  S  S11  1  0.969127  0.464864  0.831463  1
  S  S12  1  0.464864  0.969127  0.831463  1
