# generated using pymatgen
data_Dy8Ta9Ti2Si16Mo
_symmetry_space_group_name_H-M   'P 1'
_cell_length_a   7.03234340
_cell_length_b   7.03234402
_cell_length_c   12.97558459
_cell_angle_alpha   89.93633493
_cell_angle_beta   90.06366494
_cell_angle_gamma   89.92364884
_symmetry_Int_Tables_number   1
_chemical_formula_structural   Dy8Ta9Ti2Si16Mo
_chemical_formula_sum   'Dy8 Ta9 Ti2 Si16 Mo1'
_cell_volume   641.69135536
_cell_formula_units_Z   1
loop_
 _symmetry_equiv_pos_site_id
 _symmetry_equiv_pos_as_xyz
  1  'x, y, z'
loop_
 _atom_site_type_symbol
 _atom_site_label
 _atom_site_symmetry_multiplicity
 _atom_site_fract_x
 _atom_site_fract_y
 _atom_site_fract_z
 _atom_site_occupancy
  Dy  Dy0  1  0.998512  0.658255  0.032240  1
  Dy  Dy1  1  0.001015  0.341896  0.531717  1
  Dy  Dy2  1  0.658255  0.998512  0.967760  1
  Dy  Dy3  1  0.159262  0.503541  0.781463  1
  Dy  Dy4  1  0.840532  0.498385  0.282652  1
  Dy  Dy5  1  0.503541  0.159262  0.218537  1
  Dy  Dy6  1  0.498385  0.840532  0.717348  1
  Dy  Dy7  1  0.341896  0.001015  0.468283  1
  Ta  Ta8  1  0.345714  0.508413  0.375796  1
  Ta  Ta9  1  0.848952  0.993836  0.374783  1
  Ta  Ta10  1  0.007463  0.153297  0.126467  1
  Ta  Ta11  1  0.993836  0.848952  0.625217  1
  Ta  Ta12  1  0.508413  0.345714  0.624204  1
  Ta  Ta13  1  0.153297  0.007463  0.873533  1
  Ta  Ta14  1  0.828542  0.170361  0.749163  1
  Ta  Ta15  1  0.170361  0.828542  0.250837  1
  Ta  Ta16  1  0.325969  0.325969  0.000000  1
  Ti  Ti17  1  0.492673  0.653344  0.125362  1
  Ti  Ti18  1  0.653344  0.492673  0.874638  1
  Si  Si19  1  0.044108  0.705997  0.436462  1
  Si  Si20  1  0.952704  0.295337  0.935383  1
  Si  Si21  1  0.705997  0.044108  0.563538  1
  Si  Si22  1  0.207501  0.455107  0.185099  1
  Si  Si23  1  0.792626  0.547239  0.685557  1
  Si  Si24  1  0.455107  0.207501  0.814901  1
  Si  Si25  1  0.547239  0.792626  0.314443  1
  Si  Si26  1  0.295337  0.952704  0.064617  1
  Si  Si27  1  0.795104  0.865159  0.182301  1
  Si  Si28  1  0.297621  0.632661  0.568351  1
  Si  Si29  1  0.700968  0.368670  0.066351  1
  Si  Si30  1  0.632661  0.297621  0.431649  1
  Si  Si31  1  0.368670  0.700968  0.933649  1
  Si  Si32  1  0.133533  0.204646  0.317804  1
  Si  Si33  1  0.204646  0.133533  0.682196  1
  Si  Si34  1  0.865159  0.795104  0.817699  1
  Mo  Mo35  1  0.671054  0.671054  0.500000  1
