# generated using pymatgen
data_Ca2Cd(H6Ir)2
_symmetry_space_group_name_H-M   'P 1'
_cell_length_a   4.85789500
_cell_length_b   4.85789520
_cell_length_c   8.14717900
_cell_angle_alpha   90.00000000
_cell_angle_beta   90.00000000
_cell_angle_gamma   119.99999182
_symmetry_Int_Tables_number   1
_chemical_formula_structural   Ca2Cd(H6Ir)2
_chemical_formula_sum   'Ca2 Cd1 H12 Ir2'
_cell_volume   166.50764979
_cell_formula_units_Z   1
loop_
 _symmetry_equiv_pos_site_id
 _symmetry_equiv_pos_as_xyz
  1  'x, y, z'
loop_
 _atom_site_type_symbol
 _atom_site_label
 _atom_site_symmetry_multiplicity
 _atom_site_fract_x
 _atom_site_fract_y
 _atom_site_fract_z
 _atom_site_occupancy
  Ca  Ca0  1  0.000000  0.000000  0.997445  1
  Ca  Ca1  1  0.333333  0.666667  0.629110  1
  Cd  Cd2  1  0.666667  0.333333  0.360945  1
  H  H3  1  0.167460  0.832540  0.368777  1
  H  H4  1  0.665079  0.832540  0.368777  1
  H  H5  1  0.167460  0.334921  0.368777  1
  H  H6  1  0.834704  0.165296  0.637827  1
  H  H7  1  0.330592  0.165296  0.637827  1
  H  H8  1  0.834704  0.669408  0.637827  1
  H  H9  1  0.507373  0.014746  0.870859  1
  H  H10  1  0.507373  0.492627  0.870859  1
  H  H11  1  0.985254  0.492627  0.870859  1
  H  H12  1  0.487030  0.974059  0.125581  1
  H  H13  1  0.487030  0.512970  0.125581  1
  H  H14  1  0.025941  0.512970  0.125581  1
  Ir  Ir15  1  0.666667  0.333333  0.748112  1
  Ir  Ir16  1  0.333333  0.666667  0.255257  1
