# generated using pymatgen
data_Ho2Lu8CuIrPb6
_symmetry_space_group_name_H-M   'P 1'
_cell_length_a   9.05499300
_cell_length_b   9.05499328
_cell_length_c   6.64403400
_cell_angle_alpha   90.00000000
_cell_angle_beta   90.00000000
_cell_angle_gamma   120.00000264
_symmetry_Int_Tables_number   1
_chemical_formula_structural   Ho2Lu8CuIrPb6
_chemical_formula_sum   'Ho2 Lu8 Cu1 Ir1 Pb6'
_cell_volume   471.77912163
_cell_formula_units_Z   1
loop_
 _symmetry_equiv_pos_site_id
 _symmetry_equiv_pos_as_xyz
  1  'x, y, z'
loop_
 _atom_site_type_symbol
 _atom_site_label
 _atom_site_symmetry_multiplicity
 _atom_site_fract_x
 _atom_site_fract_y
 _atom_site_fract_z
 _atom_site_occupancy
  Ho  Ho0  1  0.666667  0.333333  0.000000  1
  Ho  Ho1  1  0.333333  0.666667  0.000000  1
  Lu  Lu2  1  0.244386  0.000000  0.738409  1
  Lu  Lu3  1  0.755614  0.000000  0.261591  1
  Lu  Lu4  1  0.000000  0.244386  0.738409  1
  Lu  Lu5  1  0.000000  0.755614  0.261591  1
  Lu  Lu6  1  0.755614  0.755614  0.738409  1
  Lu  Lu7  1  0.244386  0.244386  0.261591  1
  Lu  Lu8  1  0.333333  0.666667  0.500000  1
  Lu  Lu9  1  0.666667  0.333333  0.500000  1
  Cu  Cu10  1  0.000000  0.000000  0.000000  1
  Ir  Ir11  1  0.000000  0.000000  0.500000  1
  Pb  Pb12  1  0.603030  0.000000  0.750393  1
  Pb  Pb13  1  0.396970  0.000000  0.249607  1
  Pb  Pb14  1  0.000000  0.603030  0.750393  1
  Pb  Pb15  1  0.000000  0.396970  0.249607  1
  Pb  Pb16  1  0.396970  0.396970  0.750393  1
  Pb  Pb17  1  0.603030  0.603030  0.249607  1
