# generated using pymatgen
data_Gd(ZrH5)3
_symmetry_space_group_name_H-M   'P 1'
_cell_length_a   7.14768754
_cell_length_b   7.16191319
_cell_length_c   7.19185448
_cell_angle_alpha   109.52886467
_cell_angle_beta   109.44957687
_cell_angle_gamma   109.22500478
_symmetry_Int_Tables_number   1
_chemical_formula_structural   Gd(ZrH5)3
_chemical_formula_sum   'Gd2 Zr6 H30'
_cell_volume   284.14025194
_cell_formula_units_Z   2
loop_
 _symmetry_equiv_pos_site_id
 _symmetry_equiv_pos_as_xyz
  1  'x, y, z'
loop_
 _atom_site_type_symbol
 _atom_site_label
 _atom_site_symmetry_multiplicity
 _atom_site_fract_x
 _atom_site_fract_y
 _atom_site_fract_z
 _atom_site_occupancy
  Gd  Gd0  1  0.911621  0.910071  0.909202  1
  Gd  Gd1  1  0.502422  0.000870  0.090799  1
  Zr  Zr2  1  0.005576  0.110915  0.505583  1
  Zr  Zr3  1  0.107919  0.498506  0.002009  1
  Zr  Zr4  1  0.999992  0.605328  0.494416  1
  Zr  Zr5  1  0.605909  0.496498  0.997992  1
  Zr  Zr6  1  0.498343  0.000006  0.592290  1
  Zr  Zr7  1  0.406043  0.407709  0.407701  1
  H  H8  1  0.666577  0.978907  0.399884  1
  H  H9  1  0.221093  0.305824  0.847046  1
  H  H10  1  0.190869  0.418474  0.536359  1
  H  H11  1  0.095174  0.290091  0.128573  1
  H  H12  1  0.283232  0.139798  0.109598  1
  H  H13  1  0.129952  0.103737  0.294225  1
  H  H14  1  0.466598  0.161519  0.871428  1
  H  H15  1  0.721958  0.341498  0.811409  1
  H  H16  1  0.625185  0.383612  0.254674  1
  H  H17  1  0.240004  0.623503  0.367520  1
  H  H18  1  0.759699  0.870735  0.141403  1
  H  H19  1  0.118296  0.729334  0.858598  1
  H  H20  1  0.372486  0.255982  0.632481  1
  H  H21  1  0.870509  0.128940  0.745328  1
  H  H22  1  0.766694  0.579024  0.600117  1
  H  H23  1  0.305167  0.832703  0.226925  1
  H  H24  1  0.377885  0.637147  0.970475  1
  H  H25  1  0.975246  0.381113  0.658775  1
  H  H26  1  0.526375  0.194194  0.427535  1
  H  H27  1  0.410551  0.530090  0.188592  1
  H  H28  1  0.863621  0.234662  0.327502  1
  H  H29  1  0.907408  0.666671  0.029526  1
  H  H30  1  0.816469  0.722337  0.341223  1
  H  H31  1  0.154508  0.882116  0.463639  1
  H  H32  1  0.673640  0.030200  0.890405  1
  H  H33  1  0.335727  0.809512  0.705774  1
  H  H34  1  0.874049  0.458778  0.152955  1
  H  H35  1  0.598840  0.766661  0.572467  1
  H  H36  1  0.578241  0.605776  0.773074  1
  H  H37  1  0.036120  0.907161  0.672497  1
