# generated using pymatgen
data_U2CrReC3
_symmetry_space_group_name_H-M   'P 1'
_cell_length_a   6.18817601
_cell_length_b   6.18817641
_cell_length_c   5.36825803
_cell_angle_alpha   64.62936718
_cell_angle_beta   64.62936658
_cell_angle_gamma   28.78000736
_symmetry_Int_Tables_number   1
_chemical_formula_structural   U2CrReC3
_chemical_formula_sum   'U2 Cr1 Re1 C3'
_cell_volume   88.76140042
_cell_formula_units_Z   1
loop_
 _symmetry_equiv_pos_site_id
 _symmetry_equiv_pos_as_xyz
  1  'x, y, z'
loop_
 _atom_site_type_symbol
 _atom_site_label
 _atom_site_symmetry_multiplicity
 _atom_site_fract_x
 _atom_site_fract_y
 _atom_site_fract_z
 _atom_site_occupancy
  U  U0  1  0.590332  0.590332  0.235189  1
  U  U1  1  0.408201  0.408201  0.769896  1
  Cr  Cr2  1  0.839459  0.839459  0.321143  1
  Re  Re3  1  0.158910  0.158910  0.674308  1
  C  C4  1  0.754958  0.754958  0.750569  1
  C  C5  1  0.253097  0.253097  0.238171  1
  C  C6  1  0.995044  0.995044  0.010724  1
