# generated using pymatgen
data_Li2LaNd2Al7
_symmetry_space_group_name_H-M   'P 1'
_cell_length_a   9.46774696
_cell_length_b   9.46774708
_cell_length_c   9.46774727
_cell_angle_alpha   34.75668320
_cell_angle_beta   34.75668398
_cell_angle_gamma   34.75668166
_symmetry_Int_Tables_number   1
_chemical_formula_structural   Li2LaNd2Al7
_chemical_formula_sum   'Li2 La1 Nd2 Al7'
_cell_volume   246.17513823
_cell_formula_units_Z   1
loop_
 _symmetry_equiv_pos_site_id
 _symmetry_equiv_pos_as_xyz
  1  'x, y, z'
loop_
 _atom_site_type_symbol
 _atom_site_label
 _atom_site_symmetry_multiplicity
 _atom_site_fract_x
 _atom_site_fract_y
 _atom_site_fract_z
 _atom_site_occupancy
  Li  Li0  1  0.335062  0.335062  0.335062  1
  Li  Li1  1  0.664938  0.664938  0.664938  1
  La  La2  1  0.000000  0.000000  0.000000  1
  Nd  Nd3  1  0.140826  0.140826  0.140826  1
  Nd  Nd4  1  0.859174  0.859174  0.859174  1
  Al  Al5  1  0.585459  0.585459  0.074736  1
  Al  Al6  1  0.414541  0.925264  0.414541  1
  Al  Al7  1  0.585459  0.074736  0.585459  1
  Al  Al8  1  0.074736  0.585459  0.585459  1
  Al  Al9  1  0.414541  0.414541  0.925264  1
  Al  Al10  1  0.500000  0.500000  0.500000  1
  Al  Al11  1  0.925264  0.414541  0.414541  1
