# generated using pymatgen
data_Tb3Dy5Sc11Si16Hg
_symmetry_space_group_name_H-M   'P 1'
_cell_length_a   7.06976660
_cell_length_b   7.40919027
_cell_length_c   14.04719295
_cell_angle_alpha   90.04122282
_cell_angle_beta   90.04424941
_cell_angle_gamma   89.90204113
_symmetry_Int_Tables_number   1
_chemical_formula_structural   Tb3Dy5Sc11Si16Hg
_chemical_formula_sum   'Tb3 Dy5 Sc11 Si16 Hg1'
_cell_volume   735.80798462
_cell_formula_units_Z   1
loop_
 _symmetry_equiv_pos_site_id
 _symmetry_equiv_pos_as_xyz
  1  'x, y, z'
loop_
 _atom_site_type_symbol
 _atom_site_label
 _atom_site_symmetry_multiplicity
 _atom_site_fract_x
 _atom_site_fract_y
 _atom_site_fract_z
 _atom_site_occupancy
  Tb  Tb0  1  0.010061  0.173776  0.096816  1
  Tb  Tb1  1  0.990930  0.817266  0.901714  1
  Tb  Tb2  1  0.484506  0.673015  0.901794  1
  Dy  Dy3  1  0.990733  0.817137  0.598399  1
  Dy  Dy4  1  0.511174  0.323935  0.097262  1
  Dy  Dy5  1  0.010197  0.173923  0.403109  1
  Dy  Dy6  1  0.511185  0.323867  0.402847  1
  Dy  Dy7  1  0.484541  0.673227  0.598314  1
  Sc  Sc8  1  0.838130  0.497912  0.250084  1
  Sc  Sc9  1  0.339718  0.003112  0.250075  1
  Sc  Sc10  1  0.657680  0.998419  0.749893  1
  Sc  Sc11  1  0.325658  0.183167  0.625676  1
  Sc  Sc12  1  0.671224  0.823813  0.375117  1
  Sc  Sc13  1  0.169513  0.679982  0.373245  1
  Sc  Sc14  1  0.671179  0.823824  0.124976  1
  Sc  Sc15  1  0.837987  0.325335  0.625799  1
  Sc  Sc16  1  0.325656  0.183143  0.874223  1
  Sc  Sc17  1  0.838046  0.325345  0.874129  1
  Sc  Sc18  1  0.169666  0.679774  0.126802  1
  Si  Si19  1  0.027726  0.096228  0.749827  1
  Si  Si20  1  0.967523  0.886632  0.250124  1
  Si  Si21  1  0.467058  0.617406  0.250022  1
  Si  Si22  1  0.544550  0.378944  0.749876  1
  Si  Si23  1  0.291537  0.889096  0.749715  1
  Si  Si24  1  0.712855  0.127854  0.250174  1
  Si  Si25  1  0.212845  0.373383  0.250143  1
  Si  Si26  1  0.769901  0.630585  0.749652  1
  Si  Si27  1  0.161832  0.459420  0.528547  1
  Si  Si28  1  0.842376  0.536160  0.461855  1
  Si  Si29  1  0.344181  0.965966  0.462108  1
  Si  Si30  1  0.842270  0.536079  0.038197  1
  Si  Si31  1  0.657525  0.033151  0.540542  1
  Si  Si32  1  0.161599  0.459255  0.971559  1
  Si  Si33  1  0.657126  0.033592  0.959532  1
  Si  Si34  1  0.344642  0.966063  0.037928  1
  Hg  Hg35  1  0.156670  0.510216  0.749924  1
