# generated using pymatgen
data_Th2Co4Si3Tc
_symmetry_space_group_name_H-M   'P 1'
_cell_length_a   4.02188900
_cell_length_b   4.02188900
_cell_length_c   9.64689200
_cell_angle_alpha   90.00000000
_cell_angle_beta   90.00000000
_cell_angle_gamma   90.00000000
_symmetry_Int_Tables_number   1
_chemical_formula_structural   Th2Co4Si3Tc
_chemical_formula_sum   'Th2 Co4 Si3 Tc1'
_cell_volume   156.04418065
_cell_formula_units_Z   1
loop_
 _symmetry_equiv_pos_site_id
 _symmetry_equiv_pos_as_xyz
  1  'x, y, z'
loop_
 _atom_site_type_symbol
 _atom_site_label
 _atom_site_symmetry_multiplicity
 _atom_site_fract_x
 _atom_site_fract_y
 _atom_site_fract_z
 _atom_site_occupancy
  Th  Th0  1  0.000000  0.500000  0.242925  1
  Th  Th1  1  0.500000  0.000000  0.757075  1
  Co  Co2  1  0.000000  0.000000  0.000000  1
  Co  Co3  1  0.500000  0.500000  0.000000  1
  Co  Co4  1  0.000000  0.500000  0.628700  1
  Co  Co5  1  0.500000  0.000000  0.371300  1
  Si  Si6  1  0.500000  0.500000  0.500000  1
  Si  Si7  1  0.000000  0.500000  0.875742  1
  Si  Si8  1  0.500000  0.000000  0.124258  1
  Tc  Tc9  1  0.000000  0.000000  0.500000  1
