# generated using pymatgen
data_Li2Ca6Zn14N
_symmetry_space_group_name_H-M   'P 1'
_cell_length_a   8.23572033
_cell_length_b   8.23744736
_cell_length_c   8.23771114
_cell_angle_alpha   109.50433493
_cell_angle_beta   109.49584398
_cell_angle_gamma   109.40795087
_symmetry_Int_Tables_number   1
_chemical_formula_structural   Li2Ca6Zn14N
_chemical_formula_sum   'Li2 Ca6 Zn14 N1'
_cell_volume   430.23751476
_cell_formula_units_Z   1
loop_
 _symmetry_equiv_pos_site_id
 _symmetry_equiv_pos_as_xyz
  1  'x, y, z'
loop_
 _atom_site_type_symbol
 _atom_site_label
 _atom_site_symmetry_multiplicity
 _atom_site_fract_x
 _atom_site_fract_y
 _atom_site_fract_z
 _atom_site_occupancy
  Li  Li0  1  0.693976  0.346460  0.346389  1
  Li  Li1  1  0.347588  0.000071  0.653611  1
  Ca  Ca2  1  0.999636  0.254840  0.255281  1
  Ca  Ca3  1  0.252674  0.998576  0.253598  1
  Ca  Ca4  1  0.744355  0.999559  0.744719  1
  Ca  Ca5  1  0.742180  0.743424  0.000000  1
  Ca  Ca6  1  0.253152  0.255824  0.000000  1
  Ca  Ca7  1  0.999076  0.744978  0.746402  1
  Zn  Zn8  1  0.499357  0.500834  0.500355  1
  Zn  Zn9  1  0.498651  0.998055  0.000000  1
  Zn  Zn10  1  0.000447  0.500240  0.000000  1
  Zn  Zn11  1  0.999002  0.000478  0.499645  1
  Zn  Zn12  1  0.342357  0.682553  0.339670  1
  Zn  Zn13  1  0.342382  0.339986  0.684895  1
  Zn  Zn14  1  0.342800  0.657718  0.000000  1
  Zn  Zn15  1  0.002686  0.342884  0.660330  1
  Zn  Zn16  1  0.003395  0.661913  0.342874  1
  Zn  Zn17  1  0.657486  0.655090  0.315105  1
  Zn  Zn18  1  0.654084  0.000741  0.343862  1
  Zn  Zn19  1  0.654670  0.340019  0.000000  1
  Zn  Zn20  1  0.660521  0.319041  0.657126  1
  Zn  Zn21  1  0.310222  0.656879  0.656138  1
  N  N22  1  0.999303  0.999840  0.000000  1
