# generated using pymatgen
data_HoTm4Bi2Pt
_symmetry_space_group_name_H-M   'P 1'
_cell_length_a   7.97678800
_cell_length_b   8.99018800
_cell_length_c   12.26322000
_cell_angle_alpha   90.00000000
_cell_angle_beta   90.00000000
_cell_angle_gamma   90.00000000
_symmetry_Int_Tables_number   1
_chemical_formula_structural   HoTm4Bi2Pt
_chemical_formula_sum   'Ho4 Tm16 Bi8 Pt4'
_cell_volume   879.43013454
_cell_formula_units_Z   4
loop_
 _symmetry_equiv_pos_site_id
 _symmetry_equiv_pos_as_xyz
  1  'x, y, z'
loop_
 _atom_site_type_symbol
 _atom_site_label
 _atom_site_symmetry_multiplicity
 _atom_site_fract_x
 _atom_site_fract_y
 _atom_site_fract_z
 _atom_site_occupancy
  Ho  Ho0  1  0.627441  0.750000  0.303197  1
  Ho  Ho1  1  0.872559  0.750000  0.803197  1
  Ho  Ho2  1  0.372559  0.250000  0.696803  1
  Ho  Ho3  1  0.127441  0.250000  0.196803  1
  Tm  Tm4  1  0.165480  0.750000  0.210530  1
  Tm  Tm5  1  0.334520  0.750000  0.710530  1
  Tm  Tm6  1  0.834520  0.250000  0.789470  1
  Tm  Tm7  1  0.665480  0.250000  0.289470  1
  Tm  Tm8  1  0.449640  0.750000  0.999946  1
  Tm  Tm9  1  0.050360  0.750000  0.499946  1
  Tm  Tm10  1  0.550360  0.250000  0.000054  1
  Tm  Tm11  1  0.949640  0.250000  0.500054  1
  Tm  Tm12  1  0.823430  0.548130  0.066328  1
  Tm  Tm13  1  0.676570  0.951870  0.566328  1
  Tm  Tm14  1  0.176570  0.048130  0.933672  1
  Tm  Tm15  1  0.323430  0.451870  0.433672  1
  Tm  Tm16  1  0.176570  0.451870  0.933672  1
  Tm  Tm17  1  0.323430  0.048130  0.433672  1
  Tm  Tm18  1  0.823430  0.951870  0.066328  1
  Tm  Tm19  1  0.676570  0.548130  0.566328  1
  Bi  Bi20  1  0.933358  0.510100  0.327686  1
  Bi  Bi21  1  0.566642  0.989900  0.827686  1
  Bi  Bi22  1  0.066642  0.010100  0.672314  1
  Bi  Bi23  1  0.433358  0.489900  0.172314  1
  Bi  Bi24  1  0.066642  0.489900  0.672314  1
  Bi  Bi25  1  0.433358  0.010100  0.172314  1
  Bi  Bi26  1  0.933358  0.989900  0.327686  1
  Bi  Bi27  1  0.566642  0.510100  0.827686  1
  Pt  Pt28  1  0.418932  0.750000  0.488649  1
  Pt  Pt29  1  0.081068  0.750000  0.988649  1
  Pt  Pt30  1  0.581068  0.250000  0.511351  1
  Pt  Pt31  1  0.918932  0.250000  0.011351  1
