# generated using pymatgen
data_Tm3Hf(Co4P3)2
_symmetry_space_group_name_H-M   'P 1'
_cell_length_a   3.69598100
_cell_length_b   10.63706400
_cell_length_c   12.32021800
_cell_angle_alpha   90.00000000
_cell_angle_beta   90.00000000
_cell_angle_gamma   90.00000000
_symmetry_Int_Tables_number   1
_chemical_formula_structural   Tm3Hf(Co4P3)2
_chemical_formula_sum   'Tm6 Hf2 Co16 P12'
_cell_volume   484.36181147
_cell_formula_units_Z   2
loop_
 _symmetry_equiv_pos_site_id
 _symmetry_equiv_pos_as_xyz
  1  'x, y, z'
loop_
 _atom_site_type_symbol
 _atom_site_label
 _atom_site_symmetry_multiplicity
 _atom_site_fract_x
 _atom_site_fract_y
 _atom_site_fract_z
 _atom_site_occupancy
  Tm  Tm0  1  0.000000  0.500000  0.529213  1
  Tm  Tm1  1  0.500000  0.000000  0.470787  1
  Tm  Tm2  1  0.500000  0.822168  0.204459  1
  Tm  Tm3  1  0.500000  0.177832  0.204459  1
  Tm  Tm4  1  0.000000  0.677832  0.795541  1
  Tm  Tm5  1  0.000000  0.322168  0.795541  1
  Hf  Hf6  1  0.500000  0.500000  0.158268  1
  Hf  Hf7  1  0.000000  0.000000  0.841732  1
  Co  Co8  1  0.500000  0.500000  0.702620  1
  Co  Co9  1  0.000000  0.000000  0.297380  1
  Co  Co10  1  0.000000  0.500000  0.986557  1
  Co  Co11  1  0.500000  0.000000  0.013443  1
  Co  Co12  1  0.500000  0.331974  0.993177  1
  Co  Co13  1  0.500000  0.668026  0.993177  1
  Co  Co14  1  0.000000  0.168026  0.006823  1
  Co  Co15  1  0.000000  0.831974  0.006823  1
  Co  Co16  1  0.500000  0.295178  0.433285  1
  Co  Co17  1  0.500000  0.704822  0.433285  1
  Co  Co18  1  0.000000  0.204822  0.566715  1
  Co  Co19  1  0.000000  0.795178  0.566715  1
  Co  Co20  1  0.500000  0.877104  0.702497  1
  Co  Co21  1  0.500000  0.122896  0.702497  1
  Co  Co22  1  0.000000  0.622896  0.297503  1
  Co  Co23  1  0.000000  0.377104  0.297503  1
  P  P24  1  0.500000  0.500000  0.882307  1
  P  P25  1  0.000000  0.000000  0.117693  1
  P  P26  1  0.500000  0.500000  0.363505  1
  P  P27  1  0.000000  0.000000  0.636495  1
  P  P28  1  0.500000  0.311413  0.616213  1
  P  P29  1  0.500000  0.688587  0.616213  1
  P  P30  1  0.000000  0.188587  0.383787  1
  P  P31  1  0.000000  0.811413  0.383787  1
  P  P32  1  0.500000  0.837761  0.891981  1
  P  P33  1  0.500000  0.162239  0.891981  1
  P  P34  1  0.000000  0.662239  0.108019  1
  P  P35  1  0.000000  0.337761  0.108019  1
