# generated using pymatgen
data_Yb12Ho7ErSi16
_symmetry_space_group_name_H-M   'P 1'
_cell_length_a   7.40161305
_cell_length_b   7.79660403
_cell_length_c   15.09033205
_cell_angle_alpha   90.00086984
_cell_angle_beta   89.99099931
_cell_angle_gamma   89.99043938
_symmetry_Int_Tables_number   1
_chemical_formula_structural   Yb12Ho7ErSi16
_chemical_formula_sum   'Yb12 Ho7 Er1 Si16'
_cell_volume   870.82450032
_cell_formula_units_Z   1
loop_
 _symmetry_equiv_pos_site_id
 _symmetry_equiv_pos_as_xyz
  1  'x, y, z'
loop_
 _atom_site_type_symbol
 _atom_site_label
 _atom_site_symmetry_multiplicity
 _atom_site_fract_x
 _atom_site_fract_y
 _atom_site_fract_z
 _atom_site_occupancy
  Yb  Yb0  1  0.971872  0.816136  0.403473  1
  Yb  Yb1  1  0.471885  0.683873  0.096513  1
  Yb  Yb2  1  0.528137  0.316135  0.596537  1
  Yb  Yb3  1  0.028103  0.183842  0.903467  1
  Yb  Yb4  1  0.028123  0.183851  0.596538  1
  Yb  Yb5  1  0.528170  0.316128  0.903472  1
  Yb  Yb6  1  0.471864  0.683866  0.403472  1
  Yb  Yb7  1  0.971847  0.816152  0.096516  1
  Yb  Yb8  1  0.353771  0.019255  0.750013  1
  Yb  Yb9  1  0.853728  0.480764  0.750023  1
  Yb  Yb10  1  0.146252  0.519255  0.250003  1
  Yb  Yb11  1  0.646260  0.980735  0.249999  1
  Ho  Ho12  1  0.314237  0.176683  0.121027  1
  Ho  Ho13  1  0.814208  0.323304  0.378953  1
  Ho  Ho14  1  0.185797  0.676749  0.878935  1
  Ho  Ho15  1  0.685777  0.823287  0.621087  1
  Ho  Ho16  1  0.314209  0.176696  0.378953  1
  Ho  Ho17  1  0.814210  0.323307  0.121047  1
  Ho  Ho18  1  0.185807  0.676709  0.621066  1
  Er  Er19  1  0.685742  0.823417  0.878924  1
  Si  Si20  1  0.857796  0.533432  0.538440  1
  Si  Si21  1  0.357960  0.966465  0.961505  1
  Si  Si22  1  0.642211  0.033441  0.461562  1
  Si  Si23  1  0.142204  0.466591  0.038435  1
  Si  Si24  1  0.142214  0.466557  0.461560  1
  Si  Si25  1  0.642282  0.033317  0.038343  1
  Si  Si26  1  0.357775  0.966553  0.538436  1
  Si  Si27  1  0.857600  0.533567  0.961489  1
  Si  Si28  1  0.977729  0.882632  0.750080  1
  Si  Si29  1  0.477990  0.617440  0.750043  1
  Si  Si30  1  0.522152  0.382697  0.249998  1
  Si  Si31  1  0.022155  0.117299  0.249999  1
  Si  Si32  1  0.249127  0.395032  0.750016  1
  Si  Si33  1  0.749036  0.104841  0.750081  1
  Si  Si34  1  0.250884  0.895029  0.249998  1
  Si  Si35  1  0.750885  0.604962  0.249998  1
