# generated using pymatgen
data_TbSc2Co9
_symmetry_space_group_name_H-M   'P 1'
_cell_length_a   4.84143332
_cell_length_b   4.84143251
_cell_length_c   8.36997072
_cell_angle_alpha   106.81094217
_cell_angle_beta   73.18906383
_cell_angle_gamma   119.99999474
_symmetry_Int_Tables_number   1
_chemical_formula_structural   TbSc2Co9
_chemical_formula_sum   'Tb1 Sc2 Co9'
_cell_volume   160.14913832
_cell_formula_units_Z   1
loop_
 _symmetry_equiv_pos_site_id
 _symmetry_equiv_pos_as_xyz
  1  'x, y, z'
loop_
 _atom_site_type_symbol
 _atom_site_label
 _atom_site_symmetry_multiplicity
 _atom_site_fract_x
 _atom_site_fract_y
 _atom_site_fract_z
 _atom_site_occupancy
  Tb  Tb0  1  0.000000  0.000000  0.000000  1
  Sc  Sc1  1  0.859371  0.140631  0.421892  1
  Sc  Sc2  1  0.140631  0.859370  0.578108  1
  Co  Co3  1  0.333721  0.666281  0.998842  1
  Co  Co4  1  0.666280  0.333719  0.001159  1
  Co  Co5  1  0.414872  0.081274  0.251532  1
  Co  Co6  1  0.918725  0.585129  0.251532  1
  Co  Co7  1  0.414872  0.585131  0.251532  1
  Co  Co8  1  0.500000  0.500000  0.500000  1
  Co  Co9  1  0.585130  0.414870  0.748468  1
  Co  Co10  1  0.081274  0.414871  0.748468  1
  Co  Co11  1  0.585130  0.918727  0.748468  1
