# generated using pymatgen
data_Zr16ZnCo4Ir3N4
_symmetry_space_group_name_H-M   'P 1'
_cell_length_a   8.68026647
_cell_length_b   8.68026613
_cell_length_c   8.68026593
_cell_angle_alpha   60.32541226
_cell_angle_beta   60.32541188
_cell_angle_gamma   60.32541976
_symmetry_Int_Tables_number   1
_chemical_formula_structural   Zr16ZnCo4Ir3N4
_chemical_formula_sum   'Zr16 Zn1 Co4 Ir3 N4'
_cell_volume   465.87562148
_cell_formula_units_Z   1
loop_
 _symmetry_equiv_pos_site_id
 _symmetry_equiv_pos_as_xyz
  1  'x, y, z'
loop_
 _atom_site_type_symbol
 _atom_site_label
 _atom_site_symmetry_multiplicity
 _atom_site_fract_x
 _atom_site_fract_y
 _atom_site_fract_z
 _atom_site_occupancy
  Zr  Zr0  1  0.079422  0.640817  0.640817  1
  Zr  Zr1  1  0.640817  0.079422  0.640817  1
  Zr  Zr2  1  0.640817  0.640817  0.079422  1
  Zr  Zr3  1  0.642342  0.642342  0.642342  1
  Zr  Zr4  1  0.813024  0.813024  0.186569  1
  Zr  Zr5  1  0.184246  0.184246  0.815996  1
  Zr  Zr6  1  0.813024  0.186569  0.813024  1
  Zr  Zr7  1  0.184246  0.815996  0.184246  1
  Zr  Zr8  1  0.186569  0.813024  0.813024  1
  Zr  Zr9  1  0.815996  0.184246  0.184246  1
  Zr  Zr10  1  0.433654  0.433654  0.058204  1
  Zr  Zr11  1  0.064632  0.064632  0.434111  1
  Zr  Zr12  1  0.433654  0.058204  0.433654  1
  Zr  Zr13  1  0.064632  0.434111  0.064632  1
  Zr  Zr14  1  0.058204  0.433654  0.433654  1
  Zr  Zr15  1  0.434111  0.064632  0.064632  1
  Zn  Zn16  1  0.421810  0.421810  0.421810  1
  Co  Co17  1  0.441963  0.855026  0.855026  1
  Co  Co18  1  0.855026  0.441963  0.855026  1
  Co  Co19  1  0.855026  0.855026  0.441963  1
  Co  Co20  1  0.850236  0.850236  0.850236  1
  Ir  Ir21  1  0.749025  0.418907  0.418907  1
  Ir  Ir22  1  0.418907  0.749025  0.418907  1
  Ir  Ir23  1  0.418907  0.418907  0.749025  1
  N  N24  1  0.622617  0.125819  0.125819  1
  N  N25  1  0.125819  0.622617  0.125819  1
  N  N26  1  0.125819  0.125819  0.622617  1
  N  N27  1  0.125459  0.125459  0.125459  1
