# generated using pymatgen
data_Zr6Zn14Cu9S
_symmetry_space_group_name_H-M   'P 1'
_cell_length_a   8.58002295
_cell_length_b   8.58013667
_cell_length_c   8.58015079
_cell_angle_alpha   59.95916565
_cell_angle_beta   59.96028213
_cell_angle_gamma   59.96018544
_symmetry_Int_Tables_number   1
_chemical_formula_structural   Zr6Zn14Cu9S
_chemical_formula_sum   'Zr6 Zn14 Cu9 S1'
_cell_volume   446.23870102
_cell_formula_units_Z   1
loop_
 _symmetry_equiv_pos_site_id
 _symmetry_equiv_pos_as_xyz
  1  'x, y, z'
loop_
 _atom_site_type_symbol
 _atom_site_label
 _atom_site_symmetry_multiplicity
 _atom_site_fract_x
 _atom_site_fract_y
 _atom_site_fract_z
 _atom_site_occupancy
  Zr  Zr0  1  0.712236  0.291465  0.291460  1
  Zr  Zr1  1  0.287766  0.708537  0.708533  1
  Zr  Zr2  1  0.291455  0.712247  0.291450  1
  Zr  Zr3  1  0.708548  0.287754  0.708545  1
  Zr  Zr4  1  0.291454  0.291454  0.712244  1
  Zr  Zr5  1  0.708548  0.708549  0.287750  1
  Zn  Zn6  1  0.118479  0.118459  0.640869  1
  Zn  Zn7  1  0.118478  0.640864  0.118461  1
  Zn  Zn8  1  0.881520  0.881540  0.359137  1
  Zn  Zn9  1  0.881522  0.359133  0.881543  1
  Zn  Zn10  1  0.640862  0.118478  0.118482  1
  Zn  Zn11  1  0.359134  0.881521  0.881523  1
  Zn  Zn12  1  0.333594  0.333603  0.333603  1
  Zn  Zn13  1  0.666405  0.666397  0.666398  1
  Zn  Zn14  1  0.330312  0.330306  0.004626  1
  Zn  Zn15  1  0.330310  0.004630  0.330305  1
  Zn  Zn16  1  0.669689  0.669696  0.995370  1
  Zn  Zn17  1  0.669689  0.995372  0.669695  1
  Zn  Zn18  1  0.004626  0.330313  0.330314  1
  Zn  Zn19  1  0.995374  0.669686  0.669688  1
  Cu  Cu20  1  0.119969  0.119989  0.119988  1
  Cu  Cu21  1  0.880033  0.880011  0.880010  1
  Cu  Cu22  1  0.499999  0.999999  0.000001  1
  Cu  Cu23  1  0.000000  0.499999  0.500001  1
  Cu  Cu24  1  0.999999  0.500000  0.000002  1
  Cu  Cu25  1  0.499999  0.000000  0.500001  1
  Cu  Cu26  1  0.000000  0.000000  0.500001  1
  Cu  Cu27  1  0.500000  0.499999  0.000000  1
  Cu  Cu28  1  0.999998  0.999998  0.000004  1
  S  S29  1  0.500003  0.500000  0.499995  1
