# generated using pymatgen
data_Gd4LuSn3P
_symmetry_space_group_name_H-M   'P 1'
_cell_length_a   9.15970300
_cell_length_b   9.15970356
_cell_length_c   6.75686500
_cell_angle_alpha   90.00000000
_cell_angle_beta   90.00000000
_cell_angle_gamma   119.99998715
_symmetry_Int_Tables_number   1
_chemical_formula_structural   Gd4LuSn3P
_chemical_formula_sum   'Gd8 Lu2 Sn6 P2'
_cell_volume   490.95166868
_cell_formula_units_Z   2
loop_
 _symmetry_equiv_pos_site_id
 _symmetry_equiv_pos_as_xyz
  1  'x, y, z'
loop_
 _atom_site_type_symbol
 _atom_site_label
 _atom_site_symmetry_multiplicity
 _atom_site_fract_x
 _atom_site_fract_y
 _atom_site_fract_z
 _atom_site_occupancy
  Gd  Gd0  1  0.666667  0.333333  0.000000  1
  Gd  Gd1  1  0.333333  0.666667  0.000000  1
  Gd  Gd2  1  0.758581  0.758581  0.747919  1
  Gd  Gd3  1  0.241419  0.000000  0.747919  1
  Gd  Gd4  1  0.000000  0.241419  0.747919  1
  Gd  Gd5  1  0.241419  0.241419  0.252081  1
  Gd  Gd6  1  0.758581  0.000000  0.252081  1
  Gd  Gd7  1  0.000000  0.758581  0.252081  1
  Lu  Lu8  1  0.333333  0.666667  0.500000  1
  Lu  Lu9  1  0.666667  0.333333  0.500000  1
  Sn  Sn10  1  0.399852  0.399852  0.743654  1
  Sn  Sn11  1  0.600148  0.000000  0.743654  1
  Sn  Sn12  1  0.000000  0.600148  0.743654  1
  Sn  Sn13  1  0.600148  0.600148  0.256346  1
  Sn  Sn14  1  0.399852  0.000000  0.256346  1
  Sn  Sn15  1  0.000000  0.399852  0.256346  1
  P  P16  1  0.000000  0.000000  0.000000  1
  P  P17  1  0.000000  0.000000  0.500000  1
