# generated using pymatgen
data_Tb7NdAlPd24
_symmetry_space_group_name_H-M   'P 1'
_cell_length_a   8.38153802
_cell_length_b   8.38152714
_cell_length_c   8.38152892
_cell_angle_alpha   90.05494174
_cell_angle_beta   89.94496302
_cell_angle_gamma   89.94504672
_symmetry_Int_Tables_number   1
_chemical_formula_structural   Tb7NdAlPd24
_chemical_formula_sum   'Tb7 Nd1 Al1 Pd24'
_cell_volume   588.80233317
_cell_formula_units_Z   1
loop_
 _symmetry_equiv_pos_site_id
 _symmetry_equiv_pos_as_xyz
  1  'x, y, z'
loop_
 _atom_site_type_symbol
 _atom_site_label
 _atom_site_symmetry_multiplicity
 _atom_site_fract_x
 _atom_site_fract_y
 _atom_site_fract_z
 _atom_site_occupancy
  Tb  Tb0  1  0.252631  0.251809  0.251809  1
  Tb  Tb1  1  0.747588  0.748272  0.748272  1
  Tb  Tb2  1  0.748190  0.747369  0.251810  1
  Tb  Tb3  1  0.748191  0.251809  0.747369  1
  Tb  Tb4  1  0.251728  0.252412  0.748272  1
  Tb  Tb5  1  0.251728  0.748272  0.252412  1
  Tb  Tb6  1  0.252427  0.747572  0.747572  1
  Nd  Nd7  1  0.747526  0.252474  0.252474  1
  Al  Al8  1  0.999848  0.000152  0.000152  1
  Pd  Pd9  1  0.259677  0.500305  0.000296  1
  Pd  Pd10  1  0.740537  0.501881  0.996792  1
  Pd  Pd11  1  0.003208  0.259464  0.501883  1
  Pd  Pd12  1  0.498119  0.259463  0.996792  1
  Pd  Pd13  1  0.999704  0.740321  0.500304  1
  Pd  Pd14  1  0.499696  0.740322  0.000297  1
  Pd  Pd15  1  0.498117  0.996793  0.259463  1
  Pd  Pd16  1  0.259678  0.000296  0.500305  1
  Pd  Pd17  1  0.499696  0.000296  0.740322  1
  Pd  Pd18  1  0.740536  0.996793  0.501883  1
  Pd  Pd19  1  0.003208  0.501883  0.259464  1
  Pd  Pd20  1  0.999704  0.500304  0.740322  1
  Pd  Pd21  1  0.252757  0.499678  0.499677  1
  Pd  Pd22  1  0.747346  0.502999  0.503000  1
  Pd  Pd23  1  0.497000  0.252655  0.503000  1
  Pd  Pd24  1  0.500323  0.747243  0.499678  1
  Pd  Pd25  1  0.497000  0.503000  0.252655  1
  Pd  Pd26  1  0.500323  0.499677  0.747243  1
  Pd  Pd27  1  0.288650  0.000115  0.000114  1
  Pd  Pd28  1  0.710437  0.997671  0.997670  1
  Pd  Pd29  1  0.002329  0.289562  0.997670  1
  Pd  Pd30  1  0.999885  0.711350  0.000115  1
  Pd  Pd31  1  0.002331  0.997669  0.289562  1
  Pd  Pd32  1  0.999885  0.000115  0.711350  1
