# generated using pymatgen
data_Ho8TaTi2Si16Mo9
_symmetry_space_group_name_H-M   'P 1'
_cell_length_a   6.90429439
_cell_length_b   6.90429508
_cell_length_c   12.79177119
_cell_angle_alpha   90.02829966
_cell_angle_beta   89.97169995
_cell_angle_gamma   89.73440386
_symmetry_Int_Tables_number   1
_chemical_formula_structural   Ho8TaTi2Si16Mo9
_chemical_formula_sum   'Ho8 Ta1 Ti2 Si16 Mo9'
_cell_volume   609.76789616
_cell_formula_units_Z   1
loop_
 _symmetry_equiv_pos_site_id
 _symmetry_equiv_pos_as_xyz
  1  'x, y, z'
loop_
 _atom_site_type_symbol
 _atom_site_label
 _atom_site_symmetry_multiplicity
 _atom_site_fract_x
 _atom_site_fract_y
 _atom_site_fract_z
 _atom_site_occupancy
  Ho  Ho0  1  0.340731  0.001902  0.468857  1
  Ho  Ho1  1  0.497451  0.839618  0.719357  1
  Ho  Ho2  1  0.499757  0.161425  0.217727  1
  Ho  Ho3  1  0.839618  0.497451  0.280643  1
  Ho  Ho4  1  0.161425  0.499757  0.782273  1
  Ho  Ho5  1  0.658325  0.999882  0.968653  1
  Ho  Ho6  1  0.001902  0.340731  0.531143  1
  Ho  Ho7  1  0.999882  0.658325  0.031347  1
  Ta  Ta8  1  0.669289  0.669289  0.500000  1
  Ti  Ti9  1  0.169836  0.831099  0.248851  1
  Ti  Ti10  1  0.831099  0.169836  0.751149  1
  Si  Si11  1  0.201014  0.129257  0.683792  1
  Si  Si12  1  0.373163  0.696561  0.934607  1
  Si  Si13  1  0.628976  0.297740  0.432753  1
  Si  Si14  1  0.696561  0.373163  0.065393  1
  Si  Si15  1  0.297740  0.628976  0.567247  1
  Si  Si16  1  0.797707  0.871367  0.183881  1
  Si  Si17  1  0.129257  0.201014  0.316208  1
  Si  Si18  1  0.871367  0.797707  0.816119  1
  Si  Si19  1  0.287256  0.962782  0.061493  1
  Si  Si20  1  0.539592  0.790389  0.312739  1
  Si  Si21  1  0.457246  0.212009  0.815340  1
  Si  Si22  1  0.790389  0.539592  0.687261  1
  Si  Si23  1  0.212009  0.457246  0.184660  1
  Si  Si24  1  0.710578  0.042949  0.564529  1
  Si  Si25  1  0.962782  0.287256  0.938507  1
  Si  Si26  1  0.042949  0.710578  0.435471  1
  Mo  Mo27  1  0.331194  0.331194  0.000000  1
  Mo  Mo28  1  0.155209  0.001814  0.873162  1
  Mo  Mo29  1  0.497339  0.666413  0.124360  1
  Mo  Mo30  1  0.503794  0.340114  0.624296  1
  Mo  Mo31  1  0.666413  0.497339  0.875640  1
  Mo  Mo32  1  0.340114  0.503794  0.375704  1
  Mo  Mo33  1  0.841980  0.994240  0.374347  1
  Mo  Mo34  1  0.001814  0.155209  0.126838  1
  Mo  Mo35  1  0.994240  0.841980  0.625653  1
