# generated using pymatgen
data_Nb12Al8Co3WC4
_symmetry_space_group_name_H-M   'P 1'
_cell_length_a   8.31276446
_cell_length_b   8.31276609
_cell_length_c   8.27410200
_cell_angle_alpha   119.84625944
_cell_angle_beta   90.00000000
_cell_angle_gamma   120.30748260
_symmetry_Int_Tables_number   1
_chemical_formula_structural   Nb12Al8Co3WC4
_chemical_formula_sum   'Nb12 Al8 Co3 W1 C4'
_cell_volume   403.34577980
_cell_formula_units_Z   1
loop_
 _symmetry_equiv_pos_site_id
 _symmetry_equiv_pos_as_xyz
  1  'x, y, z'
loop_
 _atom_site_type_symbol
 _atom_site_label
 _atom_site_symmetry_multiplicity
 _atom_site_fract_x
 _atom_site_fract_y
 _atom_site_fract_z
 _atom_site_occupancy
  Nb  Nb0  1  0.435494  0.749348  0.064506  1
  Nb  Nb1  1  0.819628  0.757925  0.077553  1
  Nb  Nb2  1  0.815160  0.129012  0.064506  1
  Nb  Nb3  1  0.564506  0.250654  0.315160  1
  Nb  Nb4  1  0.577553  0.639255  0.319628  1
  Nb  Nb5  1  0.180373  0.242077  0.319629  1
  Nb  Nb6  1  0.435494  0.749348  0.684841  1
  Nb  Nb7  1  0.819628  0.757925  0.680373  1
  Nb  Nb8  1  0.422447  0.360744  0.680373  1
  Nb  Nb9  1  0.564506  0.250654  0.935495  1
  Nb  Nb10  1  0.180373  0.242077  0.922449  1
  Nb  Nb11  1  0.184841  0.870990  0.935496  1
  Al  Al12  1  0.209749  0.580502  0.290251  1
  Al  Al13  1  0.879177  0.571301  0.285651  1
  Al  Al14  1  0.214349  0.906473  0.285651  1
  Al  Al15  1  0.785651  0.093527  0.379178  1
  Al  Al16  1  0.214349  0.906473  0.620822  1
  Al  Al17  1  0.120822  0.428698  0.714349  1
  Al  Al18  1  0.785651  0.093527  0.714349  1
  Al  Al19  1  0.790251  0.419497  0.709750  1
  Co  Co20  1  0.000000  0.500000  0.000000  1
  Co  Co21  1  0.500000  0.000000  0.500000  1
  Co  Co22  1  0.000000  0.500000  0.500000  1
  W  W23  1  0.000000  0.000000  0.500000  1
  C  C24  1  0.000000  0.000000  0.000000  1
  C  C25  1  0.500000  0.000000  0.000000  1
  C  C26  1  0.500000  0.500000  0.000000  1
  C  C27  1  0.500000  0.500000  0.500000  1
