# generated using pymatgen
data_HfZr4SiSn2Sb
_symmetry_space_group_name_H-M   'P 1'
_cell_length_a   8.68301723
_cell_length_b   8.67987476
_cell_length_c   5.86246959
_cell_angle_alpha   90.05123054
_cell_angle_beta   89.97439452
_cell_angle_gamma   119.98802721
_symmetry_Int_Tables_number   1
_chemical_formula_structural   HfZr4SiSn2Sb
_chemical_formula_sum   'Hf2 Zr8 Si2 Sn4 Sb2'
_cell_volume   382.69039833
_cell_formula_units_Z   2
loop_
 _symmetry_equiv_pos_site_id
 _symmetry_equiv_pos_as_xyz
  1  'x, y, z'
loop_
 _atom_site_type_symbol
 _atom_site_label
 _atom_site_symmetry_multiplicity
 _atom_site_fract_x
 _atom_site_fract_y
 _atom_site_fract_z
 _atom_site_occupancy
  Hf  Hf0  1  0.334088  0.667044  0.000000  1
  Hf  Hf1  1  0.665560  0.332780  0.500000  1
  Zr  Zr2  1  0.259107  0.000035  0.249948  1
  Zr  Zr3  1  0.259107  0.259074  0.750052  1
  Zr  Zr4  1  0.000418  0.741884  0.749836  1
  Zr  Zr5  1  0.000418  0.258533  0.250164  1
  Zr  Zr6  1  0.740434  0.740320  0.249895  1
  Zr  Zr7  1  0.740434  0.000114  0.750105  1
  Zr  Zr8  1  0.664671  0.332335  0.000000  1
  Zr  Zr9  1  0.334078  0.667040  0.500000  1
  Si  Si10  1  0.998723  0.999361  0.000000  1
  Si  Si11  1  0.998766  0.999382  0.500000  1
  Sn  Sn12  1  0.606873  0.999674  0.250030  1
  Sn  Sn13  1  0.606873  0.607199  0.749970  1
  Sn  Sn14  1  0.999193  0.395013  0.750038  1
  Sn  Sn15  1  0.999193  0.604180  0.249962  1
  Sb  Sb16  1  0.396032  0.396498  0.250023  1
  Sb  Sb17  1  0.396032  0.999534  0.749977  1
