# generated using pymatgen
data_HoTm9Os3Ru
_symmetry_space_group_name_H-M   'P 1'
_cell_length_a   6.26181754
_cell_length_b   7.29112168
_cell_length_c   8.30897944
_cell_angle_alpha   96.90072446
_cell_angle_beta   112.21822256
_cell_angle_gamma   90.11098819
_symmetry_Int_Tables_number   1
_chemical_formula_structural   HoTm9Os3Ru
_chemical_formula_sum   'Ho1 Tm9 Os3 Ru1'
_cell_volume   348.17784139
_cell_formula_units_Z   1
loop_
 _symmetry_equiv_pos_site_id
 _symmetry_equiv_pos_as_xyz
  1  'x, y, z'
loop_
 _atom_site_type_symbol
 _atom_site_label
 _atom_site_symmetry_multiplicity
 _atom_site_fract_x
 _atom_site_fract_y
 _atom_site_fract_z
 _atom_site_occupancy
  Ho  Ho0  1  0.793320  0.083674  0.816653  1
  Tm  Tm1  1  0.975295  0.416434  0.183076  1
  Tm  Tm2  1  0.208450  0.916324  0.185671  1
  Tm  Tm3  1  0.024927  0.584727  0.817440  1
  Tm  Tm4  1  0.203161  0.183064  0.564213  1
  Tm  Tm5  1  0.640422  0.317318  0.436063  1
  Tm  Tm6  1  0.794617  0.815981  0.434426  1
  Tm  Tm7  1  0.360208  0.682092  0.563273  1
  Tm  Tm8  1  0.420580  0.250038  0.000298  1
  Tm  Tm9  1  0.580288  0.749796  0.000578  1
  Os  Os10  1  0.602493  0.422803  0.780339  1
  Os  Os11  1  0.822384  0.077784  0.220027  1
  Os  Os12  1  0.396817  0.577926  0.218823  1
  Ru  Ru13  1  0.177037  0.922040  0.779123  1
