# generated using pymatgen
data_Tm3ScGa2Pt3
_symmetry_space_group_name_H-M   'P 1'
_cell_length_a   7.17819200
_cell_length_b   7.19519563
_cell_length_c   4.07071200
_cell_angle_alpha   90.00000000
_cell_angle_beta   90.00000000
_cell_angle_gamma   119.92185697
_symmetry_Int_Tables_number   1
_chemical_formula_structural   Tm3ScGa2Pt3
_chemical_formula_sum   'Tm3 Sc1 Ga2 Pt3'
_cell_volume   182.22171113
_cell_formula_units_Z   1
loop_
 _symmetry_equiv_pos_site_id
 _symmetry_equiv_pos_as_xyz
  1  'x, y, z'
loop_
 _atom_site_type_symbol
 _atom_site_label
 _atom_site_symmetry_multiplicity
 _atom_site_fract_x
 _atom_site_fract_y
 _atom_site_fract_z
 _atom_site_occupancy
  Tm  Tm0  1  0.612188  0.000000  0.499999  1
  Tm  Tm1  1  0.413672  0.427710  0.499999  1
  Tm  Tm2  1  0.985964  0.572290  0.499999  1
  Sc  Sc3  1  0.241032  0.000000  0.000000  1
  Ga  Ga4  1  0.002579  0.252387  0.000000  1
  Ga  Ga5  1  0.750191  0.747613  0.000000  1
  Pt  Pt6  1  0.660689  0.329267  0.000000  1
  Pt  Pt7  1  0.331421  0.670733  0.000000  1
  Pt  Pt8  1  0.002260  0.000000  0.499999  1
