# generated using pymatgen
data_CePa3Co4
_symmetry_space_group_name_H-M   'P 1'
_cell_length_a   3.67323200
_cell_length_b   5.62179876
_cell_length_c   7.27419976
_cell_angle_alpha   89.97690672
_cell_angle_beta   90.00000000
_cell_angle_gamma   90.00000000
_symmetry_Int_Tables_number   1
_chemical_formula_structural   CePa3Co4
_chemical_formula_sum   'Ce1 Pa3 Co4'
_cell_volume   150.21345735
_cell_formula_units_Z   1
loop_
 _symmetry_equiv_pos_site_id
 _symmetry_equiv_pos_as_xyz
  1  'x, y, z'
loop_
 _atom_site_type_symbol
 _atom_site_label
 _atom_site_symmetry_multiplicity
 _atom_site_fract_x
 _atom_site_fract_y
 _atom_site_fract_z
 _atom_site_occupancy
  Ce  Ce0  1  0.250000  0.829862  0.672692  1
  Pa  Pa1  1  0.250000  0.675139  0.171081  1
  Pa  Pa2  1  0.750000  0.326556  0.828130  1
  Pa  Pa3  1  0.750000  0.175266  0.329518  1
  Co  Co4  1  0.250000  0.170270  0.061619  1
  Co  Co5  1  0.750000  0.831612  0.952048  1
  Co  Co6  1  0.750000  0.657220  0.425980  1
  Co  Co7  1  0.250000  0.334074  0.558931  1
