# generated using pymatgen
data_Ga2Fe(TeO3)4
_symmetry_space_group_name_H-M   'P 1'
_cell_length_a   9.37316397
_cell_length_b   9.37316338
_cell_length_c   9.37316346
_cell_angle_alpha   109.06678345
_cell_angle_beta   109.06678510
_cell_angle_gamma   110.28315745
_symmetry_Int_Tables_number   1
_chemical_formula_structural   Ga2Fe(TeO3)4
_chemical_formula_sum   'Ga4 Fe2 Te8 O24'
_cell_volume   633.82764537
_cell_formula_units_Z   2
loop_
 _symmetry_equiv_pos_site_id
 _symmetry_equiv_pos_as_xyz
  1  'x, y, z'
loop_
 _atom_site_type_symbol
 _atom_site_label
 _atom_site_symmetry_multiplicity
 _atom_site_fract_x
 _atom_site_fract_y
 _atom_site_fract_z
 _atom_site_occupancy
  Ga  Ga0  1  0.990602  0.625000  0.865602  1
  Ga  Ga1  1  0.759398  0.125000  0.134398  1
  Ga  Ga2  1  0.875000  0.009398  0.634398  1
  Ga  Ga3  1  0.375000  0.240602  0.365602  1
  Fe  Fe4  1  0.500000  0.500000  0.000000  1
  Fe  Fe5  1  0.250000  0.750000  0.500000  1
  Te  Te6  1  0.905271  0.876014  0.266020  1
  Te  Te7  1  0.844729  0.610749  0.470743  1
  Te  Te8  1  0.140007  0.373986  0.529257  1
  Te  Te9  1  0.609993  0.639251  0.733980  1
  Te  Te10  1  0.389251  0.859993  0.233980  1
  Te  Te11  1  0.360749  0.094729  0.970743  1
  Te  Te12  1  0.626014  0.155271  0.766020  1
  Te  Te13  1  0.123986  0.390007  0.029257  1
  O  O14  1  0.712133  0.684937  0.234055  1
  O  O15  1  0.037867  0.771921  0.472804  1
  O  O16  1  0.299118  0.565063  0.527196  1
  O  O17  1  0.450882  0.478079  0.765945  1
  O  O18  1  0.206997  0.829242  0.034471  1
  O  O19  1  0.543003  0.077474  0.122245  1
  O  O20  1  0.794771  0.172526  0.965529  1
  O  O21  1  0.955229  0.420758  0.877755  1
  O  O22  1  0.935803  0.331094  0.339495  1
  O  O23  1  0.991599  0.596308  0.660505  1
  O  O24  1  0.814197  0.653692  0.895291  1
  O  O25  1  0.758401  0.918906  0.104709  1
  O  O26  1  0.081094  0.185803  0.839495  1
  O  O27  1  0.346308  0.241599  0.160505  1
  O  O28  1  0.403692  0.064197  0.395291  1
  O  O29  1  0.668906  0.008401  0.604709  1
  O  O30  1  0.579242  0.456997  0.534471  1
  O  O31  1  0.827474  0.793003  0.622245  1
  O  O32  1  0.922526  0.044771  0.465529  1
  O  O33  1  0.170758  0.205229  0.377755  1
  O  O34  1  0.434937  0.962133  0.734055  1
  O  O35  1  0.521921  0.287867  0.972804  1
  O  O36  1  0.315063  0.549118  0.027196  1
  O  O37  1  0.228079  0.700882  0.265945  1
