# generated using pymatgen
data_YbHo(Al5Pt3)2
_symmetry_space_group_name_H-M   'P 1'
_cell_length_a   4.09212000
_cell_length_b   7.44011347
_cell_length_c   20.54856629
_cell_angle_alpha   90.39739050
_cell_angle_beta   90.00000000
_cell_angle_gamma   90.00000000
_symmetry_Int_Tables_number   1
_chemical_formula_structural   YbHo(Al5Pt3)2
_chemical_formula_sum   'Yb2 Ho2 Al20 Pt12'
_cell_volume   625.60325539
_cell_formula_units_Z   2
loop_
 _symmetry_equiv_pos_site_id
 _symmetry_equiv_pos_as_xyz
  1  'x, y, z'
loop_
 _atom_site_type_symbol
 _atom_site_label
 _atom_site_symmetry_multiplicity
 _atom_site_fract_x
 _atom_site_fract_y
 _atom_site_fract_z
 _atom_site_occupancy
  Yb  Yb0  1  0.250000  0.116316  0.639938  1
  Yb  Yb1  1  0.750000  0.883684  0.360062  1
  Ho  Ho2  1  0.250000  0.386289  0.139921  1
  Ho  Ho3  1  0.750000  0.613711  0.860079  1
  Al  Al4  1  0.750000  0.351841  0.380892  1
  Al  Al5  1  0.750000  0.883554  0.983921  1
  Al  Al6  1  0.750000  0.684952  0.200173  1
  Al  Al7  1  0.250000  0.871273  0.492507  1
  Al  Al8  1  0.250000  0.630628  0.991212  1
  Al  Al9  1  0.250000  0.315048  0.799827  1
  Al  Al10  1  0.750000  0.073117  0.209031  1
  Al  Al11  1  0.250000  0.648159  0.619108  1
  Al  Al12  1  0.250000  0.571825  0.290760  1
  Al  Al13  1  0.250000  0.188110  0.299461  1
  Al  Al14  1  0.750000  0.145057  0.882226  1
  Al  Al15  1  0.250000  0.926883  0.790969  1
  Al  Al16  1  0.750000  0.369372  0.008788  1
  Al  Al17  1  0.750000  0.616786  0.483621  1
  Al  Al18  1  0.750000  0.128727  0.507493  1
  Al  Al19  1  0.250000  0.116446  0.016079  1
  Al  Al20  1  0.250000  0.854943  0.117774  1
  Al  Al21  1  0.250000  0.383214  0.516379  1
  Al  Al22  1  0.750000  0.428175  0.709240  1
  Al  Al23  1  0.750000  0.811890  0.700539  1
  Pt  Pt24  1  0.750000  0.382579  0.257987  1
  Pt  Pt25  1  0.250000  0.881121  0.240775  1
  Pt  Pt26  1  0.250000  0.617421  0.742013  1
  Pt  Pt27  1  0.750000  0.118879  0.759225  1
  Pt  Pt28  1  0.250000  0.160221  0.426555  1
  Pt  Pt29  1  0.750000  0.417685  0.584739  1
  Pt  Pt30  1  0.750000  0.082905  0.085808  1
  Pt  Pt31  1  0.250000  0.917095  0.914192  1
  Pt  Pt32  1  0.750000  0.839779  0.573445  1
  Pt  Pt33  1  0.250000  0.340451  0.925941  1
  Pt  Pt34  1  0.750000  0.659549  0.074059  1
  Pt  Pt35  1  0.250000  0.582315  0.415261  1
