# generated using pymatgen
data_CeDy7Ho8(CdRu)4
_symmetry_space_group_name_H-M   'P 1'
_cell_length_a   9.64688018
_cell_length_b   9.64688095
_cell_length_c   9.64833780
_cell_angle_alpha   59.35014653
_cell_angle_beta   59.35014891
_cell_angle_gamma   59.34881847
_symmetry_Int_Tables_number   1
_chemical_formula_structural   CeDy7Ho8(CdRu)4
_chemical_formula_sum   'Ce1 Dy7 Ho8 Cd4 Ru4'
_cell_volume   625.51026476
_cell_formula_units_Z   1
loop_
 _symmetry_equiv_pos_site_id
 _symmetry_equiv_pos_as_xyz
  1  'x, y, z'
loop_
 _atom_site_type_symbol
 _atom_site_label
 _atom_site_symmetry_multiplicity
 _atom_site_fract_x
 _atom_site_fract_y
 _atom_site_fract_z
 _atom_site_occupancy
  Ce  Ce0  1  0.342526  0.342526  0.342313  1
  Dy  Dy1  1  0.562350  0.562350  0.937912  1
  Dy  Dy2  1  0.938572  0.561147  0.938719  1
  Dy  Dy3  1  0.561147  0.938572  0.938719  1
  Dy  Dy4  1  0.938686  0.938686  0.561025  1
  Dy  Dy5  1  0.562452  0.937861  0.562267  1
  Dy  Dy6  1  0.937861  0.562452  0.562267  1
  Dy  Dy7  1  0.189077  0.189077  0.812450  1
  Ho  Ho8  1  0.811027  0.187653  0.811172  1
  Ho  Ho9  1  0.187652  0.811028  0.811172  1
  Ho  Ho10  1  0.811204  0.811205  0.187638  1
  Ho  Ho11  1  0.189046  0.812285  0.189200  1
  Ho  Ho12  1  0.812285  0.189047  0.189201  1
  Ho  Ho13  1  0.346872  0.346872  0.956895  1
  Ho  Ho14  1  0.346805  0.956773  0.346861  1
  Ho  Ho15  1  0.956773  0.346805  0.346861  1
  Cd  Cd16  1  0.579807  0.579807  0.257922  1
  Cd  Cd17  1  0.579865  0.257955  0.579757  1
  Cd  Cd18  1  0.257955  0.579865  0.579757  1
  Cd  Cd19  1  0.579700  0.579700  0.579707  1
  Ru  Ru20  1  0.146559  0.146559  0.575290  1
  Ru  Ru21  1  0.146604  0.575389  0.146542  1
  Ru  Ru22  1  0.575389  0.146604  0.146542  1
  Ru  Ru23  1  0.139783  0.139783  0.139808  1
