# generated using pymatgen
data_PrMg(NbSe2)8
_symmetry_space_group_name_H-M   'P 1'
_cell_length_a   7.02564800
_cell_length_b   7.02564967
_cell_length_c   14.39085000
_cell_angle_alpha   90.00000000
_cell_angle_beta   90.00000000
_cell_angle_gamma   120.00000154
_symmetry_Int_Tables_number   1
_chemical_formula_structural   PrMg(NbSe2)8
_chemical_formula_sum   'Pr1 Mg1 Nb8 Se16'
_cell_volume   615.16263511
_cell_formula_units_Z   1
loop_
 _symmetry_equiv_pos_site_id
 _symmetry_equiv_pos_as_xyz
  1  'x, y, z'
loop_
 _atom_site_type_symbol
 _atom_site_label
 _atom_site_symmetry_multiplicity
 _atom_site_fract_x
 _atom_site_fract_y
 _atom_site_fract_z
 _atom_site_occupancy
  Pr  Pr0  1  0.000000  0.000000  0.000000  1
  Mg  Mg1  1  0.000000  0.000000  0.500000  1
  Nb  Nb2  1  0.000000  0.000000  0.258042  1
  Nb  Nb3  1  0.000000  0.000000  0.741958  1
  Nb  Nb4  1  0.507190  0.014379  0.261263  1
  Nb  Nb5  1  0.492810  0.985621  0.738737  1
  Nb  Nb6  1  0.985621  0.492810  0.261263  1
  Nb  Nb7  1  0.014379  0.507190  0.738737  1
  Nb  Nb8  1  0.507190  0.492810  0.261263  1
  Nb  Nb9  1  0.492810  0.507190  0.738737  1
  Se  Se10  1  0.333333  0.666667  0.619317  1
  Se  Se11  1  0.666667  0.333333  0.380683  1
  Se  Se12  1  0.666667  0.333333  0.140390  1
  Se  Se13  1  0.333333  0.666667  0.859610  1
  Se  Se14  1  0.170847  0.341695  0.145316  1
  Se  Se15  1  0.829153  0.658305  0.854684  1
  Se  Se16  1  0.658305  0.829153  0.145316  1
  Se  Se17  1  0.832650  0.665300  0.625072  1
  Se  Se18  1  0.341695  0.170847  0.854684  1
  Se  Se19  1  0.167350  0.334700  0.374928  1
  Se  Se20  1  0.170847  0.829153  0.145316  1
  Se  Se21  1  0.334700  0.167350  0.625072  1
  Se  Se22  1  0.829153  0.170847  0.854684  1
  Se  Se23  1  0.665300  0.832650  0.374928  1
  Se  Se24  1  0.832650  0.167350  0.625072  1
  Se  Se25  1  0.167350  0.832650  0.374928  1
