# generated using pymatgen
data_KH2Br3
_symmetry_space_group_name_H-M   'P 1'
_cell_length_a   4.86680195
_cell_length_b   6.70879218
_cell_length_c   6.94789413
_cell_angle_alpha   117.79981383
_cell_angle_beta   69.40551754
_cell_angle_gamma   90.26883663
_symmetry_Int_Tables_number   1
_chemical_formula_structural   KH2Br3
_chemical_formula_sum   'K1 H2 Br3'
_cell_volume   184.33316295
_cell_formula_units_Z   1
loop_
 _symmetry_equiv_pos_site_id
 _symmetry_equiv_pos_as_xyz
  1  'x, y, z'
loop_
 _atom_site_type_symbol
 _atom_site_label
 _atom_site_symmetry_multiplicity
 _atom_site_fract_x
 _atom_site_fract_y
 _atom_site_fract_z
 _atom_site_occupancy
  K  K0  1  0.334692  0.997651  0.233562  1
  H  H1  1  0.717389  0.669334  0.471468  1
  H  H2  1  0.937079  0.455898  0.027854  1
  Br  Br3  1  0.828729  0.336524  0.250141  1
  Br  Br4  1  0.645128  0.934484  0.620480  1
  Br  Br5  1  0.008028  0.573765  0.875469  1
