# generated using pymatgen
data_TbY2(Ga2Ni3)3
_symmetry_space_group_name_H-M   'P 1'
_cell_length_a   4.09458400
_cell_length_b   8.77628147
_cell_length_c   8.77627993
_cell_angle_alpha   60.02896477
_cell_angle_beta   90.00000000
_cell_angle_gamma   90.00000000
_symmetry_Int_Tables_number   1
_chemical_formula_structural   TbY2(Ga2Ni3)3
_chemical_formula_sum   'Tb1 Y2 Ga6 Ni9'
_cell_volume   273.20466442
_cell_formula_units_Z   1
loop_
 _symmetry_equiv_pos_site_id
 _symmetry_equiv_pos_as_xyz
  1  'x, y, z'
loop_
 _atom_site_type_symbol
 _atom_site_label
 _atom_site_symmetry_multiplicity
 _atom_site_fract_x
 _atom_site_fract_y
 _atom_site_fract_z
 _atom_site_occupancy
  Tb  Tb0  1  0.000000  0.999714  0.000286  1
  Y  Y1  1  0.500000  0.333294  0.333416  1
  Y  Y2  1  0.500000  0.666584  0.666706  1
  Ga  Ga3  1  0.500000  0.729349  0.270651  1
  Ga  Ga4  1  0.500000  0.270505  0.000004  1
  Ga  Ga5  1  0.500000  0.999996  0.729495  1
  Ga  Ga6  1  0.000000  0.481858  0.518142  1
  Ga  Ga7  1  0.000000  0.518265  0.999863  1
  Ga  Ga8  1  0.000000  0.000137  0.481735  1
  Ni  Ni9  1  0.000000  0.198348  0.174277  1
  Ni  Ni10  1  0.000000  0.174274  0.627933  1
  Ni  Ni11  1  0.000000  0.627456  0.198198  1
  Ni  Ni12  1  0.000000  0.825722  0.801652  1
  Ni  Ni13  1  0.000000  0.372067  0.825726  1
  Ni  Ni14  1  0.000000  0.801802  0.372544  1
  Ni  Ni15  1  0.500000  0.295242  0.704758  1
  Ni  Ni16  1  0.500000  0.705138  0.999849  1
  Ni  Ni17  1  0.500000  0.000151  0.294862  1
