# generated using pymatgen
data_Tm2Sc2IrPt
_symmetry_space_group_name_H-M   'P 1'
_cell_length_a   4.41092700
_cell_length_b   7.01476900
_cell_length_c   8.48374200
_cell_angle_alpha   90.00000000
_cell_angle_beta   90.00000000
_cell_angle_gamma   90.00000000
_symmetry_Int_Tables_number   1
_chemical_formula_structural   Tm2Sc2IrPt
_chemical_formula_sum   'Tm4 Sc4 Ir2 Pt2'
_cell_volume   262.50083975
_cell_formula_units_Z   2
loop_
 _symmetry_equiv_pos_site_id
 _symmetry_equiv_pos_as_xyz
  1  'x, y, z'
loop_
 _atom_site_type_symbol
 _atom_site_label
 _atom_site_symmetry_multiplicity
 _atom_site_fract_x
 _atom_site_fract_y
 _atom_site_fract_z
 _atom_site_occupancy
  Tm  Tm0  1  0.250000  0.018319  0.671970  1
  Tm  Tm1  1  0.250000  0.518319  0.828030  1
  Tm  Tm2  1  0.750000  0.985167  0.326783  1
  Tm  Tm3  1  0.750000  0.485167  0.173217  1
  Sc  Sc4  1  0.250000  0.139034  0.074504  1
  Sc  Sc5  1  0.250000  0.639034  0.425496  1
  Sc  Sc6  1  0.750000  0.857819  0.932943  1
  Sc  Sc7  1  0.750000  0.357819  0.567057  1
  Ir  Ir8  1  0.250000  0.252691  0.399544  1
  Ir  Ir9  1  0.250000  0.752691  0.100456  1
  Pt  Pt10  1  0.750000  0.746968  0.604378  1
  Pt  Pt11  1  0.750000  0.246968  0.895622  1
