# generated using pymatgen
data_Ce2Er3Sn3C
_symmetry_space_group_name_H-M   'P 1'
_cell_length_a   9.02378814
_cell_length_b   9.02378777
_cell_length_c   6.48633500
_cell_angle_alpha   90.00000000
_cell_angle_beta   90.00000000
_cell_angle_gamma   120.13373931
_symmetry_Int_Tables_number   1
_chemical_formula_structural   Ce2Er3Sn3C
_chemical_formula_sum   'Ce4 Er6 Sn6 C2'
_cell_volume   456.79455200
_cell_formula_units_Z   2
loop_
 _symmetry_equiv_pos_site_id
 _symmetry_equiv_pos_as_xyz
  1  'x, y, z'
loop_
 _atom_site_type_symbol
 _atom_site_label
 _atom_site_symmetry_multiplicity
 _atom_site_fract_x
 _atom_site_fract_y
 _atom_site_fract_z
 _atom_site_occupancy
  Ce  Ce0  1  0.782521  0.782521  0.250000  1
  Ce  Ce1  1  0.215465  0.998622  0.250000  1
  Ce  Ce2  1  0.998622  0.215465  0.250000  1
  Ce  Ce3  1  0.216263  0.216263  0.750000  1
  Er  Er4  1  0.666873  0.333841  0.500678  1
  Er  Er5  1  0.333841  0.666873  0.500678  1
  Er  Er6  1  0.333841  0.666873  0.999322  1
  Er  Er7  1  0.666873  0.333841  0.999322  1
  Er  Er8  1  0.782411  0.999560  0.750000  1
  Er  Er9  1  0.999560  0.782411  0.750000  1
  Sn  Sn10  1  0.407261  0.407261  0.250000  1
  Sn  Sn11  1  0.591149  0.999054  0.250000  1
  Sn  Sn12  1  0.999054  0.591149  0.250000  1
  Sn  Sn13  1  0.598203  0.598203  0.750000  1
  Sn  Sn14  1  0.405709  0.997546  0.750000  1
  Sn  Sn15  1  0.997546  0.405709  0.750000  1
  C  C16  1  0.002405  0.002405  0.500472  1
  C  C17  1  0.002405  0.002405  0.999528  1
