# generated using pymatgen
data_Dy2Pa2V3ReB16
_symmetry_space_group_name_H-M   'P 1'
_cell_length_a   3.57792800
_cell_length_b   5.96522611
_cell_length_c   11.54560200
_cell_angle_alpha   89.80621917
_cell_angle_beta   90.00000000
_cell_angle_gamma   90.00000000
_symmetry_Int_Tables_number   1
_chemical_formula_structural   Dy2Pa2V3ReB16
_chemical_formula_sum   'Dy2 Pa2 V3 Re1 B16'
_cell_volume   246.41810064
_cell_formula_units_Z   1
loop_
 _symmetry_equiv_pos_site_id
 _symmetry_equiv_pos_as_xyz
  1  'x, y, z'
loop_
 _atom_site_type_symbol
 _atom_site_label
 _atom_site_symmetry_multiplicity
 _atom_site_fract_x
 _atom_site_fract_y
 _atom_site_fract_z
 _atom_site_occupancy
  Dy  Dy0  1  0.000000  0.125433  0.151294  1
  Dy  Dy1  1  0.000000  0.875591  0.848506  1
  Pa  Pa2  1  0.000000  0.625016  0.350738  1
  Pa  Pa3  1  0.000000  0.375119  0.650388  1
  V  V4  1  0.000000  0.372039  0.916291  1
  V  V5  1  0.000000  0.126265  0.416625  1
  V  V6  1  0.000000  0.873803  0.582278  1
  Re  Re7  1  0.000000  0.626677  0.084436  1
  B  B8  1  0.500000  0.783941  0.185536  1
  B  B9  1  0.500000  0.216541  0.814568  1
  B  B10  1  0.500000  0.283926  0.315084  1
  B  B11  1  0.500000  0.716354  0.684760  1
  B  B12  1  0.500000  0.864744  0.032296  1
  B  B13  1  0.500000  0.135095  0.967609  1
  B  B14  1  0.500000  0.363829  0.467091  1
  B  B15  1  0.500000  0.636378  0.532891  1
  B  B16  1  0.500000  0.887225  0.453308  1
  B  B17  1  0.500000  0.112940  0.546308  1
  B  B18  1  0.500000  0.384890  0.046598  1
  B  B19  1  0.500000  0.614854  0.953326  1
  B  B20  1  0.500000  0.973218  0.308398  1
  B  B21  1  0.500000  0.026761  0.691315  1
  B  B22  1  0.500000  0.475205  0.192156  1
  B  B23  1  0.500000  0.524156  0.808200  1
