# generated using pymatgen
data_Nd6Y10Cd4RuPt3
_symmetry_space_group_name_H-M   'P 1'
_cell_length_a   9.82228748
_cell_length_b   9.82228826
_cell_length_c   9.82228801
_cell_angle_alpha   59.77349751
_cell_angle_beta   59.77350030
_cell_angle_gamma   59.77350257
_symmetry_Int_Tables_number   1
_chemical_formula_structural   Nd6Y10Cd4RuPt3
_chemical_formula_sum   'Nd6 Y10 Cd4 Ru1 Pt3'
_cell_volume   666.62841885
_cell_formula_units_Z   1
loop_
 _symmetry_equiv_pos_site_id
 _symmetry_equiv_pos_as_xyz
  1  'x, y, z'
loop_
 _atom_site_type_symbol
 _atom_site_label
 _atom_site_symmetry_multiplicity
 _atom_site_fract_x
 _atom_site_fract_y
 _atom_site_fract_z
 _atom_site_occupancy
  Nd  Nd0  1  0.937851  0.562656  0.562656  1
  Nd  Nd1  1  0.558465  0.938911  0.938911  1
  Nd  Nd2  1  0.562656  0.937851  0.562656  1
  Nd  Nd3  1  0.938911  0.558465  0.938911  1
  Nd  Nd4  1  0.562656  0.562656  0.937851  1
  Nd  Nd5  1  0.938911  0.938911  0.558465  1
  Y  Y6  1  0.351479  0.351479  0.351479  1
  Y  Y7  1  0.348133  0.348133  0.952572  1
  Y  Y8  1  0.348133  0.952572  0.348133  1
  Y  Y9  1  0.952572  0.348133  0.348133  1
  Y  Y10  1  0.816169  0.187420  0.187420  1
  Y  Y11  1  0.185768  0.810752  0.810752  1
  Y  Y12  1  0.187420  0.816169  0.187420  1
  Y  Y13  1  0.810752  0.185768  0.810752  1
  Y  Y14  1  0.187420  0.187420  0.816169  1
  Y  Y15  1  0.810752  0.810752  0.185768  1
  Cd  Cd16  1  0.579438  0.579438  0.579438  1
  Cd  Cd17  1  0.579724  0.579724  0.259595  1
  Cd  Cd18  1  0.579724  0.259595  0.579724  1
  Cd  Cd19  1  0.259595  0.579724  0.579724  1
  Ru  Ru20  1  0.142365  0.142365  0.142365  1
  Pt  Pt21  1  0.143754  0.143754  0.573596  1
  Pt  Pt22  1  0.143754  0.573596  0.143754  1
  Pt  Pt23  1  0.573596  0.143754  0.143754  1
