# generated using pymatgen
data_Y8Si8Pt7Au
_symmetry_space_group_name_H-M   'P 1'
_cell_length_a   4.30311500
_cell_length_b   7.48419074
_cell_length_c   14.10666700
_cell_angle_alpha   89.97450694
_cell_angle_beta   90.00000000
_cell_angle_gamma   90.00000000
_symmetry_Int_Tables_number   1
_chemical_formula_structural   Y8Si8Pt7Au
_chemical_formula_sum   'Y8 Si8 Pt7 Au1'
_cell_volume   454.30986949
_cell_formula_units_Z   1
loop_
 _symmetry_equiv_pos_site_id
 _symmetry_equiv_pos_as_xyz
  1  'x, y, z'
loop_
 _atom_site_type_symbol
 _atom_site_label
 _atom_site_symmetry_multiplicity
 _atom_site_fract_x
 _atom_site_fract_y
 _atom_site_fract_z
 _atom_site_occupancy
  Y  Y0  1  0.500000  0.796106  0.753169  1
  Y  Y1  1  0.000000  0.203605  0.752766  1
  Y  Y2  1  0.500000  0.793957  0.250675  1
  Y  Y3  1  0.000000  0.205562  0.248646  1
  Y  Y4  1  0.500000  0.708109  0.000999  1
  Y  Y5  1  0.000000  0.290137  0.496299  1
  Y  Y6  1  0.500000  0.704332  0.498044  1
  Y  Y7  1  0.000000  0.298662  0.000986  1
  Si  Si8  1  0.500000  0.398073  0.646881  1
  Si  Si9  1  0.000000  0.591209  0.856033  1
  Si  Si10  1  0.500000  0.410366  0.350497  1
  Si  Si11  1  0.000000  0.589989  0.148782  1
  Si  Si12  1  0.500000  0.089991  0.092818  1
  Si  Si13  1  0.000000  0.909314  0.405463  1
  Si  Si14  1  0.500000  0.092466  0.907793  1
  Si  Si15  1  0.000000  0.917830  0.590096  1
  Pt  Pt16  1  0.500000  0.073715  0.608287  1
  Pt  Pt17  1  0.000000  0.923721  0.892399  1
  Pt  Pt18  1  0.500000  0.077018  0.391388  1
  Pt  Pt19  1  0.000000  0.922067  0.108475  1
  Pt  Pt20  1  0.500000  0.421433  0.153451  1
  Pt  Pt21  1  0.000000  0.579263  0.349153  1
  Pt  Pt22  1  0.500000  0.421277  0.845038  1
  Au  Au23  1  0.000000  0.581796  0.651858  1
