# generated using pymatgen
data_Tb3HoGaBr6
_symmetry_space_group_name_H-M   'P 1'
_cell_length_a   4.06404900
_cell_length_b   13.41163448
_cell_length_c   14.17438298
_cell_angle_alpha   89.87105843
_cell_angle_beta   90.00000000
_cell_angle_gamma   90.00000000
_symmetry_Int_Tables_number   1
_chemical_formula_structural   Tb3HoGaBr6
_chemical_formula_sum   'Tb6 Ho2 Ga2 Br12'
_cell_volume   772.58043805
_cell_formula_units_Z   2
loop_
 _symmetry_equiv_pos_site_id
 _symmetry_equiv_pos_as_xyz
  1  'x, y, z'
loop_
 _atom_site_type_symbol
 _atom_site_label
 _atom_site_symmetry_multiplicity
 _atom_site_fract_x
 _atom_site_fract_y
 _atom_site_fract_z
 _atom_site_occupancy
  Tb  Tb0  1  0.500000  0.618650  0.160375  1
  Tb  Tb1  1  0.500000  0.381350  0.839625  1
  Tb  Tb2  1  0.000000  0.121568  0.580521  1
  Tb  Tb3  1  0.000000  0.878432  0.419479  1
  Tb  Tb4  1  0.000000  0.621778  0.919256  1
  Tb  Tb5  1  0.000000  0.378222  0.080744  1
  Ho  Ho6  1  0.500000  0.118229  0.340178  1
  Ho  Ho7  1  0.500000  0.881771  0.659822  1
  Ga  Ga8  1  0.500000  0.000000  0.500000  1
  Ga  Ga9  1  0.500000  0.500000  0.000000  1
  Br  Br10  1  0.500000  0.244353  0.165667  1
  Br  Br11  1  0.500000  0.755647  0.834333  1
  Br  Br12  1  0.500000  0.745169  0.335397  1
  Br  Br13  1  0.500000  0.254831  0.664603  1
  Br  Br14  1  0.000000  0.253574  0.409921  1
  Br  Br15  1  0.000000  0.746426  0.590079  1
  Br  Br16  1  0.000000  0.754984  0.088947  1
  Br  Br17  1  0.000000  0.245016  0.911053  1
  Br  Br18  1  0.000000  0.003360  0.243840  1
  Br  Br19  1  0.000000  0.996640  0.756160  1
  Br  Br20  1  0.000000  0.501749  0.256983  1
  Br  Br21  1  0.000000  0.498251  0.743017  1
