# generated using pymatgen
data_Pd3Ru8PtO24
_symmetry_space_group_name_H-M   'P 1'
_cell_length_a   6.46686425
_cell_length_b   6.46438228
_cell_length_c   10.43139900
_cell_angle_alpha   108.06153779
_cell_angle_beta   71.93676154
_cell_angle_gamma   90.00545614
_symmetry_Int_Tables_number   1
_chemical_formula_structural   Pd3Ru8PtO24
_chemical_formula_sum   'Pd3 Ru8 Pt1 O24'
_cell_volume   391.92476776
_cell_formula_units_Z   1
loop_
 _symmetry_equiv_pos_site_id
 _symmetry_equiv_pos_as_xyz
  1  'x, y, z'
loop_
 _atom_site_type_symbol
 _atom_site_label
 _atom_site_symmetry_multiplicity
 _atom_site_fract_x
 _atom_site_fract_y
 _atom_site_fract_z
 _atom_site_occupancy
  Pd  Pd0  1  0.082997  0.417044  0.833982  1
  Pd  Pd1  1  0.833352  0.166641  0.333318  1
  Pd  Pd2  1  0.583630  0.916328  0.832700  1
  Ru  Ru3  1  0.999808  0.000229  0.000468  1
  Ru  Ru4  1  0.500963  0.498948  0.997993  1
  Ru  Ru5  1  0.666978  0.333000  0.666095  1
  Ru  Ru6  1  0.165650  0.834444  0.668703  1
  Ru  Ru7  1  0.416893  0.083076  0.166211  1
  Ru  Ru8  1  0.916166  0.583819  0.167673  1
  Ru  Ru9  1  0.249853  0.250241  0.500490  1
  Ru  Ru10  1  0.750511  0.749436  0.499002  1
  Pt  Pt11  1  0.333310  0.666693  0.333383  1
  O  O12  1  0.397509  0.416422  0.832360  1
  O  O13  1  0.896619  0.917322  0.834188  1
  O  O14  1  0.333286  0.355729  0.333284  1
  O  O15  1  0.833029  0.852302  0.333251  1
  O  O16  1  0.333435  0.977581  0.333322  1
  O  O17  1  0.833709  0.480893  0.333241  1
  O  O18  1  0.770075  0.416028  0.832405  1
  O  O19  1  0.269167  0.916916  0.834213  1
  O  O20  1  0.717821  0.080310  0.160663  1
  O  O21  1  0.221181  0.582042  0.164091  1
  O  O22  1  0.545257  0.253086  0.506052  1
  O  O23  1  0.052101  0.751438  0.502684  1
  O  O24  1  0.496906  0.204826  0.006067  1
  O  O25  1  0.995977  0.704932  0.008020  1
  O  O26  1  0.169573  0.532259  0.660803  1
  O  O27  1  0.670642  0.030457  0.658682  1
  O  O28  1  0.496989  0.801265  0.006004  1
  O  O29  1  0.996008  0.303036  0.007966  1
  O  O30  1  0.169672  0.128559  0.660742  1
  O  O31  1  0.670677  0.628178  0.658629  1
  O  O32  1  0.121558  0.080226  0.160622  1
  O  O33  1  0.614689  0.581928  0.164044  1
  O  O34  1  0.948765  0.253031  0.506011  1
  O  O35  1  0.445254  0.751336  0.502641  1
