# generated using pymatgen
data_Tb2Al4Ga8Pd
_symmetry_space_group_name_H-M   'P 1'
_cell_length_a   6.02353600
_cell_length_b   6.02353600
_cell_length_c   15.68634100
_cell_angle_alpha   90.00000000
_cell_angle_beta   90.00000000
_cell_angle_gamma   90.00000000
_symmetry_Int_Tables_number   1
_chemical_formula_structural   Tb2Al4Ga8Pd
_chemical_formula_sum   'Tb4 Al8 Ga16 Pd2'
_cell_volume   569.14729000
_cell_formula_units_Z   2
loop_
 _symmetry_equiv_pos_site_id
 _symmetry_equiv_pos_as_xyz
  1  'x, y, z'
loop_
 _atom_site_type_symbol
 _atom_site_label
 _atom_site_symmetry_multiplicity
 _atom_site_fract_x
 _atom_site_fract_y
 _atom_site_fract_z
 _atom_site_occupancy
  Tb  Tb0  1  0.750000  0.250000  0.252274  1
  Tb  Tb1  1  0.250000  0.750000  0.252274  1
  Tb  Tb2  1  0.250000  0.750000  0.747726  1
  Tb  Tb3  1  0.750000  0.250000  0.747726  1
  Al  Al4  1  0.500116  0.000116  0.910889  1
  Al  Al5  1  0.000116  0.999884  0.910889  1
  Al  Al6  1  0.499884  0.500116  0.910889  1
  Al  Al7  1  0.999884  0.499884  0.910889  1
  Al  Al8  1  0.499884  0.999884  0.089111  1
  Al  Al9  1  0.999884  0.000116  0.089111  1
  Al  Al10  1  0.500116  0.499884  0.089111  1
  Al  Al11  1  0.000116  0.500116  0.089111  1
  Ga  Ga12  1  0.250000  0.250000  0.188224  1
  Ga  Ga13  1  0.750000  0.750000  0.188224  1
  Ga  Ga14  1  0.750000  0.750000  0.811776  1
  Ga  Ga15  1  0.250000  0.250000  0.811776  1
  Ga  Ga16  1  0.250000  0.250000  0.343363  1
  Ga  Ga17  1  0.750000  0.750000  0.343363  1
  Ga  Ga18  1  0.750000  0.750000  0.656637  1
  Ga  Ga19  1  0.250000  0.250000  0.656637  1
  Ga  Ga20  1  0.580034  0.080034  0.430878  1
  Ga  Ga21  1  0.080034  0.919966  0.430878  1
  Ga  Ga22  1  0.419966  0.580034  0.430878  1
  Ga  Ga23  1  0.919966  0.419966  0.430878  1
  Ga  Ga24  1  0.419966  0.919966  0.569122  1
  Ga  Ga25  1  0.919966  0.080034  0.569122  1
  Ga  Ga26  1  0.580034  0.419966  0.569122  1
  Ga  Ga27  1  0.080034  0.580034  0.569122  1
  Pd  Pd28  1  0.750000  0.250000  0.000000  1
  Pd  Pd29  1  0.250000  0.750000  0.000000  1
