# generated using pymatgen
data_Sr2B2PdPt5Au2
_symmetry_space_group_name_H-M   'P 1'
_cell_length_a   5.64722773
_cell_length_b   5.64722640
_cell_length_c   7.66603200
_cell_angle_alpha   90.00000000
_cell_angle_beta   90.00000000
_cell_angle_gamma   120.12954553
_symmetry_Int_Tables_number   1
_chemical_formula_structural   Sr2B2PdPt5Au2
_chemical_formula_sum   'Sr2 B2 Pd1 Pt5 Au2'
_cell_volume   211.44789023
_cell_formula_units_Z   1
loop_
 _symmetry_equiv_pos_site_id
 _symmetry_equiv_pos_as_xyz
  1  'x, y, z'
loop_
 _atom_site_type_symbol
 _atom_site_label
 _atom_site_symmetry_multiplicity
 _atom_site_fract_x
 _atom_site_fract_y
 _atom_site_fract_z
 _atom_site_occupancy
  Sr  Sr0  1  0.000000  0.000000  0.504164  1
  Sr  Sr1  1  0.000000  0.000000  0.001778  1
  B  B2  1  0.331380  0.668620  0.998740  1
  B  B3  1  0.668620  0.331380  0.998740  1
  Pd  Pd4  1  0.500000  0.500000  0.194987  1
  Pt  Pt5  1  0.500000  0.000000  0.191703  1
  Pt  Pt6  1  0.500000  0.000000  0.805325  1
  Pt  Pt7  1  0.000000  0.500000  0.191703  1
  Pt  Pt8  1  0.000000  0.500000  0.805325  1
  Pt  Pt9  1  0.500000  0.500000  0.810595  1
  Au  Au10  1  0.333663  0.666337  0.498471  1
  Au  Au11  1  0.666337  0.333663  0.498471  1
