# generated using pymatgen
data_Yb5Sn(IrO6)3
_symmetry_space_group_name_H-M   'P 1'
_cell_length_a   8.86546142
_cell_length_b   8.86546117
_cell_length_c   5.30666900
_cell_angle_alpha   94.31215861
_cell_angle_beta   85.68783503
_cell_angle_gamma   122.22148564
_symmetry_Int_Tables_number   1
_chemical_formula_structural   Yb5Sn(IrO6)3
_chemical_formula_sum   'Yb5 Sn1 Ir3 O18'
_cell_volume   351.54765894
_cell_formula_units_Z   1
loop_
 _symmetry_equiv_pos_site_id
 _symmetry_equiv_pos_as_xyz
  1  'x, y, z'
loop_
 _atom_site_type_symbol
 _atom_site_label
 _atom_site_symmetry_multiplicity
 _atom_site_fract_x
 _atom_site_fract_y
 _atom_site_fract_z
 _atom_site_occupancy
  Yb  Yb0  1  0.972988  0.247296  0.545713  1
  Yb  Yb1  1  0.247296  0.972988  0.454287  1
  Yb  Yb2  1  0.424345  0.424345  0.000000  1
  Yb  Yb3  1  0.946712  0.591529  0.018807  1
  Yb  Yb4  1  0.591529  0.946712  0.981193  1
  Sn  Sn5  1  0.719257  0.719257  0.500000  1
  Ir  Ir6  1  0.659496  0.325518  0.513570  1
  Ir  Ir7  1  0.325518  0.659496  0.486430  1
  Ir  Ir8  1  0.026016  0.026016  0.000000  1
  O  O9  1  0.733254  0.236495  0.761150  1
  O  O10  1  0.744034  0.549568  0.729922  1
  O  O11  1  0.438019  0.239377  0.675845  1
  O  O12  1  0.549568  0.744034  0.270078  1
  O  O13  1  0.239377  0.438019  0.324155  1
  O  O14  1  0.236495  0.733254  0.238850  1
  O  O15  1  0.633290  0.472418  0.279253  1
  O  O16  1  0.547936  0.120039  0.297550  1
  O  O17  1  0.882016  0.406590  0.346928  1
  O  O18  1  0.075079  0.872110  0.813959  1
  O  O19  1  0.146615  0.227237  0.807469  1
  O  O20  1  0.821502  0.941265  0.742580  1
  O  O21  1  0.227237  0.146615  0.192531  1
  O  O22  1  0.941265  0.821502  0.257420  1
  O  O23  1  0.872110  0.075079  0.186041  1
  O  O24  1  0.472418  0.633290  0.720747  1
  O  O25  1  0.406590  0.882016  0.653072  1
  O  O26  1  0.120039  0.547936  0.702450  1
