# generated using pymatgen
data_BaSr11Ca12(MoN4)8
_symmetry_space_group_name_H-M   'P 1'
_cell_length_a   9.53376724
_cell_length_b   10.21820915
_cell_length_c   11.52619428
_cell_angle_alpha   90.01840672
_cell_angle_beta   90.10771010
_cell_angle_gamma   90.01006789
_symmetry_Int_Tables_number   1
_chemical_formula_structural   BaSr11Ca12(MoN4)8
_chemical_formula_sum   'Ba1 Sr11 Ca12 Mo8 N32'
_cell_volume   1122.85705319
_cell_formula_units_Z   1
loop_
 _symmetry_equiv_pos_site_id
 _symmetry_equiv_pos_as_xyz
  1  'x, y, z'
loop_
 _atom_site_type_symbol
 _atom_site_label
 _atom_site_symmetry_multiplicity
 _atom_site_fract_x
 _atom_site_fract_y
 _atom_site_fract_z
 _atom_site_occupancy
  Ba  Ba0  1  0.367079  0.475371  0.151805  1
  Sr  Sr1  1  0.302788  0.777476  0.613986  1
  Sr  Sr2  1  0.190699  0.275127  0.387150  1
  Sr  Sr3  1  0.803700  0.224534  0.883926  1
  Sr  Sr4  1  0.703522  0.723732  0.115640  1
  Sr  Sr5  1  0.694228  0.220915  0.380292  1
  Sr  Sr6  1  0.808722  0.721151  0.619538  1
  Sr  Sr7  1  0.187949  0.779070  0.118008  1
  Sr  Sr8  1  0.306064  0.279715  0.879522  1
  Sr  Sr9  1  0.630463  0.029297  0.644442  1
  Sr  Sr10  1  0.866499  0.529589  0.357748  1
  Sr  Sr11  1  0.131574  0.971217  0.854735  1
  Ca  Ca12  1  0.971462  0.121916  0.601355  1
  Ca  Ca13  1  0.527787  0.623121  0.400573  1
  Ca  Ca14  1  0.472612  0.878498  0.898990  1
  Ca  Ca15  1  0.028469  0.378649  0.099930  1
  Ca  Ca16  1  0.028100  0.879029  0.395455  1
  Ca  Ca17  1  0.471117  0.378539  0.603409  1
  Ca  Ca18  1  0.528681  0.119998  0.104335  1
  Ca  Ca19  1  0.971096  0.621758  0.893667  1
  Ca  Ca20  1  0.378023  0.966045  0.363080  1
  Ca  Ca21  1  0.121427  0.464444  0.637019  1
  Ca  Ca22  1  0.878325  0.036699  0.134565  1
  Ca  Ca23  1  0.620389  0.536434  0.864500  1
  Mo  Mo24  1  0.302041  0.100077  0.612353  1
  Mo  Mo25  1  0.194703  0.599742  0.389611  1
  Mo  Mo26  1  0.802640  0.900414  0.887176  1
  Mo  Mo27  1  0.703321  0.399641  0.112469  1
  Mo  Mo28  1  0.698281  0.902157  0.383402  1
  Mo  Mo29  1  0.800926  0.401429  0.617110  1
  Mo  Mo30  1  0.198648  0.095724  0.117636  1
  Mo  Mo31  1  0.300293  0.599472  0.879144  1
  N  N32  1  0.382322  0.994799  0.728938  1
  N  N33  1  0.109774  0.493398  0.275828  1
  N  N34  1  0.883002  0.005708  0.770926  1
  N  N35  1  0.628289  0.506792  0.230210  1
  N  N36  1  0.608797  0.007511  0.272745  1
  N  N37  1  0.892020  0.506700  0.726802  1
  N  N38  1  0.104380  0.989116  0.224426  1
  N  N39  1  0.391104  0.492449  0.770698  1
  N  N40  1  0.197041  0.237392  0.677275  1
  N  N41  1  0.299964  0.735694  0.322211  1
  N  N42  1  0.698689  0.762611  0.822120  1
  N  N43  1  0.807561  0.262317  0.177596  1
  N  N44  1  0.806323  0.771285  0.314496  1
  N  N45  1  0.694190  0.270021  0.686711  1
  N  N46  1  0.308609  0.219823  0.193994  1
  N  N47  1  0.192553  0.730522  0.809725  1
  N  N48  1  0.180689  0.993682  0.523494  1
  N  N49  1  0.317920  0.491693  0.474723  1
  N  N50  1  0.681396  0.007491  0.974867  1
  N  N51  1  0.822317  0.506471  0.022972  1
  N  N52  1  0.820336  0.009804  0.469998  1
  N  N53  1  0.678141  0.509347  0.531296  1
  N  N54  1  0.320110  0.988365  0.030744  1
  N  N55  1  0.176623  0.492866  0.965066  1
  N  N56  1  0.440053  0.162556  0.509818  1
  N  N57  1  0.060109  0.664406  0.494203  1
  N  N58  1  0.940147  0.837182  0.990954  1
  N  N59  1  0.564239  0.336103  0.010223  1
  N  N60  1  0.561249  0.835400  0.486727  1
  N  N61  1  0.937001  0.334452  0.513205  1
  N  N62  1  0.065375  0.167091  0.012594  1
  N  N63  1  0.438050  0.665975  0.981845  1
