# generated using pymatgen
data_Mg2Ta2NbNi9P7
_symmetry_space_group_name_H-M   'P 1'
_cell_length_a   3.61198400
_cell_length_b   9.32496069
_cell_length_c   9.29764049
_cell_angle_alpha   120.01606477
_cell_angle_beta   90.00000000
_cell_angle_gamma   90.00000000
_symmetry_Int_Tables_number   1
_chemical_formula_structural   Mg2Ta2NbNi9P7
_chemical_formula_sum   'Mg2 Ta2 Nb1 Ni9 P7'
_cell_volume   271.16016071
_cell_formula_units_Z   1
loop_
 _symmetry_equiv_pos_site_id
 _symmetry_equiv_pos_as_xyz
  1  'x, y, z'
loop_
 _atom_site_type_symbol
 _atom_site_label
 _atom_site_symmetry_multiplicity
 _atom_site_fract_x
 _atom_site_fract_y
 _atom_site_fract_z
 _atom_site_occupancy
  Mg  Mg0  1  0.000000  0.667050  0.333365  1
  Mg  Mg1  1  0.500000  0.334159  0.667124  1
  Ta  Ta2  1  0.500000  0.123256  0.226493  1
  Ta  Ta3  1  0.500000  0.104080  0.877111  1
  Nb  Nb4  1  0.500000  0.774196  0.896552  1
  Ni  Ni5  1  0.000000  0.559389  0.929321  1
  Ni  Ni6  1  0.000000  0.368324  0.439507  1
  Ni  Ni7  1  0.000000  0.071214  0.630988  1
  Ni  Ni8  1  0.500000  0.935043  0.383433  1
  Ni  Ni9  1  0.500000  0.448961  0.065739  1
  Ni  Ni10  1  0.500000  0.615193  0.551548  1
  Ni  Ni11  1  0.000000  0.870682  0.160250  1
  Ni  Ni12  1  0.000000  0.288619  0.130020  1
  Ni  Ni13  1  0.000000  0.841020  0.709946  1
  P  P14  1  0.500000  0.706995  0.123966  1
  P  P15  1  0.500000  0.417274  0.293097  1
  P  P16  1  0.500000  0.875504  0.582891  1
  P  P17  1  0.000000  0.000104  0.999603  1
  P  P18  1  0.000000  0.581214  0.695922  1
  P  P19  1  0.000000  0.114369  0.418301  1
  P  P20  1  0.000000  0.303352  0.884826  1
