# generated using pymatgen
data_Hf5Zr3(NbSi4)2
_symmetry_space_group_name_H-M   'P 1'
_cell_length_a   7.03225202
_cell_length_b   7.03347102
_cell_length_c   12.86034200
_cell_angle_alpha   90.00000000
_cell_angle_beta   90.00000000
_cell_angle_gamma   90.00800022
_symmetry_Int_Tables_number   1
_chemical_formula_structural   Hf5Zr3(NbSi4)2
_chemical_formula_sum   'Hf10 Zr6 Nb4 Si16'
_cell_volume   636.08717953
_cell_formula_units_Z   2
loop_
 _symmetry_equiv_pos_site_id
 _symmetry_equiv_pos_as_xyz
  1  'x, y, z'
loop_
 _atom_site_type_symbol
 _atom_site_label
 _atom_site_symmetry_multiplicity
 _atom_site_fract_x
 _atom_site_fract_y
 _atom_site_fract_z
 _atom_site_occupancy
  Hf  Hf0  1  0.001712  0.653352  0.718074  1
  Hf  Hf1  1  0.998288  0.346648  0.218074  1
  Hf  Hf2  1  0.496531  0.354588  0.126194  1
  Hf  Hf3  1  0.503469  0.645412  0.626194  1
  Hf  Hf4  1  0.854778  0.003721  0.876025  1
  Hf  Hf5  1  0.145222  0.996279  0.376025  1
  Hf  Hf6  1  0.645744  0.503381  0.373732  1
  Hf  Hf7  1  0.354256  0.496619  0.873732  1
  Hf  Hf8  1  0.003815  0.854879  0.123857  1
  Hf  Hf9  1  0.996185  0.145121  0.623857  1
  Zr  Zr10  1  0.497730  0.153289  0.531852  1
  Zr  Zr11  1  0.502270  0.846711  0.031852  1
  Zr  Zr12  1  0.653650  0.002381  0.281778  1
  Zr  Zr13  1  0.346350  0.997619  0.781778  1
  Zr  Zr14  1  0.846949  0.502476  0.968112  1
  Zr  Zr15  1  0.153051  0.497524  0.468112  1
  Nb  Nb16  1  0.675601  0.325065  0.749942  1
  Nb  Nb17  1  0.324399  0.674935  0.249942  1
  Nb  Nb18  1  0.824987  0.824449  0.500210  1
  Nb  Nb19  1  0.175013  0.175551  0.000210  1
  Si  Si20  1  0.797355  0.146661  0.072392  1
  Si  Si21  1  0.202645  0.853339  0.572392  1
  Si  Si22  1  0.646742  0.703111  0.821745  1
  Si  Si23  1  0.353258  0.296889  0.321745  1
  Si  Si24  1  0.854351  0.203678  0.427861  1
  Si  Si25  1  0.145649  0.796322  0.927861  1
  Si  Si26  1  0.703882  0.645443  0.178014  1
  Si  Si27  1  0.296118  0.354557  0.678014  1
  Si  Si28  1  0.548490  0.199171  0.935489  1
  Si  Si29  1  0.451510  0.800829  0.435489  1
  Si  Si30  1  0.699397  0.950947  0.685605  1
  Si  Si31  1  0.300603  0.049053  0.185605  1
  Si  Si32  1  0.801605  0.452233  0.564959  1
  Si  Si33  1  0.198395  0.547767  0.064959  1
  Si  Si34  1  0.951699  0.698085  0.314158  1
  Si  Si35  1  0.048301  0.301915  0.814158  1
