# generated using pymatgen
data_Nb12Cr3Os9C4
_symmetry_space_group_name_H-M   'P 1'
_cell_length_a   8.28190323
_cell_length_b   8.28190262
_cell_length_c   8.39474430
_cell_angle_alpha   60.44366174
_cell_angle_beta   60.44366823
_cell_angle_gamma   59.99999657
_symmetry_Int_Tables_number   1
_chemical_formula_structural   Nb12Cr3Os9C4
_chemical_formula_sum   'Nb12 Cr3 Os9 C4'
_cell_volume   409.85740886
_cell_formula_units_Z   1
loop_
 _symmetry_equiv_pos_site_id
 _symmetry_equiv_pos_as_xyz
  1  'x, y, z'
loop_
 _atom_site_type_symbol
 _atom_site_label
 _atom_site_symmetry_multiplicity
 _atom_site_fract_x
 _atom_site_fract_y
 _atom_site_fract_z
 _atom_site_occupancy
  Nb  Nb0  1  0.807165  0.807165  0.191820  1
  Nb  Nb1  1  0.191552  0.191552  0.808727  1
  Nb  Nb2  1  0.808170  0.191552  0.808727  1
  Nb  Nb3  1  0.193850  0.807165  0.191820  1
  Nb  Nb4  1  0.191552  0.808170  0.808727  1
  Nb  Nb5  1  0.807165  0.193850  0.191820  1
  Nb  Nb6  1  0.442835  0.442835  0.058180  1
  Nb  Nb7  1  0.058448  0.058448  0.441273  1
  Nb  Nb8  1  0.441830  0.058448  0.441273  1
  Nb  Nb9  1  0.056150  0.442835  0.058180  1
  Nb  Nb10  1  0.058448  0.441830  0.441273  1
  Nb  Nb11  1  0.442835  0.056150  0.058180  1
  Cr  Cr12  1  0.125000  0.625000  0.625000  1
  Cr  Cr13  1  0.625000  0.125000  0.625000  1
  Cr  Cr14  1  0.625000  0.625000  0.625000  1
  Os  Os15  1  0.625000  0.625000  0.125000  1
  Os  Os16  1  0.744114  0.414553  0.426779  1
  Os  Os17  1  0.414553  0.744114  0.426779  1
  Os  Os18  1  0.417319  0.417319  0.748045  1
  Os  Os19  1  0.414553  0.414553  0.426779  1
  Os  Os20  1  0.505886  0.835447  0.823221  1
  Os  Os21  1  0.835447  0.505886  0.823221  1
  Os  Os22  1  0.832681  0.832681  0.501955  1
  Os  Os23  1  0.835447  0.835447  0.823221  1
  C  C24  1  0.625000  0.125000  0.125000  1
  C  C25  1  0.125000  0.625000  0.125000  1
  C  C26  1  0.125000  0.125000  0.625000  1
  C  C27  1  0.125000  0.125000  0.125000  1
