# generated using pymatgen
data_NaZn2HgF7
_symmetry_space_group_name_H-M   'P 1'
_cell_length_a   7.49708262
_cell_length_b   7.49708222
_cell_length_c   7.49708233
_cell_angle_alpha   120.32333385
_cell_angle_beta   119.84349681
_cell_angle_gamma   89.85608208
_symmetry_Int_Tables_number   1
_chemical_formula_structural   NaZn2HgF7
_chemical_formula_sum   'Na2 Zn4 Hg2 F14'
_cell_volume   297.57943598
_cell_formula_units_Z   2
loop_
 _symmetry_equiv_pos_site_id
 _symmetry_equiv_pos_as_xyz
  1  'x, y, z'
loop_
 _atom_site_type_symbol
 _atom_site_label
 _atom_site_symmetry_multiplicity
 _atom_site_fract_x
 _atom_site_fract_y
 _atom_site_fract_z
 _atom_site_occupancy
  Na  Na0  1  0.500000  0.000000  0.000000  1
  Na  Na1  1  0.500000  0.500000  0.500000  1
  Zn  Zn2  1  0.000000  0.500000  0.000000  1
  Zn  Zn3  1  0.000000  0.000000  0.500000  1
  Zn  Zn4  1  0.000000  0.500000  0.500000  1
  Zn  Zn5  1  0.500000  0.500000  0.000000  1
  Hg  Hg6  1  0.500000  0.000000  0.500000  1
  Hg  Hg7  1  0.000000  0.000000  0.000000  1
  F  F8  1  0.329932  0.585482  0.164083  1
  F  F9  1  0.921398  0.165849  0.335917  1
  F  F10  1  0.325893  0.575893  0.750000  1
  F  F11  1  0.918896  0.168896  0.750000  1
  F  F12  1  0.329932  0.165849  0.744451  1
  F  F13  1  0.921398  0.585482  0.755549  1
  F  F14  1  0.670068  0.414518  0.835917  1
  F  F15  1  0.078602  0.834151  0.664083  1
  F  F16  1  0.674107  0.424107  0.250000  1
  F  F17  1  0.081104  0.831104  0.250000  1
  F  F18  1  0.670068  0.834151  0.255549  1
  F  F19  1  0.078602  0.414518  0.244451  1
  F  F20  1  0.629067  0.879067  0.750000  1
  F  F21  1  0.370933  0.120933  0.250000  1
