# generated using pymatgen
data_Pa8Zn8Ir7Rh
_symmetry_space_group_name_H-M   'P 1'
_cell_length_a   3.87192300
_cell_length_b   7.30164400
_cell_length_c   16.38555281
_cell_angle_alpha   90.01759241
_cell_angle_beta   90.00000000
_cell_angle_gamma   90.00000000
_symmetry_Int_Tables_number   1
_chemical_formula_structural   Pa8Zn8Ir7Rh
_chemical_formula_sum   'Pa8 Zn8 Ir7 Rh1'
_cell_volume   463.24255078
_cell_formula_units_Z   1
loop_
 _symmetry_equiv_pos_site_id
 _symmetry_equiv_pos_as_xyz
  1  'x, y, z'
loop_
 _atom_site_type_symbol
 _atom_site_label
 _atom_site_symmetry_multiplicity
 _atom_site_fract_x
 _atom_site_fract_y
 _atom_site_fract_z
 _atom_site_occupancy
  Pa  Pa0  1  0.250000  0.668620  0.560155  1
  Pa  Pa1  1  0.750000  0.831839  0.060356  1
  Pa  Pa2  1  0.250000  0.059343  0.715201  1
  Pa  Pa3  1  0.250000  0.168307  0.940045  1
  Pa  Pa4  1  0.750000  0.939090  0.284651  1
  Pa  Pa5  1  0.250000  0.559002  0.784761  1
  Pa  Pa6  1  0.750000  0.441413  0.215070  1
  Pa  Pa7  1  0.750000  0.331971  0.439673  1
  Zn  Zn8  1  0.250000  0.112749  0.155599  1
  Zn  Zn9  1  0.750000  0.504848  0.938824  1
  Zn  Zn10  1  0.750000  0.005051  0.561163  1
  Zn  Zn11  1  0.750000  0.387664  0.654583  1
  Zn  Zn12  1  0.750000  0.888198  0.845238  1
  Zn  Zn13  1  0.250000  0.495362  0.061397  1
  Zn  Zn14  1  0.250000  0.610467  0.345292  1
  Zn  Zn15  1  0.250000  0.995490  0.437949  1
  Ir  Ir16  1  0.750000  0.736862  0.440928  1
  Ir  Ir17  1  0.750000  0.260057  0.812385  1
  Ir  Ir18  1  0.750000  0.759964  0.687638  1
  Ir  Ir19  1  0.250000  0.739182  0.188104  1
  Ir  Ir20  1  0.250000  0.763220  0.941191  1
  Ir  Ir21  1  0.250000  0.263672  0.558095  1
  Ir  Ir22  1  0.750000  0.237179  0.059386  1
  Rh  Rh23  1  0.250000  0.240451  0.312315  1
