# generated using pymatgen
data_Hf4TlSe8
_symmetry_space_group_name_H-M   'P 1'
_cell_length_a   9.52404919
_cell_length_b   9.52404882
_cell_length_c   9.52404900
_cell_angle_alpha   46.55944013
_cell_angle_beta   46.55944225
_cell_angle_gamma   46.55943944
_symmetry_Int_Tables_number   1
_chemical_formula_structural   Hf4TlSe8
_chemical_formula_sum   'Hf4 Tl1 Se8'
_cell_volume   415.93355356
_cell_formula_units_Z   1
loop_
 _symmetry_equiv_pos_site_id
 _symmetry_equiv_pos_as_xyz
  1  'x, y, z'
loop_
 _atom_site_type_symbol
 _atom_site_label
 _atom_site_symmetry_multiplicity
 _atom_site_fract_x
 _atom_site_fract_y
 _atom_site_fract_z
 _atom_site_occupancy
  Hf  Hf0  1  0.000000  0.500000  0.500000  1
  Hf  Hf1  1  0.500000  0.000000  0.500000  1
  Hf  Hf2  1  0.500000  0.500000  0.000000  1
  Hf  Hf3  1  0.000000  0.000000  0.000000  1
  Tl  Tl4  1  0.500000  0.500000  0.500000  1
  Se  Se5  1  0.269225  0.771178  0.771178  1
  Se  Se6  1  0.228822  0.228822  0.730775  1
  Se  Se7  1  0.730775  0.228822  0.228822  1
  Se  Se8  1  0.228822  0.730775  0.228822  1
  Se  Se9  1  0.271207  0.271207  0.271207  1
  Se  Se10  1  0.728793  0.728793  0.728793  1
  Se  Se11  1  0.771178  0.269225  0.771178  1
  Se  Se12  1  0.771178  0.771178  0.269225  1
