# generated using pymatgen
data_CeY(HoIr)3
_symmetry_space_group_name_H-M   'P 1'
_cell_length_a   10.97008700
_cell_length_b   10.94987900
_cell_length_c   6.30320400
_cell_angle_alpha   90.00000000
_cell_angle_beta   90.00000000
_cell_angle_gamma   90.00000000
_symmetry_Int_Tables_number   1
_chemical_formula_structural   CeY(HoIr)3
_chemical_formula_sum   'Ce4 Y4 Ho12 Ir12'
_cell_volume   757.14795728
_cell_formula_units_Z   4
loop_
 _symmetry_equiv_pos_site_id
 _symmetry_equiv_pos_as_xyz
  1  'x, y, z'
loop_
 _atom_site_type_symbol
 _atom_site_label
 _atom_site_symmetry_multiplicity
 _atom_site_fract_x
 _atom_site_fract_y
 _atom_site_fract_z
 _atom_site_occupancy
  Ce  Ce0  1  0.292806  0.092714  0.381662  1
  Ce  Ce1  1  0.292806  0.907286  0.881662  1
  Ce  Ce2  1  0.707194  0.092714  0.881662  1
  Ce  Ce3  1  0.707194  0.907286  0.381662  1
  Y  Y4  1  0.589295  0.785109  0.878314  1
  Y  Y5  1  0.589295  0.214891  0.378314  1
  Y  Y6  1  0.410705  0.785109  0.378314  1
  Y  Y7  1  0.410705  0.214891  0.878314  1
  Ho  Ho8  1  0.206698  0.413460  0.621121  1
  Ho  Ho9  1  0.206698  0.586540  0.121121  1
  Ho  Ho10  1  0.793302  0.413460  0.121121  1
  Ho  Ho11  1  0.793302  0.586540  0.621121  1
  Ho  Ho12  1  0.912980  0.708104  0.116896  1
  Ho  Ho13  1  0.912980  0.291896  0.616896  1
  Ho  Ho14  1  0.087020  0.708104  0.616896  1
  Ho  Ho15  1  0.087020  0.291896  0.116896  1
  Ho  Ho16  1  0.000000  0.000000  0.495299  1
  Ho  Ho17  1  0.000000  0.000000  0.995299  1
  Ho  Ho18  1  0.500000  0.500000  0.011500  1
  Ho  Ho19  1  0.500000  0.500000  0.511500  1
  Ir  Ir20  1  0.845723  0.153322  0.242560  1
  Ir  Ir21  1  0.845723  0.846678  0.742560  1
  Ir  Ir22  1  0.154277  0.153322  0.742560  1
  Ir  Ir23  1  0.154277  0.846678  0.242560  1
  Ir  Ir24  1  0.654407  0.347457  0.758298  1
  Ir  Ir25  1  0.654407  0.652543  0.258298  1
  Ir  Ir26  1  0.345593  0.347457  0.258298  1
  Ir  Ir27  1  0.345593  0.652543  0.758298  1
  Ir  Ir28  1  0.500000  0.000000  0.120380  1
  Ir  Ir29  1  0.500000  0.000000  0.620380  1
  Ir  Ir30  1  0.000000  0.500000  0.875119  1
  Ir  Ir31  1  0.000000  0.500000  0.375119  1
