# generated using pymatgen
data_HoHf8USi8
_symmetry_space_group_name_H-M   'P 1'
_cell_length_a   7.15778448
_cell_length_b   7.16111297
_cell_length_c   13.04852200
_cell_angle_alpha   90.00000000
_cell_angle_beta   90.00000000
_cell_angle_gamma   90.00452239
_symmetry_Int_Tables_number   1
_chemical_formula_structural   HoHf8USi8
_chemical_formula_sum   'Ho2 Hf16 U2 Si16'
_cell_volume   668.83726660
_cell_formula_units_Z   2
loop_
 _symmetry_equiv_pos_site_id
 _symmetry_equiv_pos_as_xyz
  1  'x, y, z'
loop_
 _atom_site_type_symbol
 _atom_site_label
 _atom_site_symmetry_multiplicity
 _atom_site_fract_x
 _atom_site_fract_y
 _atom_site_fract_z
 _atom_site_occupancy
  Ho  Ho0  1  0.995990  0.845174  0.217461  1
  Ho  Ho1  1  0.004010  0.154826  0.717461  1
  Hf  Hf2  1  0.644675  0.006216  0.374634  1
  Hf  Hf3  1  0.355325  0.993784  0.874634  1
  Hf  Hf4  1  0.000655  0.349717  0.121762  1
  Hf  Hf5  1  0.999345  0.650283  0.621762  1
  Hf  Hf6  1  0.501802  0.850425  0.125643  1
  Hf  Hf7  1  0.498198  0.149575  0.625643  1
  Hf  Hf8  1  0.852388  0.498689  0.877378  1
  Hf  Hf9  1  0.147612  0.501311  0.377378  1
  Hf  Hf10  1  0.674569  0.824339  0.751612  1
  Hf  Hf11  1  0.325431  0.175661  0.251612  1
  Hf  Hf12  1  0.824578  0.325250  0.500615  1
  Hf  Hf13  1  0.175422  0.674750  0.000615  1
  Hf  Hf14  1  0.649325  0.496166  0.284555  1
  Hf  Hf15  1  0.350675  0.503834  0.784555  1
  Hf  Hf16  1  0.501494  0.346032  0.034337  1
  Hf  Hf17  1  0.498506  0.653968  0.534337  1
  U  U18  1  0.844464  0.002391  0.963814  1
  U  U19  1  0.155536  0.997609  0.463814  1
  Si  Si20  1  0.848655  0.701458  0.429004  1
  Si  Si21  1  0.151345  0.298542  0.929004  1
  Si  Si22  1  0.699563  0.147473  0.177816  1
  Si  Si23  1  0.300437  0.852527  0.677816  1
  Si  Si24  1  0.791018  0.636874  0.071631  1
  Si  Si25  1  0.208982  0.363126  0.571631  1
  Si  Si26  1  0.633179  0.212532  0.822132  1
  Si  Si27  1  0.366821  0.787468  0.322132  1
  Si  Si28  1  0.794649  0.950251  0.563694  1
  Si  Si29  1  0.205351  0.049749  0.063694  1
  Si  Si30  1  0.947943  0.208603  0.313232  1
  Si  Si31  1  0.052057  0.791397  0.813232  1
  Si  Si32  1  0.547809  0.695504  0.936093  1
  Si  Si33  1  0.452191  0.304496  0.436093  1
  Si  Si34  1  0.696056  0.457368  0.684588  1
  Si  Si35  1  0.303944  0.542632  0.184588  1
