# generated using pymatgen
data_CdSe2O7
_symmetry_space_group_name_H-M   'P 1'
_cell_length_a   5.44364577
_cell_length_b   7.68873670
_cell_length_c   9.28183898
_cell_angle_alpha   92.43037772
_cell_angle_beta   93.77462742
_cell_angle_gamma   106.27205834
_symmetry_Int_Tables_number   1
_chemical_formula_structural   CdSe2O7
_chemical_formula_sum   'Cd2 Se4 O14'
_cell_volume   371.36640254
_cell_formula_units_Z   2
loop_
 _symmetry_equiv_pos_site_id
 _symmetry_equiv_pos_as_xyz
  1  'x, y, z'
loop_
 _atom_site_type_symbol
 _atom_site_label
 _atom_site_symmetry_multiplicity
 _atom_site_fract_x
 _atom_site_fract_y
 _atom_site_fract_z
 _atom_site_occupancy
  Cd  Cd0  1  0.000000  0.500000  0.000000  1
  Cd  Cd1  1  0.500000  0.000000  0.500000  1
  Se  Se2  1  0.512243  0.646635  0.768680  1
  Se  Se3  1  0.487757  0.353365  0.231320  1
  Se  Se4  1  0.130926  0.249736  0.687932  1
  Se  Se5  1  0.869074  0.750264  0.312068  1
  O  O6  1  0.735303  0.546484  0.811632  1
  O  O7  1  0.264697  0.453516  0.188368  1
  O  O8  1  0.350598  0.692046  0.903023  1
  O  O9  1  0.649402  0.307954  0.096977  1
  O  O10  1  0.616991  0.816644  0.666018  1
  O  O11  1  0.383009  0.183356  0.333982  1
  O  O12  1  0.281625  0.483599  0.640700  1
  O  O13  1  0.718375  0.516401  0.359300  1
  O  O14  1  0.905350  0.195639  0.553551  1
  O  O15  1  0.094650  0.804361  0.446449  1
  O  O16  1  0.350577  0.139358  0.683670  1
  O  O17  1  0.649423  0.860642  0.316330  1
  O  O18  1  0.041376  0.260891  0.853787  1
  O  O19  1  0.958624  0.739109  0.146213  1
