# generated using pymatgen
data_Ho4Th6TcIr5
_symmetry_space_group_name_H-M   'P 1'
_cell_length_a   6.47995000
_cell_length_b   8.38412029
_cell_length_c   8.37396204
_cell_angle_alpha   120.04013110
_cell_angle_beta   90.00096384
_cell_angle_gamma   89.99807790
_symmetry_Int_Tables_number   1
_chemical_formula_structural   Ho4Th6TcIr5
_chemical_formula_sum   'Ho4 Th6 Tc1 Ir5'
_cell_volume   393.83563499
_cell_formula_units_Z   1
loop_
 _symmetry_equiv_pos_site_id
 _symmetry_equiv_pos_as_xyz
  1  'x, y, z'
loop_
 _atom_site_type_symbol
 _atom_site_label
 _atom_site_symmetry_multiplicity
 _atom_site_fract_x
 _atom_site_fract_y
 _atom_site_fract_z
 _atom_site_occupancy
  Ho  Ho0  1  0.501062  0.331540  0.665139  1
  Ho  Ho1  1  0.501062  0.666402  0.334861  1
  Ho  Ho2  1  0.998941  0.666408  0.334858  1
  Ho  Ho3  1  0.998941  0.331549  0.665142  1
  Th  Th4  1  0.749998  0.255298  0.000000  1
  Th  Th5  1  0.749999  0.742154  0.750080  1
  Th  Th6  1  0.749999  0.992075  0.249920  1
  Th  Th7  1  0.250002  0.747736  0.000000  1
  Th  Th8  1  0.249995  0.256613  0.256195  1
  Th  Th9  1  0.249995  0.000418  0.743805  1
  Tc  Tc10  1  0.749984  0.625108  0.000000  1
  Ir  Ir11  1  0.750002  0.379262  0.380674  1
  Ir  Ir12  1  0.750002  0.998588  0.619326  1
  Ir  Ir13  1  0.250002  0.387155  0.000000  1
  Ir  Ir14  1  0.250008  0.617021  0.614349  1
  Ir  Ir15  1  0.250008  0.002672  0.385651  1
