# generated using pymatgen
data_Ba4LiCr3N8
_symmetry_space_group_name_H-M   'P 1'
_cell_length_a   6.44989604
_cell_length_b   6.44989536
_cell_length_c   7.80106738
_cell_angle_alpha   92.20633851
_cell_angle_beta   87.79366340
_cell_angle_gamma   125.75509501
_symmetry_Int_Tables_number   1
_chemical_formula_structural   Ba4LiCr3N8
_chemical_formula_sum   'Ba4 Li1 Cr3 N8'
_cell_volume   263.11951749
_cell_formula_units_Z   1
loop_
 _symmetry_equiv_pos_site_id
 _symmetry_equiv_pos_as_xyz
  1  'x, y, z'
loop_
 _atom_site_type_symbol
 _atom_site_label
 _atom_site_symmetry_multiplicity
 _atom_site_fract_x
 _atom_site_fract_y
 _atom_site_fract_z
 _atom_site_occupancy
  Ba  Ba0  1  0.820490  0.179510  0.572499  1
  Ba  Ba1  1  0.148847  0.851153  0.439153  1
  Ba  Ba2  1  0.662793  0.337207  0.048600  1
  Ba  Ba3  1  0.342876  0.657124  0.931504  1
  Li  Li4  1  0.549391  0.450609  0.647226  1
  Cr  Cr5  1  0.449067  0.550933  0.372561  1
  Cr  Cr6  1  0.949213  0.050787  0.137716  1
  Cr  Cr7  1  0.060667  0.939333  0.859461  1
  N  N8  1  0.896025  0.103975  0.913307  1
  N  N9  1  0.106674  0.893326  0.088842  1
  N  N10  1  0.596192  0.403808  0.394280  1
  N  N11  1  0.378932  0.621068  0.570787  1
  N  N12  1  0.352307  0.121053  0.759618  1
  N  N13  1  0.150602  0.343026  0.252415  1
  N  N14  1  0.656974  0.849398  0.252415  1
  N  N15  1  0.878947  0.647693  0.759618  1
