# generated using pymatgen
data_Y12Co3Cu2Pb
_symmetry_space_group_name_H-M   'P 1'
_cell_length_a   8.40968048
_cell_length_b   8.40964347
_cell_length_c   8.40967882
_cell_angle_alpha   109.30307298
_cell_angle_beta   111.59338504
_cell_angle_gamma   107.54294568
_symmetry_Int_Tables_number   1
_chemical_formula_structural   Y12Co3Cu2Pb
_chemical_formula_sum   'Y12 Co3 Cu2 Pb1'
_cell_volume   457.26316259
_cell_formula_units_Z   1
loop_
 _symmetry_equiv_pos_site_id
 _symmetry_equiv_pos_as_xyz
  1  'x, y, z'
loop_
 _atom_site_type_symbol
 _atom_site_label
 _atom_site_symmetry_multiplicity
 _atom_site_fract_x
 _atom_site_fract_y
 _atom_site_fract_z
 _atom_site_occupancy
  Y  Y0  1  0.290401  0.178799  0.469195  1
  Y  Y1  1  0.713618  0.816889  0.530502  1
  Y  Y2  1  0.286386  0.816889  0.103272  1
  Y  Y3  1  0.709604  0.178799  0.888398  1
  Y  Y4  1  0.624650  0.320505  0.312453  1
  Y  Y5  1  0.375345  0.687791  0.695864  1
  Y  Y6  1  0.008052  0.320505  0.695854  1
  Y  Y7  1  0.991926  0.687791  0.312445  1
  Y  Y8  1  0.224581  0.420611  0.196030  1
  Y  Y9  1  0.784363  0.588726  0.804363  1
  Y  Y10  1  0.215637  0.020004  0.804367  1
  Y  Y11  1  0.775418  0.971450  0.196032  1
  Co  Co12  1  0.000001  0.635248  0.635248  1
  Co  Co13  1  0.387530  0.882951  0.495422  1
  Co  Co14  1  0.612487  0.107907  0.495420  1
  Cu  Cu15  1  0.000001  0.365009  0.365008  1
  Cu  Cu16  1  0.000000  0.004138  0.004138  1
  Pb  Pb17  1  0.500001  0.495989  0.995988  1
