# generated using pymatgen
data_Nd8LuPt6
_symmetry_space_group_name_H-M   'P 1'
_cell_length_a   7.69611626
_cell_length_b   7.69611692
_cell_length_c   7.69611700
_cell_angle_alpha   71.34823303
_cell_angle_beta   71.34823369
_cell_angle_gamma   71.34823930
_symmetry_Int_Tables_number   1
_chemical_formula_structural   Nd8LuPt6
_chemical_formula_sum   'Nd8 Lu1 Pt6'
_cell_volume   397.02215913
_cell_formula_units_Z   1
loop_
 _symmetry_equiv_pos_site_id
 _symmetry_equiv_pos_as_xyz
  1  'x, y, z'
loop_
 _atom_site_type_symbol
 _atom_site_label
 _atom_site_symmetry_multiplicity
 _atom_site_fract_x
 _atom_site_fract_y
 _atom_site_fract_z
 _atom_site_occupancy
  Nd  Nd0  1  0.800302  0.800302  0.800302  1
  Nd  Nd1  1  0.199698  0.199698  0.199698  1
  Nd  Nd2  1  0.332757  0.606562  0.837711  1
  Nd  Nd3  1  0.837711  0.332757  0.606562  1
  Nd  Nd4  1  0.606562  0.837711  0.332757  1
  Nd  Nd5  1  0.667243  0.393438  0.162289  1
  Nd  Nd6  1  0.162289  0.667243  0.393438  1
  Nd  Nd7  1  0.393438  0.162289  0.667243  1
  Lu  Lu8  1  0.000000  0.000000  0.000000  1
  Pt  Pt9  1  0.157313  0.960632  0.598386  1
  Pt  Pt10  1  0.598386  0.157313  0.960632  1
  Pt  Pt11  1  0.960632  0.598386  0.157313  1
  Pt  Pt12  1  0.842687  0.039368  0.401614  1
  Pt  Pt13  1  0.401614  0.842687  0.039368  1
  Pt  Pt14  1  0.039368  0.401614  0.842687  1
