# generated using pymatgen
data_Ca2(Ga3Rh)3
_symmetry_space_group_name_H-M   'P 1'
_cell_length_a   7.53698733
_cell_length_b   7.53698766
_cell_length_c   9.78507900
_cell_angle_alpha   90.00000000
_cell_angle_beta   90.00000000
_cell_angle_gamma   119.34926605
_symmetry_Int_Tables_number   1
_chemical_formula_structural   Ca2(Ga3Rh)3
_chemical_formula_sum   'Ca4 Ga18 Rh6'
_cell_volume   484.50820867
_cell_formula_units_Z   2
loop_
 _symmetry_equiv_pos_site_id
 _symmetry_equiv_pos_as_xyz
  1  'x, y, z'
loop_
 _atom_site_type_symbol
 _atom_site_label
 _atom_site_symmetry_multiplicity
 _atom_site_fract_x
 _atom_site_fract_y
 _atom_site_fract_z
 _atom_site_occupancy
  Ca  Ca0  1  0.996085  0.669008  0.750000  1
  Ca  Ca1  1  0.003915  0.330992  0.250000  1
  Ca  Ca2  1  0.669008  0.996085  0.750000  1
  Ca  Ca3  1  0.330992  0.003915  0.250000  1
  Ga  Ga4  1  0.126891  0.126891  0.750000  1
  Ga  Ga5  1  0.873109  0.873109  0.250000  1
  Ga  Ga6  1  0.002745  0.334694  0.575969  1
  Ga  Ga7  1  0.997255  0.665306  0.424031  1
  Ga  Ga8  1  0.997255  0.665306  0.075969  1
  Ga  Ga9  1  0.334694  0.002745  0.924031  1
  Ga  Ga10  1  0.002745  0.334694  0.924031  1
  Ga  Ga11  1  0.665306  0.997255  0.075969  1
  Ga  Ga12  1  0.665306  0.997255  0.424031  1
  Ga  Ga13  1  0.334694  0.002745  0.575969  1
  Ga  Ga14  1  0.335013  0.335013  0.056622  1
  Ga  Ga15  1  0.664987  0.664987  0.943378  1
  Ga  Ga16  1  0.664987  0.664987  0.556622  1
  Ga  Ga17  1  0.335013  0.335013  0.443378  1
  Ga  Ga18  1  0.336869  0.545862  0.750000  1
  Ga  Ga19  1  0.663131  0.454138  0.250000  1
  Ga  Ga20  1  0.545862  0.336869  0.750000  1
  Ga  Ga21  1  0.454138  0.663131  0.250000  1
  Rh  Rh22  1  0.671843  0.328157  0.500000  1
  Rh  Rh23  1  0.328157  0.671843  0.500000  1
  Rh  Rh24  1  0.328157  0.671843  0.000000  1
  Rh  Rh25  1  0.671843  0.328157  0.000000  1
  Rh  Rh26  1  0.000000  0.000000  0.500000  1
  Rh  Rh27  1  0.000000  0.000000  0.000000  1
