# generated using pymatgen
data_Er12Fe(Si4Ir)3
_symmetry_space_group_name_H-M   'P 1'
_cell_length_a   4.20566100
_cell_length_b   10.59411809
_cell_length_c   12.20159700
_cell_angle_alpha   90.00766351
_cell_angle_beta   90.00000000
_cell_angle_gamma   90.00000000
_symmetry_Int_Tables_number   1
_chemical_formula_structural   Er12Fe(Si4Ir)3
_chemical_formula_sum   'Er12 Fe1 Si12 Ir3'
_cell_volume   543.64543537
_cell_formula_units_Z   1
loop_
 _symmetry_equiv_pos_site_id
 _symmetry_equiv_pos_as_xyz
  1  'x, y, z'
loop_
 _atom_site_type_symbol
 _atom_site_label
 _atom_site_symmetry_multiplicity
 _atom_site_fract_x
 _atom_site_fract_y
 _atom_site_fract_z
 _atom_site_occupancy
  Er  Er0  1  0.250000  0.879572  0.019825  1
  Er  Er1  1  0.250000  0.617979  0.523336  1
  Er  Er2  1  0.750000  0.120319  0.979117  1
  Er  Er3  1  0.750000  0.379168  0.479293  1
  Er  Er4  1  0.250000  0.920048  0.603880  1
  Er  Er5  1  0.250000  0.580686  0.104507  1
  Er  Er6  1  0.750000  0.080254  0.395953  1
  Er  Er7  1  0.750000  0.419825  0.898314  1
  Er  Er8  1  0.250000  0.658235  0.799425  1
  Er  Er9  1  0.250000  0.839931  0.300817  1
  Er  Er10  1  0.750000  0.341184  0.198759  1
  Er  Er11  1  0.750000  0.162431  0.699067  1
  Fe  Fe12  1  0.250000  0.390883  0.680588  1
  Si  Si13  1  0.250000  0.012541  0.821098  1
  Si  Si14  1  0.250000  0.488884  0.322399  1
  Si  Si15  1  0.750000  0.988894  0.178307  1
  Si  Si16  1  0.750000  0.505726  0.679939  1
  Si  Si17  1  0.250000  0.251070  0.838664  1
  Si  Si18  1  0.250000  0.252816  0.340982  1
  Si  Si19  1  0.750000  0.753155  0.158575  1
  Si  Si20  1  0.750000  0.747097  0.658872  1
  Si  Si21  1  0.250000  0.201280  0.543897  1
  Si  Si22  1  0.250000  0.298998  0.043152  1
  Si  Si23  1  0.750000  0.798849  0.456558  1
  Si  Si24  1  0.750000  0.699799  0.955800  1
  Ir  Ir25  1  0.250000  0.109789  0.180116  1
  Ir  Ir26  1  0.750000  0.610576  0.319491  1
  Ir  Ir27  1  0.750000  0.890006  0.819269  1
