# generated using pymatgen
data_YTm3Co17(TcP4)3
_symmetry_space_group_name_H-M   'P 1'
_cell_length_a   3.68022600
_cell_length_b   10.30212698
_cell_length_c   11.75332336
_cell_angle_alpha   89.98923474
_cell_angle_beta   90.00000000
_cell_angle_gamma   90.00000000
_symmetry_Int_Tables_number   1
_chemical_formula_structural   YTm3Co17(TcP4)3
_chemical_formula_sum   'Y1 Tm3 Co17 Tc3 P12'
_cell_volume   445.61732259
_cell_formula_units_Z   1
loop_
 _symmetry_equiv_pos_site_id
 _symmetry_equiv_pos_as_xyz
  1  'x, y, z'
loop_
 _atom_site_type_symbol
 _atom_site_label
 _atom_site_symmetry_multiplicity
 _atom_site_fract_x
 _atom_site_fract_y
 _atom_site_fract_z
 _atom_site_occupancy
  Y  Y0  1  0.250000  0.582011  0.702767  1
  Tm  Tm1  1  0.250000  0.915486  0.205082  1
  Tm  Tm2  1  0.750000  0.414745  0.295913  1
  Tm  Tm3  1  0.750000  0.083686  0.795106  1
  Co  Co4  1  0.750000  0.215987  0.508868  1
  Co  Co5  1  0.250000  0.405551  0.487064  1
  Co  Co6  1  0.250000  0.092716  0.988002  1
  Co  Co7  1  0.750000  0.591914  0.509636  1
  Co  Co8  1  0.750000  0.907676  0.012207  1
  Co  Co9  1  0.250000  0.220314  0.177459  1
  Co  Co10  1  0.250000  0.277160  0.676135  1
  Co  Co11  1  0.750000  0.779116  0.822824  1
  Co  Co12  1  0.750000  0.722127  0.322818  1
  Co  Co13  1  0.250000  0.887083  0.701532  1
  Co  Co14  1  0.250000  0.613390  0.202967  1
  Co  Co15  1  0.750000  0.115941  0.300805  1
  Co  Co16  1  0.750000  0.384593  0.797832  1
  Co  Co17  1  0.250000  0.463915  0.932520  1
  Co  Co18  1  0.250000  0.036091  0.431818  1
  Co  Co19  1  0.750000  0.535992  0.069661  1
  Co  Co20  1  0.750000  0.967561  0.568584  1
  Tc  Tc21  1  0.250000  0.711743  0.989660  1
  Tc  Tc22  1  0.250000  0.789245  0.489224  1
  Tc  Tc23  1  0.750000  0.287977  0.010966  1
  P  P24  1  0.250000  0.419325  0.114833  1
  P  P25  1  0.250000  0.081870  0.612364  1
  P  P26  1  0.750000  0.579177  0.886760  1
  P  P27  1  0.750000  0.921291  0.386344  1
  P  P28  1  0.250000  0.268472  0.864633  1
  P  P29  1  0.250000  0.231471  0.368846  1
  P  P30  1  0.750000  0.731779  0.134824  1
  P  P31  1  0.750000  0.770708  0.632864  1
  P  P32  1  0.250000  0.594904  0.390987  1
  P  P33  1  0.250000  0.904633  0.890100  1
  P  P34  1  0.750000  0.398137  0.606702  1
  P  P35  1  0.750000  0.096211  0.111291  1
