# generated using pymatgen
data_LaNdCu2(PdO4)2
_symmetry_space_group_name_H-M   'P 1'
_cell_length_a   6.50195870
_cell_length_b   6.50195881
_cell_length_c   6.55510677
_cell_angle_alpha   126.91132430
_cell_angle_beta   125.03763170
_cell_angle_gamma   79.37997473
_symmetry_Int_Tables_number   1
_chemical_formula_structural   LaNdCu2(PdO4)2
_chemical_formula_sum   'La1 Nd1 Cu2 Pd2 O8'
_cell_volume   175.88377383
_cell_formula_units_Z   1
loop_
 _symmetry_equiv_pos_site_id
 _symmetry_equiv_pos_as_xyz
  1  'x, y, z'
loop_
 _atom_site_type_symbol
 _atom_site_label
 _atom_site_symmetry_multiplicity
 _atom_site_fract_x
 _atom_site_fract_y
 _atom_site_fract_z
 _atom_site_occupancy
  La  La0  1  0.999331  0.999331  0.000000  1
  Nd  Nd1  1  0.750278  0.250278  0.500000  1
  Cu  Cu2  1  0.873817  0.623299  0.247257  1
  Cu  Cu3  1  0.376042  0.626560  0.752743  1
  Pd  Pd4  1  0.376679  0.624574  0.251291  1
  Pd  Pd5  1  0.373282  0.125387  0.748709  1
  O  O6  1  0.588851  0.940094  0.939886  1
  O  O7  1  0.405833  0.836566  0.130978  1
  O  O8  1  0.705589  0.274855  0.869022  1
  O  O9  1  0.000207  0.648967  0.060114  1
  O  O10  1  0.158189  0.315631  0.565494  1
  O  O11  1  0.354529  0.416696  0.379461  1
  O  O12  1  0.750138  0.592694  0.434506  1
  O  O13  1  0.037235  0.975069  0.620539  1
