# generated using pymatgen
data_Sc4TcMo3Os4
_symmetry_space_group_name_H-M   'P 1'
_cell_length_a   5.25487617
_cell_length_b   5.27548206
_cell_length_c   8.73975600
_cell_angle_alpha   90.00000000
_cell_angle_beta   90.00000000
_cell_angle_gamma   120.55311766
_symmetry_Int_Tables_number   1
_chemical_formula_structural   Sc4TcMo3Os4
_chemical_formula_sum   'Sc4 Tc1 Mo3 Os4'
_cell_volume   208.64448870
_cell_formula_units_Z   1
loop_
 _symmetry_equiv_pos_site_id
 _symmetry_equiv_pos_as_xyz
  1  'x, y, z'
loop_
 _atom_site_type_symbol
 _atom_site_label
 _atom_site_symmetry_multiplicity
 _atom_site_fract_x
 _atom_site_fract_y
 _atom_site_fract_z
 _atom_site_occupancy
  Sc  Sc0  1  0.337607  0.668109  0.435533  1
  Sc  Sc1  1  0.666677  0.333401  0.558872  1
  Sc  Sc2  1  0.666677  0.333401  0.941128  1
  Sc  Sc3  1  0.337607  0.668109  0.064467  1
  Tc  Tc4  1  0.830544  0.658836  0.250000  1
  Mo  Mo5  1  0.165772  0.337676  0.750000  1
  Mo  Mo6  1  0.166691  0.827491  0.750000  1
  Mo  Mo7  1  0.344234  0.172845  0.250000  1
  Os  Os8  1  0.644685  0.822865  0.750000  1
  Os  Os9  1  0.005439  0.001860  0.999559  1
  Os  Os10  1  0.828629  0.173548  0.250000  1
  Os  Os11  1  0.005439  0.001860  0.500441  1
