# generated using pymatgen
data_Tb3Si2IrOs
_symmetry_space_group_name_H-M   'P 1'
_cell_length_a   5.55214400
_cell_length_b   5.55214387
_cell_length_c   13.18227100
_cell_angle_alpha   90.00000000
_cell_angle_beta   90.00000000
_cell_angle_gamma   136.28614622
_symmetry_Int_Tables_number   1
_chemical_formula_structural   Tb3Si2IrOs
_chemical_formula_sum   'Tb6 Si4 Ir2 Os2'
_cell_volume   280.81846739
_cell_formula_units_Z   2
loop_
 _symmetry_equiv_pos_site_id
 _symmetry_equiv_pos_as_xyz
  1  'x, y, z'
loop_
 _atom_site_type_symbol
 _atom_site_label
 _atom_site_symmetry_multiplicity
 _atom_site_fract_x
 _atom_site_fract_y
 _atom_site_fract_z
 _atom_site_occupancy
  Tb  Tb0  1  0.772980  0.227020  0.602733  1
  Tb  Tb1  1  0.516904  0.483096  0.250000  1
  Tb  Tb2  1  0.227020  0.772980  0.397267  1
  Tb  Tb3  1  0.772980  0.227020  0.897267  1
  Tb  Tb4  1  0.483096  0.516904  0.750000  1
  Tb  Tb5  1  0.227020  0.772980  0.102733  1
  Si  Si6  1  0.062204  0.937796  0.589223  1
  Si  Si7  1  0.062204  0.937796  0.910777  1
  Si  Si8  1  0.937796  0.062204  0.410777  1
  Si  Si9  1  0.937796  0.062204  0.089223  1
  Ir  Ir10  1  0.810707  0.189293  0.250000  1
  Ir  Ir11  1  0.189293  0.810707  0.750000  1
  Os  Os12  1  0.500000  0.500000  0.000000  1
  Os  Os13  1  0.500000  0.500000  0.500000  1
