# generated using pymatgen
data_Nb12Ga7Fe5N4
_symmetry_space_group_name_H-M   'P 1'
_cell_length_a   8.18263933
_cell_length_b   8.18263761
_cell_length_c   8.18263900
_cell_angle_alpha   60.10068912
_cell_angle_beta   60.10069662
_cell_angle_gamma   60.10069731
_symmetry_Int_Tables_number   1
_chemical_formula_structural   Nb12Ga7Fe5N4
_chemical_formula_sum   'Nb12 Ga7 Fe5 N4'
_cell_volume   388.28878912
_cell_formula_units_Z   1
loop_
 _symmetry_equiv_pos_site_id
 _symmetry_equiv_pos_as_xyz
  1  'x, y, z'
loop_
 _atom_site_type_symbol
 _atom_site_label
 _atom_site_symmetry_multiplicity
 _atom_site_fract_x
 _atom_site_fract_y
 _atom_site_fract_z
 _atom_site_occupancy
  Nb  Nb0  1  0.804932  0.804932  0.194003  1
  Nb  Nb1  1  0.193384  0.193384  0.805358  1
  Nb  Nb2  1  0.804932  0.194003  0.804932  1
  Nb  Nb3  1  0.193384  0.805358  0.193384  1
  Nb  Nb4  1  0.194003  0.804932  0.804932  1
  Nb  Nb5  1  0.805358  0.193384  0.193384  1
  Nb  Nb6  1  0.444465  0.444465  0.055829  1
  Nb  Nb7  1  0.054252  0.054252  0.446341  1
  Nb  Nb8  1  0.444465  0.055829  0.444465  1
  Nb  Nb9  1  0.054252  0.446341  0.054252  1
  Nb  Nb10  1  0.055829  0.444465  0.444465  1
  Nb  Nb11  1  0.446341  0.054252  0.054252  1
  Ga  Ga12  1  0.754433  0.415420  0.415420  1
  Ga  Ga13  1  0.415420  0.754433  0.415420  1
  Ga  Ga14  1  0.415420  0.415420  0.754433  1
  Ga  Ga15  1  0.415664  0.415664  0.415664  1
  Ga  Ga16  1  0.500190  0.834474  0.834474  1
  Ga  Ga17  1  0.834474  0.500190  0.834474  1
  Ga  Ga18  1  0.834474  0.834474  0.500190  1
  Fe  Fe19  1  0.122614  0.629576  0.629576  1
  Fe  Fe20  1  0.629576  0.122614  0.629576  1
  Fe  Fe21  1  0.629576  0.629576  0.122614  1
  Fe  Fe22  1  0.624589  0.624589  0.624589  1
  Fe  Fe23  1  0.830075  0.830075  0.830075  1
  N  N24  1  0.625707  0.123515  0.123515  1
  N  N25  1  0.123515  0.625707  0.123515  1
  N  N26  1  0.123515  0.123515  0.625707  1
  N  N27  1  0.125163  0.125163  0.125163  1
