# generated using pymatgen
data_Tb7Tm9(LuPb4)4
_symmetry_space_group_name_H-M   'P 1'
_cell_length_a   8.14105874
_cell_length_b   15.49093202
_cell_length_c   8.20562900
_cell_angle_alpha   90.01450247
_cell_angle_beta   89.87381778
_cell_angle_gamma   90.12614144
_symmetry_Int_Tables_number   1
_chemical_formula_structural   Tb7Tm9(LuPb4)4
_chemical_formula_sum   'Tb7 Tm9 Lu4 Pb16'
_cell_volume   1034.82805632
_cell_formula_units_Z   1
loop_
 _symmetry_equiv_pos_site_id
 _symmetry_equiv_pos_as_xyz
  1  'x, y, z'
loop_
 _atom_site_type_symbol
 _atom_site_label
 _atom_site_symmetry_multiplicity
 _atom_site_fract_x
 _atom_site_fract_y
 _atom_site_fract_z
 _atom_site_occupancy
  Tb  Tb0  1  0.963016  0.900647  0.823247  1
  Tb  Tb1  1  0.537037  0.099009  0.323311  1
  Tb  Tb2  1  0.038311  0.400880  0.176195  1
  Tb  Tb3  1  0.537753  0.400865  0.324328  1
  Tb  Tb4  1  0.036725  0.098710  0.176447  1
  Tb  Tb5  1  0.463269  0.901043  0.676462  1
  Tb  Tb6  1  0.962315  0.599079  0.823650  1
  Tm  Tm7  1  0.624120  0.622167  0.157686  1
  Tm  Tm8  1  0.125023  0.877899  0.342812  1
  Tm  Tm9  1  0.375306  0.122227  0.842610  1
  Tm  Tm10  1  0.875780  0.378299  0.657740  1
  Tm  Tm11  1  0.376804  0.378410  0.841927  1
  Tm  Tm12  1  0.875240  0.121879  0.657076  1
  Tm  Tm13  1  0.624715  0.877387  0.157007  1
  Tm  Tm14  1  0.124151  0.621842  0.342669  1
  Tm  Tm15  1  0.459594  0.600227  0.674632  1
  Lu  Lu16  1  0.792577  0.749683  0.495008  1
  Lu  Lu17  1  0.292887  0.749710  0.005242  1
  Lu  Lu18  1  0.207441  0.250335  0.505432  1
  Lu  Lu19  1  0.707453  0.250086  0.994691  1
  Pb  Pb20  1  0.717158  0.456347  0.966545  1
  Pb  Pb21  1  0.216281  0.043408  0.535603  1
  Pb  Pb22  1  0.284291  0.956327  0.035224  1
  Pb  Pb23  1  0.780968  0.543856  0.466999  1
  Pb  Pb24  1  0.284679  0.543694  0.033600  1
  Pb  Pb25  1  0.784187  0.956451  0.463854  1
  Pb  Pb26  1  0.715667  0.043206  0.964341  1
  Pb  Pb27  1  0.216919  0.457427  0.536179  1
  Pb  Pb28  1  0.430137  0.750002  0.374098  1
  Pb  Pb29  1  0.930472  0.749940  0.126725  1
  Pb  Pb30  1  0.570134  0.250010  0.626623  1
  Pb  Pb31  1  0.069864  0.249966  0.873031  1
  Pb  Pb32  1  0.650499  0.749073  0.843102  1
  Pb  Pb33  1  0.151610  0.749836  0.655980  1
  Pb  Pb34  1  0.348596  0.250090  0.155680  1
  Pb  Pb35  1  0.849018  0.249985  0.344239  1
