# generated using pymatgen
data_SrTh(Ga3Ir)3
_symmetry_space_group_name_H-M   'P 1'
_cell_length_a   7.69733640
_cell_length_b   7.70249400
_cell_length_c   9.64793100
_cell_angle_alpha   90.00000000
_cell_angle_beta   90.00000000
_cell_angle_gamma   119.59695382
_symmetry_Int_Tables_number   1
_chemical_formula_structural   SrTh(Ga3Ir)3
_chemical_formula_sum   'Sr2 Th2 Ga18 Ir6'
_cell_volume   497.37756761
_cell_formula_units_Z   2
loop_
 _symmetry_equiv_pos_site_id
 _symmetry_equiv_pos_as_xyz
  1  'x, y, z'
loop_
 _atom_site_type_symbol
 _atom_site_label
 _atom_site_symmetry_multiplicity
 _atom_site_fract_x
 _atom_site_fract_y
 _atom_site_fract_z
 _atom_site_occupancy
  Sr  Sr0  1  0.996465  0.669316  0.250000  1
  Sr  Sr1  1  0.003535  0.330684  0.750000  1
  Th  Th2  1  0.669534  0.997794  0.250000  1
  Th  Th3  1  0.330466  0.002206  0.750000  1
  Ga  Ga4  1  0.129856  0.131579  0.250000  1
  Ga  Ga5  1  0.870144  0.868421  0.750000  1
  Ga  Ga6  1  0.005135  0.337949  0.075932  1
  Ga  Ga7  1  0.994865  0.662051  0.924068  1
  Ga  Ga8  1  0.994865  0.662051  0.575932  1
  Ga  Ga9  1  0.331855  0.002099  0.421572  1
  Ga  Ga10  1  0.005135  0.337949  0.424068  1
  Ga  Ga11  1  0.668145  0.997901  0.578428  1
  Ga  Ga12  1  0.668145  0.997901  0.921572  1
  Ga  Ga13  1  0.331855  0.002099  0.078428  1
  Ga  Ga14  1  0.334076  0.336445  0.559425  1
  Ga  Ga15  1  0.665924  0.663555  0.440575  1
  Ga  Ga16  1  0.665924  0.663555  0.059425  1
  Ga  Ga17  1  0.334076  0.336445  0.940575  1
  Ga  Ga18  1  0.339619  0.544196  0.250000  1
  Ga  Ga19  1  0.660381  0.455804  0.750000  1
  Ga  Ga20  1  0.542151  0.336837  0.250000  1
  Ga  Ga21  1  0.457849  0.663163  0.750000  1
  Ir  Ir22  1  0.666955  0.324788  0.000611  1
  Ir  Ir23  1  0.333045  0.675212  0.999389  1
  Ir  Ir24  1  0.333045  0.675212  0.500611  1
  Ir  Ir25  1  0.666955  0.324788  0.499389  1
  Ir  Ir26  1  0.000000  0.000000  0.000000  1
  Ir  Ir27  1  0.000000  0.000000  0.500000  1
