# generated using pymatgen
data_RbTiGaO4
_symmetry_space_group_name_H-M   'P 1'
_cell_length_a   7.43561646
_cell_length_b   7.43561697
_cell_length_c   7.43561729
_cell_angle_alpha   133.22866995
_cell_angle_beta   105.38868806
_cell_angle_gamma   92.85006476
_symmetry_Int_Tables_number   1
_chemical_formula_structural   RbTiGaO4
_chemical_formula_sum   'Rb2 Ti2 Ga2 O8'
_cell_volume   272.67347839
_cell_formula_units_Z   2
loop_
 _symmetry_equiv_pos_site_id
 _symmetry_equiv_pos_as_xyz
  1  'x, y, z'
loop_
 _atom_site_type_symbol
 _atom_site_label
 _atom_site_symmetry_multiplicity
 _atom_site_fract_x
 _atom_site_fract_y
 _atom_site_fract_z
 _atom_site_occupancy
  Rb  Rb0  1  0.423135  0.923135  0.500000  1
  Rb  Rb1  1  0.078772  0.078772  0.000000  1
  Ti  Ti2  1  0.470541  0.672079  0.798461  1
  Ti  Ti3  1  0.873617  0.672079  0.201539  1
  Ga  Ga4  1  0.631516  0.328274  0.303242  1
  Ga  Ga5  1  0.025031  0.328274  0.696758  1
  O  O6  1  0.035590  0.501050  0.038341  1
  O  O7  1  0.035590  0.997248  0.534539  1
  O  O8  1  0.462709  0.501050  0.465461  1
  O  O9  1  0.462709  0.997248  0.961659  1
  O  O10  1  0.741258  0.500112  0.241144  1
  O  O11  1  0.258968  0.500112  0.758856  1
  O  O12  1  0.804227  0.304227  0.500000  1
  O  O13  1  0.696339  0.696339  0.000000  1
