# generated using pymatgen
data_Mg2V3Co4AsO16
_symmetry_space_group_name_H-M   'P 1'
_cell_length_a   8.51324874
_cell_length_b   5.37948074
_cell_length_c   9.05397604
_cell_angle_alpha   61.13824191
_cell_angle_beta   89.92421262
_cell_angle_gamma   89.84642539
_symmetry_Int_Tables_number   1
_chemical_formula_structural   Mg2V3Co4AsO16
_chemical_formula_sum   'Mg2 V3 Co4 As1 O16'
_cell_volume   363.13817208
_cell_formula_units_Z   1
loop_
 _symmetry_equiv_pos_site_id
 _symmetry_equiv_pos_as_xyz
  1  'x, y, z'
loop_
 _atom_site_type_symbol
 _atom_site_label
 _atom_site_symmetry_multiplicity
 _atom_site_fract_x
 _atom_site_fract_y
 _atom_site_fract_z
 _atom_site_occupancy
  Mg  Mg0  1  0.998207  0.497935  0.500907  1
  Mg  Mg1  1  0.499054  0.498609  0.997766  1
  V  V2  1  0.301529  0.851492  0.194513  1
  V  V3  1  0.801180  0.146800  0.305488  1
  V  V4  1  0.198250  0.853173  0.693430  1
  Co  Co5  1  0.360811  0.490326  0.607677  1
  Co  Co6  1  0.861646  0.510091  0.895202  1
  Co  Co7  1  0.139793  0.493425  0.106699  1
  Co  Co8  1  0.640123  0.506164  0.392674  1
  As  As9  1  0.696945  0.148755  0.805258  1
  O  O10  1  0.875925  0.325965  0.744190  1
  O  O11  1  0.432340  0.699176  0.365457  1
  O  O12  1  0.644923  0.233621  0.958715  1
  O  O13  1  0.800335  0.777194  0.384229  1
  O  O14  1  0.135143  0.773639  0.540866  1
  O  O15  1  0.378609  0.669319  0.757410  1
  O  O16  1  0.300646  0.221449  0.115571  1
  O  O17  1  0.934108  0.298139  0.136914  1
  O  O18  1  0.067801  0.704475  0.864177  1
  O  O19  1  0.697058  0.786971  0.884086  1
  O  O20  1  0.621271  0.330783  0.240033  1
  O  O21  1  0.861782  0.224069  0.460012  1
  O  O22  1  0.199330  0.222910  0.614592  1
  O  O23  1  0.363148  0.774606  0.039988  1
  O  O24  1  0.568789  0.291056  0.635829  1
  O  O25  1  0.121252  0.669856  0.258316  1
