# generated using pymatgen
data_Tb4Nd2Ir7Rh11
_symmetry_space_group_name_H-M   'P 1'
_cell_length_a   5.32493720
_cell_length_b   5.31906712
_cell_length_c   17.53973454
_cell_angle_alpha   90.00000077
_cell_angle_beta   89.97528967
_cell_angle_gamma   119.96353939
_symmetry_Int_Tables_number   1
_chemical_formula_structural   Tb4Nd2Ir7Rh11
_chemical_formula_sum   'Tb4 Nd2 Ir7 Rh11'
_cell_volume   430.39081906
_cell_formula_units_Z   1
loop_
 _symmetry_equiv_pos_site_id
 _symmetry_equiv_pos_as_xyz
  1  'x, y, z'
loop_
 _atom_site_type_symbol
 _atom_site_label
 _atom_site_symmetry_multiplicity
 _atom_site_fract_x
 _atom_site_fract_y
 _atom_site_fract_z
 _atom_site_occupancy
  Tb  Tb0  1  0.332367  0.666184  0.541180  1
  Tb  Tb1  1  0.666781  0.333390  0.041070  1
  Tb  Tb2  1  0.666735  0.333367  0.458907  1
  Tb  Tb3  1  0.333133  0.666567  0.959060  1
  Nd  Nd4  1  0.333521  0.666761  0.749658  1
  Nd  Nd5  1  0.666685  0.333342  0.249507  1
  Ir  Ir6  1  0.167239  0.334776  0.125618  1
  Ir  Ir7  1  0.834449  0.665989  0.625442  1
  Ir  Ir8  1  0.665269  0.832634  0.125501  1
  Ir  Ir9  1  0.167239  0.832462  0.125618  1
  Ir  Ir10  1  0.834449  0.168461  0.625442  1
  Ir  Ir11  1  0.999993  0.999997  0.999436  1
  Ir  Ir12  1  0.997606  0.998803  0.499607  1
  Rh  Rh13  1  0.335409  0.167705  0.625272  1
  Rh  Rh14  1  0.833129  0.665712  0.874877  1
  Rh  Rh15  1  0.833129  0.167418  0.874877  1
  Rh  Rh16  1  0.334249  0.167125  0.874593  1
  Rh  Rh17  1  0.665825  0.832912  0.375127  1
  Rh  Rh18  1  0.167066  0.832768  0.375013  1
  Rh  Rh19  1  0.167066  0.334297  0.375013  1
  Rh  Rh20  1  0.999912  0.999956  0.249752  1
  Rh  Rh21  1  0.998171  0.999086  0.749804  1
  Rh  Rh22  1  0.333826  0.666913  0.249954  1
  Rh  Rh23  1  0.666754  0.333377  0.749673  1
