# generated using pymatgen
data_PdRu2F12
_symmetry_space_group_name_H-M   'P 1'
_cell_length_a   11.30807772
_cell_length_b   5.60371516
_cell_length_c   5.62525600
_cell_angle_alpha   57.74840114
_cell_angle_beta   57.68727246
_cell_angle_gamma   57.87088137
_symmetry_Int_Tables_number   1
_chemical_formula_structural   PdRu2F12
_chemical_formula_sum   'Pd1 Ru2 F12'
_cell_volume   239.13578195
_cell_formula_units_Z   1
loop_
 _symmetry_equiv_pos_site_id
 _symmetry_equiv_pos_as_xyz
  1  'x, y, z'
loop_
 _atom_site_type_symbol
 _atom_site_label
 _atom_site_symmetry_multiplicity
 _atom_site_fract_x
 _atom_site_fract_y
 _atom_site_fract_z
 _atom_site_occupancy
  Pd  Pd0  1  0.750000  0.500000  0.500000  1
  Ru  Ru1  1  0.998548  0.998972  0.002327  1
  Ru  Ru2  1  0.501452  0.001028  0.997673  1
  F  F3  1  0.161205  0.125638  0.780162  1
  F  F4  1  0.684089  0.101173  0.772379  1
  F  F5  1  0.046519  0.787150  0.346785  1
  F  F6  1  0.557834  0.768137  0.357642  1
  F  F7  1  0.102685  0.664964  0.887649  1
  F  F8  1  0.622299  0.635106  0.892999  1
  F  F9  1  0.453481  0.212850  0.653215  1
  F  F10  1  0.942166  0.231863  0.642358  1
  F  F11  1  0.338795  0.874362  0.219838  1
  F  F12  1  0.815911  0.898827  0.227621  1
  F  F13  1  0.397315  0.335036  0.112351  1
  F  F14  1  0.877701  0.364894  0.107001  1
