# generated using pymatgen
data_MgZr3Ge(B7Ir6)2
_symmetry_space_group_name_H-M   'P 1'
_cell_length_a   3.44377927
_cell_length_b   7.79182792
_cell_length_c   13.45970818
_cell_angle_alpha   89.88496219
_cell_angle_beta   90.02338950
_cell_angle_gamma   90.03623940
_symmetry_Int_Tables_number   1
_chemical_formula_structural   MgZr3Ge(B7Ir6)2
_chemical_formula_sum   'Mg1 Zr3 Ge1 B14 Ir12'
_cell_volume   361.16803503
_cell_formula_units_Z   1
loop_
 _symmetry_equiv_pos_site_id
 _symmetry_equiv_pos_as_xyz
  1  'x, y, z'
loop_
 _atom_site_type_symbol
 _atom_site_label
 _atom_site_symmetry_multiplicity
 _atom_site_fract_x
 _atom_site_fract_y
 _atom_site_fract_z
 _atom_site_occupancy
  Mg  Mg0  1  0.251674  0.499513  0.833413  1
  Zr  Zr1  1  0.252252  0.999527  0.332341  1
  Zr  Zr2  1  0.747916  0.998582  0.671037  1
  Zr  Zr3  1  0.749698  0.501672  0.162378  1
  Ge  Ge4  1  0.495444  0.498788  0.501785  1
  B  B5  1  0.499323  0.000967  0.998183  1
  B  B6  1  0.000730  0.001157  0.997954  1
  B  B7  1  0.756480  0.330219  0.730498  1
  B  B8  1  0.752902  0.827836  0.220741  1
  B  B9  1  0.751479  0.747340  0.805577  1
  B  B10  1  0.755073  0.248100  0.298277  1
  B  B11  1  0.749043  0.427093  0.970019  1
  B  B12  1  0.759244  0.920410  0.475360  1
  B  B13  1  0.246258  0.179057  0.780188  1
  B  B14  1  0.245539  0.673817  0.271697  1
  B  B15  1  0.247437  0.747219  0.706180  1
  B  B16  1  0.247717  0.247473  0.195557  1
  B  B17  1  0.240110  0.078116  0.526546  1
  B  B18  1  0.250345  0.572902  0.020224  1
  Ir  Ir19  1  0.749211  0.593333  0.674419  1
  Ir  Ir20  1  0.748800  0.089961  0.163805  1
  Ir  Ir21  1  0.750680  0.705119  0.963827  1
  Ir  Ir22  1  0.743223  0.197527  0.458807  1
  Ir  Ir23  1  0.748317  0.203817  0.875066  1
  Ir  Ir24  1  0.746688  0.709170  0.365615  1
  Ir  Ir25  1  0.250160  0.914014  0.838667  1
  Ir  Ir26  1  0.254468  0.406921  0.325196  1
  Ir  Ir27  1  0.256397  0.801449  0.540598  1
  Ir  Ir28  1  0.248802  0.294310  0.037942  1
  Ir  Ir29  1  0.253657  0.286361  0.632677  1
  Ir  Ir30  1  0.250934  0.798233  0.125427  1
