# generated using pymatgen
data_Y3Lu9CoTc3
_symmetry_space_group_name_H-M   'P 1'
_cell_length_a   6.13070975
_cell_length_b   7.32397652
_cell_length_c   8.89204500
_cell_angle_alpha   90.00000000
_cell_angle_beta   90.00000000
_cell_angle_gamma   90.66944852
_symmetry_Int_Tables_number   1
_chemical_formula_structural   Y3Lu9CoTc3
_chemical_formula_sum   'Y3 Lu9 Co1 Tc3'
_cell_volume   399.23600909
_cell_formula_units_Z   1
loop_
 _symmetry_equiv_pos_site_id
 _symmetry_equiv_pos_as_xyz
  1  'x, y, z'
loop_
 _atom_site_type_symbol
 _atom_site_label
 _atom_site_symmetry_multiplicity
 _atom_site_fract_x
 _atom_site_fract_y
 _atom_site_fract_z
 _atom_site_occupancy
  Y  Y0  1  0.621316  0.035360  0.250000  1
  Y  Y1  1  0.137686  0.456847  0.750000  1
  Y  Y2  1  0.383093  0.960519  0.750000  1
  Lu  Lu3  1  0.333746  0.672759  0.064151  1
  Lu  Lu4  1  0.152025  0.178009  0.437886  1
  Lu  Lu5  1  0.660643  0.334794  0.563324  1
  Lu  Lu6  1  0.842904  0.817796  0.937922  1
  Lu  Lu7  1  0.660643  0.334794  0.936676  1
  Lu  Lu8  1  0.842904  0.817796  0.562078  1
  Lu  Lu9  1  0.333746  0.672759  0.435849  1
  Lu  Lu10  1  0.152025  0.178009  0.062114  1
  Lu  Lu11  1  0.875583  0.539593  0.250000  1
  Co  Co12  1  0.547581  0.620549  0.750000  1
  Tc  Tc13  1  0.050233  0.881703  0.250000  1
  Tc  Tc14  1  0.459348  0.384385  0.250000  1
  Tc  Tc15  1  0.946525  0.114328  0.750000  1
