# generated using pymatgen
data_YReTc3Ge2
_symmetry_space_group_name_H-M   'P 1'
_cell_length_a   7.54776506
_cell_length_b   7.54776543
_cell_length_c   4.06617900
_cell_angle_alpha   90.00000000
_cell_angle_beta   90.00000000
_cell_angle_gamma   148.41514946
_symmetry_Int_Tables_number   1
_chemical_formula_structural   YReTc3Ge2
_chemical_formula_sum   'Y1 Re1 Tc3 Ge2'
_cell_volume   121.32663605
_cell_formula_units_Z   1
loop_
 _symmetry_equiv_pos_site_id
 _symmetry_equiv_pos_as_xyz
  1  'x, y, z'
loop_
 _atom_site_type_symbol
 _atom_site_label
 _atom_site_symmetry_multiplicity
 _atom_site_fract_x
 _atom_site_fract_y
 _atom_site_fract_z
 _atom_site_occupancy
  Y  Y0  1  0.999969  0.000031  0.000000  1
  Re  Re1  1  0.301694  0.698304  0.000000  1
  Tc  Tc2  1  0.696399  0.303599  0.000000  1
  Tc  Tc3  1  0.811101  0.188897  0.500000  1
  Tc  Tc4  1  0.189477  0.810521  0.500000  1
  Ge  Ge5  1  0.587236  0.412762  0.500000  1
  Ge  Ge6  1  0.414118  0.585880  0.500000  1
