# generated using pymatgen
data_Li2PrSm(PO3)8
_symmetry_space_group_name_H-M   'P 1'
_cell_length_a   7.16921359
_cell_length_b   9.07578434
_cell_length_c   9.06723965
_cell_angle_alpha   95.36700244
_cell_angle_beta   113.28693511
_cell_angle_gamma   113.26371867
_symmetry_Int_Tables_number   1
_chemical_formula_structural   Li2PrSm(PO3)8
_chemical_formula_sum   'Li2 Pr1 Sm1 P8 O24'
_cell_volume   475.56010136
_cell_formula_units_Z   1
loop_
 _symmetry_equiv_pos_site_id
 _symmetry_equiv_pos_as_xyz
  1  'x, y, z'
loop_
 _atom_site_type_symbol
 _atom_site_label
 _atom_site_symmetry_multiplicity
 _atom_site_fract_x
 _atom_site_fract_y
 _atom_site_fract_z
 _atom_site_occupancy
  Li  Li0  1  0.454579  0.249999  0.250000  1
  Li  Li1  1  0.546294  0.750000  0.750000  1
  Pr  Pr2  1  0.952512  0.249999  0.250000  1
  Sm  Sm3  1  0.048787  0.750000  0.750000  1
  P  P4  1  0.604030  0.800751  0.097164  1
  P  P5  1  0.078271  0.885070  0.160380  1
  P  P6  1  0.532820  0.614931  0.339621  1
  P  P7  1  0.206114  0.699248  0.402836  1
  P  P8  1  0.794185  0.303863  0.597388  1
  P  P9  1  0.472105  0.387096  0.665432  1
  P  P10  1  0.919577  0.112904  0.834569  1
  P  P11  1  0.392934  0.196138  0.902612  1
  O  O12  1  0.143416  0.816502  0.042330  1
  O  O13  1  0.805500  0.769264  0.085532  1
  O  O14  1  0.559705  0.228837  0.082444  1
  O  O15  1  0.488972  0.645948  0.159238  1
  O  O16  1  0.144560  0.069734  0.202278  1
  O  O17  1  0.707493  0.965395  0.224398  1
  O  O18  1  0.017700  0.534606  0.275602  1
  O  O19  1  0.372547  0.430266  0.297721  1
  O  O20  1  0.183785  0.854052  0.340761  1
  O  O21  1  0.748424  0.271163  0.417557  1
  O  O22  1  0.450703  0.730736  0.414469  1
  O  O23  1  0.784583  0.683497  0.457671  1
  O  O24  1  0.220476  0.321606  0.550082  1
  O  O25  1  0.550078  0.269420  0.588162  1
  O  O26  1  0.249876  0.732153  0.582333  1
  O  O27  1  0.819842  0.148740  0.656290  1
  O  O28  1  0.634690  0.571236  0.707660  1
  O  O29  1  0.980690  0.470335  0.722877  1
  O  O30  1  0.287479  0.029666  0.777124  1
  O  O31  1  0.855795  0.928764  0.792339  1
  O  O32  1  0.514811  0.351259  0.843709  1
  O  O33  1  0.435389  0.767846  0.917667  1
  O  O34  1  0.192497  0.230580  0.911839  1
  O  O35  1  0.848787  0.178395  0.949919  1
