# generated using pymatgen
data_Y5Al2SnC4
_symmetry_space_group_name_H-M   'P 1'
_cell_length_a   10.95954100
_cell_length_b   10.95954100
_cell_length_c   3.56306200
_cell_angle_alpha   90.00000000
_cell_angle_beta   90.00000000
_cell_angle_gamma   90.00000000
_symmetry_Int_Tables_number   1
_chemical_formula_structural   Y5Al2SnC4
_chemical_formula_sum   'Y10 Al4 Sn2 C8'
_cell_volume   427.96486013
_cell_formula_units_Z   2
loop_
 _symmetry_equiv_pos_site_id
 _symmetry_equiv_pos_as_xyz
  1  'x, y, z'
loop_
 _atom_site_type_symbol
 _atom_site_label
 _atom_site_symmetry_multiplicity
 _atom_site_fract_x
 _atom_site_fract_y
 _atom_site_fract_z
 _atom_site_occupancy
  Y  Y0  1  0.551246  0.732291  0.500000  1
  Y  Y1  1  0.448754  0.267709  0.500000  1
  Y  Y2  1  0.051246  0.767709  0.500000  1
  Y  Y3  1  0.948754  0.232291  0.500000  1
  Y  Y4  1  0.267709  0.551246  0.500000  1
  Y  Y5  1  0.732291  0.448754  0.500000  1
  Y  Y6  1  0.232291  0.051246  0.500000  1
  Y  Y7  1  0.767709  0.948754  0.500000  1
  Y  Y8  1  0.500000  0.000000  0.000000  1
  Y  Y9  1  0.000000  0.500000  0.000000  1
  Al  Al10  1  0.703734  0.203734  0.000000  1
  Al  Al11  1  0.296266  0.796266  0.000000  1
  Al  Al12  1  0.203734  0.296266  0.000000  1
  Al  Al13  1  0.796266  0.703734  0.000000  1
  Sn  Sn14  1  0.500000  0.500000  0.000000  1
  Sn  Sn15  1  0.000000  0.000000  0.000000  1
  C  C16  1  0.633430  0.133430  0.500000  1
  C  C17  1  0.366570  0.866570  0.500000  1
  C  C18  1  0.133430  0.366570  0.500000  1
  C  C19  1  0.866570  0.633430  0.500000  1
  C  C20  1  0.163058  0.663058  0.000000  1
  C  C21  1  0.836942  0.336942  0.000000  1
  C  C22  1  0.663058  0.836942  0.000000  1
  C  C23  1  0.336942  0.163058  0.000000  1
