# generated using pymatgen
data_La10Zn4Co5Os
_symmetry_space_group_name_H-M   'P 1'
_cell_length_a   8.49371070
_cell_length_b   8.49371118
_cell_length_c   8.48209500
_cell_angle_alpha   109.56487586
_cell_angle_beta   109.27408839
_cell_angle_gamma   109.63018601
_symmetry_Int_Tables_number   1
_chemical_formula_structural   La10Zn4Co5Os
_chemical_formula_sum   'La10 Zn4 Co5 Os1'
_cell_volume   470.73324518
_cell_formula_units_Z   1
loop_
 _symmetry_equiv_pos_site_id
 _symmetry_equiv_pos_as_xyz
  1  'x, y, z'
loop_
 _atom_site_type_symbol
 _atom_site_label
 _atom_site_symmetry_multiplicity
 _atom_site_fract_x
 _atom_site_fract_y
 _atom_site_fract_z
 _atom_site_occupancy
  La  La0  1  0.248244  0.690943  0.438445  1
  La  La1  1  0.752499  0.809800  0.061556  1
  La  La2  1  0.441401  0.248486  0.690975  1
  La  La3  1  0.692576  0.442577  0.250000  1
  La  La4  1  0.057511  0.750425  0.809025  1
  La  La5  1  0.807291  0.057291  0.750000  1
  La  La6  1  0.215647  0.216076  0.216190  1
  La  La7  1  0.499887  0.999457  0.283810  1
  La  La8  1  0.285303  0.498483  0.001953  1
  La  La9  1  0.996529  0.283350  0.498048  1
  Zn  Zn10  1  0.501737  0.005643  0.916091  1
  Zn  Zn11  1  0.589551  0.585645  0.583909  1
  Zn  Zn12  1  0.911289  0.498803  0.998131  1
  Zn  Zn13  1  0.000670  0.913157  0.501870  1
  Co  Co14  1  0.250432  0.124265  0.874792  1
  Co  Co15  1  0.749472  0.375637  0.625207  1
  Co  Co16  1  0.874377  0.250755  0.121978  1
  Co  Co17  1  0.123737  0.873737  0.250001  1
  Co  Co18  1  0.628776  0.752401  0.378021  1
  Os  Os19  1  0.373072  0.623072  0.750000  1
