# generated using pymatgen
data_Yb10ZnInCu4
_symmetry_space_group_name_H-M   'P 1'
_cell_length_a   8.94351901
_cell_length_b   8.94351786
_cell_length_c   8.94043216
_cell_angle_alpha   128.46331207
_cell_angle_beta   128.46330470
_cell_angle_gamma   75.87042984
_symmetry_Int_Tables_number   1
_chemical_formula_structural   Yb10ZnInCu4
_chemical_formula_sum   'Yb10 Zn1 In1 Cu4'
_cell_volume   426.38032076
_cell_formula_units_Z   1
loop_
 _symmetry_equiv_pos_site_id
 _symmetry_equiv_pos_as_xyz
  1  'x, y, z'
loop_
 _atom_site_type_symbol
 _atom_site_label
 _atom_site_symmetry_multiplicity
 _atom_site_fract_x
 _atom_site_fract_y
 _atom_site_fract_z
 _atom_site_occupancy
  Yb  Yb0  1  0.494939  0.494873  0.999972  1
  Yb  Yb1  1  0.005127  0.005061  0.000028  1
  Yb  Yb2  1  0.534009  0.024055  0.836117  1
  Yb  Yb3  1  0.188084  0.697809  0.163924  1
  Yb  Yb4  1  0.024088  0.187953  0.490212  1
  Yb  Yb5  1  0.697816  0.533842  0.509967  1
  Yb  Yb6  1  0.475945  0.965991  0.163883  1
  Yb  Yb7  1  0.802191  0.311916  0.836076  1
  Yb  Yb8  1  0.966158  0.802184  0.490033  1
  Yb  Yb9  1  0.312047  0.475912  0.509788  1
  Zn  Zn10  1  0.750038  0.749962  0.000000  1
  In  In11  1  0.250003  0.249997  0.000000  1
  Cu  Cu12  1  0.116429  0.617010  0.733248  1
  Cu  Cu13  1  0.882990  0.383571  0.266752  1
  Cu  Cu14  1  0.617136  0.882864  0.500000  1
  Cu  Cu15  1  0.383000  0.117000  0.500000  1
