# generated using pymatgen
data_Zr4Al18FeRh5
_symmetry_space_group_name_H-M   'P 1'
_cell_length_a   7.43651034
_cell_length_b   7.43650968
_cell_length_c   9.25431275
_cell_angle_alpha   90.05835411
_cell_angle_beta   90.05835319
_cell_angle_gamma   119.76422268
_symmetry_Int_Tables_number   1
_chemical_formula_structural   Zr4Al18FeRh5
_chemical_formula_sum   'Zr4 Al18 Fe1 Rh5'
_cell_volume   444.26199853
_cell_formula_units_Z   1
loop_
 _symmetry_equiv_pos_site_id
 _symmetry_equiv_pos_as_xyz
  1  'x, y, z'
loop_
 _atom_site_type_symbol
 _atom_site_label
 _atom_site_symmetry_multiplicity
 _atom_site_fract_x
 _atom_site_fract_y
 _atom_site_fract_z
 _atom_site_occupancy
  Zr  Zr0  1  0.992904  0.670391  0.249500  1
  Zr  Zr1  1  0.007096  0.329609  0.750500  1
  Zr  Zr2  1  0.670391  0.992904  0.249500  1
  Zr  Zr3  1  0.329609  0.007096  0.750500  1
  Al  Al4  1  0.116865  0.116865  0.243911  1
  Al  Al5  1  0.883135  0.883135  0.756089  1
  Al  Al6  1  0.996482  0.328055  0.073329  1
  Al  Al7  1  0.003518  0.671945  0.926671  1
  Al  Al8  1  0.002313  0.665666  0.577946  1
  Al  Al9  1  0.334334  0.997687  0.422054  1
  Al  Al10  1  0.997687  0.334334  0.422054  1
  Al  Al11  1  0.665666  0.002313  0.577946  1
  Al  Al12  1  0.671945  0.003518  0.926671  1
  Al  Al13  1  0.328055  0.996482  0.073329  1
  Al  Al14  1  0.331743  0.331743  0.557569  1
  Al  Al15  1  0.668257  0.668257  0.442431  1
  Al  Al16  1  0.675936  0.675936  0.052628  1
  Al  Al17  1  0.324064  0.324064  0.947372  1
  Al  Al18  1  0.339522  0.553415  0.249009  1
  Al  Al19  1  0.660478  0.446585  0.750991  1
  Al  Al20  1  0.553415  0.339522  0.249009  1
  Al  Al21  1  0.446585  0.660478  0.750991  1
  Fe  Fe22  1  0.000000  0.000000  0.000000  1
  Rh  Rh23  1  0.672562  0.327438  0.000000  1
  Rh  Rh24  1  0.327438  0.672562  0.000000  1
  Rh  Rh25  1  0.327287  0.672713  0.500000  1
  Rh  Rh26  1  0.672713  0.327287  0.500000  1
  Rh  Rh27  1  0.000000  0.000000  0.500000  1
