# generated using pymatgen
data_Yb2Zn5Si3
_symmetry_space_group_name_H-M   'P 1'
_cell_length_a   4.14368400
_cell_length_b   4.14368400
_cell_length_c   10.47048600
_cell_angle_alpha   90.00000000
_cell_angle_beta   90.00000000
_cell_angle_gamma   90.00000000
_symmetry_Int_Tables_number   1
_chemical_formula_structural   Yb2Zn5Si3
_chemical_formula_sum   'Yb2 Zn5 Si3'
_cell_volume   179.77947063
_cell_formula_units_Z   1
loop_
 _symmetry_equiv_pos_site_id
 _symmetry_equiv_pos_as_xyz
  1  'x, y, z'
loop_
 _atom_site_type_symbol
 _atom_site_label
 _atom_site_symmetry_multiplicity
 _atom_site_fract_x
 _atom_site_fract_y
 _atom_site_fract_z
 _atom_site_occupancy
  Yb  Yb0  1  0.000000  0.000000  0.995344  1
  Yb  Yb1  1  0.500000  0.500000  0.503196  1
  Zn  Zn2  1  0.000000  0.500000  0.254235  1
  Zn  Zn3  1  0.500000  0.000000  0.747937  1
  Zn  Zn4  1  0.500000  0.000000  0.254235  1
  Zn  Zn5  1  0.000000  0.500000  0.747937  1
  Zn  Zn6  1  0.500000  0.500000  0.111808  1
  Si  Si7  1  0.000000  0.000000  0.612000  1
  Si  Si8  1  0.000000  0.000000  0.388055  1
  Si  Si9  1  0.500000  0.500000  0.885256  1
