# generated using pymatgen
data_Tb6PrNd3Sn8
_symmetry_space_group_name_H-M   'P 1'
_cell_length_a   8.19664400
_cell_length_b   8.41168500
_cell_length_c   15.77921800
_cell_angle_alpha   89.99978885
_cell_angle_beta   90.00000000
_cell_angle_gamma   90.00000000
_symmetry_Int_Tables_number   1
_chemical_formula_structural   Tb6PrNd3Sn8
_chemical_formula_sum   'Tb12 Pr2 Nd6 Sn16'
_cell_volume   1087.93901192
_cell_formula_units_Z   2
loop_
 _symmetry_equiv_pos_site_id
 _symmetry_equiv_pos_as_xyz
  1  'x, y, z'
loop_
 _atom_site_type_symbol
 _atom_site_label
 _atom_site_symmetry_multiplicity
 _atom_site_fract_x
 _atom_site_fract_y
 _atom_site_fract_z
 _atom_site_occupancy
  Tb  Tb0  1  0.348769  0.835408  0.875888  1
  Tb  Tb1  1  0.848769  0.664592  0.624112  1
  Tb  Tb2  1  0.651247  0.164470  0.375786  1
  Tb  Tb3  1  0.151247  0.335530  0.124214  1
  Tb  Tb4  1  0.651247  0.164718  0.124311  1
  Tb  Tb5  1  0.151247  0.335282  0.375689  1
  Tb  Tb6  1  0.348968  0.835435  0.624060  1
  Tb  Tb7  1  0.848968  0.664565  0.875940  1
  Tb  Tb8  1  0.183048  0.500978  0.749986  1
  Tb  Tb9  1  0.683048  0.999022  0.750014  1
  Tb  Tb10  1  0.816982  0.499186  0.250028  1
  Tb  Tb11  1  0.316982  0.000814  0.249972  1
  Pr  Pr12  1  0.508361  0.322484  0.596543  1
  Pr  Pr13  1  0.008361  0.177516  0.903457  1
  Nd  Nd14  1  0.508674  0.322535  0.903049  1
  Nd  Nd15  1  0.008674  0.177465  0.596951  1
  Nd  Nd16  1  0.491481  0.677690  0.402911  1
  Nd  Nd17  1  0.991481  0.822310  0.097089  1
  Nd  Nd18  1  0.491386  0.677615  0.097071  1
  Nd  Nd19  1  0.991386  0.822385  0.402929  1
  Sn  Sn20  1  0.312164  0.039800  0.042100  1
  Sn  Sn21  1  0.812164  0.460200  0.457900  1
  Sn  Sn22  1  0.689200  0.959230  0.541624  1
  Sn  Sn23  1  0.189200  0.540770  0.958376  1
  Sn  Sn24  1  0.687646  0.959252  0.958479  1
  Sn  Sn25  1  0.187646  0.540748  0.541521  1
  Sn  Sn26  1  0.310917  0.039640  0.458010  1
  Sn  Sn27  1  0.810917  0.460360  0.041990  1
  Sn  Sn28  1  0.546425  0.622686  0.750216  1
  Sn  Sn29  1  0.046425  0.877314  0.749784  1
  Sn  Sn30  1  0.453603  0.377803  0.250080  1
  Sn  Sn31  1  0.953603  0.122197  0.249920  1
  Sn  Sn32  1  0.314540  0.145356  0.750140  1
  Sn  Sn33  1  0.814540  0.354644  0.749860  1
  Sn  Sn34  1  0.685343  0.854186  0.249992  1
  Sn  Sn35  1  0.185343  0.645814  0.250008  1
