# generated using pymatgen
data_Y8Ho2IrRh3
_symmetry_space_group_name_H-M   'P 1'
_cell_length_a   6.47340811
_cell_length_b   7.18189374
_cell_length_c   8.65443620
_cell_angle_alpha   96.41626146
_cell_angle_beta   111.99223105
_cell_angle_gamma   90.12116224
_symmetry_Int_Tables_number   1
_chemical_formula_structural   Y8Ho2IrRh3
_chemical_formula_sum   'Y8 Ho2 Ir1 Rh3'
_cell_volume   370.31954262
_cell_formula_units_Z   1
loop_
 _symmetry_equiv_pos_site_id
 _symmetry_equiv_pos_as_xyz
  1  'x, y, z'
loop_
 _atom_site_type_symbol
 _atom_site_label
 _atom_site_symmetry_multiplicity
 _atom_site_fract_x
 _atom_site_fract_y
 _atom_site_fract_z
 _atom_site_occupancy
  Y  Y0  1  0.976650  0.916362  0.186403  1
  Y  Y1  1  0.789167  0.583696  0.813219  1
  Y  Y2  1  0.025896  0.083539  0.815516  1
  Y  Y3  1  0.211035  0.416819  0.186585  1
  Y  Y4  1  0.650607  0.815990  0.437747  1
  Y  Y5  1  0.211698  0.683661  0.560998  1
  Y  Y6  1  0.350673  0.184077  0.559711  1
  Y  Y7  1  0.787080  0.314980  0.438862  1
  Ho  Ho8  1  0.427569  0.750867  0.000392  1
  Ho  Ho9  1  0.571530  0.249494  0.000465  1
  Ir  Ir10  1  0.399201  0.072948  0.218235  1
  Rh  Rh11  1  0.818341  0.571284  0.217698  1
  Rh  Rh12  1  0.600349  0.927880  0.783079  1
  Rh  Rh13  1  0.180204  0.428404  0.781090  1
