# generated using pymatgen
data_ErHfP7Ru12
_symmetry_space_group_name_H-M   'P 1'
_cell_length_a   9.38354700
_cell_length_b   9.38354705
_cell_length_c   3.91592400
_cell_angle_alpha   90.00000000
_cell_angle_beta   90.00000000
_cell_angle_gamma   119.99999536
_symmetry_Int_Tables_number   1
_chemical_formula_structural   ErHfP7Ru12
_chemical_formula_sum   'Er1 Hf1 P7 Ru12'
_cell_volume   298.60630661
_cell_formula_units_Z   1
loop_
 _symmetry_equiv_pos_site_id
 _symmetry_equiv_pos_as_xyz
  1  'x, y, z'
loop_
 _atom_site_type_symbol
 _atom_site_label
 _atom_site_symmetry_multiplicity
 _atom_site_fract_x
 _atom_site_fract_y
 _atom_site_fract_z
 _atom_site_occupancy
  Er  Er0  1  0.333333  0.666667  0.000000  1
  Hf  Hf1  1  0.666667  0.333333  0.500000  1
  P  P2  1  0.598578  0.719182  0.500000  1
  P  P3  1  0.000000  0.000000  0.000000  1
  P  P4  1  0.280818  0.879396  0.500000  1
  P  P5  1  0.120604  0.401422  0.500000  1
  P  P6  1  0.884746  0.573065  0.000000  1
  P  P7  1  0.426935  0.311681  0.000000  1
  P  P8  1  0.688319  0.115254  0.000000  1
  Ru  Ru9  1  0.556425  0.953011  0.500000  1
  Ru  Ru10  1  0.396587  0.443575  0.500000  1
  Ru  Ru11  1  0.913538  0.122718  0.500000  1
  Ru  Ru12  1  0.209180  0.086462  0.500000  1
  Ru  Ru13  1  0.877282  0.790820  0.500000  1
  Ru  Ru14  1  0.725904  0.889617  0.000000  1
  Ru  Ru15  1  0.110383  0.836285  0.000000  1
  Ru  Ru16  1  0.163715  0.274096  0.000000  1
  Ru  Ru17  1  0.428940  0.074011  0.000000  1
  Ru  Ru18  1  0.925989  0.354930  0.000000  1
  Ru  Ru19  1  0.645070  0.571060  0.000000  1
  Ru  Ru20  1  0.046989  0.603413  0.500000  1
