# generated using pymatgen
data_Tb12Ga4Ge4Ir7Rh
_symmetry_space_group_name_H-M   'P 1'
_cell_length_a   5.58204454
_cell_length_b   7.95865900
_cell_length_c   13.39852202
_cell_angle_alpha   89.96293034
_cell_angle_beta   89.97428361
_cell_angle_gamma   90.04359534
_symmetry_Int_Tables_number   1
_chemical_formula_structural   Tb12Ga4Ge4Ir7Rh
_chemical_formula_sum   'Tb12 Ga4 Ge4 Ir7 Rh1'
_cell_volume   595.23687651
_cell_formula_units_Z   1
loop_
 _symmetry_equiv_pos_site_id
 _symmetry_equiv_pos_as_xyz
  1  'x, y, z'
loop_
 _atom_site_type_symbol
 _atom_site_label
 _atom_site_symmetry_multiplicity
 _atom_site_fract_x
 _atom_site_fract_y
 _atom_site_fract_z
 _atom_site_occupancy
  Tb  Tb0  1  0.629253  0.260286  0.250676  1
  Tb  Tb1  1  0.371506  0.738895  0.749824  1
  Tb  Tb2  1  0.370553  0.762434  0.250685  1
  Tb  Tb3  1  0.628523  0.238937  0.750077  1
  Tb  Tb4  1  0.152397  0.398613  0.100724  1
  Tb  Tb5  1  0.848805  0.600865  0.898892  1
  Tb  Tb6  1  0.849047  0.601239  0.601029  1
  Tb  Tb7  1  0.849216  0.898736  0.399155  1
  Tb  Tb8  1  0.150801  0.399014  0.398955  1
  Tb  Tb9  1  0.151237  0.100747  0.601068  1
  Tb  Tb10  1  0.150566  0.101000  0.899155  1
  Tb  Tb11  1  0.849923  0.900723  0.101014  1
  Ga  Ga12  1  0.636349  0.250003  0.999523  1
  Ga  Ga13  1  0.363445  0.749727  0.000261  1
  Ga  Ga14  1  0.364400  0.750038  0.500205  1
  Ga  Ga15  1  0.636033  0.250041  0.499997  1
  Ge  Ge16  1  0.126776  0.116429  0.249860  1
  Ge  Ge17  1  0.873283  0.883767  0.749970  1
  Ge  Ge18  1  0.872267  0.616311  0.249057  1
  Ge  Ge19  1  0.126939  0.383940  0.750069  1
  Ir  Ir20  1  0.357495  0.031097  0.093154  1
  Ir  Ir21  1  0.643452  0.967678  0.907071  1
  Ir  Ir22  1  0.643525  0.969048  0.593223  1
  Ir  Ir23  1  0.643385  0.530803  0.406612  1
  Ir  Ir24  1  0.356948  0.031060  0.406540  1
  Ir  Ir25  1  0.356525  0.469004  0.593051  1
  Ir  Ir26  1  0.356246  0.469870  0.906963  1
  Rh  Rh27  1  0.641104  0.529696  0.093188  1
