# generated using pymatgen
data_U2CrTcC3
_symmetry_space_group_name_H-M   'P 1'
_cell_length_a   6.17172771
_cell_length_b   6.17172735
_cell_length_c   5.35221273
_cell_angle_alpha   64.72360203
_cell_angle_beta   64.72359485
_cell_angle_gamma   28.81238919
_symmetry_Int_Tables_number   1
_chemical_formula_structural   U2CrTcC3
_chemical_formula_sum   'U2 Cr1 Tc1 C3'
_cell_volume   88.18949314
_cell_formula_units_Z   1
loop_
 _symmetry_equiv_pos_site_id
 _symmetry_equiv_pos_as_xyz
  1  'x, y, z'
loop_
 _atom_site_type_symbol
 _atom_site_label
 _atom_site_symmetry_multiplicity
 _atom_site_fract_x
 _atom_site_fract_y
 _atom_site_fract_z
 _atom_site_occupancy
  U  U0  1  0.591372  0.591372  0.231470  1
  U  U1  1  0.409467  0.409467  0.767379  1
  Cr  Cr2  1  0.161536  0.161536  0.677140  1
  Tc  Tc3  1  0.840730  0.840730  0.323921  1
  C  C4  1  0.747345  0.747345  0.761535  1
  C  C5  1  0.243803  0.243803  0.250431  1
  C  C6  1  0.005747  0.005747  0.988125  1
