# generated using pymatgen
data_PrFe(BrO3)6
_symmetry_space_group_name_H-M   'P 1'
_cell_length_a   9.56919600
_cell_length_b   9.56919478
_cell_length_c   5.90266600
_cell_angle_alpha   90.00000000
_cell_angle_beta   90.00000000
_cell_angle_gamma   119.99999730
_symmetry_Int_Tables_number   1
_chemical_formula_structural   PrFe(BrO3)6
_chemical_formula_sum   'Pr1 Fe1 Br6 O18'
_cell_volume   468.09036070
_cell_formula_units_Z   1
loop_
 _symmetry_equiv_pos_site_id
 _symmetry_equiv_pos_as_xyz
  1  'x, y, z'
loop_
 _atom_site_type_symbol
 _atom_site_label
 _atom_site_symmetry_multiplicity
 _atom_site_fract_x
 _atom_site_fract_y
 _atom_site_fract_z
 _atom_site_occupancy
  Pr  Pr0  1  0.666667  0.333333  0.694769  1
  Fe  Fe1  1  0.333333  0.666667  0.202692  1
  Br  Br2  1  0.662724  0.002005  0.352031  1
  Br  Br3  1  0.304487  0.953222  0.879927  1
  Br  Br4  1  0.046778  0.351264  0.879927  1
  Br  Br5  1  0.339281  0.337276  0.352031  1
  Br  Br6  1  0.997995  0.660719  0.352031  1
  Br  Br7  1  0.648736  0.695513  0.879927  1
  O  O8  1  0.764315  0.847102  0.045791  1
  O  O9  1  0.960037  0.767064  0.533053  1
  O  O10  1  0.807025  0.039963  0.533053  1
  O  O11  1  0.152898  0.917212  0.045791  1
  O  O12  1  0.082788  0.235685  0.045791  1
  O  O13  1  0.232936  0.192975  0.533053  1
  O  O14  1  0.706541  0.555331  0.926601  1
  O  O15  1  0.197308  0.717911  0.410186  1
  O  O16  1  0.533020  0.431968  0.455822  1
  O  O17  1  0.136538  0.543505  0.996568  1
  O  O18  1  0.406967  0.863462  0.996568  1
  O  O19  1  0.568032  0.101050  0.455822  1
  O  O20  1  0.898950  0.466980  0.455822  1
  O  O21  1  0.456495  0.593033  0.996568  1
  O  O22  1  0.282089  0.479397  0.410186  1
  O  O23  1  0.848789  0.293459  0.926601  1
  O  O24  1  0.444669  0.151211  0.926601  1
  O  O25  1  0.520603  0.802692  0.410186  1
