# generated using pymatgen
data_TbEr7SnHg3Au8
_symmetry_space_group_name_H-M   'P 1'
_cell_length_a   7.97810295
_cell_length_b   7.97817195
_cell_length_c   7.30092200
_cell_angle_alpha   90.00395939
_cell_angle_beta   89.99918426
_cell_angle_gamma   89.90149720
_symmetry_Int_Tables_number   1
_chemical_formula_structural   TbEr7SnHg3Au8
_chemical_formula_sum   'Tb1 Er7 Sn1 Hg3 Au8'
_cell_volume   464.70794165
_cell_formula_units_Z   1
loop_
 _symmetry_equiv_pos_site_id
 _symmetry_equiv_pos_as_xyz
  1  'x, y, z'
loop_
 _atom_site_type_symbol
 _atom_site_label
 _atom_site_symmetry_multiplicity
 _atom_site_fract_x
 _atom_site_fract_y
 _atom_site_fract_z
 _atom_site_occupancy
  Tb  Tb0  1  0.184699  0.185084  0.000054  1
  Er  Er1  1  0.315299  0.684562  0.500051  1
  Er  Er2  1  0.684695  0.315436  0.500096  1
  Er  Er3  1  0.815369  0.815206  0.999859  1
  Er  Er4  1  0.342200  0.658952  0.000180  1
  Er  Er5  1  0.658227  0.341406  0.000136  1
  Er  Er6  1  0.841071  0.841977  0.499839  1
  Er  Er7  1  0.158786  0.157917  0.499802  1
  Sn  Sn8  1  0.500254  0.999814  0.749801  1
  Hg  Hg9  1  0.999897  0.500093  0.749914  1
  Hg  Hg10  1  0.500056  0.999899  0.250170  1
  Hg  Hg11  1  0.999896  0.500070  0.250057  1
  Au  Au12  1  0.126614  0.871348  0.776399  1
  Au  Au13  1  0.872368  0.127817  0.224128  1
  Au  Au14  1  0.372583  0.373555  0.277361  1
  Au  Au15  1  0.628047  0.626884  0.723161  1
  Au  Au16  1  0.628064  0.627035  0.276405  1
  Au  Au17  1  0.872520  0.127839  0.776327  1
  Au  Au18  1  0.372542  0.373752  0.722179  1
  Au  Au19  1  0.126814  0.871357  0.224079  1
