# generated using pymatgen
data_TmLuHf2(NiAs)4
_symmetry_space_group_name_H-M   'P 1'
_cell_length_a   3.98066300
_cell_length_b   3.98066251
_cell_length_c   14.62821200
_cell_angle_alpha   90.00000000
_cell_angle_beta   90.00000000
_cell_angle_gamma   119.99999580
_symmetry_Int_Tables_number   1
_chemical_formula_structural   TmLuHf2(NiAs)4
_chemical_formula_sum   'Tm1 Lu1 Hf2 Ni4 As4'
_cell_volume   200.73942051
_cell_formula_units_Z   1
loop_
 _symmetry_equiv_pos_site_id
 _symmetry_equiv_pos_as_xyz
  1  'x, y, z'
loop_
 _atom_site_type_symbol
 _atom_site_label
 _atom_site_symmetry_multiplicity
 _atom_site_fract_x
 _atom_site_fract_y
 _atom_site_fract_z
 _atom_site_occupancy
  Tm  Tm0  1  0.000000  0.000000  0.500000  1
  Lu  Lu1  1  0.000000  0.000000  0.000000  1
  Hf  Hf2  1  0.000000  0.000000  0.249270  1
  Hf  Hf3  1  0.000000  0.000000  0.750730  1
  Ni  Ni4  1  0.333333  0.666667  0.153877  1
  Ni  Ni5  1  0.666667  0.333333  0.846123  1
  Ni  Ni6  1  0.666667  0.333333  0.655763  1
  Ni  Ni7  1  0.333333  0.666667  0.344237  1
  As  As8  1  0.333333  0.666667  0.620529  1
  As  As9  1  0.666667  0.333333  0.379471  1
  As  As10  1  0.666667  0.333333  0.118962  1
  As  As11  1  0.333333  0.666667  0.881038  1
