# generated using pymatgen
data_RuCl4F
_symmetry_space_group_name_H-M   'P 1'
_cell_length_a   10.12440803
_cell_length_b   10.12441923
_cell_length_c   10.12440450
_cell_angle_alpha   99.96752017
_cell_angle_beta   99.96703792
_cell_angle_gamma   130.83113685
_symmetry_Int_Tables_number   1
_chemical_formula_structural   RuCl4F
_chemical_formula_sum   'Ru4 Cl16 F4'
_cell_volume   714.04939804
_cell_formula_units_Z   4
loop_
 _symmetry_equiv_pos_site_id
 _symmetry_equiv_pos_as_xyz
  1  'x, y, z'
loop_
 _atom_site_type_symbol
 _atom_site_label
 _atom_site_symmetry_multiplicity
 _atom_site_fract_x
 _atom_site_fract_y
 _atom_site_fract_z
 _atom_site_occupancy
  Ru  Ru0  1  0.965405  0.792975  0.732093  1
  Ru  Ru1  1  0.766694  0.034598  0.827571  1
  Ru  Ru2  1  0.207028  0.939120  0.172431  1
  Ru  Ru3  1  0.060881  0.233308  0.267909  1
  Cl  Cl4  1  0.699247  0.525743  0.738467  1
  Cl  Cl5  1  0.787273  0.960780  0.261530  1
  Cl  Cl6  1  0.474262  0.212731  0.173510  1
  Cl  Cl7  1  0.039219  0.300751  0.826493  1
  Cl  Cl8  1  0.219722  0.327198  0.500075  1
  Cl  Cl9  1  0.280348  0.780277  0.107475  1
  Cl  Cl10  1  0.672802  0.172876  0.892526  1
  Cl  Cl11  1  0.827125  0.719651  0.499927  1
  Cl  Cl12  1  0.612402  0.920218  0.589680  1
  Cl  Cl13  1  0.977277  0.387598  0.307812  1
  Cl  Cl14  1  0.079782  0.669463  0.692185  1
  Cl  Cl15  1  0.330535  0.022722  0.410319  1
  Cl  Cl16  1  0.322242  0.470275  0.234297  1
  Cl  Cl17  1  0.912051  0.677755  0.148035  1
  Cl  Cl18  1  0.529722  0.764018  0.851964  1
  Cl  Cl19  1  0.235981  0.087947  0.765702  1
  F  F20  1  0.122326  0.078011  0.205854  1
  F  F21  1  0.872158  0.916472  0.794147  1
  F  F22  1  0.921985  0.127840  0.044309  1
  F  F23  1  0.083531  0.877676  0.955690  1
