# generated using pymatgen
data_Pr4NdIn4PtRh
_symmetry_space_group_name_H-M   'P 1'
_cell_length_a   3.81005900
_cell_length_b   8.33372417
_cell_length_c   18.82749617
_cell_angle_alpha   90.00365184
_cell_angle_beta   90.00000000
_cell_angle_gamma   90.00000000
_symmetry_Int_Tables_number   1
_chemical_formula_structural   Pr4NdIn4PtRh
_chemical_formula_sum   'Pr8 Nd2 In8 Pt2 Rh2'
_cell_volume   597.81029499
_cell_formula_units_Z   2
loop_
 _symmetry_equiv_pos_site_id
 _symmetry_equiv_pos_as_xyz
  1  'x, y, z'
loop_
 _atom_site_type_symbol
 _atom_site_label
 _atom_site_symmetry_multiplicity
 _atom_site_fract_x
 _atom_site_fract_y
 _atom_site_fract_z
 _atom_site_occupancy
  Pr  Pr0  1  0.000000  0.116276  0.412703  1
  Pr  Pr1  1  0.000000  0.883724  0.587297  1
  Pr  Pr2  1  0.000000  0.381035  0.914026  1
  Pr  Pr3  1  0.000000  0.618965  0.085974  1
  Pr  Pr4  1  0.000000  0.238447  0.220658  1
  Pr  Pr5  1  0.000000  0.761553  0.779342  1
  Pr  Pr6  1  0.000000  0.000000  0.000000  1
  Pr  Pr7  1  0.000000  0.500000  0.500000  1
  Nd  Nd8  1  0.000000  0.250172  0.720907  1
  Nd  Nd9  1  0.000000  0.749828  0.279093  1
  In  In10  1  0.500000  0.430883  0.349630  1
  In  In11  1  0.500000  0.569117  0.650370  1
  In  In12  1  0.500000  0.068666  0.848329  1
  In  In13  1  0.500000  0.931334  0.151671  1
  In  In14  1  0.500000  0.291552  0.069041  1
  In  In15  1  0.500000  0.708448  0.930959  1
  In  In16  1  0.500000  0.209312  0.571294  1
  In  In17  1  0.500000  0.790688  0.428706  1
  Pt  Pt18  1  0.500000  0.480824  0.801945  1
  Pt  Pt19  1  0.500000  0.519176  0.198055  1
  Rh  Rh20  1  0.500000  0.012179  0.305325  1
  Rh  Rh21  1  0.500000  0.987821  0.694675  1
