# generated using pymatgen
data_Li4Ca2LaSmSi8
_symmetry_space_group_name_H-M   'P 1'
_cell_length_a   3.85050100
_cell_length_b   7.84734858
_cell_length_c   10.59663412
_cell_angle_alpha   89.92299993
_cell_angle_beta   90.00000000
_cell_angle_gamma   90.00000000
_symmetry_Int_Tables_number   1
_chemical_formula_structural   Li4Ca2LaSmSi8
_chemical_formula_sum   'Li4 Ca2 La1 Sm1 Si8'
_cell_volume   320.18997654
_cell_formula_units_Z   1
loop_
 _symmetry_equiv_pos_site_id
 _symmetry_equiv_pos_as_xyz
  1  'x, y, z'
loop_
 _atom_site_type_symbol
 _atom_site_label
 _atom_site_symmetry_multiplicity
 _atom_site_fract_x
 _atom_site_fract_y
 _atom_site_fract_z
 _atom_site_occupancy
  Li  Li0  1  0.250000  0.997590  0.387944  1
  Li  Li1  1  0.750000  0.002731  0.609805  1
  Li  Li2  1  0.250000  0.497615  0.110273  1
  Li  Li3  1  0.750000  0.505795  0.891047  1
  Ca  Ca4  1  0.750000  0.867077  0.134299  1
  Ca  Ca5  1  0.750000  0.364407  0.365191  1
  La  La6  1  0.250000  0.633305  0.635554  1
  Sm  Sm7  1  0.250000  0.131182  0.866093  1
  Si  Si8  1  0.750000  0.268553  0.065493  1
  Si  Si9  1  0.250000  0.737437  0.933134  1
  Si  Si10  1  0.750000  0.768765  0.429252  1
  Si  Si11  1  0.250000  0.228528  0.571357  1
  Si  Si12  1  0.750000  0.838932  0.822873  1
  Si  Si13  1  0.250000  0.164477  0.172035  1
  Si  Si14  1  0.750000  0.329976  0.681442  1
  Si  Si15  1  0.250000  0.663629  0.324208  1
