# generated using pymatgen
data_Tb5Sc(CdHg2)6
_symmetry_space_group_name_H-M   'P 1'
_cell_length_a   5.08738900
_cell_length_b   7.11138900
_cell_length_c   15.44590500
_cell_angle_alpha   90.00000000
_cell_angle_beta   89.99961578
_cell_angle_gamma   90.00000000
_symmetry_Int_Tables_number   1
_chemical_formula_structural   Tb5Sc(CdHg2)6
_chemical_formula_sum   'Tb5 Sc1 Cd6 Hg12'
_cell_volume   558.80816301
_cell_formula_units_Z   1
loop_
 _symmetry_equiv_pos_site_id
 _symmetry_equiv_pos_as_xyz
  1  'x, y, z'
loop_
 _atom_site_type_symbol
 _atom_site_label
 _atom_site_symmetry_multiplicity
 _atom_site_fract_x
 _atom_site_fract_y
 _atom_site_fract_z
 _atom_site_occupancy
  Tb  Tb0  1  0.000003  0.000000  0.998774  1
  Tb  Tb1  1  0.499822  0.500000  0.165858  1
  Tb  Tb2  1  0.999847  0.000000  0.333342  1
  Tb  Tb3  1  0.499985  0.500000  0.500789  1
  Tb  Tb4  1  0.000129  0.000000  0.667882  1
  Sc  Sc5  1  0.500453  0.500000  0.833347  1
  Cd  Cd6  1  0.999978  0.500000  0.000100  1
  Cd  Cd7  1  0.499831  0.000000  0.165009  1
  Cd  Cd8  1  0.999873  0.500000  0.333309  1
  Cd  Cd9  1  0.499986  0.000000  0.501656  1
  Cd  Cd10  1  0.000101  0.500000  0.666586  1
  Cd  Cd11  1  0.500110  0.000000  0.833322  1
  Hg  Hg12  1  0.499987  0.256702  0.995218  1
  Hg  Hg13  1  0.499987  0.743297  0.995218  1
  Hg  Hg14  1  0.999824  0.248558  0.166573  1
  Hg  Hg15  1  0.999824  0.751441  0.166573  1
  Hg  Hg16  1  0.499852  0.251948  0.333327  1
  Hg  Hg17  1  0.499852  0.748052  0.333327  1
  Hg  Hg18  1  0.999981  0.248585  0.500095  1
  Hg  Hg19  1  0.999981  0.751414  0.500095  1
  Hg  Hg20  1  0.500122  0.256773  0.671471  1
  Hg  Hg21  1  0.500122  0.743227  0.671471  1
  Hg  Hg22  1  0.000175  0.258945  0.833328  1
  Hg  Hg23  1  0.000175  0.741054  0.833328  1
