# generated using pymatgen
data_Er10In8Ni3Ag
_symmetry_space_group_name_H-M   'P 1'
_cell_length_a   8.03879485
_cell_length_b   18.03662356
_cell_length_c   3.57498900
_cell_angle_alpha   90.00000000
_cell_angle_beta   90.00000000
_cell_angle_gamma   90.10914375
_symmetry_Int_Tables_number   1
_chemical_formula_structural   Er10In8Ni3Ag
_chemical_formula_sum   'Er10 In8 Ni3 Ag1'
_cell_volume   518.34642640
_cell_formula_units_Z   1
loop_
 _symmetry_equiv_pos_site_id
 _symmetry_equiv_pos_as_xyz
  1  'x, y, z'
loop_
 _atom_site_type_symbol
 _atom_site_label
 _atom_site_symmetry_multiplicity
 _atom_site_fract_x
 _atom_site_fract_y
 _atom_site_fract_z
 _atom_site_occupancy
  Er  Er0  1  0.498750  0.502443  0.000000  1
  Er  Er1  1  0.001238  0.997528  0.000000  1
  Er  Er2  1  0.769726  0.286224  0.000000  1
  Er  Er3  1  0.249782  0.721555  0.000000  1
  Er  Er4  1  0.750796  0.777028  0.000000  1
  Er  Er5  1  0.224144  0.223494  0.000000  1
  Er  Er6  1  0.625333  0.075566  0.000000  1
  Er  Er7  1  0.381596  0.909097  0.000000  1
  Er  Er8  1  0.880386  0.590134  0.000000  1
  Er  Er9  1  0.120889  0.414869  0.000000  1
  In  In10  1  0.705733  0.926535  0.500000  1
  In  In11  1  0.294912  0.066085  0.500000  1
  In  In12  1  0.797640  0.436384  0.500000  1
  In  In13  1  0.201818  0.569883  0.500000  1
  In  In14  1  0.568458  0.652110  0.500000  1
  In  In15  1  0.428385  0.351731  0.500000  1
  In  In16  1  0.922209  0.149443  0.500000  1
  In  In17  1  0.069775  0.847124  0.500000  1
  Ni  Ni18  1  0.472363  0.802226  0.500000  1
  Ni  Ni19  1  0.972949  0.696450  0.500000  1
  Ni  Ni20  1  0.031294  0.306087  0.500000  1
  Ag  Ag21  1  0.531824  0.198006  0.500000  1
