# generated using pymatgen
data_Sm3Dy2Co16(MoP4)3
_symmetry_space_group_name_H-M   'P 1'
_cell_length_a   12.13944361
_cell_length_b   12.13944352
_cell_length_c   3.72123400
_cell_angle_alpha   90.00000000
_cell_angle_beta   90.00000000
_cell_angle_gamma   119.90012876
_symmetry_Int_Tables_number   1
_chemical_formula_structural   Sm3Dy2Co16(MoP4)3
_chemical_formula_sum   'Sm3 Dy2 Co16 Mo3 P12'
_cell_volume   475.39143635
_cell_formula_units_Z   1
loop_
 _symmetry_equiv_pos_site_id
 _symmetry_equiv_pos_as_xyz
  1  'x, y, z'
loop_
 _atom_site_type_symbol
 _atom_site_label
 _atom_site_symmetry_multiplicity
 _atom_site_fract_x
 _atom_site_fract_y
 _atom_site_fract_z
 _atom_site_occupancy
  Sm  Sm0  1  0.666401  0.333517  0.000000  1
  Sm  Sm1  1  0.333517  0.666401  0.000000  1
  Sm  Sm2  1  0.185258  0.185258  0.500000  1
  Dy  Dy3  1  0.814139  0.999682  0.500000  1
  Dy  Dy4  1  0.999682  0.814139  0.500000  1
  Co  Co5  1  0.822701  0.197473  0.000000  1
  Co  Co6  1  0.802811  0.626143  0.000000  1
  Co  Co7  1  0.375318  0.176197  0.000000  1
  Co  Co8  1  0.197473  0.822701  0.000000  1
  Co  Co9  1  0.626143  0.802811  0.000000  1
  Co  Co10  1  0.176197  0.375318  0.000000  1
  Co  Co11  1  0.644611  0.125704  0.500000  1
  Co  Co12  1  0.874379  0.519407  0.500000  1
  Co  Co13  1  0.481658  0.355915  0.500000  1
  Co  Co14  1  0.125704  0.644611  0.500000  1
  Co  Co15  1  0.519407  0.874379  0.500000  1
  Co  Co16  1  0.355915  0.481658  0.500000  1
  Co  Co17  1  0.720433  0.720433  0.500000  1
  Co  Co18  1  0.280029  0.998868  0.500000  1
  Co  Co19  1  0.998868  0.280029  0.500000  1
  Co  Co20  1  0.998985  0.998985  0.000000  1
  Mo  Mo21  1  0.555120  0.555120  0.000000  1
  Mo  Mo22  1  0.445908  0.999443  0.000000  1
  Mo  Mo23  1  0.999443  0.445908  0.000000  1
  P  P24  1  0.363264  0.363264  0.000000  1
  P  P25  1  0.638715  0.000082  0.000000  1
  P  P26  1  0.000082  0.638715  0.000000  1
  P  P27  1  0.835579  0.313604  0.500000  1
  P  P28  1  0.687075  0.523149  0.500000  1
  P  P29  1  0.477096  0.163754  0.500000  1
  P  P30  1  0.313604  0.835579  0.500000  1
  P  P31  1  0.523149  0.687075  0.500000  1
  P  P32  1  0.163754  0.477096  0.500000  1
  P  P33  1  0.821581  0.821581  0.000000  1
  P  P34  1  0.178020  0.997979  0.000000  1
  P  P35  1  0.997979  0.178020  0.000000  1
