# generated using pymatgen
data_SmTh3Al15(GaIr2)3
_symmetry_space_group_name_H-M   'P 1'
_cell_length_a   7.64166253
_cell_length_b   7.64753567
_cell_length_c   9.56778100
_cell_angle_alpha   90.00000000
_cell_angle_beta   90.00000000
_cell_angle_gamma   119.51299229
_symmetry_Int_Tables_number   1
_chemical_formula_structural   SmTh3Al15(GaIr2)3
_chemical_formula_sum   'Sm1 Th3 Al15 Ga3 Ir6'
_cell_volume   486.58827004
_cell_formula_units_Z   1
loop_
 _symmetry_equiv_pos_site_id
 _symmetry_equiv_pos_as_xyz
  1  'x, y, z'
loop_
 _atom_site_type_symbol
 _atom_site_label
 _atom_site_symmetry_multiplicity
 _atom_site_fract_x
 _atom_site_fract_y
 _atom_site_fract_z
 _atom_site_occupancy
  Sm  Sm0  1  0.328725  0.004516  0.750000  1
  Th  Th1  1  0.994406  0.670588  0.250000  1
  Th  Th2  1  0.001914  0.329035  0.750000  1
  Th  Th3  1  0.670036  0.993849  0.250000  1
  Al  Al4  1  0.868905  0.868729  0.750000  1
  Al  Al5  1  0.006134  0.335425  0.073588  1
  Al  Al6  1  0.999228  0.668135  0.923949  1
  Al  Al7  1  0.999228  0.668135  0.576051  1
  Al  Al8  1  0.335032  0.004610  0.431486  1
  Al  Al9  1  0.006134  0.335425  0.426412  1
  Al  Al10  1  0.660653  0.995608  0.575925  1
  Al  Al11  1  0.660653  0.995608  0.924075  1
  Al  Al12  1  0.335032  0.004610  0.068514  1
  Al  Al13  1  0.335913  0.333708  0.557655  1
  Al  Al14  1  0.663544  0.663451  0.458126  1
  Al  Al15  1  0.663544  0.663451  0.041874  1
  Al  Al16  1  0.335913  0.333708  0.942345  1
  Al  Al17  1  0.658798  0.452156  0.750000  1
  Al  Al18  1  0.452919  0.662227  0.750000  1
  Ga  Ga19  1  0.136427  0.133130  0.250000  1
  Ga  Ga20  1  0.344310  0.544500  0.250000  1
  Ga  Ga21  1  0.544739  0.340290  0.250000  1
  Ir  Ir22  1  0.673883  0.328926  0.998172  1
  Ir  Ir23  1  0.326986  0.670231  0.998599  1
  Ir  Ir24  1  0.326986  0.670231  0.501401  1
  Ir  Ir25  1  0.673883  0.328926  0.501828  1
  Ir  Ir26  1  0.998039  0.000398  0.998228  1
  Ir  Ir27  1  0.998039  0.000398  0.501772  1
