# generated using pymatgen
data_Tb5Pr5(Si2Pb)2
_symmetry_space_group_name_H-M   'P 1'
_cell_length_a   7.79112684
_cell_length_b   7.79112757
_cell_length_c   9.22638836
_cell_angle_alpha   114.69483158
_cell_angle_beta   114.69483094
_cell_angle_gamma   90.71387325
_symmetry_Int_Tables_number   1
_chemical_formula_structural   Tb5Pr5(Si2Pb)2
_chemical_formula_sum   'Tb5 Pr5 Si4 Pb2'
_cell_volume   450.28265859
_cell_formula_units_Z   1
loop_
 _symmetry_equiv_pos_site_id
 _symmetry_equiv_pos_as_xyz
  1  'x, y, z'
loop_
 _atom_site_type_symbol
 _atom_site_label
 _atom_site_symmetry_multiplicity
 _atom_site_fract_x
 _atom_site_fract_y
 _atom_site_fract_z
 _atom_site_occupancy
  Tb  Tb0  1  0.502328  0.504161  0.006681  1
  Tb  Tb1  1  0.004161  0.002328  0.006681  1
  Tb  Tb2  1  0.963993  0.805373  0.269409  1
  Tb  Tb3  1  0.305373  0.463993  0.269409  1
  Tb  Tb4  1  0.808245  0.308245  0.267835  1
  Pr  Pr5  1  0.465289  0.965289  0.279352  1
  Pr  Pr6  1  0.033064  0.190405  0.724192  1
  Pr  Pr7  1  0.690405  0.533064  0.724192  1
  Pr  Pr8  1  0.191521  0.691521  0.726406  1
  Pr  Pr9  1  0.534332  0.034332  0.724542  1
  Si  Si10  1  0.631081  0.880893  0.007557  1
  Si  Si11  1  0.380893  0.131081  0.007557  1
  Si  Si12  1  0.881259  0.381259  0.008450  1
  Si  Si13  1  0.123840  0.623840  0.005986  1
  Pb  Pb14  1  0.746839  0.737377  0.485876  1
  Pb  Pb15  1  0.237377  0.246839  0.485876  1
