# generated using pymatgen
data_RbCr6S7
_symmetry_space_group_name_H-M   'P 1'
_cell_length_a   9.09458184
_cell_length_b   9.09458199
_cell_length_c   9.09458273
_cell_angle_alpha   59.02880349
_cell_angle_beta   59.02880389
_cell_angle_gamma   59.02880580
_symmetry_Int_Tables_number   1
_chemical_formula_structural   RbCr6S7
_chemical_formula_sum   'Rb2 Cr12 S14'
_cell_volume   520.12248880
_cell_formula_units_Z   2
loop_
 _symmetry_equiv_pos_site_id
 _symmetry_equiv_pos_as_xyz
  1  'x, y, z'
loop_
 _atom_site_type_symbol
 _atom_site_label
 _atom_site_symmetry_multiplicity
 _atom_site_fract_x
 _atom_site_fract_y
 _atom_site_fract_z
 _atom_site_occupancy
  Rb  Rb0  1  0.130347  0.130347  0.130347  1
  Rb  Rb1  1  0.869653  0.869653  0.869653  1
  Cr  Cr2  1  0.621333  0.303409  0.440247  1
  Cr  Cr3  1  0.303409  0.440247  0.621333  1
  Cr  Cr4  1  0.440247  0.621333  0.303409  1
  Cr  Cr5  1  0.378667  0.696591  0.559753  1
  Cr  Cr6  1  0.696591  0.559753  0.378667  1
  Cr  Cr7  1  0.559753  0.378667  0.696591  1
  Cr  Cr8  1  0.378798  0.188580  0.511905  1
  Cr  Cr9  1  0.188580  0.511905  0.378798  1
  Cr  Cr10  1  0.511905  0.378798  0.188580  1
  Cr  Cr11  1  0.621202  0.811420  0.488095  1
  Cr  Cr12  1  0.811420  0.488095  0.621202  1
  Cr  Cr13  1  0.488095  0.621202  0.811420  1
  S  S14  1  0.660882  0.318591  0.912390  1
  S  S15  1  0.087610  0.339118  0.681409  1
  S  S16  1  0.282500  0.282500  0.282500  1
  S  S17  1  0.717500  0.717500  0.717500  1
  S  S18  1  0.857308  0.263681  0.517245  1
  S  S19  1  0.263681  0.517245  0.857308  1
  S  S20  1  0.517245  0.857308  0.263681  1
  S  S21  1  0.142692  0.736319  0.482755  1
  S  S22  1  0.736319  0.482755  0.142692  1
  S  S23  1  0.482755  0.142692  0.736319  1
  S  S24  1  0.339118  0.681409  0.087610  1
  S  S25  1  0.681409  0.087610  0.339118  1
  S  S26  1  0.912390  0.660882  0.318591  1
  S  S27  1  0.318591  0.912390  0.660882  1
