# generated using pymatgen
data_Ho3Ag2Hg3Pt
_symmetry_space_group_name_H-M   'P 1'
_cell_length_a   7.96076800
_cell_length_b   7.96076772
_cell_length_c   3.69934100
_cell_angle_alpha   90.00000000
_cell_angle_beta   90.00000000
_cell_angle_gamma   120.00000116
_symmetry_Int_Tables_number   1
_chemical_formula_structural   Ho3Ag2Hg3Pt
_chemical_formula_sum   'Ho3 Ag2 Hg3 Pt1'
_cell_volume   203.03219612
_cell_formula_units_Z   1
loop_
 _symmetry_equiv_pos_site_id
 _symmetry_equiv_pos_as_xyz
  1  'x, y, z'
loop_
 _atom_site_type_symbol
 _atom_site_label
 _atom_site_symmetry_multiplicity
 _atom_site_fract_x
 _atom_site_fract_y
 _atom_site_fract_z
 _atom_site_occupancy
  Ho  Ho0  1  0.616610  0.031813  0.500000  1
  Ho  Ho1  1  0.415202  0.383390  0.500000  1
  Ho  Ho2  1  0.968187  0.584798  0.500000  1
  Ag  Ag3  1  0.333333  0.666667  0.000000  1
  Ag  Ag4  1  0.000000  0.000000  0.500000  1
  Hg  Hg5  1  0.717038  0.730987  0.000000  1
  Hg  Hg6  1  0.013948  0.282962  0.000000  1
  Hg  Hg7  1  0.269013  0.986052  0.000000  1
  Pt  Pt8  1  0.666667  0.333333  0.000000  1
