# generated using pymatgen
data_Ce2Er14Cd4Fe3Ru
_symmetry_space_group_name_H-M   'P 1'
_cell_length_a   9.54908000
_cell_length_b   9.48506451
_cell_length_c   9.48506463
_cell_angle_alpha   59.14416170
_cell_angle_beta   59.84982777
_cell_angle_gamma   59.84982336
_symmetry_Int_Tables_number   1
_chemical_formula_structural   Ce2Er14Cd4Fe3Ru
_chemical_formula_sum   'Ce2 Er14 Cd4 Fe3 Ru1'
_cell_volume   602.09113087
_cell_formula_units_Z   1
loop_
 _symmetry_equiv_pos_site_id
 _symmetry_equiv_pos_as_xyz
  1  'x, y, z'
loop_
 _atom_site_type_symbol
 _atom_site_label
 _atom_site_symmetry_multiplicity
 _atom_site_fract_x
 _atom_site_fract_y
 _atom_site_fract_z
 _atom_site_occupancy
  Ce  Ce0  1  0.995977  0.348818  0.348818  1
  Ce  Ce1  1  0.364490  0.328566  0.328566  1
  Er  Er2  1  0.573492  0.559710  0.933762  1
  Er  Er3  1  0.940545  0.562704  0.944481  1
  Er  Er4  1  0.547880  0.938932  0.938932  1
  Er  Er5  1  0.940545  0.944481  0.562704  1
  Er  Er6  1  0.573492  0.933762  0.559710  1
  Er  Er7  1  0.942258  0.564880  0.564880  1
  Er  Er8  1  0.187261  0.186039  0.803015  1
  Er  Er9  1  0.801641  0.191117  0.818768  1
  Er  Er10  1  0.183503  0.814257  0.814256  1
  Er  Er11  1  0.801641  0.818769  0.191117  1
  Er  Er12  1  0.187260  0.803015  0.186038  1
  Er  Er13  1  0.820946  0.188104  0.188104  1
  Er  Er14  1  0.349998  0.350933  0.952777  1
  Er  Er15  1  0.349998  0.952777  0.350933  1
  Cd  Cd16  1  0.584758  0.578023  0.258669  1
  Cd  Cd17  1  0.584758  0.258669  0.578023  1
  Cd  Cd18  1  0.259255  0.577739  0.577739  1
  Cd  Cd19  1  0.579106  0.581509  0.581509  1
  Fe  Fe20  1  0.104612  0.157804  0.563147  1
  Fe  Fe21  1  0.104612  0.563147  0.157804  1
  Fe  Fe22  1  0.557209  0.171151  0.171151  1
  Ru  Ru23  1  0.164762  0.125091  0.125091  1
