# generated using pymatgen
data_TbNd4Sm5B2Br15
_symmetry_space_group_name_H-M   'P 1'
_cell_length_a   9.33967154
_cell_length_b   10.09399180
_cell_length_c   10.95147826
_cell_angle_alpha   91.31299276
_cell_angle_beta   114.37130975
_cell_angle_gamma   110.80073820
_symmetry_Int_Tables_number   1
_chemical_formula_structural   TbNd4Sm5B2Br15
_chemical_formula_sum   'Tb1 Nd4 Sm5 B2 Br15'
_cell_volume   861.56427447
_cell_formula_units_Z   1
loop_
 _symmetry_equiv_pos_site_id
 _symmetry_equiv_pos_as_xyz
  1  'x, y, z'
loop_
 _atom_site_type_symbol
 _atom_site_label
 _atom_site_symmetry_multiplicity
 _atom_site_fract_x
 _atom_site_fract_y
 _atom_site_fract_z
 _atom_site_occupancy
  Tb  Tb0  1  0.282319  0.926702  0.953070  1
  Nd  Nd1  1  0.801017  0.410356  0.277023  1
  Nd  Nd2  1  0.197513  0.589316  0.722072  1
  Nd  Nd3  1  0.673651  0.745902  0.818959  1
  Nd  Nd4  1  0.325425  0.253572  0.181159  1
  Sm  Sm5  1  0.524962  0.705077  0.094758  1
  Sm  Sm6  1  0.474414  0.294674  0.905030  1
  Sm  Sm7  1  0.584805  0.038217  0.322586  1
  Sm  Sm8  1  0.413383  0.960965  0.676766  1
  Sm  Sm9  1  0.724059  0.074846  0.048065  1
  B  B10  1  0.465919  0.821057  0.877609  1
  B  B11  1  0.531138  0.177694  0.121419  1
  Br  Br12  1  0.002631  0.998763  0.999054  1
  Br  Br13  1  0.634368  0.885102  0.581388  1
  Br  Br14  1  0.364479  0.114252  0.418334  1
  Br  Br15  1  0.880526  0.294637  0.528090  1
  Br  Br16  1  0.118491  0.704897  0.471265  1
  Br  Br17  1  0.287931  0.764652  0.174309  1
  Br  Br18  1  0.709008  0.237050  0.821115  1
  Br  Br19  1  0.053641  0.341285  0.224928  1
  Br  Br20  1  0.165275  0.054096  0.708678  1
  Br  Br21  1  0.833962  0.942519  0.295347  1
  Br  Br22  1  0.233858  0.410684  0.944693  1
  Br  Br23  1  0.765194  0.588886  0.054983  1
  Br  Br24  1  0.407747  0.458806  0.659638  1
  Br  Br25  1  0.591435  0.540901  0.340306  1
  Br  Br26  1  0.952849  0.665093  0.779354  1
