# generated using pymatgen
data_ScCrFe2Co2P3
_symmetry_space_group_name_H-M   'P 1'
_cell_length_a   3.58029700
_cell_length_b   10.18937500
_cell_length_c   11.71499100
_cell_angle_alpha   90.00000000
_cell_angle_beta   90.00000000
_cell_angle_gamma   90.00000000
_symmetry_Int_Tables_number   1
_chemical_formula_structural   ScCrFe2Co2P3
_chemical_formula_sum   'Sc4 Cr4 Fe8 Co8 P12'
_cell_volume   427.37445481
_cell_formula_units_Z   4
loop_
 _symmetry_equiv_pos_site_id
 _symmetry_equiv_pos_as_xyz
  1  'x, y, z'
loop_
 _atom_site_type_symbol
 _atom_site_label
 _atom_site_symmetry_multiplicity
 _atom_site_fract_x
 _atom_site_fract_y
 _atom_site_fract_z
 _atom_site_occupancy
  Sc  Sc0  1  0.250000  0.582071  0.704631  1
  Sc  Sc1  1  0.250000  0.917929  0.204631  1
  Sc  Sc2  1  0.750000  0.417929  0.295369  1
  Sc  Sc3  1  0.750000  0.082071  0.795369  1
  Cr  Cr4  1  0.250000  0.706338  0.989733  1
  Cr  Cr5  1  0.250000  0.793662  0.489733  1
  Cr  Cr6  1  0.750000  0.293662  0.010267  1
  Cr  Cr7  1  0.750000  0.206338  0.510267  1
  Fe  Fe8  1  0.250000  0.406346  0.488437  1
  Fe  Fe9  1  0.250000  0.093654  0.988437  1
  Fe  Fe10  1  0.750000  0.593654  0.511563  1
  Fe  Fe11  1  0.750000  0.906346  0.011563  1
  Fe  Fe12  1  0.250000  0.219450  0.175979  1
  Fe  Fe13  1  0.250000  0.280551  0.675979  1
  Fe  Fe14  1  0.750000  0.780551  0.824021  1
  Fe  Fe15  1  0.750000  0.719449  0.324021  1
  Co  Co16  1  0.250000  0.884513  0.699237  1
  Co  Co17  1  0.250000  0.615487  0.199237  1
  Co  Co18  1  0.750000  0.115487  0.300763  1
  Co  Co19  1  0.750000  0.384513  0.800763  1
  Co  Co20  1  0.250000  0.465130  0.933152  1
  Co  Co21  1  0.250000  0.034870  0.433152  1
  Co  Co22  1  0.750000  0.534870  0.066848  1
  Co  Co23  1  0.750000  0.965130  0.566848  1
  P  P24  1  0.250000  0.418014  0.117141  1
  P  P25  1  0.250000  0.081986  0.617141  1
  P  P26  1  0.750000  0.581986  0.882859  1
  P  P27  1  0.750000  0.918014  0.382859  1
  P  P28  1  0.250000  0.263450  0.865826  1
  P  P29  1  0.250000  0.236550  0.365826  1
  P  P30  1  0.750000  0.736550  0.134174  1
  P  P31  1  0.750000  0.763450  0.634174  1
  P  P32  1  0.250000  0.595967  0.389043  1
  P  P33  1  0.250000  0.904033  0.889043  1
  P  P34  1  0.750000  0.404033  0.610957  1
  P  P35  1  0.750000  0.095967  0.110957  1
