# generated using pymatgen
data_LiHf5ZrZn22Si
_symmetry_space_group_name_H-M   'P 1'
_cell_length_a   8.74443271
_cell_length_b   8.74443277
_cell_length_c   8.72791400
_cell_angle_alpha   60.06247756
_cell_angle_beta   60.06247732
_cell_angle_gamma   59.87505844
_symmetry_Int_Tables_number   1
_chemical_formula_structural   LiHf5ZrZn22Si
_chemical_formula_sum   'Li1 Hf5 Zr1 Zn22 Si1'
_cell_volume   471.90621094
_cell_formula_units_Z   1
loop_
 _symmetry_equiv_pos_site_id
 _symmetry_equiv_pos_as_xyz
  1  'x, y, z'
loop_
 _atom_site_type_symbol
 _atom_site_label
 _atom_site_symmetry_multiplicity
 _atom_site_fract_x
 _atom_site_fract_y
 _atom_site_fract_z
 _atom_site_occupancy
  Li  Li0  1  0.999768  0.999768  0.000232  1
  Hf  Hf1  1  0.710064  0.289606  0.289936  1
  Hf  Hf2  1  0.289606  0.710064  0.710394  1
  Hf  Hf3  1  0.289606  0.710064  0.289936  1
  Hf  Hf4  1  0.710064  0.289606  0.710394  1
  Hf  Hf5  1  0.289744  0.289744  0.710256  1
  Zr  Zr6  1  0.710206  0.710206  0.289794  1
  Zn  Zn7  1  0.121283  0.121283  0.120773  1
  Zn  Zn8  1  0.879159  0.879159  0.877508  1
  Zn  Zn9  1  0.121283  0.121283  0.636662  1
  Zn  Zn10  1  0.122492  0.635829  0.120841  1
  Zn  Zn11  1  0.879159  0.879159  0.364171  1
  Zn  Zn12  1  0.879227  0.363338  0.878717  1
  Zn  Zn13  1  0.635829  0.122492  0.120841  1
  Zn  Zn14  1  0.363338  0.879227  0.878717  1
  Zn  Zn15  1  0.499522  0.000191  0.999809  1
  Zn  Zn16  1  0.000191  0.499522  0.500478  1
  Zn  Zn17  1  0.000191  0.499522  0.999809  1
  Zn  Zn18  1  0.499522  0.000191  0.500478  1
  Zn  Zn19  1  0.999901  0.999901  0.500099  1
  Zn  Zn20  1  0.499901  0.499901  0.000099  1
  Zn  Zn21  1  0.336129  0.336129  0.336028  1
  Zn  Zn22  1  0.663995  0.663995  0.664894  1
  Zn  Zn23  1  0.336129  0.336129  0.991715  1
  Zn  Zn24  1  0.335106  0.992886  0.336005  1
  Zn  Zn25  1  0.663995  0.663995  0.007114  1
  Zn  Zn26  1  0.663972  0.008285  0.663871  1
  Zn  Zn27  1  0.992886  0.335106  0.336005  1
  Zn  Zn28  1  0.008285  0.663972  0.663871  1
  Si  Si29  1  0.499448  0.499448  0.500552  1
