# generated using pymatgen
data_Gd3Ho2Sn3S
_symmetry_space_group_name_H-M   'P 1'
_cell_length_a   9.07388800
_cell_length_b   9.07388792
_cell_length_c   6.65380300
_cell_angle_alpha   90.00000000
_cell_angle_beta   90.00000000
_cell_angle_gamma   119.99999301
_symmetry_Int_Tables_number   1
_chemical_formula_structural   Gd3Ho2Sn3S
_chemical_formula_sum   'Gd6 Ho4 Sn6 S2'
_cell_volume   474.44669493
_cell_formula_units_Z   2
loop_
 _symmetry_equiv_pos_site_id
 _symmetry_equiv_pos_as_xyz
  1  'x, y, z'
loop_
 _atom_site_type_symbol
 _atom_site_label
 _atom_site_symmetry_multiplicity
 _atom_site_fract_x
 _atom_site_fract_y
 _atom_site_fract_z
 _atom_site_occupancy
  Gd  Gd0  1  0.753864  0.753864  0.750000  1
  Gd  Gd1  1  0.246136  0.000000  0.750000  1
  Gd  Gd2  1  0.000000  0.246136  0.750000  1
  Gd  Gd3  1  0.246136  0.246136  0.250000  1
  Gd  Gd4  1  0.753864  0.000000  0.250000  1
  Gd  Gd5  1  0.000000  0.753864  0.250000  1
  Ho  Ho6  1  0.666667  0.333333  0.000000  1
  Ho  Ho7  1  0.333333  0.666667  0.000000  1
  Ho  Ho8  1  0.333333  0.666667  0.500000  1
  Ho  Ho9  1  0.666667  0.333333  0.500000  1
  Sn  Sn10  1  0.398332  0.398332  0.750000  1
  Sn  Sn11  1  0.601668  0.000000  0.750000  1
  Sn  Sn12  1  0.000000  0.601668  0.750000  1
  Sn  Sn13  1  0.601668  0.601668  0.250000  1
  Sn  Sn14  1  0.398332  0.000000  0.250000  1
  Sn  Sn15  1  0.000000  0.398332  0.250000  1
  S  S16  1  0.000000  0.000000  0.000000  1
  S  S17  1  0.000000  0.000000  0.500000  1
