# generated using pymatgen
data_TlAgBi2(Ir2O7)2
_symmetry_space_group_name_H-M   'P 1'
_cell_length_a   7.33517596
_cell_length_b   7.22247315
_cell_length_c   7.33517618
_cell_angle_alpha   60.10482180
_cell_angle_beta   60.59562513
_cell_angle_gamma   60.10482262
_symmetry_Int_Tables_number   1
_chemical_formula_structural   TlAgBi2(Ir2O7)2
_chemical_formula_sum   'Tl1 Ag1 Bi2 Ir4 O14'
_cell_volume   276.44034580
_cell_formula_units_Z   1
loop_
 _symmetry_equiv_pos_site_id
 _symmetry_equiv_pos_as_xyz
  1  'x, y, z'
loop_
 _atom_site_type_symbol
 _atom_site_label
 _atom_site_symmetry_multiplicity
 _atom_site_fract_x
 _atom_site_fract_y
 _atom_site_fract_z
 _atom_site_occupancy
  Tl  Tl0  1  0.125000  0.125000  0.125000  1
  Ag  Ag1  1  0.125000  0.625000  0.125000  1
  Bi  Bi2  1  0.625000  0.125000  0.125000  1
  Bi  Bi3  1  0.125000  0.125000  0.625000  1
  Ir  Ir4  1  0.125000  0.625000  0.625000  1
  Ir  Ir5  1  0.625000  0.125000  0.625000  1
  Ir  Ir6  1  0.625000  0.625000  0.125000  1
  Ir  Ir7  1  0.625000  0.625000  0.625000  1
  O  O8  1  0.691018  0.707905  0.301191  1
  O  O9  1  0.295566  0.291432  0.705956  1
  O  O10  1  0.706788  0.291714  0.706788  1
  O  O11  1  0.303270  0.707124  0.303270  1
  O  O12  1  0.301191  0.707905  0.691018  1
  O  O13  1  0.705956  0.291432  0.295566  1
  O  O14  1  0.558982  0.542095  0.948809  1
  O  O15  1  0.954434  0.958568  0.544044  1
  O  O16  1  0.543212  0.958286  0.543212  1
  O  O17  1  0.946730  0.542876  0.946730  1
  O  O18  1  0.948809  0.542095  0.558982  1
  O  O19  1  0.544044  0.958568  0.954434  1
  O  O20  1  0.246647  0.270098  0.246647  1
  O  O21  1  0.003353  0.979902  0.003353  1
