# generated using pymatgen
data_Hf6Al13Fe7Mo3
_symmetry_space_group_name_H-M   'P 1'
_cell_length_a   8.50385537
_cell_length_b   8.50385442
_cell_length_c   8.50385600
_cell_angle_alpha   59.65778467
_cell_angle_beta   59.65778840
_cell_angle_gamma   59.65777385
_symmetry_Int_Tables_number   1
_chemical_formula_structural   Hf6Al13Fe7Mo3
_chemical_formula_sum   'Hf6 Al13 Fe7 Mo3'
_cell_volume   431.46199444
_cell_formula_units_Z   1
loop_
 _symmetry_equiv_pos_site_id
 _symmetry_equiv_pos_as_xyz
  1  'x, y, z'
loop_
 _atom_site_type_symbol
 _atom_site_label
 _atom_site_symmetry_multiplicity
 _atom_site_fract_x
 _atom_site_fract_y
 _atom_site_fract_z
 _atom_site_occupancy
  Hf  Hf0  1  0.697188  0.697188  0.300477  1
  Hf  Hf1  1  0.302043  0.698436  0.302043  1
  Hf  Hf2  1  0.698436  0.302043  0.302043  1
  Hf  Hf3  1  0.302043  0.302043  0.698436  1
  Hf  Hf4  1  0.697188  0.300477  0.697188  1
  Hf  Hf5  1  0.300477  0.697188  0.697188  1
  Al  Al6  1  0.881439  0.881439  0.881439  1
  Al  Al7  1  0.117780  0.117780  0.642654  1
  Al  Al8  1  0.117780  0.642654  0.117780  1
  Al  Al9  1  0.642654  0.117780  0.117780  1
  Al  Al10  1  0.121013  0.121013  0.121013  1
  Al  Al11  1  0.666152  0.666152  0.005188  1
  Al  Al12  1  0.666152  0.005188  0.666152  1
  Al  Al13  1  0.005188  0.666152  0.666152  1
  Al  Al14  1  0.662555  0.662555  0.662555  1
  Al  Al15  1  0.334951  0.334951  0.997106  1
  Al  Al16  1  0.334951  0.997106  0.334951  1
  Al  Al17  1  0.997106  0.334951  0.334951  1
  Al  Al18  1  0.334630  0.334630  0.334630  1
  Fe  Fe19  1  0.004963  0.004963  0.004963  1
  Fe  Fe20  1  0.998028  0.998028  0.495441  1
  Fe  Fe21  1  0.503832  0.997544  0.503832  1
  Fe  Fe22  1  0.997544  0.503832  0.503832  1
  Fe  Fe23  1  0.503832  0.503832  0.997544  1
  Fe  Fe24  1  0.998028  0.495441  0.998028  1
  Fe  Fe25  1  0.495441  0.998028  0.998028  1
  Mo  Mo26  1  0.880341  0.880341  0.357923  1
  Mo  Mo27  1  0.880341  0.357923  0.880341  1
  Mo  Mo28  1  0.357923  0.880341  0.880341  1
