# generated using pymatgen
data_Tm8CrSi16W11
_symmetry_space_group_name_H-M   'P 1'
_cell_length_a   6.71390051
_cell_length_b   6.88086117
_cell_length_c   12.81023664
_cell_angle_alpha   89.98910638
_cell_angle_beta   89.97901416
_cell_angle_gamma   90.09043898
_symmetry_Int_Tables_number   1
_chemical_formula_structural   Tm8CrSi16W11
_chemical_formula_sum   'Tm8 Cr1 Si16 W11'
_cell_volume   591.79906101
_cell_formula_units_Z   1
loop_
 _symmetry_equiv_pos_site_id
 _symmetry_equiv_pos_as_xyz
  1  'x, y, z'
loop_
 _atom_site_type_symbol
 _atom_site_label
 _atom_site_symmetry_multiplicity
 _atom_site_fract_x
 _atom_site_fract_y
 _atom_site_fract_z
 _atom_site_occupancy
  Tm  Tm0  1  0.995877  0.167980  0.092964  1
  Tm  Tm1  1  0.004353  0.830999  0.907935  1
  Tm  Tm2  1  0.505778  0.667930  0.907325  1
  Tm  Tm3  1  0.004284  0.831791  0.592771  1
  Tm  Tm4  1  0.496920  0.330080  0.093069  1
  Tm  Tm5  1  0.996967  0.168356  0.405532  1
  Tm  Tm6  1  0.495059  0.333255  0.405280  1
  Tm  Tm7  1  0.504241  0.668213  0.593135  1
  Cr  Cr8  1  0.168496  0.657569  0.125268  1
  Si  Si9  1  0.033763  0.127294  0.750368  1
  Si  Si10  1  0.969609  0.868907  0.245773  1
  Si  Si11  1  0.460351  0.630717  0.246475  1
  Si  Si12  1  0.533760  0.371456  0.750880  1
  Si  Si13  1  0.301557  0.863909  0.750542  1
  Si  Si14  1  0.698855  0.135653  0.250306  1
  Si  Si15  1  0.197757  0.369409  0.247310  1
  Si  Si16  1  0.801586  0.636683  0.750378  1
  Si  Si17  1  0.162359  0.458642  0.545736  1
  Si  Si18  1  0.836080  0.541658  0.453930  1
  Si  Si19  1  0.338742  0.959137  0.453404  1
  Si  Si20  1  0.842591  0.543756  0.048319  1
  Si  Si21  1  0.662785  0.041716  0.545910  1
  Si  Si22  1  0.163874  0.461046  0.957382  1
  Si  Si23  1  0.661482  0.041482  0.953794  1
  Si  Si24  1  0.334508  0.949587  0.049300  1
  W  W25  1  0.164242  0.499524  0.750798  1
  W  W26  1  0.834849  0.501386  0.249897  1
  W  W27  1  0.333561  0.000765  0.249638  1
  W  W28  1  0.665936  0.998538  0.750374  1
  W  W29  1  0.330641  0.163170  0.625246  1
  W  W30  1  0.670671  0.836778  0.374488  1
  W  W31  1  0.167669  0.664645  0.373458  1
  W  W32  1  0.670901  0.838599  0.125551  1
  W  W33  1  0.829953  0.338020  0.625419  1
  W  W34  1  0.328213  0.162691  0.876326  1
  W  W35  1  0.831728  0.338658  0.875722  1
