# generated using pymatgen
data_In3Sb13Te3
_symmetry_space_group_name_H-M   'P 1'
_cell_length_a   4.37817286
_cell_length_b   4.37569326
_cell_length_c   36.66461378
_cell_angle_alpha   86.36312739
_cell_angle_beta   93.60945038
_cell_angle_gamma   119.44487052
_symmetry_Int_Tables_number   1
_chemical_formula_structural   In3Sb13Te3
_chemical_formula_sum   'In3 Sb13 Te3'
_cell_volume   610.03379676
_cell_formula_units_Z   1
loop_
 _symmetry_equiv_pos_site_id
 _symmetry_equiv_pos_as_xyz
  1  'x, y, z'
loop_
 _atom_site_type_symbol
 _atom_site_label
 _atom_site_symmetry_multiplicity
 _atom_site_fract_x
 _atom_site_fract_y
 _atom_site_fract_z
 _atom_site_occupancy
  In  In0  1  0.681792  0.315974  0.052376  1
  In  In1  1  0.053036  0.947667  0.155821  1
  In  In2  1  0.739680  0.265954  0.209902  1
  Sb  Sb3  1  0.424986  0.577126  0.269070  1
  Sb  Sb4  1  0.102651  0.897446  0.311180  1
  Sb  Sb5  1  0.792155  0.209172  0.373787  1
  Sb  Sb6  1  0.470520  0.529304  0.415172  1
  Sb  Sb7  1  0.159562  0.840093  0.478529  1
  Sb  Sb8  1  0.838099  0.160071  0.519667  1
  Sb  Sb9  1  0.527655  0.471836  0.583151  1
  Sb  Sb10  1  0.206451  0.791650  0.624258  1
  Sb  Sb11  1  0.895917  0.104051  0.688037  1
  Sb  Sb12  1  0.575419  0.423347  0.729123  1
  Sb  Sb13  1  0.264495  0.735484  0.792975  1
  Sb  Sb14  1  0.944161  0.054646  0.834449  1
  Sb  Sb15  1  0.315272  0.684184  0.948063  1
  Te  Te16  1  0.000056  0.998275  0.001043  1
  Te  Te17  1  0.372999  0.628452  0.111343  1
  Te  Te18  1  0.635081  0.365264  0.902055  1
