# generated using pymatgen
data_Hf8Mo3Ir4Pd
_symmetry_space_group_name_H-M   'P 1'
_cell_length_a   6.58107600
_cell_length_b   4.65083300
_cell_length_c   9.27851500
_cell_angle_alpha   90.00000000
_cell_angle_beta   89.99997641
_cell_angle_gamma   90.00000000
_symmetry_Int_Tables_number   1
_chemical_formula_structural   Hf8Mo3Ir4Pd
_chemical_formula_sum   'Hf8 Mo3 Ir4 Pd1'
_cell_volume   283.99201273
_cell_formula_units_Z   1
loop_
 _symmetry_equiv_pos_site_id
 _symmetry_equiv_pos_as_xyz
  1  'x, y, z'
loop_
 _atom_site_type_symbol
 _atom_site_label
 _atom_site_symmetry_multiplicity
 _atom_site_fract_x
 _atom_site_fract_y
 _atom_site_fract_z
 _atom_site_occupancy
  Hf  Hf0  1  0.005955  0.750000  0.125000  1
  Hf  Hf1  1  0.494025  0.750000  0.125002  1
  Hf  Hf2  1  0.003203  0.250001  0.377633  1
  Hf  Hf3  1  0.496794  0.250001  0.377630  1
  Hf  Hf4  1  0.499631  0.750000  0.625020  1
  Hf  Hf5  1  0.000376  0.750000  0.625021  1
  Hf  Hf6  1  0.496816  0.250001  0.872357  1
  Hf  Hf7  1  0.003204  0.250001  0.872357  1
  Mo  Mo8  1  0.249992  0.750000  0.372921  1
  Mo  Mo9  1  0.750007  0.250001  0.624998  1
  Mo  Mo10  1  0.250007  0.750000  0.877079  1
  Ir  Ir11  1  0.249992  0.250001  0.124999  1
  Ir  Ir12  1  0.749992  0.750000  0.374169  1
  Ir  Ir13  1  0.250008  0.250001  0.625002  1
  Ir  Ir14  1  0.750010  0.750000  0.875828  1
  Pd  Pd15  1  0.749990  0.250001  0.124987  1
