# generated using pymatgen
data_Dy4YHoOs2
_symmetry_space_group_name_H-M   'P 1'
_cell_length_a   6.32018576
_cell_length_b   7.39988800
_cell_length_c   9.07307909
_cell_angle_alpha   90.00000000
_cell_angle_beta   90.05625972
_cell_angle_gamma   90.00000000
_symmetry_Int_Tables_number   1
_chemical_formula_structural   Dy4YHoOs2
_chemical_formula_sum   'Dy8 Y2 Ho2 Os4'
_cell_volume   424.33560819
_cell_formula_units_Z   2
loop_
 _symmetry_equiv_pos_site_id
 _symmetry_equiv_pos_as_xyz
  1  'x, y, z'
loop_
 _atom_site_type_symbol
 _atom_site_label
 _atom_site_symmetry_multiplicity
 _atom_site_fract_x
 _atom_site_fract_y
 _atom_site_fract_z
 _atom_site_occupancy
  Dy  Dy0  1  0.331325  0.675589  0.062504  1
  Dy  Dy1  1  0.168675  0.175589  0.437496  1
  Dy  Dy2  1  0.668294  0.324539  0.563316  1
  Dy  Dy3  1  0.831706  0.824539  0.936684  1
  Dy  Dy4  1  0.668369  0.324383  0.936691  1
  Dy  Dy5  1  0.831631  0.824383  0.563309  1
  Dy  Dy6  1  0.130653  0.460661  0.749990  1
  Dy  Dy7  1  0.369347  0.960661  0.750010  1
  Y  Y8  1  0.870615  0.538493  0.250037  1
  Y  Y9  1  0.629385  0.038493  0.249963  1
  Ho  Ho10  1  0.331359  0.675432  0.437489  1
  Ho  Ho11  1  0.168641  0.175432  0.062511  1
  Os  Os12  1  0.043969  0.884194  0.250011  1
  Os  Os13  1  0.456031  0.384194  0.249989  1
  Os  Os14  1  0.960692  0.116710  0.750195  1
  Os  Os15  1  0.539308  0.616710  0.749805  1
