# generated using pymatgen
data_Hf4Zr6Al4Ga8Rh7
_symmetry_space_group_name_H-M   'P 1'
_cell_length_a   8.91216450
_cell_length_b   8.91216553
_cell_length_c   8.91216600
_cell_angle_alpha   60.00000566
_cell_angle_beta   60.00000184
_cell_angle_gamma   60.00000076
_symmetry_Int_Tables_number   1
_chemical_formula_structural   Hf4Zr6Al4Ga8Rh7
_chemical_formula_sum   'Hf4 Zr6 Al4 Ga8 Rh7'
_cell_volume   500.53532668
_cell_formula_units_Z   1
loop_
 _symmetry_equiv_pos_site_id
 _symmetry_equiv_pos_as_xyz
  1  'x, y, z'
loop_
 _atom_site_type_symbol
 _atom_site_label
 _atom_site_symmetry_multiplicity
 _atom_site_fract_x
 _atom_site_fract_y
 _atom_site_fract_z
 _atom_site_occupancy
  Hf  Hf0  1  0.878069  0.878069  0.365795  1
  Hf  Hf1  1  0.878069  0.365795  0.878069  1
  Hf  Hf2  1  0.365795  0.878069  0.878069  1
  Hf  Hf3  1  0.878069  0.878069  0.878069  1
  Zr  Zr4  1  0.691328  0.691328  0.308672  1
  Zr  Zr5  1  0.308672  0.691328  0.308672  1
  Zr  Zr6  1  0.691328  0.308672  0.308672  1
  Zr  Zr7  1  0.308672  0.308672  0.691328  1
  Zr  Zr8  1  0.691328  0.308672  0.691328  1
  Zr  Zr9  1  0.308672  0.691328  0.691328  1
  Al  Al10  1  0.122222  0.122222  0.633334  1
  Al  Al11  1  0.122222  0.633334  0.122222  1
  Al  Al12  1  0.633334  0.122222  0.122222  1
  Al  Al13  1  0.122222  0.122222  0.122222  1
  Ga  Ga14  1  0.656312  0.656312  0.031062  1
  Ga  Ga15  1  0.656312  0.031062  0.656312  1
  Ga  Ga16  1  0.031062  0.656312  0.656312  1
  Ga  Ga17  1  0.656312  0.656312  0.656312  1
  Ga  Ga18  1  0.340735  0.340735  0.977796  1
  Ga  Ga19  1  0.340735  0.977796  0.340735  1
  Ga  Ga20  1  0.977796  0.340735  0.340735  1
  Ga  Ga21  1  0.340735  0.340735  0.340735  1
  Rh  Rh22  1  0.000000  0.000000  0.000000  1
  Rh  Rh23  1  0.999622  0.999622  0.500378  1
  Rh  Rh24  1  0.500378  0.999622  0.500378  1
  Rh  Rh25  1  0.999622  0.500378  0.500378  1
  Rh  Rh26  1  0.500378  0.500378  0.999622  1
  Rh  Rh27  1  0.999622  0.500378  0.999622  1
  Rh  Rh28  1  0.500378  0.999622  0.999622  1
