# generated using pymatgen
data_Sm2MnZnO6
_symmetry_space_group_name_H-M   'P 1'
_cell_length_a   5.39185176
_cell_length_b   5.68686900
_cell_length_c   7.69808704
_cell_angle_alpha   90.00279206
_cell_angle_beta   89.78584780
_cell_angle_gamma   89.99852785
_symmetry_Int_Tables_number   1
_chemical_formula_structural   Sm2MnZnO6
_chemical_formula_sum   'Sm4 Mn2 Zn2 O12'
_cell_volume   236.04290492
_cell_formula_units_Z   2
loop_
 _symmetry_equiv_pos_site_id
 _symmetry_equiv_pos_as_xyz
  1  'x, y, z'
loop_
 _atom_site_type_symbol
 _atom_site_label
 _atom_site_symmetry_multiplicity
 _atom_site_fract_x
 _atom_site_fract_y
 _atom_site_fract_z
 _atom_site_occupancy
  Sm  Sm0  1  0.983142  0.066427  0.248739  1
  Sm  Sm1  1  0.483142  0.433564  0.748745  1
  Sm  Sm2  1  0.016858  0.933573  0.751260  1
  Sm  Sm3  1  0.516857  0.566436  0.251255  1
  Mn  Mn4  1  0.000002  0.499998  0.500001  1
  Mn  Mn5  1  0.500002  0.000001  0.000000  1
  Zn  Zn6  1  0.500000  0.000000  0.500000  1
  Zn  Zn7  1  0.000000  0.500000  0.000000  1
  O  O8  1  0.098957  0.468282  0.259385  1
  O  O9  1  0.598944  0.031706  0.759404  1
  O  O10  1  0.901042  0.531718  0.740616  1
  O  O11  1  0.401056  0.968294  0.240595  1
  O  O12  1  0.291380  0.687750  0.548290  1
  O  O13  1  0.791356  0.812276  0.048281  1
  O  O14  1  0.708619  0.312250  0.451710  1
  O  O15  1  0.208644  0.187724  0.951718  1
  O  O16  1  0.184811  0.212636  0.554448  1
  O  O17  1  0.684788  0.287338  0.054449  1
  O  O18  1  0.815189  0.787364  0.445552  1
  O  O19  1  0.315212  0.712663  0.945550  1
