# generated using pymatgen
data_Rb3Ba(USe3)2
_symmetry_space_group_name_H-M   'P 1'
_cell_length_a   7.72237685
_cell_length_b   7.72237741
_cell_length_c   8.41849342
_cell_angle_alpha   81.10520793
_cell_angle_beta   81.10519565
_cell_angle_gamma   120.00484341
_symmetry_Int_Tables_number   1
_chemical_formula_structural   Rb3Ba(USe3)2
_chemical_formula_sum   'Rb3 Ba1 U2 Se6'
_cell_volume   413.44284468
_cell_formula_units_Z   1
loop_
 _symmetry_equiv_pos_site_id
 _symmetry_equiv_pos_as_xyz
  1  'x, y, z'
loop_
 _atom_site_type_symbol
 _atom_site_label
 _atom_site_symmetry_multiplicity
 _atom_site_fract_x
 _atom_site_fract_y
 _atom_site_fract_z
 _atom_site_occupancy
  Rb  Rb0  1  0.658985  0.341015  0.500000  1
  Rb  Rb1  1  0.341015  0.658985  0.500000  1
  Rb  Rb2  1  0.000000  0.000000  0.500000  1
  Ba  Ba3  1  0.500000  0.500000  0.000000  1
  U  U4  1  0.832499  0.167501  0.000000  1
  U  U5  1  0.167501  0.832499  0.000000  1
  Se  Se6  1  0.799845  0.799845  0.198314  1
  Se  Se7  1  0.200155  0.200155  0.801686  1
  Se  Se8  1  0.432185  0.065418  0.200388  1
  Se  Se9  1  0.567815  0.934582  0.799612  1
  Se  Se10  1  0.934582  0.567815  0.799612  1
  Se  Se11  1  0.065418  0.432185  0.200388  1
