# generated using pymatgen
data_Tb9Pr8Mg3Pb16
_symmetry_space_group_name_H-M   'P 1'
_cell_length_a   8.32974000
_cell_length_b   8.41743118
_cell_length_c   15.92941100
_cell_angle_alpha   90.00000000
_cell_angle_beta   90.00000000
_cell_angle_gamma   90.01189148
_symmetry_Int_Tables_number   1
_chemical_formula_structural   Tb9Pr8Mg3Pb16
_chemical_formula_sum   'Tb9 Pr8 Mg3 Pb16'
_cell_volume   1116.89083861
_cell_formula_units_Z   1
loop_
 _symmetry_equiv_pos_site_id
 _symmetry_equiv_pos_as_xyz
  1  'x, y, z'
loop_
 _atom_site_type_symbol
 _atom_site_label
 _atom_site_symmetry_multiplicity
 _atom_site_fract_x
 _atom_site_fract_y
 _atom_site_fract_z
 _atom_site_occupancy
  Tb  Tb0  1  0.642077  0.163611  0.625188  1
  Tb  Tb1  1  0.148778  0.334555  0.878393  1
  Tb  Tb2  1  0.355680  0.832282  0.127214  1
  Tb  Tb3  1  0.857600  0.659402  0.376618  1
  Tb  Tb4  1  0.355680  0.832282  0.372786  1
  Tb  Tb5  1  0.857600  0.659402  0.123382  1
  Tb  Tb6  1  0.642077  0.163611  0.874812  1
  Tb  Tb7  1  0.148778  0.334555  0.621607  1
  Tb  Tb8  1  0.814801  0.496458  0.750000  1
  Pr  Pr9  1  0.485161  0.681548  0.597315  1
  Pr  Pr10  1  0.995912  0.825014  0.906098  1
  Pr  Pr11  1  0.511881  0.322395  0.096844  1
  Pr  Pr12  1  0.005464  0.181090  0.405399  1
  Pr  Pr13  1  0.511881  0.322395  0.403156  1
  Pr  Pr14  1  0.005464  0.181090  0.094601  1
  Pr  Pr15  1  0.485161  0.681548  0.902685  1
  Pr  Pr16  1  0.995912  0.825014  0.593902  1
  Mg  Mg17  1  0.314476  0.001667  0.750000  1
  Mg  Mg18  1  0.185912  0.503833  0.250000  1
  Mg  Mg19  1  0.681606  0.993698  0.250000  1
  Pb  Pb20  1  0.689929  0.954813  0.459801  1
  Pb  Pb21  1  0.197749  0.541070  0.041785  1
  Pb  Pb22  1  0.312306  0.043933  0.963283  1
  Pb  Pb23  1  0.801283  0.462748  0.543667  1
  Pb  Pb24  1  0.312306  0.043933  0.536717  1
  Pb  Pb25  1  0.801283  0.462748  0.956333  1
  Pb  Pb26  1  0.689929  0.954813  0.040199  1
  Pb  Pb27  1  0.197749  0.541070  0.458215  1
  Pb  Pb28  1  0.445790  0.381297  0.750000  1
  Pb  Pb29  1  0.954831  0.122100  0.750000  1
  Pb  Pb30  1  0.551776  0.613713  0.250000  1
  Pb  Pb31  1  0.043569  0.885949  0.250000  1
  Pb  Pb32  1  0.687595  0.851807  0.750000  1
  Pb  Pb33  1  0.172872  0.647345  0.750000  1
  Pb  Pb34  1  0.317013  0.149272  0.250000  1
  Pb  Pb35  1  0.822124  0.347937  0.250000  1
