# generated using pymatgen
data_TbY7(ZnCo)2
_symmetry_space_group_name_H-M   'P 1'
_cell_length_a   9.40529665
_cell_length_b   9.40331208
_cell_length_c   9.41310401
_cell_angle_alpha   59.96560135
_cell_angle_beta   59.97266708
_cell_angle_gamma   59.93771901
_symmetry_Int_Tables_number   1
_chemical_formula_structural   TbY7(ZnCo)2
_chemical_formula_sum   'Tb2 Y14 Zn4 Co4'
_cell_volume   588.11707474
_cell_formula_units_Z   2
loop_
 _symmetry_equiv_pos_site_id
 _symmetry_equiv_pos_as_xyz
  1  'x, y, z'
loop_
 _atom_site_type_symbol
 _atom_site_label
 _atom_site_symmetry_multiplicity
 _atom_site_fract_x
 _atom_site_fract_y
 _atom_site_fract_z
 _atom_site_occupancy
  Tb  Tb0  1  0.599546  0.599650  0.599818  1
  Tb  Tb1  1  0.599538  0.599641  0.200991  1
  Y  Y2  1  0.600193  0.198842  0.600473  1
  Y  Y3  1  0.198764  0.600327  0.600446  1
  Y  Y4  1  0.059052  0.441044  0.440931  1
  Y  Y5  1  0.440995  0.058949  0.059137  1
  Y  Y6  1  0.440990  0.058964  0.440916  1
  Y  Y7  1  0.059037  0.441050  0.058982  1
  Y  Y8  1  0.441036  0.441082  0.058952  1
  Y  Y9  1  0.059242  0.058990  0.440884  1
  Y  Y10  1  0.188746  0.811722  0.811606  1
  Y  Y11  1  0.811771  0.188626  0.187856  1
  Y  Y12  1  0.811770  0.188626  0.811751  1
  Y  Y13  1  0.188747  0.811722  0.187930  1
  Y  Y14  1  0.811464  0.811562  0.188487  1
  Y  Y15  1  0.188122  0.188060  0.811912  1
  Zn  Zn16  1  0.827115  0.827183  0.826878  1
  Zn  Zn17  1  0.827114  0.827182  0.518827  1
  Zn  Zn18  1  0.827216  0.518780  0.827001  1
  Zn  Zn19  1  0.518851  0.827241  0.826954  1
  Co  Co20  1  0.392260  0.392304  0.391330  1
  Co  Co21  1  0.392256  0.392299  0.824111  1
  Co  Co22  1  0.392832  0.823294  0.391933  1
  Co  Co23  1  0.823342  0.392864  0.391894  1
