# generated using pymatgen
data_Ho5Ni4As2(P2Ru3)5
_symmetry_space_group_name_H-M   'P 1'
_cell_length_a   12.55829803
_cell_length_b   12.46236347
_cell_length_c   3.89551000
_cell_angle_alpha   90.00000000
_cell_angle_beta   90.00000000
_cell_angle_gamma   119.34854527
_symmetry_Int_Tables_number   1
_chemical_formula_structural   Ho5Ni4As2(P2Ru3)5
_chemical_formula_sum   'Ho5 Ni4 As2 P10 Ru15'
_cell_volume   531.42234126
_cell_formula_units_Z   1
loop_
 _symmetry_equiv_pos_site_id
 _symmetry_equiv_pos_as_xyz
  1  'x, y, z'
loop_
 _atom_site_type_symbol
 _atom_site_label
 _atom_site_symmetry_multiplicity
 _atom_site_fract_x
 _atom_site_fract_y
 _atom_site_fract_z
 _atom_site_occupancy
  Ho  Ho0  1  0.003380  0.815545  0.500000  1
  Ho  Ho1  1  0.182934  0.184996  0.500000  1
  Ho  Ho2  1  0.815668  0.006849  0.500000  1
  Ho  Ho3  1  0.665708  0.328220  0.000000  1
  Ho  Ho4  1  0.337740  0.668147  0.000000  1
  Ni  Ni5  1  0.282964  0.998087  0.500000  1
  Ni  Ni6  1  0.011517  0.009932  0.000000  1
  Ni  Ni7  1  0.625495  0.806945  0.000000  1
  Ni  Ni8  1  0.711270  0.722905  0.500000  1
  As  As9  1  0.683526  0.519645  0.500000  1
  As  As10  1  0.828829  0.834281  0.000000  1
  P  P11  1  0.476094  0.163649  0.500000  1
  P  P12  1  0.829195  0.307923  0.500000  1
  P  P13  1  0.313792  0.831995  0.500000  1
  P  P14  1  0.167718  0.479067  0.500000  1
  P  P15  1  0.178786  0.000267  0.000000  1
  P  P16  1  0.001460  0.631533  0.000000  1
  P  P17  1  0.368283  0.368177  0.000000  1
  P  P18  1  0.631009  0.998641  0.000000  1
  P  P19  1  0.519922  0.684094  0.500000  1
  P  P20  1  0.003006  0.180861  0.000000  1
  Ru  Ru21  1  0.999672  0.283252  0.500000  1
  Ru  Ru22  1  0.371538  0.172462  0.000000  1
  Ru  Ru23  1  0.810435  0.632153  0.000000  1
  Ru  Ru24  1  0.817459  0.190272  0.000000  1
  Ru  Ru25  1  0.182304  0.375278  0.000000  1
  Ru  Ru26  1  0.195081  0.822935  0.000000  1
  Ru  Ru27  1  0.875248  0.510998  0.500000  1
  Ru  Ru28  1  0.634460  0.123025  0.500000  1
  Ru  Ru29  1  0.477176  0.354510  0.500000  1
  Ru  Ru30  1  0.360177  0.487423  0.500000  1
  Ru  Ru31  1  0.128053  0.640546  0.500000  1
  Ru  Ru32  1  0.516019  0.869579  0.500000  1
  Ru  Ru33  1  0.000797  0.446301  0.000000  1
  Ru  Ru34  1  0.549778  0.558638  0.000000  1
  Ru  Ru35  1  0.443506  0.990871  0.000000  1
