# generated using pymatgen
data_Li2ThI6
_symmetry_space_group_name_H-M   'P 1'
_cell_length_a   7.56821400
_cell_length_b   7.56821349
_cell_length_c   30.19958000
_cell_angle_alpha   90.00000000
_cell_angle_beta   90.00000000
_cell_angle_gamma   120.00000222
_symmetry_Int_Tables_number   1
_chemical_formula_structural   Li2ThI6
_chemical_formula_sum   'Li8 Th4 I24'
_cell_volume   1498.02238629
_cell_formula_units_Z   4
loop_
 _symmetry_equiv_pos_site_id
 _symmetry_equiv_pos_as_xyz
  1  'x, y, z'
loop_
 _atom_site_type_symbol
 _atom_site_label
 _atom_site_symmetry_multiplicity
 _atom_site_fract_x
 _atom_site_fract_y
 _atom_site_fract_z
 _atom_site_occupancy
  Li  Li0  1  0.000000  0.000000  0.250000  1
  Li  Li1  1  0.000000  0.000000  0.750000  1
  Li  Li2  1  0.333333  0.666667  0.001418  1
  Li  Li3  1  0.333333  0.666667  0.498582  1
  Li  Li4  1  0.333333  0.666667  0.250000  1
  Li  Li5  1  0.666667  0.333333  0.750000  1
  Li  Li6  1  0.666667  0.333333  0.998582  1
  Li  Li7  1  0.666667  0.333333  0.501418  1
  Th  Th8  1  0.000000  0.000000  0.000000  1
  Th  Th9  1  0.000000  0.000000  0.500000  1
  Th  Th10  1  0.333333  0.666667  0.750000  1
  Th  Th11  1  0.666667  0.333333  0.250000  1
  I  I12  1  0.330782  0.997262  0.307951  1
  I  I13  1  0.333520  0.002738  0.807951  1
  I  I14  1  0.998501  0.335297  0.057927  1
  I  I15  1  0.001499  0.336796  0.557927  1
  I  I16  1  0.002738  0.333520  0.307951  1
  I  I17  1  0.997262  0.330782  0.807951  1
  I  I18  1  0.330782  0.333520  0.192049  1
  I  I19  1  0.333520  0.330782  0.692049  1
  I  I20  1  0.336796  0.335297  0.442073  1
  I  I21  1  0.335297  0.336796  0.942073  1
  I  I22  1  0.664703  0.001499  0.442073  1
  I  I23  1  0.336796  0.001499  0.057927  1
  I  I24  1  0.335297  0.998501  0.557927  1
  I  I25  1  0.664703  0.663204  0.057927  1
  I  I26  1  0.663204  0.664703  0.557927  1
  I  I27  1  0.666480  0.669218  0.307951  1
  I  I28  1  0.669218  0.666480  0.807951  1
  I  I29  1  0.002738  0.669218  0.192049  1
  I  I30  1  0.997262  0.666480  0.692049  1
  I  I31  1  0.998501  0.663204  0.442073  1
  I  I32  1  0.001499  0.664703  0.942073  1
  I  I33  1  0.663204  0.998501  0.942073  1
  I  I34  1  0.666480  0.997262  0.192049  1
  I  I35  1  0.669218  0.002738  0.692049  1
