# generated using pymatgen
data_Dy5Ho2Th(ReB6)4
_symmetry_space_group_name_H-M   'P 1'
_cell_length_a   3.70842300
_cell_length_b   9.19634473
_cell_length_c   11.59396103
_cell_angle_alpha   90.04813583
_cell_angle_beta   90.00000000
_cell_angle_gamma   90.00000000
_symmetry_Int_Tables_number   1
_chemical_formula_structural   Dy5Ho2Th(ReB6)4
_chemical_formula_sum   'Dy5 Ho2 Th1 Re4 B24'
_cell_volume   395.39956897
_cell_formula_units_Z   1
loop_
 _symmetry_equiv_pos_site_id
 _symmetry_equiv_pos_as_xyz
  1  'x, y, z'
loop_
 _atom_site_type_symbol
 _atom_site_label
 _atom_site_symmetry_multiplicity
 _atom_site_fract_x
 _atom_site_fract_y
 _atom_site_fract_z
 _atom_site_occupancy
  Dy  Dy0  1  0.000000  0.677566  0.587269  1
  Dy  Dy1  1  0.000000  0.823378  0.085152  1
  Dy  Dy2  1  0.000000  0.175955  0.914000  1
  Dy  Dy3  1  0.000000  0.941932  0.369398  1
  Dy  Dy4  1  0.000000  0.056042  0.631355  1
  Ho  Ho5  1  0.000000  0.443533  0.128333  1
  Ho  Ho6  1  0.000000  0.557373  0.870534  1
  Th  Th7  1  0.000000  0.322640  0.414062  1
  Re  Re8  1  0.000000  0.638871  0.320429  1
  Re  Re9  1  0.000000  0.362002  0.680285  1
  Re  Re10  1  0.000000  0.138622  0.178222  1
  Re  Re11  1  0.000000  0.861223  0.821097  1
  B  B12  1  0.500000  0.555805  0.432219  1
  B  B13  1  0.500000  0.446919  0.569568  1
  B  B14  1  0.500000  0.053177  0.066506  1
  B  B15  1  0.500000  0.946434  0.932846  1
  B  B16  1  0.500000  0.749844  0.418165  1
  B  B17  1  0.500000  0.251053  0.584938  1
  B  B18  1  0.500000  0.248892  0.080385  1
  B  B19  1  0.500000  0.750775  0.918313  1
  B  B20  1  0.500000  0.791774  0.265147  1
  B  B21  1  0.500000  0.208384  0.735903  1
  B  B22  1  0.500000  0.290620  0.232108  1
  B  B23  1  0.500000  0.708020  0.765820  1
  B  B24  1  0.500000  0.631879  0.184550  1
  B  B25  1  0.500000  0.369667  0.815156  1
  B  B26  1  0.500000  0.129544  0.312139  1
  B  B27  1  0.500000  0.868664  0.686266  1
  B  B28  1  0.500000  0.982401  0.210935  1
  B  B29  1  0.500000  0.016715  0.788663  1
  B  B30  1  0.500000  0.485597  0.286213  1
  B  B31  1  0.500000  0.517904  0.713525  1
  B  B32  1  0.500000  0.600952  0.027649  1
  B  B33  1  0.500000  0.399655  0.971568  1
  B  B34  1  0.500000  0.097526  0.472823  1
  B  B35  1  0.500000  0.898661  0.528459  1
