# generated using pymatgen
data_Hf4Co3Si4Os
_symmetry_space_group_name_H-M   'P 1'
_cell_length_a   3.90050300
_cell_length_b   6.41493895
_cell_length_c   7.17643070
_cell_angle_alpha   89.67498441
_cell_angle_beta   90.00000000
_cell_angle_gamma   90.00000000
_symmetry_Int_Tables_number   1
_chemical_formula_structural   Hf4Co3Si4Os
_chemical_formula_sum   'Hf4 Co3 Si4 Os1'
_cell_volume   179.56209008
_cell_formula_units_Z   1
loop_
 _symmetry_equiv_pos_site_id
 _symmetry_equiv_pos_as_xyz
  1  'x, y, z'
loop_
 _atom_site_type_symbol
 _atom_site_label
 _atom_site_symmetry_multiplicity
 _atom_site_fract_x
 _atom_site_fract_y
 _atom_site_fract_z
 _atom_site_occupancy
  Hf  Hf0  1  0.250000  0.006156  0.316797  1
  Hf  Hf1  1  0.250000  0.510278  0.197206  1
  Hf  Hf2  1  0.750000  0.991950  0.683147  1
  Hf  Hf3  1  0.750000  0.487780  0.803471  1
  Co  Co4  1  0.250000  0.647678  0.565669  1
  Co  Co5  1  0.750000  0.845131  0.063130  1
  Co  Co6  1  0.750000  0.354587  0.429840  1
  Si  Si7  1  0.250000  0.285620  0.603058  1
  Si  Si8  1  0.250000  0.779593  0.888780  1
  Si  Si9  1  0.750000  0.719520  0.390581  1
  Si  Si10  1  0.750000  0.214974  0.123007  1
  Os  Os11  1  0.250000  0.156733  0.935316  1
