# generated using pymatgen
data_Pt4I7Cl5
_symmetry_space_group_name_H-M   'P 1'
_cell_length_a   6.85026701
_cell_length_b   6.82943663
_cell_length_c   13.12183298
_cell_angle_alpha   84.95331494
_cell_angle_beta   83.19105100
_cell_angle_gamma   119.39889055
_symmetry_Int_Tables_number   1
_chemical_formula_structural   Pt4I7Cl5
_chemical_formula_sum   'Pt4 I7 Cl5'
_cell_volume   523.42322148
_cell_formula_units_Z   1
loop_
 _symmetry_equiv_pos_site_id
 _symmetry_equiv_pos_as_xyz
  1  'x, y, z'
loop_
 _atom_site_type_symbol
 _atom_site_label
 _atom_site_symmetry_multiplicity
 _atom_site_fract_x
 _atom_site_fract_y
 _atom_site_fract_z
 _atom_site_occupancy
  Pt  Pt0  1  0.907196  0.082689  0.251174  1
  Pt  Pt1  1  0.093105  0.913367  0.747008  1
  Pt  Pt2  1  0.494822  0.004264  0.505515  1
  Pt  Pt3  1  0.001689  0.494327  0.997537  1
  I  I4  1  0.349514  0.846514  0.871734  1
  I  I5  1  0.844623  0.340571  0.380387  1
  I  I6  1  0.652608  0.144282  0.123637  1
  I  I7  1  0.748900  0.542618  0.874302  1
  I  I8  1  0.447701  0.276143  0.621450  1
  I  I9  1  0.254998  0.443639  0.120009  1
  I  I10  1  0.544494  0.738329  0.385167  1
  Cl  Cl11  1  0.161057  0.054963  0.351331  1
  Cl  Cl12  1  0.939886  0.829203  0.147561  1
  Cl  Cl13  1  0.838191  0.936121  0.646662  1
  Cl  Cl14  1  0.048307  0.150842  0.853386  1
  Cl  Cl15  1  0.172911  0.702128  0.623139  1
