# generated using pymatgen
data_Pr5(Hg2Rh)2
_symmetry_space_group_name_H-M   'P 1'
_cell_length_a   3.83379300
_cell_length_b   8.22721500
_cell_length_c   18.39923200
_cell_angle_alpha   90.00000000
_cell_angle_beta   90.00000000
_cell_angle_gamma   90.00000000
_symmetry_Int_Tables_number   1
_chemical_formula_structural   Pr5(Hg2Rh)2
_chemical_formula_sum   'Pr10 Hg8 Rh4'
_cell_volume   580.33825886
_cell_formula_units_Z   2
loop_
 _symmetry_equiv_pos_site_id
 _symmetry_equiv_pos_as_xyz
  1  'x, y, z'
loop_
 _atom_site_type_symbol
 _atom_site_label
 _atom_site_symmetry_multiplicity
 _atom_site_fract_x
 _atom_site_fract_y
 _atom_site_fract_z
 _atom_site_occupancy
  Pr  Pr0  1  0.000000  0.112154  0.411817  1
  Pr  Pr1  1  0.000000  0.887846  0.588183  1
  Pr  Pr2  1  0.000000  0.387846  0.911817  1
  Pr  Pr3  1  0.000000  0.612154  0.088183  1
  Pr  Pr4  1  0.000000  0.238365  0.218054  1
  Pr  Pr5  1  0.000000  0.761635  0.781946  1
  Pr  Pr6  1  0.000000  0.261635  0.718054  1
  Pr  Pr7  1  0.000000  0.738365  0.281946  1
  Pr  Pr8  1  0.000000  0.000000  0.000000  1
  Pr  Pr9  1  0.000000  0.500000  0.500000  1
  Hg  Hg10  1  0.500000  0.420553  0.351154  1
  Hg  Hg11  1  0.500000  0.579447  0.648846  1
  Hg  Hg12  1  0.500000  0.079447  0.851154  1
  Hg  Hg13  1  0.500000  0.920553  0.148846  1
  Hg  Hg14  1  0.500000  0.291213  0.065219  1
  Hg  Hg15  1  0.500000  0.708787  0.934781  1
  Hg  Hg16  1  0.500000  0.208787  0.565219  1
  Hg  Hg17  1  0.500000  0.791213  0.434781  1
  Rh  Rh18  1  0.500000  0.022668  0.303193  1
  Rh  Rh19  1  0.500000  0.977332  0.696807  1
  Rh  Rh20  1  0.500000  0.477332  0.803193  1
  Rh  Rh21  1  0.500000  0.522668  0.196807  1
