# generated using pymatgen
data_Li3Tb4Y2Os3
_symmetry_space_group_name_H-M   'P 1'
_cell_length_a   4.96434900
_cell_length_b   6.89093600
_cell_length_c   14.74731200
_cell_angle_alpha   90.00000000
_cell_angle_beta   90.00004251
_cell_angle_gamma   90.00000000
_symmetry_Int_Tables_number   1
_chemical_formula_structural   Li3Tb4Y2Os3
_chemical_formula_sum   'Li6 Tb8 Y4 Os6'
_cell_volume   504.49096198
_cell_formula_units_Z   2
loop_
 _symmetry_equiv_pos_site_id
 _symmetry_equiv_pos_as_xyz
  1  'x, y, z'
loop_
 _atom_site_type_symbol
 _atom_site_label
 _atom_site_symmetry_multiplicity
 _atom_site_fract_x
 _atom_site_fract_y
 _atom_site_fract_z
 _atom_site_occupancy
  Li  Li0  1  0.000003  0.000000  0.999877  1
  Li  Li1  1  0.499028  0.500000  0.166648  1
  Li  Li2  1  0.999030  0.000000  0.333349  1
  Li  Li3  1  0.500002  0.500000  0.500113  1
  Li  Li4  1  0.000960  0.000000  0.666794  1
  Li  Li5  1  0.500958  0.500000  0.833214  1
  Tb  Tb6  1  0.500001  0.247577  0.999684  1
  Tb  Tb7  1  0.500001  0.752422  0.999684  1
  Tb  Tb8  1  0.999403  0.252351  0.166552  1
  Tb  Tb9  1  0.999403  0.747648  0.166552  1
  Tb  Tb10  1  0.499402  0.247644  0.333443  1
  Tb  Tb11  1  0.499402  0.752357  0.333443  1
  Tb  Tb12  1  0.000001  0.252429  0.500316  1
  Tb  Tb13  1  0.000001  0.747570  0.500316  1
  Y  Y14  1  0.500602  0.247952  0.666864  1
  Y  Y15  1  0.500602  0.752049  0.666864  1
  Y  Y16  1  0.000601  0.252041  0.833141  1
  Y  Y17  1  0.000601  0.747958  0.833141  1
  Os  Os18  1  0.000004  0.500000  0.000737  1
  Os  Os19  1  0.499407  0.000000  0.166851  1
  Os  Os20  1  0.999407  0.500000  0.333157  1
  Os  Os21  1  0.500002  0.000000  0.499267  1
  Os  Os22  1  0.000588  0.500000  0.666119  1
  Os  Os23  1  0.500586  0.000000  0.833875  1
