# generated using pymatgen
data_TmMnNbB2Ru5
_symmetry_space_group_name_H-M   'P 1'
_cell_length_a   9.39790704
_cell_length_b   9.39790738
_cell_length_c   3.04717800
_cell_angle_alpha   90.00000000
_cell_angle_beta   90.00000000
_cell_angle_gamma   90.68968218
_symmetry_Int_Tables_number   1
_chemical_formula_structural   TmMnNbB2Ru5
_chemical_formula_sum   'Tm2 Mn2 Nb2 B4 Ru10'
_cell_volume   269.10927418
_cell_formula_units_Z   2
loop_
 _symmetry_equiv_pos_site_id
 _symmetry_equiv_pos_as_xyz
  1  'x, y, z'
loop_
 _atom_site_type_symbol
 _atom_site_label
 _atom_site_symmetry_multiplicity
 _atom_site_fract_x
 _atom_site_fract_y
 _atom_site_fract_z
 _atom_site_occupancy
  Tm  Tm0  1  0.823319  0.676681  0.000000  1
  Tm  Tm1  1  0.176681  0.323319  0.000000  1
  Mn  Mn2  1  0.500000  0.500000  0.000000  1
  Mn  Mn3  1  0.000000  0.000000  0.000000  1
  Nb  Nb4  1  0.324072  0.824072  0.000000  1
  Nb  Nb5  1  0.675928  0.175928  0.000000  1
  B  B6  1  0.623237  0.876763  0.000000  1
  B  B7  1  0.376763  0.123237  0.000000  1
  B  B8  1  0.123427  0.623427  0.000000  1
  B  B9  1  0.876573  0.376573  0.000000  1
  Ru  Ru10  1  0.560030  0.718011  0.500000  1
  Ru  Ru11  1  0.439970  0.281989  0.500000  1
  Ru  Ru12  1  0.079838  0.789123  0.500000  1
  Ru  Ru13  1  0.920162  0.210877  0.500000  1
  Ru  Ru14  1  0.289123  0.579838  0.500000  1
  Ru  Ru15  1  0.710877  0.420162  0.500000  1
  Ru  Ru16  1  0.218011  0.060030  0.500000  1
  Ru  Ru17  1  0.781989  0.939970  0.500000  1
  Ru  Ru18  1  0.500000  0.000000  0.500000  1
  Ru  Ru19  1  0.000000  0.500000  0.500000  1
