# generated using pymatgen
data_Cs3Hg2F7
_symmetry_space_group_name_H-M   'P 1'
_cell_length_a   12.47465283
_cell_length_b   12.47465291
_cell_length_c   12.47465297
_cell_angle_alpha   158.16372063
_cell_angle_beta   158.16372279
_cell_angle_gamma   31.07404541
_symmetry_Int_Tables_number   1
_chemical_formula_structural   Cs3Hg2F7
_chemical_formula_sum   'Cs3 Hg2 F7'
_cell_volume   268.39034103
_cell_formula_units_Z   1
loop_
 _symmetry_equiv_pos_site_id
 _symmetry_equiv_pos_as_xyz
  1  'x, y, z'
loop_
 _atom_site_type_symbol
 _atom_site_label
 _atom_site_symmetry_multiplicity
 _atom_site_fract_x
 _atom_site_fract_y
 _atom_site_fract_z
 _atom_site_occupancy
  Cs  Cs0  1  0.316765  0.316765  0.000000  1
  Cs  Cs1  1  0.500000  0.500000  0.000000  1
  Cs  Cs2  1  0.683236  0.683236  0.000000  1
  Hg  Hg3  1  0.096862  0.096862  0.000000  1
  Hg  Hg4  1  0.903138  0.903138  0.000000  1
  F  F5  1  0.000000  0.000000  0.000000  1
  F  F6  1  0.191996  0.191996  0.000000  1
  F  F7  1  0.808004  0.808004  0.000000  1
  F  F8  1  0.594889  0.094887  0.500001  1
  F  F9  1  0.905114  0.405113  0.500001  1
  F  F10  1  0.094887  0.594889  0.500001  1
  F  F11  1  0.405113  0.905114  0.500001  1
