# generated using pymatgen
data_La2Y6Er12Si15Pt
_symmetry_space_group_name_H-M   'P 1'
_cell_length_a   7.38947375
_cell_length_b   7.74503795
_cell_length_c   14.61119362
_cell_angle_alpha   89.65354024
_cell_angle_beta   89.96444130
_cell_angle_gamma   89.94620035
_symmetry_Int_Tables_number   1
_chemical_formula_structural   La2Y6Er12Si15Pt
_chemical_formula_sum   'La2 Y6 Er12 Si15 Pt1'
_cell_volume   836.20843354
_cell_formula_units_Z   1
loop_
 _symmetry_equiv_pos_site_id
 _symmetry_equiv_pos_as_xyz
  1  'x, y, z'
loop_
 _atom_site_type_symbol
 _atom_site_label
 _atom_site_symmetry_multiplicity
 _atom_site_fract_x
 _atom_site_fract_y
 _atom_site_fract_z
 _atom_site_occupancy
  La  La0  1  0.520042  0.571105  0.342334  1
  La  La1  1  0.021112  0.425956  0.657058  1
  Y  Y2  1  0.478814  0.931123  0.846329  1
  Y  Y3  1  0.977288  0.069008  0.153431  1
  Y  Y4  1  0.476968  0.932859  0.152958  1
  Y  Y5  1  0.975457  0.069057  0.847792  1
  Y  Y6  1  0.524921  0.566759  0.652255  1
  Y  Y7  1  0.024432  0.431719  0.347039  1
  Er  Er8  1  0.811139  0.576993  0.875776  1
  Er  Er9  1  0.320433  0.427350  0.124691  1
  Er  Er10  1  0.182228  0.926088  0.373943  1
  Er  Er11  1  0.681527  0.069988  0.626786  1
  Er  Er12  1  0.182287  0.926157  0.627556  1
  Er  Er13  1  0.681162  0.071078  0.372024  1
  Er  Er14  1  0.815163  0.573302  0.125068  1
  Er  Er15  1  0.324052  0.431603  0.874618  1
  Er  Er16  1  0.646292  0.236366  0.999204  1
  Er  Er17  1  0.157581  0.760041  0.000956  1
  Er  Er18  1  0.348826  0.261850  0.499829  1
  Er  Er19  1  0.848487  0.736629  0.499597  1
  Si  Si20  1  0.020557  0.353600  0.000147  1
  Si  Si21  1  0.477415  0.861364  0.501158  1
  Si  Si22  1  0.976911  0.136694  0.499095  1
  Si  Si23  1  0.651706  0.277602  0.790464  1
  Si  Si24  1  0.150541  0.720978  0.209259  1
  Si  Si25  1  0.348231  0.214236  0.287084  1
  Si  Si26  1  0.850003  0.784241  0.712918  1
  Si  Si27  1  0.358343  0.217565  0.711507  1
  Si  Si28  1  0.858698  0.781809  0.288157  1
  Si  Si29  1  0.648942  0.271235  0.207101  1
  Si  Si30  1  0.146702  0.726771  0.793026  1
  Si  Si31  1  0.773169  0.882042  0.000745  1
  Si  Si32  1  0.262096  0.126655  0.999585  1
  Si  Si33  1  0.229860  0.625330  0.501871  1
  Si  Si34  1  0.729907  0.373532  0.498547  1
  Pt  Pt35  1  0.518708  0.651310  0.000094  1
