# generated using pymatgen
data_Sc4CrB8Ru9
_symmetry_space_group_name_H-M   'P 1'
_cell_length_a   3.00973600
_cell_length_b   8.50039639
_cell_length_c   10.02423337
_cell_angle_alpha   90.40098128
_cell_angle_beta   90.00000000
_cell_angle_gamma   90.00000000
_symmetry_Int_Tables_number   1
_chemical_formula_structural   Sc4CrB8Ru9
_chemical_formula_sum   'Sc4 Cr1 B8 Ru9'
_cell_volume   256.45319506
_cell_formula_units_Z   1
loop_
 _symmetry_equiv_pos_site_id
 _symmetry_equiv_pos_as_xyz
  1  'x, y, z'
loop_
 _atom_site_type_symbol
 _atom_site_label
 _atom_site_symmetry_multiplicity
 _atom_site_fract_x
 _atom_site_fract_y
 _atom_site_fract_z
 _atom_site_occupancy
  Sc  Sc0  1  0.500000  0.839980  0.175358  1
  Sc  Sc1  1  0.500000  0.158679  0.821089  1
  Sc  Sc2  1  0.500000  0.658053  0.686879  1
  Sc  Sc3  1  0.500000  0.343475  0.315937  1
  Cr  Cr4  1  0.000000  0.657626  0.954108  1
  B  B5  1  0.500000  0.964368  0.590368  1
  B  B6  1  0.500000  0.034733  0.409649  1
  B  B7  1  0.500000  0.840791  0.903149  1
  B  B8  1  0.500000  0.149415  0.098573  1
  B  B9  1  0.500000  0.646310  0.397699  1
  B  B10  1  0.500000  0.352064  0.602748  1
  B  B11  1  0.500000  0.473083  0.913673  1
  B  B12  1  0.500000  0.541700  0.082740  1
  Ru  Ru13  1  0.000000  0.338254  0.048008  1
  Ru  Ru14  1  0.000000  0.841612  0.452652  1
  Ru  Ru15  1  0.000000  0.159017  0.546700  1
  Ru  Ru16  1  0.000000  0.998664  0.999007  1
  Ru  Ru17  1  0.000000  0.405400  0.763128  1
  Ru  Ru18  1  0.000000  0.596254  0.237589  1
  Ru  Ru19  1  0.000000  0.500551  0.501169  1
  Ru  Ru20  1  0.000000  0.904992  0.738953  1
  Ru  Ru21  1  0.000000  0.094981  0.260825  1
