# generated using pymatgen
data_Nd3Ho2(InSb)2
_symmetry_space_group_name_H-M   'P 1'
_cell_length_a   9.21181686
_cell_length_b   8.66219126
_cell_length_c   8.28757965
_cell_angle_alpha   90.34715298
_cell_angle_beta   90.19158422
_cell_angle_gamma   125.15771759
_symmetry_Int_Tables_number   1
_chemical_formula_structural   Nd3Ho2(InSb)2
_chemical_formula_sum   'Nd6 Ho4 In4 Sb4'
_cell_volume   540.63308622
_cell_formula_units_Z   2
loop_
 _symmetry_equiv_pos_site_id
 _symmetry_equiv_pos_as_xyz
  1  'x, y, z'
loop_
 _atom_site_type_symbol
 _atom_site_label
 _atom_site_symmetry_multiplicity
 _atom_site_fract_x
 _atom_site_fract_y
 _atom_site_fract_z
 _atom_site_occupancy
  Nd  Nd0  1  0.051820  0.341704  0.325041  1
  Nd  Nd1  1  0.948180  0.658296  0.674959  1
  Nd  Nd2  1  0.450930  0.152936  0.816300  1
  Nd  Nd3  1  0.788401  0.514345  0.162125  1
  Nd  Nd4  1  0.549070  0.847064  0.183700  1
  Nd  Nd5  1  0.211599  0.485655  0.837875  1
  Ho  Ho6  1  0.718582  0.979576  0.660704  1
  Ho  Ho7  1  0.281418  0.020424  0.339296  1
  Ho  Ho8  1  0.000000  0.000000  0.000000  1
  Ho  Ho9  1  0.500000  0.500000  0.500000  1
  In  In10  1  0.372876  0.375324  0.128324  1
  In  In11  1  0.627124  0.624676  0.871676  1
  In  In12  1  0.128764  0.125587  0.627477  1
  In  In13  1  0.871236  0.874413  0.372523  1
  Sb  Sb14  1  0.812889  0.212385  0.972605  1
  Sb  Sb15  1  0.187111  0.787615  0.027395  1
  Sb  Sb16  1  0.679823  0.267689  0.475248  1
  Sb  Sb17  1  0.320177  0.732311  0.524752  1
