# generated using pymatgen
data_CaAl10OsRh
_symmetry_space_group_name_H-M   'P 1'
_cell_length_a   6.87888423
_cell_length_b   6.87779488
_cell_length_c   9.15703900
_cell_angle_alpha   90.00000000
_cell_angle_beta   90.00000000
_cell_angle_gamma   96.62192044
_symmetry_Int_Tables_number   1
_chemical_formula_structural   CaAl10OsRh
_chemical_formula_sum   'Ca2 Al20 Os2 Rh2'
_cell_volume   430.34352809
_cell_formula_units_Z   2
loop_
 _symmetry_equiv_pos_site_id
 _symmetry_equiv_pos_as_xyz
  1  'x, y, z'
loop_
 _atom_site_type_symbol
 _atom_site_label
 _atom_site_symmetry_multiplicity
 _atom_site_fract_x
 _atom_site_fract_y
 _atom_site_fract_z
 _atom_site_occupancy
  Ca  Ca0  1  0.871888  0.122851  0.750000  1
  Ca  Ca1  1  0.128112  0.877149  0.250000  1
  Al  Al2  1  0.620787  0.376179  0.549389  1
  Al  Al3  1  0.379213  0.623821  0.450611  1
  Al  Al4  1  0.379213  0.623821  0.049389  1
  Al  Al5  1  0.620787  0.376179  0.950611  1
  Al  Al6  1  0.224434  0.223399  0.498420  1
  Al  Al7  1  0.775566  0.776601  0.501580  1
  Al  Al8  1  0.775566  0.776601  0.998420  1
  Al  Al9  1  0.224434  0.223399  0.001580  1
  Al  Al10  1  0.841640  0.157994  0.100588  1
  Al  Al11  1  0.158360  0.842006  0.899412  1
  Al  Al12  1  0.158360  0.842006  0.600588  1
  Al  Al13  1  0.841640  0.157994  0.399412  1
  Al  Al14  1  0.856491  0.586993  0.750000  1
  Al  Al15  1  0.143509  0.413007  0.250000  1
  Al  Al16  1  0.411825  0.141805  0.750000  1
  Al  Al17  1  0.588175  0.858195  0.250000  1
  Al  Al18  1  0.223596  0.480031  0.750000  1
  Al  Al19  1  0.776404  0.519969  0.250000  1
  Al  Al20  1  0.520041  0.780925  0.750000  1
  Al  Al21  1  0.479959  0.219075  0.250000  1
  Os  Os22  1  0.500000  0.000000  0.000000  1
  Os  Os23  1  0.500000  0.000000  0.500000  1
  Rh  Rh24  1  0.000000  0.500000  0.500000  1
  Rh  Rh25  1  0.000000  0.500000  0.000000  1
