# generated using pymatgen
data_MgAgBPd6
_symmetry_space_group_name_H-M   'P 1'
_cell_length_a   5.78757254
_cell_length_b   5.78757327
_cell_length_c   5.78757400
_cell_angle_alpha   60.00000728
_cell_angle_beta   60.00000308
_cell_angle_gamma   59.99999965
_symmetry_Int_Tables_number   1
_chemical_formula_structural   MgAgBPd6
_chemical_formula_sum   'Mg1 Ag1 B1 Pd6'
_cell_volume   137.08014074
_cell_formula_units_Z   1
loop_
 _symmetry_equiv_pos_site_id
 _symmetry_equiv_pos_as_xyz
  1  'x, y, z'
loop_
 _atom_site_type_symbol
 _atom_site_label
 _atom_site_symmetry_multiplicity
 _atom_site_fract_x
 _atom_site_fract_y
 _atom_site_fract_z
 _atom_site_occupancy
  Mg  Mg0  1  0.250000  0.250000  0.250000  1
  Ag  Ag1  1  0.750000  0.750000  0.750000  1
  B  B2  1  0.500000  0.500000  0.500000  1
  Pd  Pd3  1  0.755266  0.244734  0.244734  1
  Pd  Pd4  1  0.244734  0.755266  0.244734  1
  Pd  Pd5  1  0.755266  0.755266  0.244734  1
  Pd  Pd6  1  0.244734  0.244734  0.755266  1
  Pd  Pd7  1  0.755266  0.244734  0.755266  1
  Pd  Pd8  1  0.244734  0.755266  0.755266  1
