# generated using pymatgen
data_LuTlSiS4
_symmetry_space_group_name_H-M   'P 1'
_cell_length_a   6.60179900
_cell_length_b   6.34184212
_cell_length_c   8.67517900
_cell_angle_alpha   72.42820607
_cell_angle_beta   90.00000000
_cell_angle_gamma   90.00000000
_symmetry_Int_Tables_number   1
_chemical_formula_structural   LuTlSiS4
_chemical_formula_sum   'Lu2 Tl2 Si2 S8'
_cell_volume   346.26110696
_cell_formula_units_Z   2
loop_
 _symmetry_equiv_pos_site_id
 _symmetry_equiv_pos_as_xyz
  1  'x, y, z'
loop_
 _atom_site_type_symbol
 _atom_site_label
 _atom_site_symmetry_multiplicity
 _atom_site_fract_x
 _atom_site_fract_y
 _atom_site_fract_z
 _atom_site_occupancy
  Lu  Lu0  1  0.501217  0.230946  0.451064  1
  Lu  Lu1  1  0.001217  0.769054  0.548936  1
  Tl  Tl2  1  0.978653  0.730140  0.065792  1
  Tl  Tl3  1  0.478653  0.269860  0.934208  1
  Si  Si4  1  0.462841  0.779542  0.328685  1
  Si  Si5  1  0.962841  0.220458  0.671315  1
  S  S6  1  0.464482  0.577918  0.174286  1
  S  S7  1  0.229528  0.023734  0.284895  1
  S  S8  1  0.729048  0.979526  0.305277  1
  S  S9  1  0.901232  0.428164  0.431980  1
  S  S10  1  0.401232  0.571836  0.568020  1
  S  S11  1  0.229048  0.020474  0.694723  1
  S  S12  1  0.729528  0.976266  0.715105  1
  S  S13  1  0.964482  0.422082  0.825714  1
