# generated using pymatgen
data_Ho6Er2Tm2Zn3Bi2Au
_symmetry_space_group_name_H-M   'P 1'
_cell_length_a   8.61475512
_cell_length_b   8.61407810
_cell_length_c   8.61738308
_cell_angle_alpha   123.95581281
_cell_angle_beta   123.95821557
_cell_angle_gamma   83.25063486
_symmetry_Int_Tables_number   1
_chemical_formula_structural   Ho6Er2Tm2Zn3Bi2Au
_chemical_formula_sum   'Ho6 Er2 Tm2 Zn3 Bi2 Au1'
_cell_volume   422.01904603
_cell_formula_units_Z   1
loop_
 _symmetry_equiv_pos_site_id
 _symmetry_equiv_pos_as_xyz
  1  'x, y, z'
loop_
 _atom_site_type_symbol
 _atom_site_label
 _atom_site_symmetry_multiplicity
 _atom_site_fract_x
 _atom_site_fract_y
 _atom_site_fract_z
 _atom_site_occupancy
  Ho  Ho0  1  0.511716  0.705374  0.500000  1
  Ho  Ho1  1  0.205608  0.010962  0.500000  1
  Ho  Ho2  1  0.989216  0.490738  0.195226  1
  Ho  Ho3  1  0.293990  0.795511  0.804774  1
  Ho  Ho4  1  0.489087  0.294463  0.500000  1
  Ho  Ho5  1  0.794728  0.988317  0.500000  1
  Er  Er6  1  0.009291  0.510806  0.804679  1
  Er  Er7  1  0.704613  0.206127  0.195321  1
  Tm  Tm8  1  0.999709  0.999456  0.999142  1
  Tm  Tm9  1  0.500565  0.500313  0.000858  1
  Zn  Zn10  1  0.638791  0.140486  0.779310  1
  Zn  Zn11  1  0.359479  0.861174  0.220690  1
  Zn  Zn12  1  0.140429  0.359342  0.500000  1
  Bi  Bi13  1  0.749026  0.751010  0.000012  1
  Bi  Bi14  1  0.249014  0.250998  0.999988  1
  Au  Au15  1  0.864738  0.634924  0.500000  1
