# generated using pymatgen
data_Sr6TbTl(CoO6)2
_symmetry_space_group_name_H-M   'P 1'
_cell_length_a   6.78634393
_cell_length_b   6.78539625
_cell_length_c   6.78564563
_cell_angle_alpha   91.71788677
_cell_angle_beta   91.72638441
_cell_angle_gamma   91.72256095
_symmetry_Int_Tables_number   1
_chemical_formula_structural   Sr6TbTl(CoO6)2
_chemical_formula_sum   'Sr6 Tb1 Tl1 Co2 O12'
_cell_volume   312.03347455
_cell_formula_units_Z   1
loop_
 _symmetry_equiv_pos_site_id
 _symmetry_equiv_pos_as_xyz
  1  'x, y, z'
loop_
 _atom_site_type_symbol
 _atom_site_label
 _atom_site_symmetry_multiplicity
 _atom_site_fract_x
 _atom_site_fract_y
 _atom_site_fract_z
 _atom_site_occupancy
  Sr  Sr0  1  0.880011  0.249865  0.619974  1
  Sr  Sr1  1  0.249939  0.620167  0.879831  1
  Sr  Sr2  1  0.620047  0.879960  0.250182  1
  Sr  Sr3  1  0.750064  0.383011  0.116993  1
  Sr  Sr4  1  0.383045  0.116845  0.749804  1
  Sr  Sr5  1  0.116898  0.750159  0.383155  1
  Tb  Tb6  1  0.250101  0.250253  0.249653  1
  Tl  Tl7  1  0.749887  0.749724  0.750387  1
  Co  Co8  1  0.003220  0.003346  0.003284  1
  Co  Co9  1  0.496778  0.496653  0.496721  1
  O  O10  1  0.216508  0.413138  0.544784  1
  O  O11  1  0.413431  0.545323  0.216367  1
  O  O12  1  0.545075  0.216402  0.412920  1
  O  O13  1  0.919556  0.725079  0.050829  1
  O  O14  1  0.724878  0.050241  0.919630  1
  O  O15  1  0.050229  0.919317  0.725041  1
  O  O16  1  0.775072  0.580533  0.449849  1
  O  O17  1  0.580467  0.449158  0.775000  1
  O  O18  1  0.449480  0.774839  0.580803  1
  O  O19  1  0.086579  0.283719  0.954681  1
  O  O20  1  0.283584  0.955195  0.086575  1
  O  O21  1  0.955151  0.087075  0.283538  1
