# generated using pymatgen
data_Dy2Lu2ReB12Ru
_symmetry_space_group_name_H-M   'P 1'
_cell_length_a   3.63443300
_cell_length_b   9.08944727
_cell_length_c   11.48334631
_cell_angle_alpha   90.17342845
_cell_angle_beta   90.00000000
_cell_angle_gamma   90.00000000
_symmetry_Int_Tables_number   1
_chemical_formula_structural   Dy2Lu2ReB12Ru
_chemical_formula_sum   'Dy4 Lu4 Re2 B24 Ru2'
_cell_volume   379.35045955
_cell_formula_units_Z   2
loop_
 _symmetry_equiv_pos_site_id
 _symmetry_equiv_pos_as_xyz
  1  'x, y, z'
loop_
 _atom_site_type_symbol
 _atom_site_label
 _atom_site_symmetry_multiplicity
 _atom_site_fract_x
 _atom_site_fract_y
 _atom_site_fract_z
 _atom_site_occupancy
  Dy  Dy0  1  0.000000  0.320649  0.412597  1
  Dy  Dy1  1  0.000000  0.679351  0.587403  1
  Dy  Dy2  1  0.000000  0.823918  0.084755  1
  Dy  Dy3  1  0.000000  0.176082  0.915245  1
  Lu  Lu4  1  0.000000  0.943383  0.370803  1
  Lu  Lu5  1  0.000000  0.056617  0.629197  1
  Lu  Lu6  1  0.000000  0.443279  0.128961  1
  Lu  Lu7  1  0.000000  0.556721  0.871039  1
  Re  Re8  1  0.000000  0.139343  0.180741  1
  Re  Re9  1  0.000000  0.860657  0.819259  1
  B  B10  1  0.500000  0.554456  0.432722  1
  B  B11  1  0.500000  0.445544  0.567278  1
  B  B12  1  0.500000  0.053593  0.067171  1
  B  B13  1  0.500000  0.946407  0.932829  1
  B  B14  1  0.500000  0.750258  0.418577  1
  B  B15  1  0.500000  0.249742  0.581423  1
  B  B16  1  0.500000  0.250748  0.081211  1
  B  B17  1  0.500000  0.749252  0.918789  1
  B  B18  1  0.500000  0.791706  0.265881  1
  B  B19  1  0.500000  0.208294  0.734119  1
  B  B20  1  0.500000  0.292978  0.234786  1
  B  B21  1  0.500000  0.707022  0.765214  1
  B  B22  1  0.500000  0.630225  0.185325  1
  B  B23  1  0.500000  0.369775  0.814675  1
  B  B24  1  0.500000  0.130567  0.315638  1
  B  B25  1  0.500000  0.869433  0.684362  1
  B  B26  1  0.500000  0.982104  0.213286  1
  B  B27  1  0.500000  0.017896  0.786714  1
  B  B28  1  0.500000  0.483114  0.287423  1
  B  B29  1  0.500000  0.516886  0.712577  1
  B  B30  1  0.500000  0.600705  0.027949  1
  B  B31  1  0.500000  0.399295  0.972051  1
  B  B32  1  0.500000  0.101050  0.472387  1
  B  B33  1  0.500000  0.898950  0.527613  1
  Ru  Ru34  1  0.000000  0.638853  0.320347  1
  Ru  Ru35  1  0.000000  0.361147  0.679653  1
