# generated using pymatgen
data_TbYb5Sm2(Cu2Sn5)2
_symmetry_space_group_name_H-M   'P 1'
_cell_length_a   4.47480900
_cell_length_b   8.79374200
_cell_length_c   14.14177900
_cell_angle_alpha   90.00000000
_cell_angle_beta   90.00000000
_cell_angle_gamma   90.00000000
_symmetry_Int_Tables_number   1
_chemical_formula_structural   TbYb5Sm2(Cu2Sn5)2
_chemical_formula_sum   'Tb1 Yb5 Sm2 Cu4 Sn10'
_cell_volume   556.48347026
_cell_formula_units_Z   1
loop_
 _symmetry_equiv_pos_site_id
 _symmetry_equiv_pos_as_xyz
  1  'x, y, z'
loop_
 _atom_site_type_symbol
 _atom_site_label
 _atom_site_symmetry_multiplicity
 _atom_site_fract_x
 _atom_site_fract_y
 _atom_site_fract_z
 _atom_site_occupancy
  Tb  Tb0  1  0.000000  0.297779  0.500000  1
  Yb  Yb1  1  0.500000  0.791913  0.742039  1
  Yb  Yb2  1  0.000000  0.204757  0.753616  1
  Yb  Yb3  1  0.000000  0.204757  0.246384  1
  Yb  Yb4  1  0.000000  0.865673  0.500000  1
  Yb  Yb5  1  0.500000  0.791913  0.257961  1
  Sm  Sm6  1  0.500000  0.696067  0.000000  1
  Sm  Sm7  1  0.500000  0.139996  0.000000  1
  Cu  Cu8  1  0.500000  0.379027  0.644548  1
  Cu  Cu9  1  0.000000  0.623029  0.852710  1
  Cu  Cu10  1  0.000000  0.623029  0.147290  1
  Cu  Cu11  1  0.500000  0.379027  0.355452  1
  Sn  Sn12  1  0.500000  0.083534  0.395868  1
  Sn  Sn13  1  0.000000  0.553751  0.662892  1
  Sn  Sn14  1  0.000000  0.410889  0.000000  1
  Sn  Sn15  1  0.500000  0.442587  0.164829  1
  Sn  Sn16  1  0.500000  0.594800  0.500000  1
  Sn  Sn17  1  0.500000  0.442587  0.835171  1
  Sn  Sn18  1  0.000000  0.918799  0.896157  1
  Sn  Sn19  1  0.000000  0.553751  0.337108  1
  Sn  Sn20  1  0.500000  0.083534  0.604132  1
  Sn  Sn21  1  0.000000  0.918799  0.103843  1
