# generated using pymatgen
data_Pr16Cd3HgIr3Pt
_symmetry_space_group_name_H-M   'P 1'
_cell_length_a   10.04702487
_cell_length_b   10.04702403
_cell_length_c   10.04702517
_cell_angle_alpha   60.08712929
_cell_angle_beta   60.08713168
_cell_angle_gamma   60.08713169
_symmetry_Int_Tables_number   1
_chemical_formula_structural   Pr16Cd3HgIr3Pt
_chemical_formula_sum   'Pr16 Cd3 Hg1 Ir3 Pt1'
_cell_volume   718.54509730
_cell_formula_units_Z   1
loop_
 _symmetry_equiv_pos_site_id
 _symmetry_equiv_pos_as_xyz
  1  'x, y, z'
loop_
 _atom_site_type_symbol
 _atom_site_label
 _atom_site_symmetry_multiplicity
 _atom_site_fract_x
 _atom_site_fract_y
 _atom_site_fract_z
 _atom_site_occupancy
  Pr  Pr0  1  0.347026  0.347026  0.347026  1
  Pr  Pr1  1  0.352206  0.352206  0.950071  1
  Pr  Pr2  1  0.352206  0.950071  0.352206  1
  Pr  Pr3  1  0.950071  0.352206  0.352206  1
  Pr  Pr4  1  0.806055  0.190094  0.190094  1
  Pr  Pr5  1  0.188984  0.808680  0.808680  1
  Pr  Pr6  1  0.190094  0.806055  0.190094  1
  Pr  Pr7  1  0.808680  0.188984  0.808680  1
  Pr  Pr8  1  0.190094  0.190094  0.806055  1
  Pr  Pr9  1  0.808680  0.808680  0.188984  1
  Pr  Pr10  1  0.940041  0.561698  0.561698  1
  Pr  Pr11  1  0.561143  0.938830  0.938830  1
  Pr  Pr12  1  0.561698  0.940041  0.561698  1
  Pr  Pr13  1  0.938830  0.561143  0.938830  1
  Pr  Pr14  1  0.561698  0.561698  0.940041  1
  Pr  Pr15  1  0.938830  0.938830  0.561143  1
  Cd  Cd16  1  0.579609  0.579609  0.259878  1
  Cd  Cd17  1  0.579609  0.259878  0.579609  1
  Cd  Cd18  1  0.259878  0.579609  0.579609  1
  Hg  Hg19  1  0.583548  0.583548  0.583548  1
  Ir  Ir20  1  0.141940  0.141940  0.574227  1
  Ir  Ir21  1  0.141940  0.574227  0.141940  1
  Ir  Ir22  1  0.574227  0.141940  0.141940  1
  Pt  Pt23  1  0.142911  0.142911  0.142911  1
