# generated using pymatgen
data_CaNd4Ga3
_symmetry_space_group_name_H-M   'P 1'
_cell_length_a   9.16384452
_cell_length_b   9.16384426
_cell_length_c   9.16384367
_cell_angle_alpha   129.07248376
_cell_angle_beta   129.07248116
_cell_angle_gamma   74.89397554
_symmetry_Int_Tables_number   1
_chemical_formula_structural   CaNd4Ga3
_chemical_formula_sum   'Ca2 Nd8 Ga6'
_cell_volume   451.73492757
_cell_formula_units_Z   2
loop_
 _symmetry_equiv_pos_site_id
 _symmetry_equiv_pos_as_xyz
  1  'x, y, z'
loop_
 _atom_site_type_symbol
 _atom_site_label
 _atom_site_symmetry_multiplicity
 _atom_site_fract_x
 _atom_site_fract_y
 _atom_site_fract_z
 _atom_site_occupancy
  Ca  Ca0  1  0.500000  0.500000  0.000000  1
  Ca  Ca1  1  0.000000  0.000000  0.000000  1
  Nd  Nd2  1  0.523295  0.023295  0.844273  1
  Nd  Nd3  1  0.179021  0.679021  0.155727  1
  Nd  Nd4  1  0.023295  0.179021  0.500000  1
  Nd  Nd5  1  0.679021  0.523295  0.500000  1
  Nd  Nd6  1  0.476705  0.976705  0.155727  1
  Nd  Nd7  1  0.820979  0.320979  0.844273  1
  Nd  Nd8  1  0.976705  0.820979  0.500000  1
  Nd  Nd9  1  0.320979  0.476705  0.500000  1
  Ga  Ga10  1  0.250000  0.250000  0.000000  1
  Ga  Ga11  1  0.750000  0.750000  0.000000  1
  Ga  Ga12  1  0.882504  0.382504  0.265007  1
  Ga  Ga13  1  0.117496  0.617496  0.734993  1
  Ga  Ga14  1  0.382504  0.117496  0.500000  1
  Ga  Ga15  1  0.617496  0.882504  0.500000  1
