# generated using pymatgen
data_Sc12AlFe4Sb
_symmetry_space_group_name_H-M   'P 1'
_cell_length_a   7.79418099
_cell_length_b   7.79417968
_cell_length_c   7.79418041
_cell_angle_alpha   110.77390851
_cell_angle_beta   111.13707101
_cell_angle_gamma   106.54202359
_symmetry_Int_Tables_number   1
_chemical_formula_structural   Sc12AlFe4Sb
_chemical_formula_sum   'Sc12 Al1 Fe4 Sb1'
_cell_volume   363.77947108
_cell_formula_units_Z   1
loop_
 _symmetry_equiv_pos_site_id
 _symmetry_equiv_pos_as_xyz
  1  'x, y, z'
loop_
 _atom_site_type_symbol
 _atom_site_label
 _atom_site_symmetry_multiplicity
 _atom_site_fract_x
 _atom_site_fract_y
 _atom_site_fract_z
 _atom_site_occupancy
  Sc  Sc0  1  0.446483  0.231479  0.215005  1
  Sc  Sc1  1  0.553517  0.768521  0.784995  1
  Sc  Sc2  1  0.016475  0.231479  0.784995  1
  Sc  Sc3  1  0.983525  0.768521  0.215005  1
  Sc  Sc4  1  0.312269  0.611357  0.299087  1
  Sc  Sc5  1  0.687731  0.388643  0.700913  1
  Sc  Sc6  1  0.312269  0.013181  0.700913  1
  Sc  Sc7  1  0.687731  0.986819  0.299087  1
  Sc  Sc8  1  0.186616  0.279530  0.466148  1
  Sc  Sc9  1  0.813384  0.720469  0.533852  1
  Sc  Sc10  1  0.186616  0.720469  0.907087  1
  Sc  Sc11  1  0.813384  0.279530  0.092913  1
  Al  Al12  1  0.000000  0.000000  0.000000  1
  Fe  Fe13  1  0.372902  0.000000  0.372902  1
  Fe  Fe14  1  0.627098  0.000000  0.627098  1
  Fe  Fe15  1  0.114457  0.614457  0.500000  1
  Fe  Fe16  1  0.885543  0.385543  0.500000  1
  Sb  Sb17  1  0.500000  0.500000  0.000000  1
