# generated using pymatgen
data_Li3CePr3AlIr4
_symmetry_space_group_name_H-M   'P 1'
_cell_length_a   7.14584535
_cell_length_b   4.05609700
_cell_length_c   8.46565641
_cell_angle_alpha   90.00000000
_cell_angle_beta   90.41088273
_cell_angle_gamma   90.00000000
_symmetry_Int_Tables_number   1
_chemical_formula_structural   Li3CePr3AlIr4
_chemical_formula_sum   'Li3 Ce1 Pr3 Al1 Ir4'
_cell_volume   245.36432383
_cell_formula_units_Z   1
loop_
 _symmetry_equiv_pos_site_id
 _symmetry_equiv_pos_as_xyz
  1  'x, y, z'
loop_
 _atom_site_type_symbol
 _atom_site_label
 _atom_site_symmetry_multiplicity
 _atom_site_fract_x
 _atom_site_fract_y
 _atom_site_fract_z
 _atom_site_occupancy
  Li  Li0  1  0.873235  0.250000  0.555478  1
  Li  Li1  1  0.137888  0.750000  0.445450  1
  Li  Li2  1  0.625211  0.750000  0.056402  1
  Ce  Ce3  1  0.543445  0.750000  0.683776  1
  Pr  Pr4  1  0.952270  0.250000  0.181230  1
  Pr  Pr5  1  0.462052  0.250000  0.317513  1
  Pr  Pr6  1  0.034933  0.750000  0.811909  1
  Al  Al7  1  0.366448  0.250000  0.944687  1
  Ir  Ir8  1  0.721202  0.250000  0.870212  1
  Ir  Ir9  1  0.276920  0.250000  0.642829  1
  Ir  Ir10  1  0.254720  0.750000  0.104506  1
  Ir  Ir11  1  0.751673  0.750000  0.386010  1
