# generated using pymatgen
data_HoTm15MgIn3Rh4
_symmetry_space_group_name_H-M   'P 1'
_cell_length_a   9.53767785
_cell_length_b   9.53767829
_cell_length_c   9.53725727
_cell_angle_alpha   59.99395140
_cell_angle_beta   59.99395219
_cell_angle_gamma   59.97010329
_symmetry_Int_Tables_number   1
_chemical_formula_structural   HoTm15MgIn3Rh4
_chemical_formula_sum   'Ho1 Tm15 Mg1 In3 Rh4'
_cell_volume   613.27591032
_cell_formula_units_Z   1
loop_
 _symmetry_equiv_pos_site_id
 _symmetry_equiv_pos_as_xyz
  1  'x, y, z'
loop_
 _atom_site_type_symbol
 _atom_site_label
 _atom_site_symmetry_multiplicity
 _atom_site_fract_x
 _atom_site_fract_y
 _atom_site_fract_z
 _atom_site_occupancy
  Ho  Ho0  1  0.061540  0.061540  0.438311  1
  Tm  Tm1  1  0.436241  0.064152  0.435821  1
  Tm  Tm2  1  0.061517  0.438733  0.061035  1
  Tm  Tm3  1  0.047704  0.649859  0.650370  1
  Tm  Tm4  1  0.435843  0.435843  0.064094  1
  Tm  Tm5  1  0.649859  0.047704  0.650370  1
  Tm  Tm6  1  0.187252  0.812171  0.187004  1
  Tm  Tm7  1  0.187214  0.187214  0.812292  1
  Tm  Tm8  1  0.810140  0.810140  0.189983  1
  Tm  Tm9  1  0.438733  0.061517  0.061035  1
  Tm  Tm10  1  0.812171  0.187252  0.187004  1
  Tm  Tm11  1  0.064152  0.436241  0.435821  1
  Tm  Tm12  1  0.809957  0.189962  0.810462  1
  Tm  Tm13  1  0.189962  0.809957  0.810462  1
  Tm  Tm14  1  0.650090  0.650090  0.047672  1
  Tm  Tm15  1  0.651599  0.651599  0.651754  1
  Mg  Mg16  1  0.422444  0.422444  0.422409  1
  In  In17  1  0.748363  0.417893  0.417372  1
  In  In18  1  0.417893  0.748363  0.417372  1
  In  In19  1  0.417373  0.417373  0.748953  1
  Rh  Rh20  1  0.858256  0.858256  0.426252  1
  Rh  Rh21  1  0.856906  0.856906  0.857392  1
  Rh  Rh22  1  0.426428  0.858366  0.858381  1
  Rh  Rh23  1  0.858366  0.426428  0.858381  1
