# generated using pymatgen
data_FeRh3(SO4)6
_symmetry_space_group_name_H-M   'P 1'
_cell_length_a   8.26361280
_cell_length_b   8.26361432
_cell_length_c   8.87547828
_cell_angle_alpha   117.74456373
_cell_angle_beta   62.25543225
_cell_angle_gamma   119.99999827
_symmetry_Int_Tables_number   1
_chemical_formula_structural   FeRh3(SO4)6
_chemical_formula_sum   'Fe1 Rh3 S6 O24'
_cell_volume   442.59850197
_cell_formula_units_Z   1
loop_
 _symmetry_equiv_pos_site_id
 _symmetry_equiv_pos_as_xyz
  1  'x, y, z'
loop_
 _atom_site_type_symbol
 _atom_site_label
 _atom_site_symmetry_multiplicity
 _atom_site_fract_x
 _atom_site_fract_y
 _atom_site_fract_z
 _atom_site_occupancy
  Fe  Fe0  1  0.357444  0.642555  0.927666  1
  Rh  Rh1  1  0.645429  0.354570  0.063711  1
  Rh  Rh2  1  0.846836  0.153164  0.459493  1
  Rh  Rh3  1  0.153270  0.846730  0.540190  1
  S  S4  1  0.250350  0.460143  0.251212  1
  S  S5  1  0.539857  0.041420  0.251212  1
  S  S6  1  0.958580  0.749650  0.251212  1
  S  S7  1  0.043899  0.250296  0.747472  1
  S  S8  1  0.458926  0.956102  0.747472  1
  S  S9  1  0.749704  0.541075  0.747472  1
  O  O10  1  0.110057  0.700952  0.081502  1
  O  O11  1  0.299047  0.490607  0.081502  1
  O  O12  1  0.509393  0.889943  0.081502  1
  O  O13  1  0.373859  0.364336  0.232274  1
  O  O14  1  0.635664  0.241798  0.232274  1
  O  O15  1  0.758202  0.626140  0.232274  1
  O  O16  1  0.040374  0.330555  0.294410  1
  O  O17  1  0.669444  0.004227  0.294410  1
  O  O18  1  0.995773  0.959627  0.294410  1
  O  O19  1  0.294682  0.652308  0.396126  1
  O  O20  1  0.347693  0.038502  0.396126  1
  O  O21  1  0.961498  0.705316  0.396126  1
  O  O22  1  0.033908  0.295996  0.607255  1
  O  O23  1  0.654832  0.966092  0.607255  1
  O  O24  1  0.704006  0.345168  0.607255  1
  O  O25  1  0.002246  0.039209  0.704506  1
  O  O26  1  0.332458  0.997754  0.704506  1
  O  O27  1  0.960790  0.667542  0.704506  1
  O  O28  1  0.244561  0.374374  0.762377  1
  O  O29  1  0.367435  0.755438  0.762377  1
  O  O30  1  0.625627  0.632565  0.762377  1
  O  O31  1  0.476970  0.095783  0.925848  1
  O  O32  1  0.692967  0.523030  0.925848  1
  O  O33  1  0.904216  0.307034  0.925848  1
