# generated using pymatgen
data_Pr4PI6
_symmetry_space_group_name_H-M   'P 1'
_cell_length_a   4.38333000
_cell_length_b   14.39954400
_cell_length_c   15.22684000
_cell_angle_alpha   90.00000000
_cell_angle_beta   90.00000000
_cell_angle_gamma   90.00000000
_symmetry_Int_Tables_number   1
_chemical_formula_structural   Pr4PI6
_chemical_formula_sum   'Pr8 P2 I12'
_cell_volume   961.08697453
_cell_formula_units_Z   2
loop_
 _symmetry_equiv_pos_site_id
 _symmetry_equiv_pos_as_xyz
  1  'x, y, z'
loop_
 _atom_site_type_symbol
 _atom_site_label
 _atom_site_symmetry_multiplicity
 _atom_site_fract_x
 _atom_site_fract_y
 _atom_site_fract_z
 _atom_site_occupancy
  Pr  Pr0  1  0.500000  0.114005  0.348641  1
  Pr  Pr1  1  0.500000  0.885995  0.651359  1
  Pr  Pr2  1  0.500000  0.614005  0.151359  1
  Pr  Pr3  1  0.500000  0.385995  0.848641  1
  Pr  Pr4  1  0.000000  0.108671  0.572659  1
  Pr  Pr5  1  0.000000  0.891329  0.427341  1
  Pr  Pr6  1  0.000000  0.608671  0.927341  1
  Pr  Pr7  1  0.000000  0.391329  0.072659  1
  P  P8  1  0.500000  0.000000  0.500000  1
  P  P9  1  0.500000  0.500000  0.000000  1
  I  I10  1  0.500000  0.246592  0.160953  1
  I  I11  1  0.500000  0.753408  0.839047  1
  I  I12  1  0.500000  0.746592  0.339047  1
  I  I13  1  0.500000  0.253408  0.660953  1
  I  I14  1  0.000000  0.260027  0.415233  1
  I  I15  1  0.000000  0.739973  0.584767  1
  I  I16  1  0.000000  0.760027  0.084767  1
  I  I17  1  0.000000  0.239973  0.915233  1
  I  I18  1  0.000000  0.998980  0.239982  1
  I  I19  1  0.000000  0.001020  0.760018  1
  I  I20  1  0.000000  0.498980  0.260018  1
  I  I21  1  0.000000  0.501020  0.739982  1
