# generated using pymatgen
data_Sr4SiP3Au4
_symmetry_space_group_name_H-M   'P 1'
_cell_length_a   8.81859601
_cell_length_b   4.33669300
_cell_length_c   7.56326301
_cell_angle_alpha   90.00000000
_cell_angle_beta   90.00527082
_cell_angle_gamma   90.00000000
_symmetry_Int_Tables_number   1
_chemical_formula_structural   Sr4SiP3Au4
_chemical_formula_sum   'Sr4 Si1 P3 Au4'
_cell_volume   289.24597726
_cell_formula_units_Z   1
loop_
 _symmetry_equiv_pos_site_id
 _symmetry_equiv_pos_as_xyz
  1  'x, y, z'
loop_
 _atom_site_type_symbol
 _atom_site_label
 _atom_site_symmetry_multiplicity
 _atom_site_fract_x
 _atom_site_fract_y
 _atom_site_fract_z
 _atom_site_occupancy
  Sr  Sr0  1  0.505052  0.249999  0.250682  1
  Sr  Sr1  1  0.995318  0.249999  0.251476  1
  Sr  Sr2  1  0.997879  0.749999  0.748751  1
  Sr  Sr3  1  0.501820  0.749999  0.749337  1
  Si  Si4  1  0.249809  0.749999  0.083608  1
  P  P5  1  0.749808  0.749999  0.415989  1
  P  P6  1  0.250175  0.249999  0.583724  1
  P  P7  1  0.750168  0.249999  0.914283  1
  Au  Au8  1  0.750408  0.749999  0.084179  1
  Au  Au9  1  0.250297  0.749999  0.410918  1
  Au  Au10  1  0.749632  0.249999  0.585450  1
  Au  Au11  1  0.249635  0.249999  0.921600  1
