# generated using pymatgen
data_Th2Al20Tc3Ir
_symmetry_space_group_name_H-M   'P 1'
_cell_length_a   6.92176530
_cell_length_b   6.93037988
_cell_length_c   9.24574995
_cell_angle_alpha   90.17498275
_cell_angle_beta   90.17053279
_cell_angle_gamma   97.06547817
_symmetry_Int_Tables_number   1
_chemical_formula_structural   Th2Al20Tc3Ir
_chemical_formula_sum   'Th2 Al20 Tc3 Ir1'
_cell_volume   440.15033122
_cell_formula_units_Z   1
loop_
 _symmetry_equiv_pos_site_id
 _symmetry_equiv_pos_as_xyz
  1  'x, y, z'
loop_
 _atom_site_type_symbol
 _atom_site_label
 _atom_site_symmetry_multiplicity
 _atom_site_fract_x
 _atom_site_fract_y
 _atom_site_fract_z
 _atom_site_occupancy
  Th  Th0  1  0.875824  0.131180  0.747906  1
  Th  Th1  1  0.124176  0.868820  0.252094  1
  Al  Al2  1  0.519178  0.779737  0.747126  1
  Al  Al3  1  0.480822  0.220263  0.252874  1
  Al  Al4  1  0.593163  0.860567  0.250841  1
  Al  Al5  1  0.773823  0.772042  0.000810  1
  Al  Al6  1  0.160732  0.841080  0.601825  1
  Al  Al7  1  0.226177  0.227958  0.999190  1
  Al  Al8  1  0.139053  0.406424  0.250023  1
  Al  Al9  1  0.623051  0.380408  0.950639  1
  Al  Al10  1  0.842050  0.159891  0.101823  1
  Al  Al11  1  0.378404  0.622012  0.452226  1
  Al  Al12  1  0.157950  0.840109  0.898177  1
  Al  Al13  1  0.221653  0.482454  0.751301  1
  Al  Al14  1  0.376949  0.619592  0.049361  1
  Al  Al15  1  0.839268  0.158920  0.398175  1
  Al  Al16  1  0.621596  0.377988  0.547774  1
  Al  Al17  1  0.406837  0.139433  0.749159  1
  Al  Al18  1  0.778347  0.517546  0.248699  1
  Al  Al19  1  0.771879  0.771783  0.499894  1
  Al  Al20  1  0.228121  0.228217  0.500106  1
  Al  Al21  1  0.860947  0.593576  0.749977  1
  Tc  Tc22  1  0.000000  0.500000  0.500000  1
  Tc  Tc23  1  0.000000  0.500000  0.000000  1
  Tc  Tc24  1  0.500000  0.000000  0.500000  1
  Ir  Ir25  1  0.500000  0.000000  0.000000  1
