# generated using pymatgen
data_Ac8Tm12Si15Ge
_symmetry_space_group_name_H-M   'P 1'
_cell_length_a   7.66410828
_cell_length_b   7.95944264
_cell_length_c   15.10222600
_cell_angle_alpha   90.00577317
_cell_angle_beta   89.91082046
_cell_angle_gamma   90.02233860
_symmetry_Int_Tables_number   1
_chemical_formula_structural   Ac8Tm12Si15Ge
_chemical_formula_sum   'Ac8 Tm12 Si15 Ge1'
_cell_volume   921.26525758
_cell_formula_units_Z   1
loop_
 _symmetry_equiv_pos_site_id
 _symmetry_equiv_pos_as_xyz
  1  'x, y, z'
loop_
 _atom_site_type_symbol
 _atom_site_label
 _atom_site_symmetry_multiplicity
 _atom_site_fract_x
 _atom_site_fract_y
 _atom_site_fract_z
 _atom_site_occupancy
  Ac  Ac0  1  0.016394  0.171511  0.401202  1
  Ac  Ac1  1  0.516771  0.327464  0.400895  1
  Ac  Ac2  1  0.482926  0.671972  0.901439  1
  Ac  Ac3  1  0.485478  0.672960  0.599036  1
  Ac  Ac4  1  0.982534  0.828400  0.598674  1
  Ac  Ac5  1  0.982576  0.828295  0.901679  1
  Ac  Ac6  1  0.517286  0.328166  0.098332  1
  Ac  Ac7  1  0.017693  0.172288  0.098245  1
  Tm  Tm8  1  0.324913  0.172617  0.626087  1
  Tm  Tm9  1  0.676001  0.825563  0.374579  1
  Tm  Tm10  1  0.653152  0.999412  0.750304  1
  Tm  Tm11  1  0.175678  0.675439  0.374655  1
  Tm  Tm12  1  0.822603  0.325198  0.875292  1
  Tm  Tm13  1  0.822203  0.325777  0.624892  1
  Tm  Tm14  1  0.846604  0.499532  0.250170  1
  Tm  Tm15  1  0.347157  0.000226  0.249770  1
  Tm  Tm16  1  0.322753  0.174427  0.875062  1
  Tm  Tm17  1  0.176861  0.674892  0.124689  1
  Tm  Tm18  1  0.677159  0.824915  0.124664  1
  Tm  Tm19  1  0.153033  0.500632  0.751566  1
  Si  Si20  1  0.284738  0.882503  0.750346  1
  Si  Si21  1  0.472979  0.632376  0.249628  1
  Si  Si22  1  0.025585  0.132673  0.750114  1
  Si  Si23  1  0.526328  0.367681  0.750394  1
  Si  Si24  1  0.973576  0.868378  0.249450  1
  Si  Si25  1  0.715556  0.116274  0.249510  1
  Si  Si26  1  0.856306  0.534666  0.040061  1
  Si  Si27  1  0.356597  0.965171  0.039923  1
  Si  Si28  1  0.143744  0.465543  0.959800  1
  Si  Si29  1  0.644169  0.035715  0.539927  1
  Si  Si30  1  0.355633  0.964536  0.460162  1
  Si  Si31  1  0.850809  0.536540  0.458416  1
  Si  Si32  1  0.785437  0.616548  0.750167  1
  Si  Si33  1  0.215241  0.383910  0.249832  1
  Si  Si34  1  0.643230  0.034847  0.960102  1
  Ge  Ge35  1  0.150300  0.462950  0.540933  1
