# generated using pymatgen
data_Hf2Fe4Co8P7
_symmetry_space_group_name_H-M   'P 1'
_cell_length_a   8.88165701
_cell_length_b   8.86543042
_cell_length_c   3.55856600
_cell_angle_alpha   90.00000000
_cell_angle_beta   90.00000000
_cell_angle_gamma   120.13997374
_symmetry_Int_Tables_number   1
_chemical_formula_structural   Hf2Fe4Co8P7
_chemical_formula_sum   'Hf2 Fe4 Co8 P7'
_cell_volume   242.31772996
_cell_formula_units_Z   1
loop_
 _symmetry_equiv_pos_site_id
 _symmetry_equiv_pos_as_xyz
  1  'x, y, z'
loop_
 _atom_site_type_symbol
 _atom_site_label
 _atom_site_symmetry_multiplicity
 _atom_site_fract_x
 _atom_site_fract_y
 _atom_site_fract_z
 _atom_site_occupancy
  Hf  Hf0  1  0.001186  0.002380  0.000000  1
  Hf  Hf1  1  0.332715  0.665247  0.500000  1
  Fe  Fe2  1  0.228952  0.281973  0.500000  1
  Fe  Fe3  1  0.886433  0.426662  0.500000  1
  Fe  Fe4  1  0.540103  0.113613  0.500000  1
  Fe  Fe5  1  0.574321  0.458903  0.500000  1
  Co  Co6  1  0.099965  0.397494  0.000000  1
  Co  Co7  1  0.295425  0.897586  0.000000  1
  Co  Co8  1  0.601945  0.703708  0.000000  1
  Co  Co9  1  0.827559  0.612776  0.000000  1
  Co  Co10  1  0.783908  0.171776  0.000000  1
  Co  Co11  1  0.389895  0.215228  0.000000  1
  Co  Co12  1  0.053756  0.773110  0.500000  1
  Co  Co13  1  0.718023  0.945833  0.500000  1
  P  P14  1  0.079732  0.628943  0.000000  1
  P  P15  1  0.548115  0.919199  0.000000  1
  P  P16  1  0.368639  0.449390  0.000000  1
  P  P17  1  0.785126  0.740584  0.500000  1
  P  P18  1  0.956644  0.215650  0.500000  1
  P  P19  1  0.259883  0.046432  0.500000  1
  P  P20  1  0.667677  0.333514  0.000000  1
