# generated using pymatgen
data_Nd4MgSi2Sn
_symmetry_space_group_name_H-M   'P 1'
_cell_length_a   7.52266900
_cell_length_b   9.51888274
_cell_length_c   7.52266900
_cell_angle_alpha   113.27499196
_cell_angle_beta   90.00000000
_cell_angle_gamma   113.27499196
_symmetry_Int_Tables_number   1
_chemical_formula_structural   Nd4MgSi2Sn
_chemical_formula_sum   'Nd8 Mg2 Si4 Sn2'
_cell_volume   446.72081292
_cell_formula_units_Z   2
loop_
 _symmetry_equiv_pos_site_id
 _symmetry_equiv_pos_as_xyz
  1  'x, y, z'
loop_
 _atom_site_type_symbol
 _atom_site_label
 _atom_site_symmetry_multiplicity
 _atom_site_fract_x
 _atom_site_fract_y
 _atom_site_fract_z
 _atom_site_occupancy
  Nd  Nd0  1  0.546477  0.734159  0.687684  1
  Nd  Nd1  1  0.187684  0.734159  0.046477  1
  Nd  Nd2  1  0.687684  0.734159  0.187684  1
  Nd  Nd3  1  0.046477  0.734159  0.546477  1
  Nd  Nd4  1  0.453523  0.265841  0.312316  1
  Nd  Nd5  1  0.812316  0.265841  0.953523  1
  Nd  Nd6  1  0.312316  0.265841  0.812316  1
  Nd  Nd7  1  0.953523  0.265841  0.453523  1
  Mg  Mg8  1  0.000000  0.000000  0.000000  1
  Mg  Mg9  1  0.500000  0.000000  0.500000  1
  Si  Si10  1  0.884629  0.000000  0.615371  1
  Si  Si11  1  0.115371  0.000000  0.384629  1
  Si  Si12  1  0.615371  0.000000  0.115371  1
  Si  Si13  1  0.384629  0.000000  0.884629  1
  Sn  Sn14  1  0.750000  0.500000  0.750000  1
  Sn  Sn15  1  0.250000  0.500000  0.250000  1
