# generated using pymatgen
data_Rb4DyYF10
_symmetry_space_group_name_H-M   'P 1'
_cell_length_a   6.97268402
_cell_length_b   7.44833800
_cell_length_c   11.55091504
_cell_angle_alpha   90.00000000
_cell_angle_beta   90.00921468
_cell_angle_gamma   90.00000000
_symmetry_Int_Tables_number   1
_chemical_formula_structural   Rb4DyYF10
_chemical_formula_sum   'Rb8 Dy2 Y2 F20'
_cell_volume   599.89569471
_cell_formula_units_Z   2
loop_
 _symmetry_equiv_pos_site_id
 _symmetry_equiv_pos_as_xyz
  1  'x, y, z'
loop_
 _atom_site_type_symbol
 _atom_site_label
 _atom_site_symmetry_multiplicity
 _atom_site_fract_x
 _atom_site_fract_y
 _atom_site_fract_z
 _atom_site_occupancy
  Rb  Rb0  1  0.529477  0.498886  0.828084  1
  Rb  Rb1  1  0.470523  0.501114  0.171916  1
  Rb  Rb2  1  0.029438  0.501101  0.671975  1
  Rb  Rb3  1  0.470523  0.998886  0.171916  1
  Rb  Rb4  1  0.970562  0.498899  0.328025  1
  Rb  Rb5  1  0.529477  0.001114  0.828084  1
  Rb  Rb6  1  0.970562  0.001101  0.328025  1
  Rb  Rb7  1  0.029438  0.998899  0.671975  1
  Dy  Dy8  1  0.059896  0.250000  0.999050  1
  Dy  Dy9  1  0.940104  0.750000  0.000950  1
  Y  Y10  1  0.559697  0.750000  0.501009  1
  Y  Y11  1  0.440303  0.250000  0.498991  1
  F  F12  1  0.844550  0.750000  0.817752  1
  F  F13  1  0.155450  0.250000  0.182248  1
  F  F14  1  0.344172  0.250000  0.682874  1
  F  F15  1  0.655828  0.750000  0.317126  1
  F  F16  1  0.373722  0.750000  0.656611  1
  F  F17  1  0.626278  0.250000  0.343389  1
  F  F18  1  0.874190  0.250000  0.843858  1
  F  F19  1  0.125810  0.750000  0.156142  1
  F  F20  1  0.876442  0.750000  0.515997  1
  F  F21  1  0.123558  0.250000  0.484003  1
  F  F22  1  0.375261  0.250000  0.984046  1
  F  F23  1  0.624739  0.750000  0.015954  1
  F  F24  1  0.639047  0.033857  0.573443  1
  F  F25  1  0.360953  0.966143  0.426557  1
  F  F26  1  0.138227  0.966248  0.926971  1
  F  F27  1  0.360953  0.533857  0.426557  1
  F  F28  1  0.861773  0.033752  0.073029  1
  F  F29  1  0.639047  0.466143  0.573443  1
  F  F30  1  0.861773  0.466248  0.073029  1
  F  F31  1  0.138227  0.533752  0.926971  1
