# generated using pymatgen
data_SmIn2Pd3
_symmetry_space_group_name_H-M   'P 1'
_cell_length_a   4.66796600
_cell_length_b   9.93368100
_cell_length_c   10.34248000
_cell_angle_alpha   90.00000000
_cell_angle_beta   90.00000000
_cell_angle_gamma   90.00000000
_symmetry_Int_Tables_number   1
_chemical_formula_structural   SmIn2Pd3
_chemical_formula_sum   'Sm4 In8 Pd12'
_cell_volume   479.58167840
_cell_formula_units_Z   4
loop_
 _symmetry_equiv_pos_site_id
 _symmetry_equiv_pos_as_xyz
  1  'x, y, z'
loop_
 _atom_site_type_symbol
 _atom_site_label
 _atom_site_symmetry_multiplicity
 _atom_site_fract_x
 _atom_site_fract_y
 _atom_site_fract_z
 _atom_site_occupancy
  Sm  Sm0  1  0.250000  0.443259  0.728015  1
  Sm  Sm1  1  0.250000  0.056741  0.228015  1
  Sm  Sm2  1  0.750000  0.556741  0.271985  1
  Sm  Sm3  1  0.750000  0.943259  0.771985  1
  In  In4  1  0.250000  0.885013  0.515954  1
  In  In5  1  0.250000  0.614987  0.015954  1
  In  In6  1  0.750000  0.114987  0.484046  1
  In  In7  1  0.750000  0.385013  0.984046  1
  In  In8  1  0.250000  0.159872  0.894193  1
  In  In9  1  0.250000  0.340128  0.394193  1
  In  In10  1  0.750000  0.840128  0.105807  1
  In  In11  1  0.750000  0.659872  0.605807  1
  Pd  Pd12  1  0.250000  0.144598  0.620426  1
  Pd  Pd13  1  0.250000  0.355402  0.120426  1
  Pd  Pd14  1  0.750000  0.855402  0.379574  1
  Pd  Pd15  1  0.750000  0.644598  0.879574  1
  Pd  Pd16  1  0.250000  0.740156  0.742012  1
  Pd  Pd17  1  0.250000  0.759844  0.242012  1
  Pd  Pd18  1  0.750000  0.259844  0.257988  1
  Pd  Pd19  1  0.750000  0.240156  0.757988  1
  Pd  Pd20  1  0.250000  0.895378  0.973545  1
  Pd  Pd21  1  0.250000  0.604622  0.473545  1
  Pd  Pd22  1  0.750000  0.104622  0.026455  1
  Pd  Pd23  1  0.750000  0.395378  0.526455  1
