# generated using pymatgen
data_CaY3(W2O7)2
_symmetry_space_group_name_H-M   'P 1'
_cell_length_a   7.36411369
_cell_length_b   7.36411357
_cell_length_c   7.47000527
_cell_angle_alpha   60.47393511
_cell_angle_beta   60.47393714
_cell_angle_gamma   59.99398169
_symmetry_Int_Tables_number   1
_chemical_formula_structural   CaY3(W2O7)2
_chemical_formula_sum   'Ca1 Y3 W4 O14'
_cell_volume   288.47027049
_cell_formula_units_Z   1
loop_
 _symmetry_equiv_pos_site_id
 _symmetry_equiv_pos_as_xyz
  1  'x, y, z'
loop_
 _atom_site_type_symbol
 _atom_site_label
 _atom_site_symmetry_multiplicity
 _atom_site_fract_x
 _atom_site_fract_y
 _atom_site_fract_z
 _atom_site_occupancy
  Ca  Ca0  1  0.500000  0.500000  0.000000  1
  Y  Y1  1  0.000000  0.500000  0.500000  1
  Y  Y2  1  0.500000  0.000000  0.500000  1
  Y  Y3  1  0.500000  0.500000  0.500000  1
  W  W4  1  0.500000  0.000000  0.000000  1
  W  W5  1  0.000000  0.500000  0.000000  1
  W  W6  1  0.000000  0.000000  0.000000  1
  W  W7  1  0.000000  0.000000  0.500000  1
  O  O8  1  0.371679  0.371679  0.384965  1
  O  O9  1  0.628321  0.628321  0.615035  1
  O  O10  1  0.083493  0.672875  0.660086  1
  O  O11  1  0.336800  0.928493  0.898004  1
  O  O12  1  0.672875  0.083493  0.660086  1
  O  O13  1  0.083871  0.083871  0.659858  1
  O  O14  1  0.663469  0.663469  0.102941  1
  O  O15  1  0.071507  0.663200  0.101996  1
  O  O16  1  0.663200  0.071507  0.101996  1
  O  O17  1  0.336531  0.336531  0.897059  1
  O  O18  1  0.916129  0.916129  0.340142  1
  O  O19  1  0.916507  0.327125  0.339914  1
  O  O20  1  0.928493  0.336800  0.898004  1
  O  O21  1  0.327125  0.916507  0.339914  1
