# generated using pymatgen
data_MgZn3CdIr
_symmetry_space_group_name_H-M   'P 1'
_cell_length_a   5.17125768
_cell_length_b   5.23543773
_cell_length_c   8.46078196
_cell_angle_alpha   89.55777414
_cell_angle_beta   90.22385558
_cell_angle_gamma   120.41139539
_symmetry_Int_Tables_number   1
_chemical_formula_structural   MgZn3CdIr
_chemical_formula_sum   'Mg2 Zn6 Cd2 Ir2'
_cell_volume   197.54318107
_cell_formula_units_Z   2
loop_
 _symmetry_equiv_pos_site_id
 _symmetry_equiv_pos_as_xyz
  1  'x, y, z'
loop_
 _atom_site_type_symbol
 _atom_site_label
 _atom_site_symmetry_multiplicity
 _atom_site_fract_x
 _atom_site_fract_y
 _atom_site_fract_z
 _atom_site_occupancy
  Mg  Mg0  1  0.678045  0.330760  0.932967  1
  Mg  Mg1  1  0.321955  0.652716  0.432967  1
  Zn  Zn2  1  0.998908  0.019159  0.000359  1
  Zn  Zn3  1  0.001092  0.020251  0.500359  1
  Zn  Zn4  1  0.337731  0.164584  0.249880  1
  Zn  Zn5  1  0.662269  0.826854  0.749880  1
  Zn  Zn6  1  0.169548  0.830172  0.750005  1
  Zn  Zn7  1  0.830452  0.660624  0.250005  1
  Cd  Cd8  1  0.324751  0.657925  0.066409  1
  Cd  Cd9  1  0.675249  0.333173  0.566409  1
  Ir  Ir10  1  0.178677  0.341229  0.750380  1
  Ir  Ir11  1  0.821323  0.162553  0.250380  1
