# generated using pymatgen
data_Yb2In3SnIr2
_symmetry_space_group_name_H-M   'P 1'
_cell_length_a   5.65076820
_cell_length_b   5.65076819
_cell_length_c   8.05665802
_cell_angle_alpha   89.88986024
_cell_angle_beta   90.11014069
_cell_angle_gamma   135.57091586
_symmetry_Int_Tables_number   1
_chemical_formula_structural   Yb2In3SnIr2
_chemical_formula_sum   'Yb2 In3 Sn1 Ir2'
_cell_volume   180.08730682
_cell_formula_units_Z   1
loop_
 _symmetry_equiv_pos_site_id
 _symmetry_equiv_pos_as_xyz
  1  'x, y, z'
loop_
 _atom_site_type_symbol
 _atom_site_label
 _atom_site_symmetry_multiplicity
 _atom_site_fract_x
 _atom_site_fract_y
 _atom_site_fract_z
 _atom_site_occupancy
  Yb  Yb0  1  0.932701  0.067299  0.748354  1
  Yb  Yb1  1  0.067684  0.932316  0.249486  1
  In  In2  1  0.647668  0.352332  0.951670  1
  In  In3  1  0.641140  0.358860  0.551520  1
  In  In4  1  0.355081  0.644919  0.047280  1
  Sn  Sn5  1  0.351741  0.648259  0.449724  1
  Ir  Ir6  1  0.220654  0.779346  0.746054  1
  Ir  Ir7  1  0.783330  0.216670  0.255910  1
