# generated using pymatgen
data_Dy4Tm2Si3Au
_symmetry_space_group_name_H-M   'P 1'
_cell_length_a   7.52187600
_cell_length_b   7.52187681
_cell_length_c   4.24507400
_cell_angle_alpha   90.00000000
_cell_angle_beta   90.00000000
_cell_angle_gamma   88.60861637
_symmetry_Int_Tables_number   1
_chemical_formula_structural   Dy4Tm2Si3Au
_chemical_formula_sum   'Dy4 Tm2 Si3 Au1'
_cell_volume   240.10963175
_cell_formula_units_Z   1
loop_
 _symmetry_equiv_pos_site_id
 _symmetry_equiv_pos_as_xyz
  1  'x, y, z'
loop_
 _atom_site_type_symbol
 _atom_site_label
 _atom_site_symmetry_multiplicity
 _atom_site_fract_x
 _atom_site_fract_y
 _atom_site_fract_z
 _atom_site_occupancy
  Dy  Dy0  1  0.674909  0.174909  0.500000  1
  Dy  Dy1  1  0.335905  0.835905  0.500000  1
  Dy  Dy2  1  0.173105  0.315293  0.500000  1
  Dy  Dy3  1  0.815293  0.673105  0.500000  1
  Tm  Tm4  1  0.007736  0.997316  0.000000  1
  Tm  Tm5  1  0.497316  0.507736  0.000000  1
  Si  Si6  1  0.871113  0.371113  0.000000  1
  Si  Si7  1  0.621879  0.884921  0.000000  1
  Si  Si8  1  0.384921  0.121879  0.000000  1
  Au  Au9  1  0.117824  0.617824  0.000000  1
