# generated using pymatgen
data_LiY12InSi4
_symmetry_space_group_name_H-M   'P 1'
_cell_length_a   8.52464428
_cell_length_b   8.52464493
_cell_length_c   8.52464483
_cell_angle_alpha   111.27160894
_cell_angle_beta   112.03547714
_cell_angle_gamma   105.19054270
_symmetry_Int_Tables_number   1
_chemical_formula_structural   LiY12InSi4
_chemical_formula_sum   'Li1 Y12 In1 Si4'
_cell_volume   474.87788195
_cell_formula_units_Z   1
loop_
 _symmetry_equiv_pos_site_id
 _symmetry_equiv_pos_as_xyz
  1  'x, y, z'
loop_
 _atom_site_type_symbol
 _atom_site_label
 _atom_site_symmetry_multiplicity
 _atom_site_fract_x
 _atom_site_fract_y
 _atom_site_fract_z
 _atom_site_occupancy
  Li  Li0  1  0.000000  0.000000  0.000000  1
  Y  Y1  1  0.439507  0.241812  0.197695  1
  Y  Y2  1  0.560493  0.758188  0.802305  1
  Y  Y3  1  0.044117  0.241812  0.802305  1
  Y  Y4  1  0.955883  0.758188  0.197695  1
  Y  Y5  1  0.178813  0.270187  0.449000  1
  Y  Y6  1  0.821187  0.729813  0.551000  1
  Y  Y7  1  0.178813  0.729813  0.908627  1
  Y  Y8  1  0.821187  0.270187  0.091373  1
  Y  Y9  1  0.319677  0.618877  0.299201  1
  Y  Y10  1  0.680323  0.381123  0.700799  1
  Y  Y11  1  0.319677  0.020475  0.700799  1
  Y  Y12  1  0.680323  0.979525  0.299201  1
  In  In13  1  0.500000  0.500000  0.000000  1
  Si  Si14  1  0.353476  0.000000  0.353476  1
  Si  Si15  1  0.646524  0.000000  0.646524  1
  Si  Si16  1  0.116282  0.616282  0.500000  1
  Si  Si17  1  0.883718  0.383718  0.500000  1
