# generated using pymatgen
data_La10Cd3SnRu6
_symmetry_space_group_name_H-M   'P 1'
_cell_length_a   8.77238829
_cell_length_b   8.77238874
_cell_length_c   8.82423800
_cell_angle_alpha   109.59099711
_cell_angle_beta   109.59099816
_cell_angle_gamma   109.35117695
_symmetry_Int_Tables_number   1
_chemical_formula_structural   La10Cd3SnRu6
_chemical_formula_sum   'La10 Cd3 Sn1 Ru6'
_cell_volume   521.97166937
_cell_formula_units_Z   1
loop_
 _symmetry_equiv_pos_site_id
 _symmetry_equiv_pos_as_xyz
  1  'x, y, z'
loop_
 _atom_site_type_symbol
 _atom_site_label
 _atom_site_symmetry_multiplicity
 _atom_site_fract_x
 _atom_site_fract_y
 _atom_site_fract_z
 _atom_site_occupancy
  La  La0  1  0.252378  0.689245  0.437837  1
  La  La1  1  0.751772  0.814128  0.064584  1
  La  La2  1  0.436868  0.247622  0.685458  1
  La  La3  1  0.685872  0.437645  0.250455  1
  La  La4  1  0.062356  0.748228  0.812811  1
  La  La5  1  0.810755  0.063133  0.748591  1
  La  La6  1  0.207958  0.208027  0.208589  1
  La  La7  1  0.500001  0.000000  0.292774  1
  La  La8  1  0.291973  0.499932  0.000562  1
  La  La9  1  0.000069  0.292042  0.500632  1
  Cd  Cd10  1  0.586856  0.587512  0.587591  1
  Cd  Cd11  1  0.912488  0.499345  0.000079  1
  Cd  Cd12  1  0.000656  0.913144  0.500736  1
  Sn  Sn13  1  0.500001  0.000000  0.908536  1
  Ru  Ru14  1  0.255961  0.135635  0.891305  1
  Ru  Ru15  1  0.752230  0.361298  0.610658  1
  Ru  Ru16  1  0.879675  0.244041  0.135345  1
  Ru  Ru17  1  0.138701  0.890931  0.249362  1
  Ru  Ru18  1  0.609068  0.747770  0.358428  1
  Ru  Ru19  1  0.364364  0.620324  0.755670  1
