# generated using pymatgen
data_Pt4(IBr3)3
_symmetry_space_group_name_H-M   'P 1'
_cell_length_a   6.78870766
_cell_length_b   6.78374885
_cell_length_c   12.90798350
_cell_angle_alpha   83.79366535
_cell_angle_beta   84.05666629
_cell_angle_gamma   119.26167835
_symmetry_Int_Tables_number   1
_chemical_formula_structural   Pt4(IBr3)3
_chemical_formula_sum   'Pt4 I3 Br9'
_cell_volume   507.10547980
_cell_formula_units_Z   1
loop_
 _symmetry_equiv_pos_site_id
 _symmetry_equiv_pos_as_xyz
  1  'x, y, z'
loop_
 _atom_site_type_symbol
 _atom_site_label
 _atom_site_symmetry_multiplicity
 _atom_site_fract_x
 _atom_site_fract_y
 _atom_site_fract_z
 _atom_site_occupancy
  Pt  Pt0  1  0.907637  0.089735  0.249248  1
  Pt  Pt1  1  0.088815  0.907283  0.751918  1
  Pt  Pt2  1  0.495554  0.998510  0.501186  1
  Pt  Pt3  1  0.003372  0.503923  0.997035  1
  I  I4  1  0.447555  0.260655  0.625456  1
  I  I5  1  0.260984  0.454347  0.120582  1
  I  I6  1  0.543244  0.734735  0.378265  1
  Br  Br7  1  0.175491  0.055302  0.359274  1
  Br  Br8  1  0.943357  0.823006  0.139287  1
  Br  Br9  1  0.821968  0.939620  0.641580  1
  Br  Br10  1  0.053022  0.174810  0.861209  1
  Br  Br11  1  0.163907  0.670251  0.624533  1
  Br  Br12  1  0.332480  0.836736  0.876377  1
  Br  Br13  1  0.828841  0.323732  0.377598  1
  Br  Br14  1  0.674201  0.171343  0.119527  1
  Br  Br15  1  0.759571  0.556012  0.876924  1
