# generated using pymatgen
data_Dy14Ho2Cd4Co3Ru
_symmetry_space_group_name_H-M   'P 1'
_cell_length_a   9.54939427
_cell_length_b   9.53050414
_cell_length_c   9.51779653
_cell_angle_alpha   59.95582508
_cell_angle_beta   60.01536926
_cell_angle_gamma   60.06542112
_symmetry_Int_Tables_number   1
_chemical_formula_structural   Dy14Ho2Cd4Co3Ru
_chemical_formula_sum   'Dy14 Ho2 Cd4 Co3 Ru1'
_cell_volume   612.67826516
_cell_formula_units_Z   1
loop_
 _symmetry_equiv_pos_site_id
 _symmetry_equiv_pos_as_xyz
  1  'x, y, z'
loop_
 _atom_site_type_symbol
 _atom_site_label
 _atom_site_symmetry_multiplicity
 _atom_site_fract_x
 _atom_site_fract_y
 _atom_site_fract_z
 _atom_site_occupancy
  Dy  Dy0  1  0.938400  0.937235  0.561877  1
  Dy  Dy1  1  0.814766  0.189362  0.187541  1
  Dy  Dy2  1  0.938400  0.562488  0.561877  1
  Dy  Dy3  1  0.938004  0.561924  0.938149  1
  Dy  Dy4  1  0.814766  0.808331  0.187541  1
  Dy  Dy5  1  0.341398  0.348420  0.349112  1
  Dy  Dy6  1  0.562899  0.939357  0.940036  1
  Dy  Dy7  1  0.563670  0.939295  0.557740  1
  Dy  Dy8  1  0.188642  0.812059  0.810771  1
  Dy  Dy9  1  0.188642  0.188530  0.810771  1
  Dy  Dy10  1  0.341726  0.349087  0.960101  1
  Dy  Dy11  1  0.341398  0.961071  0.349112  1
  Dy  Dy12  1  0.815177  0.188660  0.807503  1
  Dy  Dy13  1  0.562899  0.557710  0.940036  1
  Ho  Ho14  1  0.188890  0.811638  0.187835  1
  Ho  Ho15  1  0.964156  0.344490  0.346865  1
  Cd  Cd16  1  0.581205  0.580868  0.257059  1
  Cd  Cd17  1  0.256851  0.581279  0.580592  1
  Cd  Cd18  1  0.581115  0.580434  0.580230  1
  Cd  Cd19  1  0.581115  0.258222  0.580230  1
  Co  Co20  1  0.138861  0.140122  0.142115  1
  Co  Co21  1  0.138861  0.578903  0.142115  1
  Co  Co22  1  0.139529  0.140760  0.578952  1
  Ru  Ru23  1  0.578635  0.139761  0.141844  1
