# generated using pymatgen
data_MnH4F8
_symmetry_space_group_name_H-M   'P 1'
_cell_length_a   5.01799643
_cell_length_b   4.81772404
_cell_length_c   6.83259590
_cell_angle_alpha   88.06678171
_cell_angle_beta   90.74930440
_cell_angle_gamma   77.79198147
_symmetry_Int_Tables_number   1
_chemical_formula_structural   MnH4F8
_chemical_formula_sum   'Mn1 H4 F8'
_cell_volume   161.31844104
_cell_formula_units_Z   1
loop_
 _symmetry_equiv_pos_site_id
 _symmetry_equiv_pos_as_xyz
  1  'x, y, z'
loop_
 _atom_site_type_symbol
 _atom_site_label
 _atom_site_symmetry_multiplicity
 _atom_site_fract_x
 _atom_site_fract_y
 _atom_site_fract_z
 _atom_site_occupancy
  Mn  Mn0  1  0.690965  0.647038  0.405432  1
  H  H1  1  0.491193  0.084286  0.092081  1
  H  H2  1  0.351210  0.440819  0.919130  1
  H  H3  1  0.393790  0.729158  0.742174  1
  H  H4  1  0.918127  0.111578  0.506608  1
  F  F5  1  0.904654  0.348740  0.565386  1
  F  F6  1  0.870811  0.510086  0.198112  1
  F  F7  1  0.950057  0.891390  0.454206  1
  F  F8  1  0.252472  0.641220  0.865053  1
  F  F9  1  0.499625  0.187411  0.960659  1
  F  F10  1  0.470687  0.931878  0.258449  1
  F  F11  1  0.444143  0.438040  0.390200  1
  F  F12  1  0.522142  0.818720  0.641381  1
