# generated using pymatgen
data_Th2Mn2Ni9P7W
_symmetry_space_group_name_H-M   'P 1'
_cell_length_a   9.17262104
_cell_length_b   9.18719253
_cell_length_c   3.78310000
_cell_angle_alpha   90.00000000
_cell_angle_beta   90.00000000
_cell_angle_gamma   119.74038096
_symmetry_Int_Tables_number   1
_chemical_formula_structural   Th2Mn2Ni9P7W
_chemical_formula_sum   'Th2 Mn2 Ni9 P7 W1'
_cell_volume   276.81201875
_cell_formula_units_Z   1
loop_
 _symmetry_equiv_pos_site_id
 _symmetry_equiv_pos_as_xyz
  1  'x, y, z'
loop_
 _atom_site_type_symbol
 _atom_site_label
 _atom_site_symmetry_multiplicity
 _atom_site_fract_x
 _atom_site_fract_y
 _atom_site_fract_z
 _atom_site_occupancy
  Th  Th0  1  0.334533  0.667839  0.000000  1
  Th  Th1  1  0.002008  0.999784  0.500000  1
  Mn  Mn2  1  0.769392  0.550084  0.500000  1
  Mn  Mn3  1  0.451509  0.218213  0.500000  1
  Ni  Ni4  1  0.033253  0.268372  0.000000  1
  Ni  Ni5  1  0.731594  0.766541  0.000000  1
  Ni  Ni6  1  0.233939  0.964779  0.000000  1
  Ni  Ni7  1  0.537837  0.054326  0.000000  1
  Ni  Ni8  1  0.945117  0.484070  0.000000  1
  Ni  Ni9  1  0.517554  0.460728  0.000000  1
  Ni  Ni10  1  0.611476  0.896902  0.500000  1
  Ni  Ni11  1  0.100095  0.713402  0.500000  1
  Ni  Ni12  1  0.285759  0.386242  0.500000  1
  P  P13  1  0.770403  0.032502  0.000000  1
  P  P14  1  0.966228  0.736298  0.000000  1
  P  P15  1  0.264005  0.229898  0.000000  1
  P  P16  1  0.371340  0.934879  0.500000  1
  P  P17  1  0.068929  0.440800  0.500000  1
  P  P18  1  0.562035  0.626305  0.500000  1
  P  P19  1  0.665746  0.334399  0.000000  1
  W  W20  1  0.777249  0.233634  0.500000  1
