# generated using pymatgen
data_LiCa3SbO6
_symmetry_space_group_name_H-M   'P 1'
_cell_length_a   6.59319206
_cell_length_b   6.59319429
_cell_length_c   6.59319581
_cell_angle_alpha   92.28034186
_cell_angle_beta   92.28031637
_cell_angle_gamma   92.28028447
_symmetry_Int_Tables_number   1
_chemical_formula_structural   LiCa3SbO6
_chemical_formula_sum   'Li2 Ca6 Sb2 O12'
_cell_volume   285.90800564
_cell_formula_units_Z   2
loop_
 _symmetry_equiv_pos_site_id
 _symmetry_equiv_pos_as_xyz
  1  'x, y, z'
loop_
 _atom_site_type_symbol
 _atom_site_label
 _atom_site_symmetry_multiplicity
 _atom_site_fract_x
 _atom_site_fract_y
 _atom_site_fract_z
 _atom_site_occupancy
  Li  Li0  1  0.250000  0.250000  0.250000  1
  Li  Li1  1  0.750000  0.750000  0.750000  1
  Ca  Ca2  1  0.594199  0.249999  0.905801  1
  Ca  Ca3  1  0.405801  0.750001  0.094199  1
  Ca  Ca4  1  0.905801  0.594199  0.249999  1
  Ca  Ca5  1  0.094199  0.405801  0.750001  1
  Ca  Ca6  1  0.249999  0.905801  0.594199  1
  Ca  Ca7  1  0.750001  0.094199  0.405801  1
  Sb  Sb8  1  0.000000  0.000000  0.000000  1
  Sb  Sb9  1  0.500000  0.500001  0.500000  1
  O  O10  1  0.207497  0.547312  0.428418  1
  O  O11  1  0.792503  0.452688  0.571582  1
  O  O12  1  0.071582  0.952691  0.292502  1
  O  O13  1  0.928417  0.047310  0.707498  1
  O  O14  1  0.428418  0.207497  0.547313  1
  O  O15  1  0.571582  0.792502  0.452688  1
  O  O16  1  0.952690  0.292502  0.071582  1
  O  O17  1  0.047310  0.707498  0.928418  1
  O  O18  1  0.547313  0.428418  0.207497  1
  O  O19  1  0.452688  0.571582  0.792503  1
  O  O20  1  0.292503  0.071582  0.952690  1
  O  O21  1  0.707497  0.928418  0.047310  1
