# generated using pymatgen
data_Y5ErCo14(P3Ir)4
_symmetry_space_group_name_H-M   'P 1'
_cell_length_a   3.72894400
_cell_length_b   10.63452443
_cell_length_c   12.37038650
_cell_angle_alpha   89.96740788
_cell_angle_beta   90.00000000
_cell_angle_gamma   90.00000000
_symmetry_Int_Tables_number   1
_chemical_formula_structural   Y5ErCo14(P3Ir)4
_chemical_formula_sum   'Y5 Er1 Co14 P12 Ir4'
_cell_volume   490.55435236
_cell_formula_units_Z   1
loop_
 _symmetry_equiv_pos_site_id
 _symmetry_equiv_pos_as_xyz
  1  'x, y, z'
loop_
 _atom_site_type_symbol
 _atom_site_label
 _atom_site_symmetry_multiplicity
 _atom_site_fract_x
 _atom_site_fract_y
 _atom_site_fract_z
 _atom_site_occupancy
  Y  Y0  1  0.750000  0.249969  0.480294  1
  Y  Y1  1  0.250000  0.750145  0.519306  1
  Y  Y2  1  0.250000  0.936927  0.794489  1
  Y  Y3  1  0.250000  0.563077  0.793983  1
  Y  Y4  1  0.750000  0.062844  0.205874  1
  Er  Er5  1  0.750000  0.436613  0.206084  1
  Co  Co6  1  0.750000  0.250316  0.012486  1
  Co  Co7  1  0.250000  0.749391  0.988400  1
  Co  Co8  1  0.250000  0.417613  0.007294  1
  Co  Co9  1  0.250000  0.082661  0.006930  1
  Co  Co10  1  0.750000  0.581832  0.993885  1
  Co  Co11  1  0.750000  0.917387  0.993485  1
  Co  Co12  1  0.250000  0.449967  0.570871  1
  Co  Co13  1  0.250000  0.050302  0.571286  1
  Co  Co14  1  0.750000  0.550318  0.427757  1
  Co  Co15  1  0.750000  0.950055  0.428549  1
  Co  Co16  1  0.250000  0.868749  0.288573  1
  Co  Co17  1  0.250000  0.630382  0.287838  1
  Co  Co18  1  0.750000  0.131152  0.711541  1
  Co  Co19  1  0.750000  0.368970  0.711261  1
  P  P20  1  0.250000  0.250372  0.110966  1
  P  P21  1  0.750000  0.749749  0.889522  1
  P  P22  1  0.250000  0.250086  0.649883  1
  P  P23  1  0.750000  0.750350  0.349952  1
  P  P24  1  0.250000  0.448203  0.386257  1
  P  P25  1  0.250000  0.052343  0.386885  1
  P  P26  1  0.750000  0.552134  0.612627  1
  P  P27  1  0.750000  0.948054  0.612968  1
  P  P28  1  0.250000  0.904847  0.104906  1
  P  P29  1  0.250000  0.593939  0.105667  1
  P  P30  1  0.750000  0.095152  0.895405  1
  P  P31  1  0.750000  0.404875  0.895003  1
  Ir  Ir32  1  0.250000  0.250360  0.839994  1
  Ir  Ir33  1  0.750000  0.749691  0.160183  1
  Ir  Ir34  1  0.250000  0.251181  0.296611  1
  Ir  Ir35  1  0.750000  0.749993  0.702980  1
