# generated using pymatgen
data_TbDy9B2I15
_symmetry_space_group_name_H-M   'P 1'
_cell_length_a   9.61921321
_cell_length_b   10.36201812
_cell_length_c   11.30849920
_cell_angle_alpha   91.76114192
_cell_angle_beta   114.40665858
_cell_angle_gamma   110.43136274
_symmetry_Int_Tables_number   1
_chemical_formula_structural   TbDy9B2I15
_chemical_formula_sum   'Tb1 Dy9 B2 I15'
_cell_volume   941.42954051
_cell_formula_units_Z   1
loop_
 _symmetry_equiv_pos_site_id
 _symmetry_equiv_pos_as_xyz
  1  'x, y, z'
loop_
 _atom_site_type_symbol
 _atom_site_label
 _atom_site_symmetry_multiplicity
 _atom_site_fract_x
 _atom_site_fract_y
 _atom_site_fract_z
 _atom_site_occupancy
  Tb  Tb0  1  0.784939  0.393921  0.267961  1
  Dy  Dy1  1  0.215728  0.606743  0.732286  1
  Dy  Dy2  1  0.663173  0.752200  0.825543  1
  Dy  Dy3  1  0.336694  0.247746  0.174442  1
  Dy  Dy4  1  0.523141  0.713041  0.085631  1
  Dy  Dy5  1  0.476783  0.286916  0.914323  1
  Dy  Dy6  1  0.580317  0.043779  0.308733  1
  Dy  Dy7  1  0.419590  0.956136  0.691260  1
  Dy  Dy8  1  0.707235  0.069827  0.045512  1
  Dy  Dy9  1  0.292690  0.930111  0.954454  1
  B  B10  1  0.468487  0.822810  0.880050  1
  B  B11  1  0.530967  0.176716  0.119634  1
  I  I12  1  0.999966  0.999976  0.999982  1
  I  I13  1  0.638438  0.882432  0.583157  1
  I  I14  1  0.361566  0.117559  0.416858  1
  I  I15  1  0.884679  0.299006  0.531286  1
  I  I16  1  0.115655  0.700957  0.469285  1
  I  I17  1  0.284824  0.760201  0.177446  1
  I  I18  1  0.715155  0.239781  0.822546  1
  I  I19  1  0.055165  0.339977  0.225505  1
  I  I20  1  0.160322  0.056057  0.702092  1
  I  I21  1  0.839666  0.943931  0.297894  1
  I  I22  1  0.228469  0.409949  0.942064  1
  I  I23  1  0.771462  0.590240  0.057644  1
  I  I24  1  0.409867  0.459703  0.660161  1
  I  I25  1  0.589740  0.540439  0.339886  1
  I  I26  1  0.945284  0.659847  0.774366  1
