# generated using pymatgen
data_CeNpNiB10
_symmetry_space_group_name_H-M   'P 1'
_cell_length_a   4.14195100
_cell_length_b   5.57389685
_cell_length_c   11.09002062
_cell_angle_alpha   90.20424986
_cell_angle_beta   90.00000000
_cell_angle_gamma   90.00000000
_symmetry_Int_Tables_number   1
_chemical_formula_structural   CeNpNiB10
_chemical_formula_sum   'Ce2 Np2 Ni2 B20'
_cell_volume   256.03154596
_cell_formula_units_Z   2
loop_
 _symmetry_equiv_pos_site_id
 _symmetry_equiv_pos_as_xyz
  1  'x, y, z'
loop_
 _atom_site_type_symbol
 _atom_site_label
 _atom_site_symmetry_multiplicity
 _atom_site_fract_x
 _atom_site_fract_y
 _atom_site_fract_z
 _atom_site_occupancy
  Ce  Ce0  1  0.500000  0.812594  0.639908  1
  Ce  Ce1  1  0.500000  0.187406  0.360092  1
  Np  Np2  1  0.500000  0.317706  0.861292  1
  Np  Np3  1  0.500000  0.682294  0.138708  1
  Ni  Ni4  1  0.000000  0.500000  0.500000  1
  Ni  Ni5  1  0.000000  0.000000  0.000000  1
  B  B6  1  0.000000  0.125444  0.540924  1
  B  B7  1  0.000000  0.874556  0.459076  1
  B  B8  1  0.000000  0.626654  0.961430  1
  B  B9  1  0.000000  0.373346  0.038570  1
  B  B10  1  0.000000  0.156341  0.698748  1
  B  B11  1  0.000000  0.843659  0.301252  1
  B  B12  1  0.301928  0.200913  0.112451  1
  B  B13  1  0.301928  0.799087  0.887549  1
  B  B14  1  0.698199  0.701048  0.384757  1
  B  B15  1  0.698199  0.298952  0.615243  1
  B  B16  1  0.698072  0.799087  0.887549  1
  B  B17  1  0.698072  0.200913  0.112451  1
  B  B18  1  0.301801  0.298952  0.615243  1
  B  B19  1  0.301801  0.701048  0.384757  1
  B  B20  1  0.000000  0.029362  0.186259  1
  B  B21  1  0.000000  0.970638  0.813741  1
  B  B22  1  0.000000  0.531551  0.311567  1
  B  B23  1  0.000000  0.468449  0.688433  1
  B  B24  1  0.000000  0.343511  0.196643  1
  B  B25  1  0.000000  0.656489  0.803357  1
