# generated using pymatgen
data_Sm6ErCoBr12
_symmetry_space_group_name_H-M   'P 1'
_cell_length_a   9.33420881
_cell_length_b   9.33420916
_cell_length_c   9.33420901
_cell_angle_alpha   106.85239055
_cell_angle_beta   106.85239118
_cell_angle_gamma   106.85239760
_symmetry_Int_Tables_number   1
_chemical_formula_structural   Sm6ErCoBr12
_chemical_formula_sum   'Sm6 Er1 Co1 Br12'
_cell_volume   680.00435600
_cell_formula_units_Z   1
loop_
 _symmetry_equiv_pos_site_id
 _symmetry_equiv_pos_as_xyz
  1  'x, y, z'
loop_
 _atom_site_type_symbol
 _atom_site_label
 _atom_site_symmetry_multiplicity
 _atom_site_fract_x
 _atom_site_fract_y
 _atom_site_fract_z
 _atom_site_occupancy
  Sm  Sm0  1  0.305917  0.099086  0.022224  1
  Sm  Sm1  1  0.099086  0.022224  0.305917  1
  Sm  Sm2  1  0.022224  0.305917  0.099086  1
  Sm  Sm3  1  0.694083  0.900914  0.977776  1
  Sm  Sm4  1  0.900914  0.977776  0.694083  1
  Sm  Sm5  1  0.977776  0.694083  0.900914  1
  Er  Er6  1  0.500000  0.500000  0.500000  1
  Co  Co7  1  0.000000  0.000000  0.000000  1
  Br  Br8  1  0.223968  0.071038  0.679684  1
  Br  Br9  1  0.071038  0.679684  0.223968  1
  Br  Br10  1  0.679684  0.223968  0.071038  1
  Br  Br11  1  0.776032  0.928962  0.320316  1
  Br  Br12  1  0.928962  0.320316  0.776032  1
  Br  Br13  1  0.320316  0.776032  0.928962  1
  Br  Br14  1  0.389664  0.464112  0.173767  1
  Br  Br15  1  0.464112  0.173767  0.389664  1
  Br  Br16  1  0.173767  0.389664  0.464112  1
  Br  Br17  1  0.610336  0.535888  0.826233  1
  Br  Br18  1  0.535888  0.826233  0.610336  1
  Br  Br19  1  0.826233  0.610336  0.535888  1
