# generated using pymatgen
data_Dy9Y11(FeHg3)2
_symmetry_space_group_name_H-M   'P 1'
_cell_length_a   9.61184400
_cell_length_b   9.61184430
_cell_length_c   9.64657200
_cell_angle_alpha   90.00000000
_cell_angle_beta   90.00000000
_cell_angle_gamma   119.99999210
_symmetry_Int_Tables_number   1
_chemical_formula_structural   Dy9Y11(FeHg3)2
_chemical_formula_sum   'Dy9 Y11 Fe2 Hg6'
_cell_volume   771.82193501
_cell_formula_units_Z   1
loop_
 _symmetry_equiv_pos_site_id
 _symmetry_equiv_pos_as_xyz
  1  'x, y, z'
loop_
 _atom_site_type_symbol
 _atom_site_label
 _atom_site_symmetry_multiplicity
 _atom_site_fract_x
 _atom_site_fract_y
 _atom_site_fract_z
 _atom_site_occupancy
  Dy  Dy0  1  0.212137  0.787863  0.435695  1
  Dy  Dy1  1  0.212137  0.424274  0.435695  1
  Dy  Dy2  1  0.575726  0.787863  0.435695  1
  Dy  Dy3  1  0.787830  0.212170  0.564468  1
  Dy  Dy4  1  0.787830  0.575659  0.564468  1
  Dy  Dy5  1  0.424341  0.212170  0.564468  1
  Dy  Dy6  1  0.787783  0.212217  0.935451  1
  Dy  Dy7  1  0.787783  0.575564  0.935451  1
  Dy  Dy8  1  0.424436  0.212217  0.935451  1
  Y  Y9  1  0.000000  0.000000  0.500024  1
  Y  Y10  1  0.000000  0.000000  0.999813  1
  Y  Y11  1  0.541816  0.458184  0.250143  1
  Y  Y12  1  0.541816  0.083631  0.250143  1
  Y  Y13  1  0.916369  0.458184  0.250143  1
  Y  Y14  1  0.458355  0.541645  0.749817  1
  Y  Y15  1  0.458355  0.916710  0.749817  1
  Y  Y16  1  0.083290  0.541645  0.749817  1
  Y  Y17  1  0.211794  0.788206  0.064078  1
  Y  Y18  1  0.211794  0.423589  0.064078  1
  Y  Y19  1  0.576411  0.788206  0.064078  1
  Fe  Fe20  1  0.333333  0.666667  0.251283  1
  Fe  Fe21  1  0.666667  0.333333  0.749861  1
  Hg  Hg22  1  0.881877  0.118123  0.249976  1
  Hg  Hg23  1  0.881877  0.763755  0.249976  1
  Hg  Hg24  1  0.236245  0.118123  0.249976  1
  Hg  Hg25  1  0.118137  0.881863  0.750044  1
  Hg  Hg26  1  0.118137  0.236272  0.750044  1
  Hg  Hg27  1  0.763728  0.881863  0.750044  1
