# generated using pymatgen
data_Zr12Al4Ir7RhN4
_symmetry_space_group_name_H-M   'P 1'
_cell_length_a   8.57478511
_cell_length_b   8.58012747
_cell_length_c   8.58012800
_cell_angle_alpha   60.00000567
_cell_angle_beta   59.97939384
_cell_angle_gamma   59.97939142
_symmetry_Int_Tables_number   1
_chemical_formula_structural   Zr12Al4Ir7RhN4
_chemical_formula_sum   'Zr12 Al4 Ir7 Rh1 N4'
_cell_volume   446.23170971
_cell_formula_units_Z   1
loop_
 _symmetry_equiv_pos_site_id
 _symmetry_equiv_pos_as_xyz
  1  'x, y, z'
loop_
 _atom_site_type_symbol
 _atom_site_label
 _atom_site_symmetry_multiplicity
 _atom_site_fract_x
 _atom_site_fract_y
 _atom_site_fract_z
 _atom_site_occupancy
  Zr  Zr0  1  0.808047  0.808956  0.191499  1
  Zr  Zr1  1  0.191853  0.191537  0.808305  1
  Zr  Zr2  1  0.808047  0.191499  0.808956  1
  Zr  Zr3  1  0.191853  0.808305  0.191537  1
  Zr  Zr4  1  0.191853  0.808305  0.808305  1
  Zr  Zr5  1  0.808047  0.191499  0.191499  1
  Zr  Zr6  1  0.441907  0.442086  0.058004  1
  Zr  Zr7  1  0.059861  0.056510  0.441814  1
  Zr  Zr8  1  0.441907  0.058004  0.442086  1
  Zr  Zr9  1  0.059861  0.441814  0.056510  1
  Zr  Zr10  1  0.059861  0.441814  0.441814  1
  Zr  Zr11  1  0.441907  0.058004  0.058004  1
  Al  Al12  1  0.124856  0.625048  0.625048  1
  Al  Al13  1  0.624470  0.125575  0.624977  1
  Al  Al14  1  0.624470  0.624977  0.125575  1
  Al  Al15  1  0.624470  0.624977  0.624977  1
  Ir  Ir16  1  0.415630  0.752788  0.415792  1
  Ir  Ir17  1  0.415630  0.415792  0.752788  1
  Ir  Ir18  1  0.415630  0.415792  0.415792  1
  Ir  Ir19  1  0.497750  0.834083  0.834083  1
  Ir  Ir20  1  0.833955  0.497061  0.834491  1
  Ir  Ir21  1  0.833955  0.834491  0.497061  1
  Ir  Ir22  1  0.833955  0.834491  0.834491  1
  Rh  Rh23  1  0.751978  0.416008  0.416008  1
  N  N24  1  0.624997  0.125001  0.125001  1
  N  N25  1  0.124416  0.624671  0.125457  1
  N  N26  1  0.124416  0.125457  0.624671  1
  N  N27  1  0.124416  0.125457  0.125457  1
