# generated using pymatgen
data_Nd2Ga9PdRh2
_symmetry_space_group_name_H-M   'P 1'
_cell_length_a   7.68472621
_cell_length_b   7.68472484
_cell_length_c   9.63215620
_cell_angle_alpha   89.94773763
_cell_angle_beta   89.94774216
_cell_angle_gamma   119.70294934
_symmetry_Int_Tables_number   1
_chemical_formula_structural   Nd2Ga9PdRh2
_chemical_formula_sum   'Nd4 Ga18 Pd2 Rh4'
_cell_volume   494.08577556
_cell_formula_units_Z   2
loop_
 _symmetry_equiv_pos_site_id
 _symmetry_equiv_pos_as_xyz
  1  'x, y, z'
loop_
 _atom_site_type_symbol
 _atom_site_label
 _atom_site_symmetry_multiplicity
 _atom_site_fract_x
 _atom_site_fract_y
 _atom_site_fract_z
 _atom_site_occupancy
  Nd  Nd0  1  0.997392  0.668164  0.249690  1
  Nd  Nd1  1  0.002608  0.331836  0.750310  1
  Nd  Nd2  1  0.668164  0.997392  0.249690  1
  Nd  Nd3  1  0.331836  0.002608  0.750310  1
  Ga  Ga4  1  0.126589  0.126589  0.250838  1
  Ga  Ga5  1  0.873411  0.873411  0.749162  1
  Ga  Ga6  1  0.003297  0.331051  0.080223  1
  Ga  Ga7  1  0.996703  0.668949  0.919777  1
  Ga  Ga8  1  0.999188  0.665677  0.576438  1
  Ga  Ga9  1  0.334323  0.000812  0.423562  1
  Ga  Ga10  1  0.000812  0.334323  0.423562  1
  Ga  Ga11  1  0.665677  0.999188  0.576438  1
  Ga  Ga12  1  0.668949  0.996703  0.919777  1
  Ga  Ga13  1  0.331051  0.003297  0.080223  1
  Ga  Ga14  1  0.332504  0.332504  0.558422  1
  Ga  Ga15  1  0.667496  0.667496  0.441578  1
  Ga  Ga16  1  0.668194  0.668194  0.064918  1
  Ga  Ga17  1  0.331806  0.331806  0.935082  1
  Ga  Ga18  1  0.339886  0.543958  0.253602  1
  Ga  Ga19  1  0.660114  0.456042  0.746398  1
  Ga  Ga20  1  0.543958  0.339886  0.253602  1
  Ga  Ga21  1  0.456042  0.660114  0.746398  1
  Pd  Pd22  1  0.670707  0.329293  0.000000  1
  Pd  Pd23  1  0.329293  0.670707  0.000000  1
  Rh  Rh24  1  0.328848  0.671152  0.500000  1
  Rh  Rh25  1  0.671152  0.328848  0.500000  1
  Rh  Rh26  1  0.000000  0.000000  0.000000  1
  Rh  Rh27  1  0.000000  0.000000  0.500000  1
