# generated using pymatgen
data_Ba3MgUS6
_symmetry_space_group_name_H-M   'P 1'
_cell_length_a   8.33955423
_cell_length_b   8.33955300
_cell_length_c   8.33955300
_cell_angle_alpha   92.96277076
_cell_angle_beta   92.96277032
_cell_angle_gamma   92.96276176
_symmetry_Int_Tables_number   1
_chemical_formula_structural   Ba3MgUS6
_chemical_formula_sum   'Ba6 Mg2 U2 S12'
_cell_volume   577.59117903
_cell_formula_units_Z   2
loop_
 _symmetry_equiv_pos_site_id
 _symmetry_equiv_pos_as_xyz
  1  'x, y, z'
loop_
 _atom_site_type_symbol
 _atom_site_label
 _atom_site_symmetry_multiplicity
 _atom_site_fract_x
 _atom_site_fract_y
 _atom_site_fract_z
 _atom_site_occupancy
  Ba  Ba0  1  0.368926  0.750000  0.131074  1
  Ba  Ba1  1  0.131074  0.368926  0.750000  1
  Ba  Ba2  1  0.750000  0.131074  0.368926  1
  Ba  Ba3  1  0.631074  0.250000  0.868926  1
  Ba  Ba4  1  0.868926  0.631074  0.250000  1
  Ba  Ba5  1  0.250000  0.868926  0.631074  1
  Mg  Mg6  1  0.500000  0.500000  0.500000  1
  Mg  Mg7  1  0.000000  0.000000  0.000000  1
  U  U8  1  0.250000  0.250000  0.250000  1
  U  U9  1  0.750000  0.750000  0.750000  1
  S  S10  1  0.535314  0.408615  0.201125  1
  S  S11  1  0.201125  0.535314  0.408615  1
  S  S12  1  0.408615  0.201125  0.535314  1
  S  S13  1  0.964686  0.298875  0.091385  1
  S  S14  1  0.091385  0.964686  0.298875  1
  S  S15  1  0.298875  0.091385  0.964686  1
  S  S16  1  0.464686  0.591385  0.798875  1
  S  S17  1  0.798875  0.464686  0.591385  1
  S  S18  1  0.591385  0.798875  0.464686  1
  S  S19  1  0.035314  0.701125  0.908615  1
  S  S20  1  0.701125  0.908615  0.035314  1
  S  S21  1  0.908615  0.035314  0.701125  1
