# generated using pymatgen
data_VReBr9
_symmetry_space_group_name_H-M   'P 1'
_cell_length_a   7.91181905
_cell_length_b   10.23871624
_cell_length_c   10.64990703
_cell_angle_alpha   102.84803322
_cell_angle_beta   97.10613287
_cell_angle_gamma   96.07017811
_symmetry_Int_Tables_number   1
_chemical_formula_structural   VReBr9
_chemical_formula_sum   'V2 Re2 Br18'
_cell_volume   826.70022281
_cell_formula_units_Z   2
loop_
 _symmetry_equiv_pos_site_id
 _symmetry_equiv_pos_as_xyz
  1  'x, y, z'
loop_
 _atom_site_type_symbol
 _atom_site_label
 _atom_site_symmetry_multiplicity
 _atom_site_fract_x
 _atom_site_fract_y
 _atom_site_fract_z
 _atom_site_occupancy
  V  V0  1  0.052356  0.191137  0.780111  1
  V  V1  1  0.947644  0.808863  0.219889  1
  Re  Re2  1  0.607786  0.627151  0.664253  1
  Re  Re3  1  0.392214  0.372849  0.335747  1
  Br  Br4  1  0.384496  0.573389  0.244594  1
  Br  Br5  1  0.615504  0.426611  0.755406  1
  Br  Br6  1  0.423127  0.194395  0.455161  1
  Br  Br7  1  0.576873  0.805605  0.544839  1
  Br  Br8  1  0.090319  0.288840  0.248889  1
  Br  Br9  1  0.909681  0.711160  0.751111  1
  Br  Br10  1  0.510581  0.247803  0.150385  1
  Br  Br11  1  0.489419  0.752197  0.849615  1
  Br  Br12  1  0.296486  0.516730  0.546110  1
  Br  Br13  1  0.703514  0.483270  0.453890  1
  Br  Br14  1  0.830059  0.598298  0.102978  1
  Br  Br15  1  0.169941  0.401702  0.897022  1
  Br  Br16  1  0.944811  0.199715  0.574819  1
  Br  Br17  1  0.055189  0.800285  0.425181  1
  Br  Br18  1  0.258355  0.051135  0.769153  1
  Br  Br19  1  0.741645  0.948865  0.230847  1
  Br  Br20  1  0.839320  0.105302  0.876720  1
  Br  Br21  1  0.160680  0.894698  0.123280  1
