# generated using pymatgen
data_YLu15TlIn5Fe2
_symmetry_space_group_name_H-M   'P 1'
_cell_length_a   10.14672913
_cell_length_b   10.14672987
_cell_length_c   6.92548007
_cell_angle_alpha   89.98416105
_cell_angle_beta   90.01583792
_cell_angle_gamma   120.03095516
_symmetry_Int_Tables_number   1
_chemical_formula_structural   YLu15TlIn5Fe2
_chemical_formula_sum   'Y1 Lu15 Tl1 In5 Fe2'
_cell_volume   617.30117961
_cell_formula_units_Z   1
loop_
 _symmetry_equiv_pos_site_id
 _symmetry_equiv_pos_as_xyz
  1  'x, y, z'
loop_
 _atom_site_type_symbol
 _atom_site_label
 _atom_site_symmetry_multiplicity
 _atom_site_fract_x
 _atom_site_fract_y
 _atom_site_fract_z
 _atom_site_occupancy
  Y  Y0  1  0.999538  0.000462  0.994841  1
  Lu  Lu1  1  0.464873  0.535127  0.481398  1
  Lu  Lu2  1  0.070626  0.535312  0.481819  1
  Lu  Lu3  1  0.464688  0.929374  0.481819  1
  Lu  Lu4  1  0.535315  0.464685  0.981795  1
  Lu  Lu5  1  0.928407  0.463483  0.980845  1
  Lu  Lu6  1  0.536517  0.071593  0.980845  1
  Lu  Lu7  1  0.819949  0.180051  0.278862  1
  Lu  Lu8  1  0.359848  0.179788  0.278764  1
  Lu  Lu9  1  0.820212  0.640152  0.278764  1
  Lu  Lu10  1  0.180308  0.819692  0.778199  1
  Lu  Lu11  1  0.639553  0.819654  0.776581  1
  Lu  Lu12  1  0.180346  0.360447  0.776581  1
  Lu  Lu13  1  0.333447  0.666553  0.091823  1
  Lu  Lu14  1  0.666565  0.333435  0.590942  1
  Lu  Lu15  1  0.999423  0.000577  0.496822  1
  Tl  Tl16  1  0.163414  0.836586  0.234548  1
  In  In17  1  0.673231  0.836492  0.235010  1
  In  In18  1  0.163508  0.326769  0.235010  1
  In  In19  1  0.836742  0.163258  0.732583  1
  In  In20  1  0.326717  0.163332  0.733084  1
  In  In21  1  0.836668  0.673283  0.733084  1
  Fe  Fe22  1  0.333439  0.666561  0.705537  1
  Fe  Fe23  1  0.666665  0.333335  0.204986  1
