# generated using pymatgen
data_Gd3Er5Al4
_symmetry_space_group_name_H-M   'P 1'
_cell_length_a   5.07726200
_cell_length_b   6.54846833
_cell_length_c   9.37616900
_cell_angle_alpha   90.09140599
_cell_angle_beta   90.00000000
_cell_angle_gamma   90.00000000
_symmetry_Int_Tables_number   1
_chemical_formula_structural   Gd3Er5Al4
_chemical_formula_sum   'Gd3 Er5 Al4'
_cell_volume   311.74118392
_cell_formula_units_Z   1
loop_
 _symmetry_equiv_pos_site_id
 _symmetry_equiv_pos_as_xyz
  1  'x, y, z'
loop_
 _atom_site_type_symbol
 _atom_site_label
 _atom_site_symmetry_multiplicity
 _atom_site_fract_x
 _atom_site_fract_y
 _atom_site_fract_z
 _atom_site_occupancy
  Gd  Gd0  1  0.250000  0.810588  0.927776  1
  Gd  Gd1  1  0.250000  0.312705  0.571469  1
  Gd  Gd2  1  0.750000  0.189113  0.072013  1
  Er  Er3  1  0.750000  0.688455  0.428401  1
  Er  Er4  1  0.250000  0.968094  0.289537  1
  Er  Er5  1  0.250000  0.470017  0.211135  1
  Er  Er6  1  0.750000  0.029257  0.710178  1
  Er  Er7  1  0.750000  0.530519  0.789126  1
  Al  Al8  1  0.250000  0.291721  0.896218  1
  Al  Al9  1  0.250000  0.791492  0.601627  1
  Al  Al10  1  0.750000  0.708349  0.105892  1
  Al  Al11  1  0.750000  0.209690  0.396628  1
