# generated using pymatgen
data_Lu12SiTc3
_symmetry_space_group_name_H-M   'P 1'
_cell_length_a   7.47549405
_cell_length_b   8.89563700
_cell_length_c   6.03289259
_cell_angle_alpha   90.00000000
_cell_angle_beta   90.31993883
_cell_angle_gamma   90.00000000
_symmetry_Int_Tables_number   1
_chemical_formula_structural   Lu12SiTc3
_chemical_formula_sum   'Lu12 Si1 Tc3'
_cell_volume   401.17676737
_cell_formula_units_Z   1
loop_
 _symmetry_equiv_pos_site_id
 _symmetry_equiv_pos_as_xyz
  1  'x, y, z'
loop_
 _atom_site_type_symbol
 _atom_site_label
 _atom_site_symmetry_multiplicity
 _atom_site_fract_x
 _atom_site_fract_y
 _atom_site_fract_z
 _atom_site_occupancy
  Lu  Lu0  1  0.471146  0.250000  0.125562  1
  Lu  Lu1  1  0.175748  0.561871  0.153328  1
  Lu  Lu2  1  0.175748  0.938129  0.153328  1
  Lu  Lu3  1  0.677512  0.563223  0.348035  1
  Lu  Lu4  1  0.677512  0.936777  0.348035  1
  Lu  Lu5  1  0.960433  0.250000  0.387027  1
  Lu  Lu6  1  0.035483  0.750000  0.621480  1
  Lu  Lu7  1  0.333377  0.059956  0.644868  1
  Lu  Lu8  1  0.333377  0.440044  0.644868  1
  Lu  Lu9  1  0.815126  0.059904  0.851118  1
  Lu  Lu10  1  0.815126  0.440096  0.851118  1
  Lu  Lu11  1  0.533140  0.750000  0.880890  1
  Si  Si12  1  0.118973  0.250000  0.936258  1
  Tc  Tc13  1  0.878740  0.750000  0.051430  1
  Tc  Tc14  1  0.377660  0.750000  0.448530  1
  Tc  Tc15  1  0.620900  0.250000  0.554131  1
