# generated using pymatgen
data_TbY2Ho2Si3
_symmetry_space_group_name_H-M   'P 1'
_cell_length_a   8.45502697
_cell_length_b   8.44802452
_cell_length_c   6.35315100
_cell_angle_alpha   90.00000000
_cell_angle_beta   90.00000000
_cell_angle_gamma   119.97260720
_symmetry_Int_Tables_number   1
_chemical_formula_structural   TbY2Ho2Si3
_chemical_formula_sum   'Tb2 Y4 Ho4 Si6'
_cell_volume   393.10610051
_cell_formula_units_Z   2
loop_
 _symmetry_equiv_pos_site_id
 _symmetry_equiv_pos_as_xyz
  1  'x, y, z'
loop_
 _atom_site_type_symbol
 _atom_site_label
 _atom_site_symmetry_multiplicity
 _atom_site_fract_x
 _atom_site_fract_y
 _atom_site_fract_z
 _atom_site_occupancy
  Tb  Tb0  1  0.000000  0.756971  0.750000  1
  Tb  Tb1  1  0.000000  0.243029  0.250000  1
  Y  Y2  1  0.756886  0.756900  0.250000  1
  Y  Y3  1  0.756886  0.999986  0.750000  1
  Y  Y4  1  0.243114  0.243100  0.750000  1
  Y  Y5  1  0.243114  0.000014  0.250000  1
  Ho  Ho6  1  0.333392  0.666697  0.500000  1
  Ho  Ho7  1  0.666608  0.333303  0.000000  1
  Ho  Ho8  1  0.666608  0.333303  0.500000  1
  Ho  Ho9  1  0.333392  0.666697  0.000000  1
  Si  Si10  1  0.394936  0.000084  0.750000  1
  Si  Si11  1  0.394936  0.394852  0.250000  1
  Si  Si12  1  0.000000  0.605389  0.250000  1
  Si  Si13  1  0.000000  0.394611  0.750000  1
  Si  Si14  1  0.605064  0.605148  0.750000  1
  Si  Si15  1  0.605064  0.999916  0.250000  1
