# generated using pymatgen
data_LuAl3NiHg
_symmetry_space_group_name_H-M   'P 1'
_cell_length_a   7.94503981
_cell_length_b   7.94503829
_cell_length_c   6.77667800
_cell_angle_alpha   90.00000000
_cell_angle_beta   90.00000000
_cell_angle_gamma   150.58973569
_symmetry_Int_Tables_number   1
_chemical_formula_structural   LuAl3NiHg
_chemical_formula_sum   'Lu2 Al6 Ni2 Hg2'
_cell_volume   210.05998144
_cell_formula_units_Z   2
loop_
 _symmetry_equiv_pos_site_id
 _symmetry_equiv_pos_as_xyz
  1  'x, y, z'
loop_
 _atom_site_type_symbol
 _atom_site_label
 _atom_site_symmetry_multiplicity
 _atom_site_fract_x
 _atom_site_fract_y
 _atom_site_fract_z
 _atom_site_occupancy
  Lu  Lu0  1  0.874600  0.125400  0.250000  1
  Lu  Lu1  1  0.125400  0.874600  0.750000  1
  Al  Al2  1  0.922715  0.077285  0.750000  1
  Al  Al3  1  0.077285  0.922715  0.250000  1
  Al  Al4  1  0.309762  0.690238  0.944932  1
  Al  Al5  1  0.690238  0.309762  0.055068  1
  Al  Al6  1  0.690238  0.309762  0.444932  1
  Al  Al7  1  0.309762  0.690238  0.555068  1
  Ni  Ni8  1  0.229313  0.770687  0.250000  1
  Ni  Ni9  1  0.770687  0.229313  0.750000  1
  Hg  Hg10  1  0.500000  0.500000  0.000000  1
  Hg  Hg11  1  0.500000  0.500000  0.500000  1
