# generated using pymatgen
data_La10Nd6Cd4IrOs3
_symmetry_space_group_name_H-M   'P 1'
_cell_length_a   10.03689323
_cell_length_b   10.07627867
_cell_length_c   10.07704771
_cell_angle_alpha   59.91684188
_cell_angle_beta   59.81774486
_cell_angle_gamma   59.81885605
_symmetry_Int_Tables_number   1
_chemical_formula_structural   La10Nd6Cd4IrOs3
_chemical_formula_sum   'La10 Nd6 Cd4 Ir1 Os3'
_cell_volume   718.20330372
_cell_formula_units_Z   1
loop_
 _symmetry_equiv_pos_site_id
 _symmetry_equiv_pos_as_xyz
  1  'x, y, z'
loop_
 _atom_site_type_symbol
 _atom_site_label
 _atom_site_symmetry_multiplicity
 _atom_site_fract_x
 _atom_site_fract_y
 _atom_site_fract_z
 _atom_site_occupancy
  La  La0  1  0.344487  0.345722  0.345736  1
  La  La1  1  0.345056  0.345980  0.960357  1
  La  La2  1  0.345050  0.960349  0.346002  1
  La  La3  1  0.963505  0.344843  0.344795  1
  La  La4  1  0.811325  0.191572  0.191594  1
  La  La5  1  0.190996  0.809853  0.809864  1
  La  La6  1  0.190756  0.809512  0.191096  1
  La  La7  1  0.811773  0.192264  0.806829  1
  La  La8  1  0.190772  0.191074  0.809506  1
  La  La9  1  0.811786  0.806835  0.192264  1
  Nd  Nd10  1  0.935515  0.563820  0.563861  1
  Nd  Nd11  1  0.561106  0.938247  0.938249  1
  Nd  Nd12  1  0.561731  0.935993  0.566032  1
  Nd  Nd13  1  0.938031  0.562628  0.939476  1
  Nd  Nd14  1  0.561722  0.566002  0.936022  1
  Nd  Nd15  1  0.938018  0.939524  0.562621  1
  Cd  Cd16  1  0.579671  0.579247  0.579243  1
  Cd  Cd17  1  0.579438  0.579873  0.259899  1
  Cd  Cd18  1  0.579433  0.259914  0.579865  1
  Cd  Cd19  1  0.259372  0.579591  0.579613  1
  Ir  Ir20  1  0.584121  0.137636  0.137653  1
  Os  Os21  1  0.140036  0.137278  0.137258  1
  Os  Os22  1  0.138125  0.134799  0.587412  1
  Os  Os23  1  0.138173  0.587442  0.134751  1
