# generated using pymatgen
data_Pr3Eu5Be3Si12Pd
_symmetry_space_group_name_H-M   'P 1'
_cell_length_a   8.09357700
_cell_length_b   8.10132857
_cell_length_c   8.80086582
_cell_angle_alpha   90.09129778
_cell_angle_beta   90.00000000
_cell_angle_gamma   119.96834939
_symmetry_Int_Tables_number   1
_chemical_formula_structural   Pr3Eu5Be3Si12Pd
_chemical_formula_sum   'Pr3 Eu5 Be3 Si12 Pd1'
_cell_volume   499.90843905
_cell_formula_units_Z   1
loop_
 _symmetry_equiv_pos_site_id
 _symmetry_equiv_pos_as_xyz
  1  'x, y, z'
loop_
 _atom_site_type_symbol
 _atom_site_label
 _atom_site_symmetry_multiplicity
 _atom_site_fract_x
 _atom_site_fract_y
 _atom_site_fract_z
 _atom_site_occupancy
  Pr  Pr0  1  0.499433  0.998866  0.250004  1
  Pr  Pr1  1  0.000022  0.000043  0.748987  1
  Pr  Pr2  1  0.999879  0.999757  0.251052  1
  Eu  Eu3  1  0.499025  0.500664  0.750142  1
  Eu  Eu4  1  0.498930  0.500924  0.249546  1
  Eu  Eu5  1  0.001639  0.500664  0.750142  1
  Eu  Eu6  1  0.001995  0.500924  0.249546  1
  Eu  Eu7  1  0.499284  0.998568  0.750306  1
  Be  Be8  1  0.666305  0.332608  0.002390  1
  Be  Be9  1  0.333654  0.667309  0.002859  1
  Be  Be10  1  0.333827  0.667655  0.497914  1
  Si  Si11  1  0.827365  0.172269  0.999805  1
  Si  Si12  1  0.171948  0.828365  0.999139  1
  Si  Si13  1  0.344903  0.172269  0.999805  1
  Si  Si14  1  0.169917  0.829869  0.500572  1
  Si  Si15  1  0.656418  0.828365  0.999139  1
  Si  Si16  1  0.833909  0.166329  0.500464  1
  Si  Si17  1  0.827510  0.655021  0.999928  1
  Si  Si18  1  0.659950  0.829869  0.500572  1
  Si  Si19  1  0.171853  0.343705  0.999606  1
  Si  Si20  1  0.332421  0.166329  0.500464  1
  Si  Si21  1  0.170317  0.340634  0.499175  1
  Si  Si22  1  0.833080  0.666160  0.499743  1
  Pd  Pd23  1  0.666417  0.332834  0.498702  1
