# generated using pymatgen
data_Pr8Er7Tm(ScSi4)4
_symmetry_space_group_name_H-M   'P 1'
_cell_length_a   7.35952404
_cell_length_b   7.72963503
_cell_length_c   14.66071105
_cell_angle_alpha   90.00547449
_cell_angle_beta   89.99175486
_cell_angle_gamma   89.99153249
_symmetry_Int_Tables_number   1
_chemical_formula_structural   Pr8Er7Tm(ScSi4)4
_chemical_formula_sum   'Pr8 Er7 Tm1 Sc4 Si16'
_cell_volume   833.99556223
_cell_formula_units_Z   1
loop_
 _symmetry_equiv_pos_site_id
 _symmetry_equiv_pos_as_xyz
  1  'x, y, z'
loop_
 _atom_site_type_symbol
 _atom_site_label
 _atom_site_symmetry_multiplicity
 _atom_site_fract_x
 _atom_site_fract_y
 _atom_site_fract_z
 _atom_site_occupancy
  Pr  Pr0  1  0.016578  0.177799  0.401396  1
  Pr  Pr1  1  0.516457  0.322187  0.401411  1
  Pr  Pr2  1  0.483483  0.677825  0.901331  1
  Pr  Pr3  1  0.483464  0.677790  0.598645  1
  Pr  Pr4  1  0.983514  0.822228  0.598644  1
  Pr  Pr5  1  0.983467  0.822242  0.901350  1
  Pr  Pr6  1  0.516507  0.322192  0.098624  1
  Pr  Pr7  1  0.016544  0.177800  0.098647  1
  Er  Er8  1  0.675324  0.822628  0.375157  1
  Er  Er9  1  0.175344  0.677465  0.375154  1
  Er  Er10  1  0.824639  0.322514  0.875103  1
  Er  Er11  1  0.824668  0.322451  0.624886  1
  Er  Er12  1  0.324641  0.177370  0.875059  1
  Er  Er13  1  0.175397  0.677496  0.124872  1
  Er  Er14  1  0.675377  0.822600  0.124875  1
  Tm  Tm15  1  0.324691  0.177312  0.624973  1
  Sc  Sc16  1  0.656585  0.991404  0.749950  1
  Sc  Sc17  1  0.843342  0.491298  0.250002  1
  Sc  Sc18  1  0.343297  0.008652  0.250005  1
  Sc  Sc19  1  0.156718  0.508552  0.749927  1
  Si  Si20  1  0.282771  0.875959  0.749898  1
  Si  Si21  1  0.473987  0.610073  0.250011  1
  Si  Si22  1  0.026215  0.110218  0.749860  1
  Si  Si23  1  0.525753  0.389680  0.749877  1
  Si  Si24  1  0.149065  0.466811  0.539530  1
  Si  Si25  1  0.974043  0.889849  0.250005  1
  Si  Si26  1  0.717317  0.124252  0.250001  1
  Si  Si27  1  0.851185  0.532965  0.039412  1
  Si  Si28  1  0.351188  0.967051  0.039465  1
  Si  Si29  1  0.148798  0.467040  0.960567  1
  Si  Si30  1  0.648519  0.033127  0.539559  1
  Si  Si31  1  0.351093  0.967237  0.460703  1
  Si  Si32  1  0.851168  0.532926  0.460588  1
  Si  Si33  1  0.782739  0.624292  0.749986  1
  Si  Si34  1  0.217298  0.375760  0.250006  1
  Si  Si35  1  0.648823  0.032955  0.960519  1
