# generated using pymatgen
data_LaCu12Ni
_symmetry_space_group_name_H-M   'P 1'
_cell_length_a   8.17088786
_cell_length_b   8.17088817
_cell_length_c   8.17088900
_cell_angle_alpha   60.00000877
_cell_angle_beta   60.00000755
_cell_angle_gamma   60.00000859
_symmetry_Int_Tables_number   1
_chemical_formula_structural   LaCu12Ni
_chemical_formula_sum   'La2 Cu24 Ni2'
_cell_volume   385.73843262
_cell_formula_units_Z   2
loop_
 _symmetry_equiv_pos_site_id
 _symmetry_equiv_pos_as_xyz
  1  'x, y, z'
loop_
 _atom_site_type_symbol
 _atom_site_label
 _atom_site_symmetry_multiplicity
 _atom_site_fract_x
 _atom_site_fract_y
 _atom_site_fract_z
 _atom_site_occupancy
  La  La0  1  0.250000  0.250000  0.250000  1
  La  La1  1  0.750000  0.750000  0.750000  1
  Cu  Cu2  1  0.795865  0.563048  0.204135  1
  Cu  Cu3  1  0.204135  0.436952  0.795865  1
  Cu  Cu4  1  0.563048  0.795865  0.436952  1
  Cu  Cu5  1  0.436952  0.204135  0.563048  1
  Cu  Cu6  1  0.295865  0.936952  0.704135  1
  Cu  Cu7  1  0.704135  0.063048  0.295865  1
  Cu  Cu8  1  0.936952  0.295865  0.063048  1
  Cu  Cu9  1  0.063048  0.704135  0.936952  1
  Cu  Cu10  1  0.204135  0.795865  0.563048  1
  Cu  Cu11  1  0.795865  0.204135  0.436952  1
  Cu  Cu12  1  0.436952  0.563048  0.795865  1
  Cu  Cu13  1  0.563048  0.436952  0.204135  1
  Cu  Cu14  1  0.704135  0.295865  0.936952  1
  Cu  Cu15  1  0.295865  0.704135  0.063048  1
  Cu  Cu16  1  0.063048  0.936952  0.295865  1
  Cu  Cu17  1  0.936952  0.063048  0.704135  1
  Cu  Cu18  1  0.563048  0.204135  0.795865  1
  Cu  Cu19  1  0.436952  0.795865  0.204135  1
  Cu  Cu20  1  0.795865  0.436952  0.563048  1
  Cu  Cu21  1  0.204135  0.563048  0.436952  1
  Cu  Cu22  1  0.936952  0.704135  0.295865  1
  Cu  Cu23  1  0.063048  0.295865  0.704135  1
  Cu  Cu24  1  0.295865  0.063048  0.936952  1
  Cu  Cu25  1  0.704135  0.936952  0.063048  1
  Ni  Ni26  1  0.500000  0.500000  0.500000  1
  Ni  Ni27  1  0.000000  0.000000  0.000000  1
