# generated using pymatgen
data_Y20Cd3Tc2Pd3
_symmetry_space_group_name_H-M   'P 1'
_cell_length_a   9.56277400
_cell_length_b   9.56277245
_cell_length_c   9.71523600
_cell_angle_alpha   90.00000000
_cell_angle_beta   90.00000000
_cell_angle_gamma   119.99999845
_symmetry_Int_Tables_number   1
_chemical_formula_structural   Y20Cd3Tc2Pd3
_chemical_formula_sum   'Y20 Cd3 Tc2 Pd3'
_cell_volume   769.39915853
_cell_formula_units_Z   1
loop_
 _symmetry_equiv_pos_site_id
 _symmetry_equiv_pos_as_xyz
  1  'x, y, z'
loop_
 _atom_site_type_symbol
 _atom_site_label
 _atom_site_symmetry_multiplicity
 _atom_site_fract_x
 _atom_site_fract_y
 _atom_site_fract_z
 _atom_site_occupancy
  Y  Y0  1  0.000000  0.000000  0.450580  1
  Y  Y1  1  0.000000  0.000000  0.049420  1
  Y  Y2  1  0.208728  0.791272  0.440358  1
  Y  Y3  1  0.208728  0.417456  0.440358  1
  Y  Y4  1  0.582544  0.791272  0.440358  1
  Y  Y5  1  0.791974  0.208026  0.557315  1
  Y  Y6  1  0.791974  0.583949  0.557315  1
  Y  Y7  1  0.416051  0.208026  0.557315  1
  Y  Y8  1  0.791974  0.208026  0.942685  1
  Y  Y9  1  0.791974  0.583949  0.942685  1
  Y  Y10  1  0.416051  0.208026  0.942685  1
  Y  Y11  1  0.208728  0.791272  0.059642  1
  Y  Y12  1  0.208728  0.417456  0.059642  1
  Y  Y13  1  0.582544  0.791272  0.059642  1
  Y  Y14  1  0.539683  0.460317  0.250000  1
  Y  Y15  1  0.539683  0.079367  0.250000  1
  Y  Y16  1  0.920633  0.460317  0.250000  1
  Y  Y17  1  0.459733  0.540267  0.750000  1
  Y  Y18  1  0.459733  0.919466  0.750000  1
  Y  Y19  1  0.080534  0.540267  0.750000  1
  Cd  Cd20  1  0.108433  0.891567  0.750000  1
  Cd  Cd21  1  0.108433  0.216864  0.750000  1
  Cd  Cd22  1  0.783136  0.891567  0.750000  1
  Tc  Tc23  1  0.333333  0.666667  0.250000  1
  Tc  Tc24  1  0.666667  0.333333  0.750000  1
  Pd  Pd25  1  0.870279  0.129721  0.250000  1
  Pd  Pd26  1  0.870279  0.740560  0.250000  1
  Pd  Pd27  1  0.259440  0.129721  0.250000  1
