# generated using pymatgen
data_Tm16In4Ni3Ru
_symmetry_space_group_name_H-M   'P 1'
_cell_length_a   9.43843524
_cell_length_b   9.43843440
_cell_length_c   9.49538267
_cell_angle_alpha   60.19820060
_cell_angle_beta   60.19819396
_cell_angle_gamma   60.00000066
_symmetry_Int_Tables_number   1
_chemical_formula_structural   Tm16In4Ni3Ru
_chemical_formula_sum   'Tm16 In4 Ni3 Ru1'
_cell_volume   599.91814945
_cell_formula_units_Z   1
loop_
 _symmetry_equiv_pos_site_id
 _symmetry_equiv_pos_as_xyz
  1  'x, y, z'
loop_
 _atom_site_type_symbol
 _atom_site_label
 _atom_site_symmetry_multiplicity
 _atom_site_fract_x
 _atom_site_fract_y
 _atom_site_fract_z
 _atom_site_occupancy
  Tm  Tm0  1  0.060670  0.060670  0.436631  1
  Tm  Tm1  1  0.442029  0.060670  0.436631  1
  Tm  Tm2  1  0.062693  0.437221  0.062866  1
  Tm  Tm3  1  0.042760  0.652025  0.653190  1
  Tm  Tm4  1  0.437221  0.437221  0.062866  1
  Tm  Tm5  1  0.652025  0.042760  0.653190  1
  Tm  Tm6  1  0.188821  0.811860  0.187460  1
  Tm  Tm7  1  0.188308  0.188308  0.811560  1
  Tm  Tm8  1  0.811860  0.811860  0.187460  1
  Tm  Tm9  1  0.437221  0.062693  0.062866  1
  Tm  Tm10  1  0.811860  0.188821  0.187460  1
  Tm  Tm11  1  0.060670  0.442029  0.436631  1
  Tm  Tm12  1  0.811825  0.188308  0.811560  1
  Tm  Tm13  1  0.188308  0.811825  0.811560  1
  Tm  Tm14  1  0.652801  0.652801  0.041598  1
  Tm  Tm15  1  0.652025  0.652025  0.653190  1
  In  In16  1  0.417463  0.417463  0.416486  1
  In  In17  1  0.748589  0.417463  0.416486  1
  In  In18  1  0.417463  0.748589  0.416486  1
  In  In19  1  0.416084  0.416084  0.751748  1
  Ni  Ni20  1  0.858037  0.858037  0.859101  1
  Ni  Ni21  1  0.424825  0.858037  0.859101  1
  Ni  Ni22  1  0.858037  0.424825  0.859101  1
  Ru  Ru23  1  0.858408  0.858408  0.424774  1
