# generated using pymatgen
data_NdEu2Y(PIr)4
_symmetry_space_group_name_H-M   'P 1'
_cell_length_a   6.25397087
_cell_length_b   6.23276908
_cell_length_c   6.23739413
_cell_angle_alpha   90.77201682
_cell_angle_beta   89.46895733
_cell_angle_gamma   90.48760432
_symmetry_Int_Tables_number   1
_chemical_formula_structural   NdEu2Y(PIr)4
_chemical_formula_sum   'Nd1 Eu2 Y1 P4 Ir4'
_cell_volume   243.08979393
_cell_formula_units_Z   1
loop_
 _symmetry_equiv_pos_site_id
 _symmetry_equiv_pos_as_xyz
  1  'x, y, z'
loop_
 _atom_site_type_symbol
 _atom_site_label
 _atom_site_symmetry_multiplicity
 _atom_site_fract_x
 _atom_site_fract_y
 _atom_site_fract_z
 _atom_site_occupancy
  Nd  Nd0  1  0.405971  0.903546  0.597495  1
  Eu  Eu1  1  0.600043  0.400028  0.902857  1
  Eu  Eu2  1  0.099825  0.098351  0.098601  1
  Y  Y3  1  0.909273  0.591604  0.407562  1
  P  P4  1  0.676326  0.181437  0.323353  1
  P  P5  1  0.172870  0.324728  0.674423  1
  P  P6  1  0.319475  0.674957  0.175026  1
  P  P7  1  0.823761  0.823977  0.821807  1
  Ir  Ir8  1  0.073712  0.580901  0.921792  1
  Ir  Ir9  1  0.578873  0.917990  0.081171  1
  Ir  Ir10  1  0.919042  0.075127  0.573909  1
  Ir  Ir11  1  0.420826  0.427352  0.422006  1
