# generated using pymatgen
data_Tb5Ta3(Co4P3)4
_symmetry_space_group_name_H-M   'P 1'
_cell_length_a   12.17344100
_cell_length_b   12.17344061
_cell_length_c   3.69446100
_cell_angle_alpha   90.00000000
_cell_angle_beta   90.00000000
_cell_angle_gamma   119.99999833
_symmetry_Int_Tables_number   1
_chemical_formula_structural   Tb5Ta3(Co4P3)4
_chemical_formula_sum   'Tb5 Ta3 Co16 P12'
_cell_volume   474.14199425
_cell_formula_units_Z   1
loop_
 _symmetry_equiv_pos_site_id
 _symmetry_equiv_pos_as_xyz
  1  'x, y, z'
loop_
 _atom_site_type_symbol
 _atom_site_label
 _atom_site_symmetry_multiplicity
 _atom_site_fract_x
 _atom_site_fract_y
 _atom_site_fract_z
 _atom_site_occupancy
  Tb  Tb0  1  0.816004  0.000000  0.500000  1
  Tb  Tb1  1  0.000000  0.816004  0.500000  1
  Tb  Tb2  1  0.183996  0.183996  0.500000  1
  Tb  Tb3  1  0.333333  0.666667  0.000000  1
  Tb  Tb4  1  0.666667  0.333333  0.000000  1
  Ta  Ta5  1  0.442861  0.000000  0.000000  1
  Ta  Ta6  1  0.000000  0.442861  0.000000  1
  Ta  Ta7  1  0.557139  0.557139  0.000000  1
  Co  Co8  1  0.280282  0.000000  0.500000  1
  Co  Co9  1  0.000000  0.280282  0.500000  1
  Co  Co10  1  0.719718  0.719718  0.500000  1
  Co  Co11  1  0.625412  0.802265  0.000000  1
  Co  Co12  1  0.197735  0.823147  0.000000  1
  Co  Co13  1  0.176853  0.374588  0.000000  1
  Co  Co14  1  0.374588  0.176853  0.000000  1
  Co  Co15  1  0.802265  0.625412  0.000000  1
  Co  Co16  1  0.823147  0.197735  0.000000  1
  Co  Co17  1  0.518696  0.874045  0.500000  1
  Co  Co18  1  0.125955  0.644651  0.500000  1
  Co  Co19  1  0.355349  0.481304  0.500000  1
  Co  Co20  1  0.481304  0.355349  0.500000  1
  Co  Co21  1  0.874045  0.518696  0.500000  1
  Co  Co22  1  0.644651  0.125955  0.500000  1
  Co  Co23  1  0.000000  0.000000  0.000000  1
  P  P24  1  0.178106  0.000000  0.000000  1
  P  P25  1  0.000000  0.178106  0.000000  1
  P  P26  1  0.821894  0.821894  0.000000  1
  P  P27  1  0.520824  0.688821  0.500000  1
  P  P28  1  0.311179  0.832004  0.500000  1
  P  P29  1  0.167996  0.479176  0.500000  1
  P  P30  1  0.479176  0.167996  0.500000  1
  P  P31  1  0.688821  0.520824  0.500000  1
  P  P32  1  0.832004  0.311179  0.500000  1
  P  P33  1  0.643474  0.000000  0.000000  1
  P  P34  1  0.000000  0.643474  0.000000  1
  P  P35  1  0.356526  0.356526  0.000000  1
