# generated using pymatgen
data_Eu2YHoB16
_symmetry_space_group_name_H-M   'P 1'
_cell_length_a   7.16884111
_cell_length_b   7.16884041
_cell_length_c   4.06865700
_cell_angle_alpha   90.00000000
_cell_angle_beta   90.00000000
_cell_angle_gamma   90.75083487
_symmetry_Int_Tables_number   1
_chemical_formula_structural   Eu2YHoB16
_chemical_formula_sum   'Eu2 Y1 Ho1 B16'
_cell_volume   209.07959728
_cell_formula_units_Z   1
loop_
 _symmetry_equiv_pos_site_id
 _symmetry_equiv_pos_as_xyz
  1  'x, y, z'
loop_
 _atom_site_type_symbol
 _atom_site_label
 _atom_site_symmetry_multiplicity
 _atom_site_fract_x
 _atom_site_fract_y
 _atom_site_fract_z
 _atom_site_occupancy
  Eu  Eu0  1  0.816137  0.816185  0.000000  1
  Eu  Eu1  1  0.183814  0.183863  0.000000  1
  Y  Y2  1  0.317412  0.682588  0.000000  1
  Ho  Ho3  1  0.682871  0.317129  0.000000  1
  B  B4  1  0.038671  0.675593  0.500000  1
  B  B5  1  0.960614  0.323848  0.500000  1
  B  B6  1  0.463187  0.175442  0.500000  1
  B  B7  1  0.537561  0.825294  0.500000  1
  B  B8  1  0.174706  0.462439  0.500000  1
  B  B9  1  0.824558  0.536813  0.500000  1
  B  B10  1  0.676152  0.039386  0.500000  1
  B  B11  1  0.324407  0.961329  0.500000  1
  B  B12  1  0.412807  0.412697  0.500000  1
  B  B13  1  0.587303  0.587193  0.500000  1
  B  B14  1  0.087014  0.912986  0.500000  1
  B  B15  1  0.913156  0.086844  0.500000  1
  B  B16  1  0.999413  0.499597  0.796617  1
  B  B17  1  0.500403  0.000587  0.796617  1
  B  B18  1  0.999413  0.499597  0.203383  1
  B  B19  1  0.500403  0.000587  0.203383  1
