# generated using pymatgen
data_Ho2LuAl12(RuRh)2
_symmetry_space_group_name_H-M   'P 1'
_cell_length_a   8.81242453
_cell_length_b   8.75908039
_cell_length_c   9.52909700
_cell_angle_alpha   90.00000000
_cell_angle_beta   90.00000000
_cell_angle_gamma   119.96983078
_symmetry_Int_Tables_number   1
_chemical_formula_structural   Ho2LuAl12(RuRh)2
_chemical_formula_sum   'Ho4 Lu2 Al24 Ru4 Rh4'
_cell_volume   637.18897059
_cell_formula_units_Z   2
loop_
 _symmetry_equiv_pos_site_id
 _symmetry_equiv_pos_as_xyz
  1  'x, y, z'
loop_
 _atom_site_type_symbol
 _atom_site_label
 _atom_site_symmetry_multiplicity
 _atom_site_fract_x
 _atom_site_fract_y
 _atom_site_fract_z
 _atom_site_occupancy
  Ho  Ho0  1  0.615286  0.807745  0.250000  1
  Ho  Ho1  1  0.384714  0.192255  0.750000  1
  Ho  Ho2  1  0.190349  0.802662  0.250000  1
  Ho  Ho3  1  0.809651  0.197338  0.750000  1
  Lu  Lu4  1  0.192545  0.391690  0.250000  1
  Lu  Lu5  1  0.807455  0.608310  0.750000  1
  Al  Al6  1  0.331776  0.665388  0.025469  1
  Al  Al7  1  0.668224  0.334612  0.974531  1
  Al  Al8  1  0.668224  0.334612  0.525469  1
  Al  Al9  1  0.331776  0.665388  0.474531  1
  Al  Al10  1  0.162387  0.326625  0.576948  1
  Al  Al11  1  0.837613  0.673375  0.423052  1
  Al  Al12  1  0.675368  0.838065  0.578729  1
  Al  Al13  1  0.837613  0.673375  0.076948  1
  Al  Al14  1  0.324632  0.161935  0.421271  1
  Al  Al15  1  0.162387  0.326625  0.923052  1
  Al  Al16  1  0.162111  0.836144  0.577695  1
  Al  Al17  1  0.324632  0.161935  0.078729  1
  Al  Al18  1  0.837889  0.163856  0.422305  1
  Al  Al19  1  0.675368  0.838065  0.921271  1
  Al  Al20  1  0.837889  0.163856  0.077695  1
  Al  Al21  1  0.162111  0.836144  0.922305  1
  Al  Al22  1  0.561106  0.123327  0.250000  1
  Al  Al23  1  0.438894  0.876673  0.750000  1
  Al  Al24  1  0.875568  0.437236  0.250000  1
  Al  Al25  1  0.124432  0.562764  0.750000  1
  Al  Al26  1  0.560427  0.437566  0.250000  1
  Al  Al27  1  0.439573  0.562434  0.750000  1
  Al  Al28  1  0.999990  0.001857  0.250000  1
  Al  Al29  1  0.000010  0.998143  0.750000  1
  Ru  Ru30  1  0.000000  0.500000  0.000000  1
  Ru  Ru31  1  0.000000  0.500000  0.500000  1
  Ru  Ru32  1  0.000000  0.000000  0.000000  1
  Ru  Ru33  1  0.000000  0.000000  0.500000  1
  Rh  Rh34  1  0.500000  0.000000  0.000000  1
  Rh  Rh35  1  0.500000  0.000000  0.500000  1
  Rh  Rh36  1  0.500000  0.500000  0.000000  1
  Rh  Rh37  1  0.500000  0.500000  0.500000  1
