# generated using pymatgen
data_Y4FeSi4Ir
_symmetry_space_group_name_H-M   'P 1'
_cell_length_a   5.68965103
_cell_length_b   5.68965078
_cell_length_c   10.02714572
_cell_angle_alpha   63.11690616
_cell_angle_beta   63.11690864
_cell_angle_gamma   43.17548422
_symmetry_Int_Tables_number   1
_chemical_formula_structural   Y4FeSi4Ir
_chemical_formula_sum   'Y4 Fe1 Si4 Ir1'
_cell_volume   194.07385563
_cell_formula_units_Z   1
loop_
 _symmetry_equiv_pos_site_id
 _symmetry_equiv_pos_as_xyz
  1  'x, y, z'
loop_
 _atom_site_type_symbol
 _atom_site_label
 _atom_site_symmetry_multiplicity
 _atom_site_fract_x
 _atom_site_fract_y
 _atom_site_fract_z
 _atom_site_occupancy
  Y  Y0  1  0.005009  0.005009  0.323270  1
  Y  Y1  1  0.996650  0.996650  0.674126  1
  Y  Y2  1  0.814254  0.814254  0.107184  1
  Y  Y3  1  0.186512  0.186512  0.891174  1
  Fe  Fe4  1  0.272630  0.272630  0.377917  1
  Si  Si5  1  0.652165  0.652165  0.430873  1
  Si  Si6  1  0.356203  0.356203  0.559577  1
  Si  Si7  1  0.499672  0.499672  0.128556  1
  Si  Si8  1  0.490440  0.490440  0.878803  1
  Ir  Ir9  1  0.726464  0.726464  0.628521  1
