# generated using pymatgen
data_CsVPdS4
_symmetry_space_group_name_H-M   'P 1'
_cell_length_a   8.27011900
_cell_length_b   8.27011900
_cell_length_c   13.16315700
_cell_angle_alpha   90.00000000
_cell_angle_beta   90.00000000
_cell_angle_gamma   90.00000000
_symmetry_Int_Tables_number   1
_chemical_formula_structural   CsVPdS4
_chemical_formula_sum   'Cs4 V4 Pd4 S16'
_cell_volume   900.29238909
_cell_formula_units_Z   4
loop_
 _symmetry_equiv_pos_site_id
 _symmetry_equiv_pos_as_xyz
  1  'x, y, z'
loop_
 _atom_site_type_symbol
 _atom_site_label
 _atom_site_symmetry_multiplicity
 _atom_site_fract_x
 _atom_site_fract_y
 _atom_site_fract_z
 _atom_site_occupancy
  Cs  Cs0  1  0.000000  0.500000  0.750000  1
  Cs  Cs1  1  0.500000  0.000000  0.750000  1
  Cs  Cs2  1  0.500000  0.000000  0.250000  1
  Cs  Cs3  1  0.000000  0.500000  0.250000  1
  V  V4  1  0.750328  0.750328  0.000000  1
  V  V5  1  0.249672  0.249672  0.000000  1
  V  V6  1  0.250328  0.749672  0.500000  1
  V  V7  1  0.749672  0.250328  0.500000  1
  Pd  Pd8  1  0.500000  0.500000  0.500000  1
  Pd  Pd9  1  0.000000  0.000000  0.000000  1
  Pd  Pd10  1  0.500000  0.500000  0.000000  1
  Pd  Pd11  1  0.000000  0.000000  0.500000  1
  S  S12  1  0.362588  0.362588  0.130859  1
  S  S13  1  0.637412  0.637412  0.130859  1
  S  S14  1  0.137412  0.862588  0.369141  1
  S  S15  1  0.862588  0.137412  0.369141  1
  S  S16  1  0.637412  0.637412  0.869141  1
  S  S17  1  0.362588  0.362588  0.869141  1
  S  S18  1  0.137412  0.862588  0.630859  1
  S  S19  1  0.862588  0.137412  0.630859  1
  S  S20  1  0.490624  0.215394  0.500000  1
  S  S21  1  0.509376  0.784606  0.500000  1
  S  S22  1  0.009376  0.715394  0.000000  1
  S  S23  1  0.990624  0.284606  0.000000  1
  S  S24  1  0.784606  0.509376  0.500000  1
  S  S25  1  0.215394  0.490624  0.500000  1
  S  S26  1  0.284606  0.990624  0.000000  1
  S  S27  1  0.715394  0.009376  0.000000  1
