# generated using pymatgen
data_Hf6Ti4Al12Pd7
_symmetry_space_group_name_H-M   'P 1'
_cell_length_a   8.82885773
_cell_length_b   8.82885776
_cell_length_c   8.82885800
_cell_angle_alpha   59.99999911
_cell_angle_beta   59.99999898
_cell_angle_gamma   59.99999729
_symmetry_Int_Tables_number   1
_chemical_formula_structural   Hf6Ti4Al12Pd7
_chemical_formula_sum   'Hf6 Ti4 Al12 Pd7'
_cell_volume   486.62963978
_cell_formula_units_Z   1
loop_
 _symmetry_equiv_pos_site_id
 _symmetry_equiv_pos_as_xyz
  1  'x, y, z'
loop_
 _atom_site_type_symbol
 _atom_site_label
 _atom_site_symmetry_multiplicity
 _atom_site_fract_x
 _atom_site_fract_y
 _atom_site_fract_z
 _atom_site_occupancy
  Hf  Hf0  1  0.684353  0.684353  0.315647  1
  Hf  Hf1  1  0.315647  0.684353  0.315647  1
  Hf  Hf2  1  0.684353  0.315647  0.315647  1
  Hf  Hf3  1  0.315647  0.315647  0.684353  1
  Hf  Hf4  1  0.684353  0.315647  0.684353  1
  Hf  Hf5  1  0.315647  0.684353  0.684353  1
  Ti  Ti6  1  0.881397  0.881397  0.355809  1
  Ti  Ti7  1  0.881397  0.355809  0.881397  1
  Ti  Ti8  1  0.355809  0.881397  0.881397  1
  Ti  Ti9  1  0.881397  0.881397  0.881397  1
  Al  Al10  1  0.119190  0.119190  0.642430  1
  Al  Al11  1  0.119190  0.642430  0.119190  1
  Al  Al12  1  0.642430  0.119190  0.119190  1
  Al  Al13  1  0.119190  0.119190  0.119190  1
  Al  Al14  1  0.665174  0.665174  0.004480  1
  Al  Al15  1  0.665174  0.004480  0.665174  1
  Al  Al16  1  0.004480  0.665174  0.665174  1
  Al  Al17  1  0.665174  0.665174  0.665174  1
  Al  Al18  1  0.334444  0.334444  0.996667  1
  Al  Al19  1  0.334444  0.996667  0.334444  1
  Al  Al20  1  0.996667  0.334444  0.334444  1
  Al  Al21  1  0.334444  0.334444  0.334444  1
  Pd  Pd22  1  0.000000  0.000000  0.000000  1
  Pd  Pd23  1  0.999825  0.999825  0.500175  1
  Pd  Pd24  1  0.500175  0.999825  0.500175  1
  Pd  Pd25  1  0.999825  0.500175  0.500175  1
  Pd  Pd26  1  0.500175  0.500175  0.999825  1
  Pd  Pd27  1  0.999825  0.500175  0.999825  1
  Pd  Pd28  1  0.500175  0.999825  0.999825  1
