# generated using pymatgen
data_Sr9AcSi6F
_symmetry_space_group_name_H-M   'P 1'
_cell_length_a   9.68391241
_cell_length_b   9.66167761
_cell_length_c   9.69057669
_cell_angle_alpha   130.26333659
_cell_angle_beta   130.32401478
_cell_angle_gamma   72.79516070
_symmetry_Int_Tables_number   1
_chemical_formula_structural   Sr9AcSi6F
_chemical_formula_sum   'Sr9 Ac1 Si6 F1'
_cell_volume   515.66530380
_cell_formula_units_Z   1
loop_
 _symmetry_equiv_pos_site_id
 _symmetry_equiv_pos_as_xyz
  1  'x, y, z'
loop_
 _atom_site_type_symbol
 _atom_site_label
 _atom_site_symmetry_multiplicity
 _atom_site_fract_x
 _atom_site_fract_y
 _atom_site_fract_z
 _atom_site_occupancy
  Sr  Sr0  1  0.430901  0.775640  0.000000  1
  Sr  Sr1  1  0.932843  0.929686  0.642083  1
  Sr  Sr2  1  0.290760  0.287603  0.357917  1
  Sr  Sr3  1  0.711533  0.065645  0.000000  1
  Sr  Sr4  1  0.068307  0.710900  0.000000  1
  Sr  Sr5  1  0.565592  0.567366  0.339091  1
  Sr  Sr6  1  0.226498  0.228274  0.660909  1
  Sr  Sr7  1  0.256959  0.755951  0.506518  1
  Sr  Sr8  1  0.750441  0.249434  0.493482  1
  Ac  Ac9  1  0.780156  0.429999  0.000000  1
  Si  Si10  1  0.993863  0.499628  0.492345  1
  Si  Si11  1  0.501517  0.007282  0.507655  1
  Si  Si12  1  0.133573  0.355376  0.000000  1
  Si  Si13  1  0.356371  0.141895  0.000000  1
  Si  Si14  1  0.860502  0.854464  0.216396  1
  Si  Si15  1  0.644107  0.638069  0.783604  1
  F  F16  1  0.496077  0.502787  0.000000  1
