# generated using pymatgen
data_K3Ba(SbPt)4
_symmetry_space_group_name_H-M   'P 1'
_cell_length_a   7.16865366
_cell_length_b   7.16865453
_cell_length_c   7.16865369
_cell_angle_alpha   90.50139866
_cell_angle_beta   89.49860056
_cell_angle_gamma   90.50140522
_symmetry_Int_Tables_number   1
_chemical_formula_structural   K3Ba(SbPt)4
_chemical_formula_sum   'K3 Ba1 Sb4 Pt4'
_cell_volume   368.35218373
_cell_formula_units_Z   1
loop_
 _symmetry_equiv_pos_site_id
 _symmetry_equiv_pos_as_xyz
  1  'x, y, z'
loop_
 _atom_site_type_symbol
 _atom_site_label
 _atom_site_symmetry_multiplicity
 _atom_site_fract_x
 _atom_site_fract_y
 _atom_site_fract_z
 _atom_site_occupancy
  K  K0  1  0.612442  0.377333  0.882808  1
  K  K1  1  0.382808  0.887558  0.622667  1
  K  K2  1  0.122667  0.117192  0.112442  1
  Ba  Ba3  1  0.884230  0.615770  0.384230  1
  Sb  Sb4  1  0.588174  0.911826  0.088174  1
  Sb  Sb5  1  0.082261  0.584998  0.918215  1
  Sb  Sb6  1  0.915002  0.081785  0.582261  1
  Sb  Sb7  1  0.418215  0.417739  0.415002  1
  Pt  Pt8  1  0.146662  0.353338  0.646662  1
  Pt  Pt9  1  0.655228  0.155497  0.347808  1
  Pt  Pt10  1  0.847808  0.844772  0.844503  1
  Pt  Pt11  1  0.344503  0.652192  0.155228  1
