# generated using pymatgen
data_Yb2Er2Os5Ru3
_symmetry_space_group_name_H-M   'P 1'
_cell_length_a   5.28354525
_cell_length_b   5.17682187
_cell_length_c   8.99560329
_cell_angle_alpha   90.03996634
_cell_angle_beta   89.77713253
_cell_angle_gamma   119.64993755
_symmetry_Int_Tables_number   1
_chemical_formula_structural   Yb2Er2Os5Ru3
_chemical_formula_sum   'Yb2 Er2 Os5 Ru3'
_cell_volume   213.82921184
_cell_formula_units_Z   1
loop_
 _symmetry_equiv_pos_site_id
 _symmetry_equiv_pos_as_xyz
  1  'x, y, z'
loop_
 _atom_site_type_symbol
 _atom_site_label
 _atom_site_symmetry_multiplicity
 _atom_site_fract_x
 _atom_site_fract_y
 _atom_site_fract_z
 _atom_site_occupancy
  Yb  Yb0  1  0.328091  0.664605  0.060564  1
  Yb  Yb1  1  0.662647  0.331121  0.940594  1
  Er  Er2  1  0.670460  0.335115  0.571123  1
  Er  Er3  1  0.334706  0.667939  0.428065  1
  Os  Os4  1  0.173500  0.341475  0.748008  1
  Os  Os5  1  0.174056  0.830684  0.747752  1
  Os  Os6  1  0.661184  0.829938  0.750535  1
  Os  Os7  1  0.835876  0.662498  0.250004  1
  Os  Os8  1  0.838071  0.173633  0.249865  1
  Ru  Ru9  1  0.989638  0.995563  0.499288  1
  Ru  Ru10  1  0.979679  0.990429  0.000584  1
  Ru  Ru11  1  0.352089  0.177000  0.253618  1
