# generated using pymatgen
data_Y7Ho6Th3(MgIr)4
_symmetry_space_group_name_H-M   'P 1'
_cell_length_a   9.77453499
_cell_length_b   9.77952971
_cell_length_c   9.79541700
_cell_angle_alpha   59.94624251
_cell_angle_beta   59.92930091
_cell_angle_gamma   59.95396478
_symmetry_Int_Tables_number   1
_chemical_formula_structural   Y7Ho6Th3(MgIr)4
_chemical_formula_sum   'Y7 Ho6 Th3 Mg4 Ir4'
_cell_volume   661.24411429
_cell_formula_units_Z   1
loop_
 _symmetry_equiv_pos_site_id
 _symmetry_equiv_pos_as_xyz
  1  'x, y, z'
loop_
 _atom_site_type_symbol
 _atom_site_label
 _atom_site_symmetry_multiplicity
 _atom_site_fract_x
 _atom_site_fract_y
 _atom_site_fract_z
 _atom_site_occupancy
  Y  Y0  1  0.063426  0.062542  0.437017  1
  Y  Y1  1  0.187215  0.813394  0.814174  1
  Y  Y2  1  0.814674  0.185909  0.184382  1
  Y  Y3  1  0.814674  0.185909  0.815034  1
  Y  Y4  1  0.187215  0.813394  0.185217  1
  Y  Y5  1  0.815343  0.815169  0.184743  1
  Y  Y6  1  0.186942  0.186765  0.813147  1
  Ho  Ho7  1  0.206613  0.598085  0.597652  1
  Ho  Ho8  1  0.062740  0.437211  0.437751  1
  Ho  Ho9  1  0.436099  0.063546  0.064113  1
  Ho  Ho10  1  0.436099  0.063546  0.436244  1
  Ho  Ho11  1  0.062740  0.437211  0.062300  1
  Ho  Ho12  1  0.436602  0.436533  0.063433  1
  Th  Th13  1  0.595905  0.598348  0.597756  1
  Th  Th14  1  0.595905  0.598348  0.207991  1
  Th  Th15  1  0.596038  0.206685  0.598639  1
  Mg  Mg16  1  0.830516  0.829241  0.829926  1
  Mg  Mg17  1  0.830516  0.829241  0.510318  1
  Mg  Mg18  1  0.830154  0.510097  0.829875  1
  Mg  Mg19  1  0.508777  0.829788  0.830719  1
  Ir  Ir20  1  0.393319  0.391540  0.392417  1
  Ir  Ir21  1  0.393319  0.391540  0.822725  1
  Ir  Ir22  1  0.395022  0.821823  0.391578  1
  Ir  Ir23  1  0.820153  0.394140  0.392853  1
