# generated using pymatgen
data_Er8Re3B24Os
_symmetry_space_group_name_H-M   'P 1'
_cell_length_a   3.65226000
_cell_length_b   9.12505604
_cell_length_c   11.49612657
_cell_angle_alpha   90.07659287
_cell_angle_beta   90.00000000
_cell_angle_gamma   90.00000000
_symmetry_Int_Tables_number   1
_chemical_formula_structural   Er8Re3B24Os
_chemical_formula_sum   'Er8 Re3 B24 Os1'
_cell_volume   383.13195491
_cell_formula_units_Z   1
loop_
 _symmetry_equiv_pos_site_id
 _symmetry_equiv_pos_as_xyz
  1  'x, y, z'
loop_
 _atom_site_type_symbol
 _atom_site_label
 _atom_site_symmetry_multiplicity
 _atom_site_fract_x
 _atom_site_fract_y
 _atom_site_fract_z
 _atom_site_occupancy
  Er  Er0  1  0.000000  0.322092  0.414082  1
  Er  Er1  1  0.000000  0.677302  0.587539  1
  Er  Er2  1  0.000000  0.824265  0.084634  1
  Er  Er3  1  0.000000  0.176528  0.913616  1
  Er  Er4  1  0.000000  0.943081  0.370144  1
  Er  Er5  1  0.000000  0.056254  0.629374  1
  Er  Er6  1  0.000000  0.443007  0.129659  1
  Er  Er7  1  0.000000  0.556627  0.870862  1
  Re  Re8  1  0.000000  0.361828  0.678082  1
  Re  Re9  1  0.000000  0.138734  0.179668  1
  Re  Re10  1  0.000000  0.861233  0.820821  1
  B  B11  1  0.500000  0.553816  0.433082  1
  B  B12  1  0.500000  0.447017  0.566491  1
  B  B13  1  0.500000  0.053076  0.066588  1
  B  B14  1  0.500000  0.946855  0.933369  1
  B  B15  1  0.500000  0.749272  0.418911  1
  B  B16  1  0.500000  0.250064  0.580734  1
  B  B17  1  0.500000  0.249752  0.080756  1
  B  B18  1  0.500000  0.750629  0.919269  1
  B  B19  1  0.500000  0.791724  0.265490  1
  B  B20  1  0.500000  0.207324  0.734482  1
  B  B21  1  0.500000  0.292600  0.234828  1
  B  B22  1  0.500000  0.707222  0.765656  1
  B  B23  1  0.500000  0.631466  0.185528  1
  B  B24  1  0.500000  0.369125  0.814444  1
  B  B25  1  0.500000  0.131387  0.315167  1
  B  B26  1  0.500000  0.868669  0.685285  1
  B  B27  1  0.500000  0.982175  0.211974  1
  B  B28  1  0.500000  0.017856  0.787846  1
  B  B29  1  0.500000  0.483136  0.288019  1
  B  B30  1  0.500000  0.518249  0.712031  1
  B  B31  1  0.500000  0.601581  0.028756  1
  B  B32  1  0.500000  0.398614  0.971929  1
  B  B33  1  0.500000  0.100777  0.471600  1
  B  B34  1  0.500000  0.898121  0.528109  1
  Os  Os35  1  0.000000  0.638545  0.321174  1
