# generated using pymatgen
data_Nd6Sc8Al8Ir7
_symmetry_space_group_name_H-M   'P 1'
_cell_length_a   9.34554629
_cell_length_b   9.34554628
_cell_length_c   9.34554600
_cell_angle_alpha   59.99999392
_cell_angle_beta   59.99999393
_cell_angle_gamma   59.99999390
_symmetry_Int_Tables_number   1
_chemical_formula_structural   Nd6Sc8Al8Ir7
_chemical_formula_sum   'Nd6 Sc8 Al8 Ir7'
_cell_volume   577.16369758
_cell_formula_units_Z   1
loop_
 _symmetry_equiv_pos_site_id
 _symmetry_equiv_pos_as_xyz
  1  'x, y, z'
loop_
 _atom_site_type_symbol
 _atom_site_label
 _atom_site_symmetry_multiplicity
 _atom_site_fract_x
 _atom_site_fract_y
 _atom_site_fract_z
 _atom_site_occupancy
  Nd  Nd0  1  0.689297  0.689297  0.310703  1
  Nd  Nd1  1  0.310703  0.689297  0.310703  1
  Nd  Nd2  1  0.689297  0.310703  0.310703  1
  Nd  Nd3  1  0.310703  0.310703  0.689297  1
  Nd  Nd4  1  0.689297  0.310703  0.689297  1
  Nd  Nd5  1  0.310703  0.689297  0.689297  1
  Sc  Sc6  1  0.877980  0.877980  0.366061  1
  Sc  Sc7  1  0.877980  0.366061  0.877980  1
  Sc  Sc8  1  0.366061  0.877980  0.877980  1
  Sc  Sc9  1  0.877980  0.877980  0.877980  1
  Sc  Sc10  1  0.122020  0.122020  0.633939  1
  Sc  Sc11  1  0.122020  0.633939  0.122020  1
  Sc  Sc12  1  0.633939  0.122020  0.122020  1
  Sc  Sc13  1  0.122020  0.122020  0.122020  1
  Al  Al14  1  0.669258  0.669258  0.992224  1
  Al  Al15  1  0.669258  0.992224  0.669258  1
  Al  Al16  1  0.992224  0.669258  0.669258  1
  Al  Al17  1  0.669258  0.669258  0.669258  1
  Al  Al18  1  0.330742  0.330742  0.007776  1
  Al  Al19  1  0.330742  0.007776  0.330742  1
  Al  Al20  1  0.007776  0.330742  0.330742  1
  Al  Al21  1  0.330742  0.330742  0.330742  1
  Ir  Ir22  1  0.000000  0.000000  0.000000  1
  Ir  Ir23  1  0.000000  0.000000  0.500000  1
  Ir  Ir24  1  0.500000  0.000000  0.500000  1
  Ir  Ir25  1  0.000000  0.500000  0.500000  1
  Ir  Ir26  1  0.500000  0.500000  0.000000  1
  Ir  Ir27  1  0.000000  0.500000  0.000000  1
  Ir  Ir28  1  0.500000  0.000000  0.000000  1
