# generated using pymatgen
data_Lu4Al5GaOs2
_symmetry_space_group_name_H-M   'P 1'
_cell_length_a   5.39569000
_cell_length_b   5.39929687
_cell_length_c   8.74175800
_cell_angle_alpha   90.00000000
_cell_angle_beta   90.00000000
_cell_angle_gamma   119.97790435
_symmetry_Int_Tables_number   1
_chemical_formula_structural   Lu4Al5GaOs2
_chemical_formula_sum   'Lu4 Al5 Ga1 Os2'
_cell_volume   220.60241427
_cell_formula_units_Z   1
loop_
 _symmetry_equiv_pos_site_id
 _symmetry_equiv_pos_as_xyz
  1  'x, y, z'
loop_
 _atom_site_type_symbol
 _atom_site_label
 _atom_site_symmetry_multiplicity
 _atom_site_fract_x
 _atom_site_fract_y
 _atom_site_fract_z
 _atom_site_occupancy
  Lu  Lu0  1  0.667785  0.335572  0.053180  1
  Lu  Lu1  1  0.667785  0.335572  0.446821  1
  Lu  Lu2  1  0.332842  0.665684  0.555187  1
  Lu  Lu3  1  0.332842  0.665684  0.944813  1
  Al  Al4  1  0.165142  0.330283  0.250000  1
  Al  Al5  1  0.164646  0.839165  0.250000  1
  Al  Al6  1  0.674519  0.839165  0.250000  1
  Al  Al7  1  0.323420  0.155215  0.749999  1
  Al  Al8  1  0.831796  0.155215  0.749999  1
  Ga  Ga9  1  0.830568  0.661138  0.749999  1
  Os  Os10  1  0.004328  0.008656  0.000933  1
  Os  Os11  1  0.004328  0.008656  0.499067  1
