# generated using pymatgen
data_LiSc3(Tc3Ge4)2
_symmetry_space_group_name_H-M   'P 1'
_cell_length_a   6.73992942
_cell_length_b   6.56184784
_cell_length_c   6.74506500
_cell_angle_alpha   70.72434978
_cell_angle_beta   89.86972288
_cell_angle_gamma   89.88574365
_symmetry_Int_Tables_number   1
_chemical_formula_structural   LiSc3(Tc3Ge4)2
_chemical_formula_sum   'Li1 Sc3 Tc6 Ge8'
_cell_volume   281.58605648
_cell_formula_units_Z   1
loop_
 _symmetry_equiv_pos_site_id
 _symmetry_equiv_pos_as_xyz
  1  'x, y, z'
loop_
 _atom_site_type_symbol
 _atom_site_label
 _atom_site_symmetry_multiplicity
 _atom_site_fract_x
 _atom_site_fract_y
 _atom_site_fract_z
 _atom_site_occupancy
  Li  Li0  1  0.668313  0.461547  0.175366  1
  Sc  Sc1  1  0.168051  0.055017  0.807134  1
  Sc  Sc2  1  0.332648  0.550094  0.809696  1
  Sc  Sc3  1  0.830668  0.945776  0.194126  1
  Tc  Tc4  1  0.498639  0.991386  0.507176  1
  Tc  Tc5  1  0.005797  0.495833  0.507948  1
  Tc  Tc6  1  0.156483  0.242714  0.233699  1
  Tc  Tc7  1  0.656310  0.248621  0.770661  1
  Tc  Tc8  1  0.847271  0.761889  0.762107  1
  Tc  Tc9  1  0.340959  0.745677  0.233996  1
  Ge  Ge10  1  0.464523  0.140930  0.104640  1
  Ge  Ge11  1  0.954196  0.365385  0.905799  1
  Ge  Ge12  1  0.542981  0.858945  0.908209  1
  Ge  Ge13  1  0.033395  0.631965  0.103145  1
  Ge  Ge14  1  0.848403  0.152739  0.487319  1
  Ge  Ge15  1  0.365202  0.360145  0.491670  1
  Ge  Ge16  1  0.141273  0.861255  0.500363  1
  Ge  Ge17  1  0.644890  0.630082  0.496945  1
