# generated using pymatgen
data_ZrCd(Ni7B2)3
_symmetry_space_group_name_H-M   'P 1'
_cell_length_a   7.48861180
_cell_length_b   7.48861190
_cell_length_c   7.48861300
_cell_angle_alpha   59.99999956
_cell_angle_beta   59.99999912
_cell_angle_gamma   59.99999986
_symmetry_Int_Tables_number   1
_chemical_formula_structural   ZrCd(Ni7B2)3
_chemical_formula_sum   'Zr1 Cd1 Ni21 B6'
_cell_volume   296.95389530
_cell_formula_units_Z   1
loop_
 _symmetry_equiv_pos_site_id
 _symmetry_equiv_pos_as_xyz
  1  'x, y, z'
loop_
 _atom_site_type_symbol
 _atom_site_label
 _atom_site_symmetry_multiplicity
 _atom_site_fract_x
 _atom_site_fract_y
 _atom_site_fract_z
 _atom_site_occupancy
  Zr  Zr0  1  0.250000  0.250000  0.250000  1
  Cd  Cd1  1  0.750000  0.750000  0.750000  1
  Ni  Ni2  1  0.000000  0.000000  0.000000  1
  Ni  Ni3  1  0.613361  0.613361  0.159918  1
  Ni  Ni4  1  0.613361  0.159918  0.613361  1
  Ni  Ni5  1  0.159918  0.613361  0.613361  1
  Ni  Ni6  1  0.613361  0.613361  0.613361  1
  Ni  Ni7  1  0.386094  0.386094  0.841718  1
  Ni  Ni8  1  0.386094  0.841718  0.386094  1
  Ni  Ni9  1  0.841718  0.386094  0.386094  1
  Ni  Ni10  1  0.386094  0.386094  0.386094  1
  Ni  Ni11  1  0.001429  0.001429  0.335950  1
  Ni  Ni12  1  0.661192  0.001429  0.335950  1
  Ni  Ni13  1  0.001429  0.661192  0.335950  1
  Ni  Ni14  1  0.661192  0.335950  0.001429  1
  Ni  Ni15  1  0.001429  0.335950  0.001429  1
  Ni  Ni16  1  0.001429  0.335950  0.661192  1
  Ni  Ni17  1  0.335950  0.661192  0.001429  1
  Ni  Ni18  1  0.335950  0.001429  0.661192  1
  Ni  Ni19  1  0.335950  0.001429  0.001429  1
  Ni  Ni20  1  0.001429  0.001429  0.661192  1
  Ni  Ni21  1  0.001429  0.661192  0.001429  1
  Ni  Ni22  1  0.661192  0.001429  0.001429  1
  B  B23  1  0.729039  0.729039  0.270961  1
  B  B24  1  0.270961  0.729039  0.270961  1
  B  B25  1  0.729039  0.270961  0.270961  1
  B  B26  1  0.270961  0.270961  0.729039  1
  B  B27  1  0.729039  0.270961  0.729039  1
  B  B28  1  0.270961  0.729039  0.729039  1
