# generated using pymatgen
data_Lu3Al3GePd2
_symmetry_space_group_name_H-M   'P 1'
_cell_length_a   7.04836300
_cell_length_b   7.04836239
_cell_length_c   4.03195300
_cell_angle_alpha   90.00000000
_cell_angle_beta   90.00000000
_cell_angle_gamma   119.99999816
_symmetry_Int_Tables_number   1
_chemical_formula_structural   Lu3Al3GePd2
_chemical_formula_sum   'Lu3 Al3 Ge1 Pd2'
_cell_volume   173.46928510
_cell_formula_units_Z   1
loop_
 _symmetry_equiv_pos_site_id
 _symmetry_equiv_pos_as_xyz
  1  'x, y, z'
loop_
 _atom_site_type_symbol
 _atom_site_label
 _atom_site_symmetry_multiplicity
 _atom_site_fract_x
 _atom_site_fract_y
 _atom_site_fract_z
 _atom_site_occupancy
  Lu  Lu0  1  0.586939  0.006553  0.000000  1
  Lu  Lu1  1  0.993447  0.580386  0.000000  1
  Lu  Lu2  1  0.419614  0.413061  0.000000  1
  Al  Al3  1  0.247279  0.010051  0.500000  1
  Al  Al4  1  0.989949  0.237228  0.500000  1
  Al  Al5  1  0.762772  0.752721  0.500000  1
  Ge  Ge6  1  0.333333  0.666667  0.500000  1
  Pd  Pd7  1  0.000000  0.000000  0.000000  1
  Pd  Pd8  1  0.666667  0.333333  0.500000  1
