# generated using pymatgen
data_ErSc9Co7Si20Ir
_symmetry_space_group_name_H-M   'P 1'
_cell_length_a   12.10688215
_cell_length_b   12.06286729
_cell_length_c   3.96163900
_cell_angle_alpha   90.00000000
_cell_angle_beta   90.00000000
_cell_angle_gamma   89.92391749
_symmetry_Int_Tables_number   1
_chemical_formula_structural   ErSc9Co7Si20Ir
_chemical_formula_sum   'Er1 Sc9 Co7 Si20 Ir1'
_cell_volume   578.57195764
_cell_formula_units_Z   1
loop_
 _symmetry_equiv_pos_site_id
 _symmetry_equiv_pos_as_xyz
  1  'x, y, z'
loop_
 _atom_site_type_symbol
 _atom_site_label
 _atom_site_symmetry_multiplicity
 _atom_site_fract_x
 _atom_site_fract_y
 _atom_site_fract_z
 _atom_site_occupancy
  Er  Er0  1  0.611148  0.888774  0.500000  1
  Sc  Sc1  1  0.499469  0.499177  0.000000  1
  Sc  Sc2  1  0.001344  0.006580  0.000000  1
  Sc  Sc3  1  0.676554  0.177022  0.500000  1
  Sc  Sc4  1  0.327264  0.824173  0.500000  1
  Sc  Sc5  1  0.175676  0.323069  0.500000  1
  Sc  Sc6  1  0.821355  0.672465  0.500000  1
  Sc  Sc7  1  0.886676  0.385862  0.500000  1
  Sc  Sc8  1  0.116029  0.609986  0.500000  1
  Sc  Sc9  1  0.388329  0.112316  0.500000  1
  Co  Co10  1  0.743795  0.522104  0.000000  1
  Co  Co11  1  0.254048  0.476707  0.000000  1
  Co  Co12  1  0.246969  0.977896  0.000000  1
  Co  Co13  1  0.755130  0.026029  0.000000  1
  Co  Co14  1  0.476281  0.744316  0.000000  1
  Co  Co15  1  0.522430  0.255702  0.000000  1
  Co  Co16  1  0.024320  0.246415  0.000000  1
  Si  Si17  1  0.568064  0.071776  0.000000  1
  Si  Si18  1  0.430648  0.933140  0.000000  1
  Si  Si19  1  0.069581  0.430440  0.000000  1
  Si  Si20  1  0.927667  0.560121  0.000000  1
  Si  Si21  1  0.655770  0.694371  0.000000  1
  Si  Si22  1  0.342465  0.302628  0.000000  1
  Si  Si23  1  0.167897  0.801776  0.000000  1
  Si  Si24  1  0.843136  0.198938  0.000000  1
  Si  Si25  1  0.305587  0.655952  0.000000  1
  Si  Si26  1  0.696279  0.342385  0.000000  1
  Si  Si27  1  0.198099  0.157370  0.000000  1
  Si  Si28  1  0.796920  0.843425  0.000000  1
  Si  Si29  1  0.662521  0.498459  0.500000  1
  Si  Si30  1  0.336572  0.494372  0.500000  1
  Si  Si31  1  0.164933  0.994210  0.500000  1
  Si  Si32  1  0.838013  0.003605  0.500000  1
  Si  Si33  1  0.495074  0.661611  0.500000  1
  Si  Si34  1  0.501082  0.336164  0.500000  1
  Si  Si35  1  0.999570  0.167058  0.500000  1
  Si  Si36  1  0.993617  0.851362  0.500000  1
  Ir  Ir37  1  0.979689  0.752244  0.000000  1
