# generated using pymatgen
data_Li(Ni2As)2
_symmetry_space_group_name_H-M   'P 1'
_cell_length_a   7.09815300
_cell_length_b   7.09815300
_cell_length_c   3.72144800
_cell_angle_alpha   90.00000000
_cell_angle_beta   90.00000000
_cell_angle_gamma   90.00000000
_symmetry_Int_Tables_number   1
_chemical_formula_structural   Li(Ni2As)2
_chemical_formula_sum   'Li2 Ni8 As4'
_cell_volume   187.50060247
_cell_formula_units_Z   2
loop_
 _symmetry_equiv_pos_site_id
 _symmetry_equiv_pos_as_xyz
  1  'x, y, z'
loop_
 _atom_site_type_symbol
 _atom_site_label
 _atom_site_symmetry_multiplicity
 _atom_site_fract_x
 _atom_site_fract_y
 _atom_site_fract_z
 _atom_site_occupancy
  Li  Li0  1  0.500000  0.500000  0.000000  1
  Li  Li1  1  0.000000  0.000000  0.500000  1
  Ni  Ni2  1  0.583342  0.159657  0.500000  1
  Ni  Ni3  1  0.416658  0.840343  0.500000  1
  Ni  Ni4  1  0.083342  0.340343  0.000000  1
  Ni  Ni5  1  0.916658  0.659657  0.000000  1
  Ni  Ni6  1  0.159657  0.583342  0.500000  1
  Ni  Ni7  1  0.840343  0.416658  0.500000  1
  Ni  Ni8  1  0.340343  0.083342  0.000000  1
  Ni  Ni9  1  0.659657  0.916658  0.000000  1
  As  As10  1  0.726606  0.726606  0.500000  1
  As  As11  1  0.273394  0.273394  0.500000  1
  As  As12  1  0.226606  0.773394  0.000000  1
  As  As13  1  0.773394  0.226606  0.000000  1
