# generated using pymatgen
data_Ca5Cd(SbN)2
_symmetry_space_group_name_H-M   'P 1'
_cell_length_a   6.98064000
_cell_length_b   6.95705700
_cell_length_c   9.29646700
_cell_angle_alpha   90.00000000
_cell_angle_beta   90.00000000
_cell_angle_gamma   90.00000000
_symmetry_Int_Tables_number   1
_chemical_formula_structural   Ca5Cd(SbN)2
_chemical_formula_sum   'Ca10 Cd2 Sb4 N4'
_cell_volume   451.48022738
_cell_formula_units_Z   2
loop_
 _symmetry_equiv_pos_site_id
 _symmetry_equiv_pos_as_xyz
  1  'x, y, z'
loop_
 _atom_site_type_symbol
 _atom_site_label
 _atom_site_symmetry_multiplicity
 _atom_site_fract_x
 _atom_site_fract_y
 _atom_site_fract_z
 _atom_site_occupancy
  Ca  Ca0  1  0.751167  0.751096  0.992799  1
  Ca  Ca1  1  0.748833  0.251096  0.507201  1
  Ca  Ca2  1  0.249013  0.249131  0.520620  1
  Ca  Ca3  1  0.250987  0.749131  0.979380  1
  Ca  Ca4  1  0.249013  0.249131  0.979380  1
  Ca  Ca5  1  0.250987  0.749131  0.520620  1
  Ca  Ca6  1  0.751167  0.751096  0.507201  1
  Ca  Ca7  1  0.748833  0.251096  0.992799  1
  Ca  Ca8  1  0.487261  0.000215  0.250000  1
  Ca  Ca9  1  0.012739  0.500215  0.250000  1
  Cd  Cd10  1  0.517622  0.999951  0.750000  1
  Cd  Cd11  1  0.982378  0.499951  0.750000  1
  Sb  Sb12  1  0.499903  0.498911  0.250000  1
  Sb  Sb13  1  0.000097  0.998911  0.250000  1
  Sb  Sb14  1  0.508269  0.500295  0.750000  1
  Sb  Sb15  1  0.991731  0.000295  0.750000  1
  N  N16  1  0.001515  0.500087  0.993866  1
  N  N17  1  0.498485  0.000087  0.506134  1
  N  N18  1  0.001515  0.500087  0.506134  1
  N  N19  1  0.498485  0.000087  0.993866  1
