# generated using pymatgen
data_LaPr(Co5P3)2
_symmetry_space_group_name_H-M   'P 1'
_cell_length_a   6.01519603
_cell_length_b   6.01519663
_cell_length_c   11.43021000
_cell_angle_alpha   90.00000000
_cell_angle_beta   90.00000000
_cell_angle_gamma   144.86913542
_symmetry_Int_Tables_number   1
_chemical_formula_structural   LaPr(Co5P3)2
_chemical_formula_sum   'La1 Pr1 Co10 P6'
_cell_volume   237.98978698
_cell_formula_units_Z   1
loop_
 _symmetry_equiv_pos_site_id
 _symmetry_equiv_pos_as_xyz
  1  'x, y, z'
loop_
 _atom_site_type_symbol
 _atom_site_label
 _atom_site_symmetry_multiplicity
 _atom_site_fract_x
 _atom_site_fract_y
 _atom_site_fract_z
 _atom_site_occupancy
  La  La0  1  0.662021  0.337979  0.750000  1
  Pr  Pr1  1  0.338733  0.661267  0.250000  1
  Co  Co2  1  0.053880  0.946120  0.142688  1
  Co  Co3  1  0.053880  0.946120  0.357312  1
  Co  Co4  1  0.698146  0.301854  0.430981  1
  Co  Co5  1  0.301866  0.698134  0.567649  1
  Co  Co6  1  0.301866  0.698134  0.932351  1
  Co  Co7  1  0.698146  0.301854  0.069019  1
  Co  Co8  1  0.499980  0.500020  0.499403  1
  Co  Co9  1  0.499980  0.500020  0.000597  1
  Co  Co10  1  0.945661  0.054339  0.641883  1
  Co  Co11  1  0.945661  0.054339  0.858117  1
  P  P12  1  0.609425  0.390575  0.250000  1
  P  P13  1  0.391050  0.608950  0.750000  1
  P  P14  1  0.117034  0.882966  0.537411  1
  P  P15  1  0.882818  0.117182  0.461789  1
  P  P16  1  0.882818  0.117182  0.038211  1
  P  P17  1  0.117034  0.882966  0.962589  1
