# generated using pymatgen
data_Hf3(Al2Ir)4
_symmetry_space_group_name_H-M   'P 1'
_cell_length_a   8.78402000
_cell_length_b   8.78401992
_cell_length_c   8.78402000
_cell_angle_alpha   120.00000029
_cell_angle_beta   90.00000000
_cell_angle_gamma   120.00000029
_symmetry_Int_Tables_number   1
_chemical_formula_structural   Hf3(Al2Ir)4
_chemical_formula_sum   'Hf6 Al16 Ir8'
_cell_volume   479.25311288
_cell_formula_units_Z   2
loop_
 _symmetry_equiv_pos_site_id
 _symmetry_equiv_pos_as_xyz
  1  'x, y, z'
loop_
 _atom_site_type_symbol
 _atom_site_label
 _atom_site_symmetry_multiplicity
 _atom_site_fract_x
 _atom_site_fract_y
 _atom_site_fract_z
 _atom_site_occupancy
  Hf  Hf0  1  0.791199  0.000000  0.208802  1
  Hf  Hf1  1  0.208802  0.000000  0.208802  1
  Hf  Hf2  1  0.208802  0.417603  0.208802  1
  Hf  Hf3  1  0.208802  0.000000  0.791199  1
  Hf  Hf4  1  0.791199  0.000000  0.791199  1
  Hf  Hf5  1  0.791199  0.582398  0.791199  1
  Al  Al6  1  0.379102  0.758204  0.137307  1
  Al  Al7  1  0.492914  0.328609  0.164304  1
  Al  Al8  1  0.835695  0.328609  0.164304  1
  Al  Al9  1  0.835695  0.671390  0.164304  1
  Al  Al10  1  0.620897  0.241795  0.379102  1
  Al  Al11  1  0.137307  0.758204  0.379102  1
  Al  Al12  1  0.620897  0.758204  0.379102  1
  Al  Al13  1  0.164304  0.328609  0.492914  1
  Al  Al14  1  0.835695  0.671390  0.507085  1
  Al  Al15  1  0.379102  0.241795  0.620897  1
  Al  Al16  1  0.379102  0.758204  0.620897  1
  Al  Al17  1  0.862693  0.241795  0.620898  1
  Al  Al18  1  0.164304  0.328609  0.835695  1
  Al  Al19  1  0.164304  0.671390  0.835695  1
  Al  Al20  1  0.507085  0.671390  0.835695  1
  Al  Al21  1  0.620898  0.241795  0.862693  1
  Ir  Ir22  1  0.000000  0.000000  0.000000  1
  Ir  Ir23  1  0.499999  0.000000  0.000000  1
  Ir  Ir24  1  0.000000  0.499999  0.000000  1
  Ir  Ir25  1  0.499999  0.499999  0.000000  1
  Ir  Ir26  1  0.000000  0.000000  0.499999  1
  Ir  Ir27  1  0.000000  0.499999  0.499999  1
  Ir  Ir28  1  0.499999  0.499999  0.499999  1
  Ir  Ir29  1  0.500000  0.000000  0.500000  1
