# generated using pymatgen
data_Tb16Tl2In2CuRh3
_symmetry_space_group_name_H-M   'P 1'
_cell_length_a   9.71612744
_cell_length_b   9.72493856
_cell_length_c   9.69174900
_cell_angle_alpha   60.11282805
_cell_angle_beta   60.08296130
_cell_angle_gamma   60.12011610
_symmetry_Int_Tables_number   1
_chemical_formula_structural   Tb16Tl2In2CuRh3
_chemical_formula_sum   'Tb16 Tl2 In2 Cu1 Rh3'
_cell_volume   649.08572968
_cell_formula_units_Z   1
loop_
 _symmetry_equiv_pos_site_id
 _symmetry_equiv_pos_as_xyz
  1  'x, y, z'
loop_
 _atom_site_type_symbol
 _atom_site_label
 _atom_site_symmetry_multiplicity
 _atom_site_fract_x
 _atom_site_fract_y
 _atom_site_fract_z
 _atom_site_occupancy
  Tb  Tb0  1  0.809438  0.811123  0.189719  1
  Tb  Tb1  1  0.810683  0.185296  0.809549  1
  Tb  Tb2  1  0.194231  0.184803  0.810484  1
  Tb  Tb3  1  0.650682  0.046915  0.651201  1
  Tb  Tb4  1  0.062742  0.062977  0.437140  1
  Tb  Tb5  1  0.435710  0.441064  0.061613  1
  Tb  Tb6  1  0.648535  0.654288  0.647946  1
  Tb  Tb7  1  0.810683  0.185296  0.194473  1
  Tb  Tb8  1  0.189529  0.812187  0.809084  1
  Tb  Tb9  1  0.051059  0.653591  0.647675  1
  Tb  Tb10  1  0.437181  0.062308  0.063109  1
  Tb  Tb11  1  0.437181  0.062308  0.437402  1
  Tb  Tb12  1  0.060961  0.440938  0.061981  1
  Tb  Tb13  1  0.648535  0.654288  0.049233  1
  Tb  Tb14  1  0.189529  0.812187  0.189199  1
  Tb  Tb15  1  0.060961  0.440938  0.436119  1
  Tl  Tl16  1  0.416056  0.415096  0.413869  1
  Tl  Tl17  1  0.416056  0.415096  0.754977  1
  In  In18  1  0.418379  0.747591  0.417014  1
  In  In19  1  0.749047  0.417005  0.416973  1
  Cu  Cu20  1  0.858293  0.426928  0.857389  1
  Rh  Rh21  1  0.858551  0.855844  0.858219  1
  Rh  Rh22  1  0.858551  0.855844  0.427387  1
  Rh  Rh23  1  0.427426  0.856090  0.858243  1
