# generated using pymatgen
data_Ba7Ca4Tc4SeN16
_symmetry_space_group_name_H-M   'P 1'
_cell_length_a   10.67138066
_cell_length_b   10.42725582
_cell_length_c   8.35208258
_cell_angle_alpha   72.15605632
_cell_angle_beta   65.15116911
_cell_angle_gamma   46.62129791
_symmetry_Int_Tables_number   1
_chemical_formula_structural   Ba7Ca4Tc4SeN16
_chemical_formula_sum   'Ba7 Ca4 Tc4 Se1 N16'
_cell_volume   612.72854725
_cell_formula_units_Z   1
loop_
 _symmetry_equiv_pos_site_id
 _symmetry_equiv_pos_as_xyz
  1  'x, y, z'
loop_
 _atom_site_type_symbol
 _atom_site_label
 _atom_site_symmetry_multiplicity
 _atom_site_fract_x
 _atom_site_fract_y
 _atom_site_fract_z
 _atom_site_occupancy
  Ba  Ba0  1  0.921571  0.578429  0.578429  1
  Ba  Ba1  1  0.324704  0.675296  0.675296  1
  Ba  Ba2  1  0.144387  0.095815  0.892585  1
  Ba  Ba3  1  0.136530  0.143549  0.379424  1
  Ba  Ba4  1  0.340497  0.379424  0.143549  1
  Ba  Ba5  1  0.688028  0.311972  0.311972  1
  Ba  Ba6  1  0.867212  0.892585  0.095815  1
  Ca  Ca7  1  0.393610  0.247038  0.738108  1
  Ca  Ca8  1  0.874137  0.927914  0.598847  1
  Ca  Ca9  1  0.621244  0.738108  0.247038  1
  Ca  Ca10  1  0.599102  0.598847  0.927914  1
  Tc  Tc11  1  0.489496  0.020949  0.472417  1
  Tc  Tc12  1  0.017137  0.472417  0.020949  1
  Tc  Tc13  1  0.762975  0.243398  0.772931  1
  Tc  Tc14  1  0.220695  0.772931  0.243398  1
  Se  Se15  1  0.618503  0.881497  0.881497  1
  N  N16  1  0.100017  0.566634  0.827444  1
  N  N17  1  0.675330  0.281623  0.010013  1
  N  N18  1  0.666011  0.019301  0.464236  1
  N  N19  1  0.505904  0.827444  0.566634  1
  N  N20  1  0.141596  0.659258  0.388840  1
  N  N21  1  0.810307  0.388840  0.659258  1
  N  N22  1  0.973333  0.012295  0.728547  1
  N  N23  1  0.506775  0.032189  0.244969  1
  N  N24  1  0.419306  0.693953  0.289674  1
  N  N25  1  0.935298  0.577374  0.223482  1
  N  N26  1  0.285826  0.728547  0.012295  1
  N  N27  1  0.850453  0.464236  0.019301  1
  N  N28  1  0.216066  0.244969  0.032189  1
  N  N29  1  0.597068  0.289674  0.693953  1
  N  N30  1  0.263846  0.223482  0.577374  1
  N  N31  1  0.033035  0.010013  0.281623  1
