# generated using pymatgen
data_MgV2F12
_symmetry_space_group_name_H-M   'P 1'
_cell_length_a   5.38702816
_cell_length_b   10.91389218
_cell_length_c   5.41311640
_cell_angle_alpha   58.49513730
_cell_angle_beta   58.17398075
_cell_angle_gamma   58.48405672
_symmetry_Int_Tables_number   1
_chemical_formula_structural   MgV2F12
_chemical_formula_sum   'Mg1 V2 F12'
_cell_volume   216.71367603
_cell_formula_units_Z   1
loop_
 _symmetry_equiv_pos_site_id
 _symmetry_equiv_pos_as_xyz
  1  'x, y, z'
loop_
 _atom_site_type_symbol
 _atom_site_label
 _atom_site_symmetry_multiplicity
 _atom_site_fract_x
 _atom_site_fract_y
 _atom_site_fract_z
 _atom_site_occupancy
  Mg  Mg0  1  0.500000  0.750000  0.500000  1
  V  V1  1  0.004181  0.005822  0.988174  1
  V  V2  1  0.995819  0.494178  0.011826  1
  F  F3  1  0.331869  0.062663  0.775437  1
  F  F4  1  0.308092  0.583324  0.761713  1
  F  F5  1  0.135270  0.391501  0.319239  1
  F  F6  1  0.160917  0.878099  0.316274  1
  F  F7  1  0.227843  0.347553  0.853680  1
  F  F8  1  0.237430  0.837700  0.843983  1
  F  F9  1  0.864730  0.108499  0.680761  1
  F  F10  1  0.839083  0.621901  0.683726  1
  F  F11  1  0.668131  0.437337  0.224563  1
  F  F12  1  0.691908  0.916676  0.238287  1
  F  F13  1  0.772157  0.152447  0.146320  1
  F  F14  1  0.762570  0.662300  0.156017  1
