# generated using pymatgen
data_Hf16TaPt7O4
_symmetry_space_group_name_H-M   'P 1'
_cell_length_a   8.86554069
_cell_length_b   8.80533421
_cell_length_c   8.80533400
_cell_angle_alpha   60.00000079
_cell_angle_beta   60.22439435
_cell_angle_gamma   60.22438428
_symmetry_Int_Tables_number   1
_chemical_formula_structural   Hf16TaPt7O4
_chemical_formula_sum   'Hf16 Ta1 Pt7 O4'
_cell_volume   487.69307205
_cell_formula_units_Z   1
loop_
 _symmetry_equiv_pos_site_id
 _symmetry_equiv_pos_as_xyz
  1  'x, y, z'
loop_
 _atom_site_type_symbol
 _atom_site_label
 _atom_site_symmetry_multiplicity
 _atom_site_fract_x
 _atom_site_fract_y
 _atom_site_fract_z
 _atom_site_occupancy
  Hf  Hf0  1  0.134770  0.621743  0.621743  1
  Hf  Hf1  1  0.629420  0.096299  0.637140  1
  Hf  Hf2  1  0.629420  0.637140  0.096299  1
  Hf  Hf3  1  0.629420  0.637140  0.637140  1
  Hf  Hf4  1  0.810746  0.801837  0.193708  1
  Hf  Hf5  1  0.184346  0.190053  0.812800  1
  Hf  Hf6  1  0.810746  0.193708  0.801837  1
  Hf  Hf7  1  0.184346  0.812800  0.190053  1
  Hf  Hf8  1  0.184346  0.812800  0.812800  1
  Hf  Hf9  1  0.810746  0.193708  0.193708  1
  Hf  Hf10  1  0.431804  0.435534  0.066331  1
  Hf  Hf11  1  0.054761  0.075702  0.434768  1
  Hf  Hf12  1  0.431804  0.066331  0.435534  1
  Hf  Hf13  1  0.054761  0.434768  0.075702  1
  Hf  Hf14  1  0.054761  0.434768  0.434768  1
  Hf  Hf15  1  0.431804  0.066331  0.066331  1
  Ta  Ta16  1  0.744568  0.418477  0.418477  1
  Pt  Pt17  1  0.421734  0.774049  0.402109  1
  Pt  Pt18  1  0.421734  0.402109  0.774049  1
  Pt  Pt19  1  0.421734  0.402109  0.402109  1
  Pt  Pt20  1  0.440939  0.853020  0.853020  1
  Pt  Pt21  1  0.858782  0.458058  0.841580  1
  Pt  Pt22  1  0.858782  0.841580  0.458058  1
  Pt  Pt23  1  0.858782  0.841580  0.841580  1
  O  O24  1  0.619425  0.126858  0.126858  1
  O  O25  1  0.128507  0.625111  0.123191  1
  O  O26  1  0.128507  0.123191  0.625111  1
  O  O27  1  0.128507  0.123191  0.123191  1
