# generated using pymatgen
data_Nd2Si4TcOs
_symmetry_space_group_name_H-M   'P 1'
_cell_length_a   4.56533889
_cell_length_b   4.05245700
_cell_length_c   8.35033509
_cell_angle_alpha   90.00000000
_cell_angle_beta   101.45512940
_cell_angle_gamma   90.00000000
_symmetry_Int_Tables_number   1
_chemical_formula_structural   Nd2Si4TcOs
_chemical_formula_sum   'Nd2 Si4 Tc1 Os1'
_cell_volume   151.41088740
_cell_formula_units_Z   1
loop_
 _symmetry_equiv_pos_site_id
 _symmetry_equiv_pos_as_xyz
  1  'x, y, z'
loop_
 _atom_site_type_symbol
 _atom_site_label
 _atom_site_symmetry_multiplicity
 _atom_site_fract_x
 _atom_site_fract_y
 _atom_site_fract_z
 _atom_site_occupancy
  Nd  Nd0  1  0.919394  0.749999  0.300220  1
  Nd  Nd1  1  0.079352  0.249999  0.699940  1
  Si  Si2  1  0.839391  0.249999  0.009818  1
  Si  Si3  1  0.463851  0.249999  0.410400  1
  Si  Si4  1  0.534080  0.749999  0.593883  1
  Si  Si5  1  0.161192  0.749999  0.986763  1
  Tc  Tc6  1  0.385043  0.249999  0.112482  1
  Os  Os7  1  0.617699  0.749999  0.886493  1
