# generated using pymatgen
data_Lu8ZnInRh2
_symmetry_space_group_name_H-M   'P 1'
_cell_length_a   9.37195959
_cell_length_b   9.37195908
_cell_length_c   9.38078300
_cell_angle_alpha   59.96884623
_cell_angle_beta   59.96884804
_cell_angle_gamma   60.02800328
_symmetry_Int_Tables_number   1
_chemical_formula_structural   Lu8ZnInRh2
_chemical_formula_sum   'Lu16 Zn2 In2 Rh4'
_cell_volume   582.46785773
_cell_formula_units_Z   2
loop_
 _symmetry_equiv_pos_site_id
 _symmetry_equiv_pos_as_xyz
  1  'x, y, z'
loop_
 _atom_site_type_symbol
 _atom_site_label
 _atom_site_symmetry_multiplicity
 _atom_site_fract_x
 _atom_site_fract_y
 _atom_site_fract_z
 _atom_site_occupancy
  Lu  Lu0  1  0.601791  0.601791  0.600494  1
  Lu  Lu1  1  0.601791  0.601791  0.195926  1
  Lu  Lu2  1  0.604422  0.192011  0.601784  1
  Lu  Lu3  1  0.192011  0.604422  0.601784  1
  Lu  Lu4  1  0.058565  0.442227  0.441377  1
  Lu  Lu5  1  0.442227  0.058565  0.057832  1
  Lu  Lu6  1  0.442227  0.058565  0.441377  1
  Lu  Lu7  1  0.058565  0.442227  0.057832  1
  Lu  Lu8  1  0.442433  0.442433  0.057567  1
  Lu  Lu9  1  0.058401  0.058401  0.441599  1
  Lu  Lu10  1  0.180703  0.812680  0.814546  1
  Lu  Lu11  1  0.812680  0.180703  0.192071  1
  Lu  Lu12  1  0.812680  0.180703  0.814546  1
  Lu  Lu13  1  0.180703  0.812680  0.192071  1
  Lu  Lu14  1  0.812867  0.812867  0.187133  1
  Lu  Lu15  1  0.186528  0.186528  0.813472  1
  Zn  Zn16  1  0.834460  0.834460  0.831492  1
  Zn  Zn17  1  0.834460  0.834460  0.499588  1
  In  In18  1  0.833490  0.507343  0.829583  1
  In  In19  1  0.507343  0.833490  0.829583  1
  Rh  Rh20  1  0.392861  0.392861  0.393582  1
  Rh  Rh21  1  0.392861  0.392861  0.820695  1
  Rh  Rh22  1  0.392582  0.823350  0.392033  1
  Rh  Rh23  1  0.823350  0.392582  0.392033  1
