# generated using pymatgen
data_Er4Ga4IrRuPt2
_symmetry_space_group_name_H-M   'P 1'
_cell_length_a   4.37046000
_cell_length_b   6.80025546
_cell_length_c   7.72810121
_cell_angle_alpha   89.81075107
_cell_angle_beta   90.00000000
_cell_angle_gamma   90.00000000
_symmetry_Int_Tables_number   1
_chemical_formula_structural   Er4Ga4IrRuPt2
_chemical_formula_sum   'Er4 Ga4 Ir1 Ru1 Pt2'
_cell_volume   229.67980445
_cell_formula_units_Z   1
loop_
 _symmetry_equiv_pos_site_id
 _symmetry_equiv_pos_as_xyz
  1  'x, y, z'
loop_
 _atom_site_type_symbol
 _atom_site_label
 _atom_site_symmetry_multiplicity
 _atom_site_fract_x
 _atom_site_fract_y
 _atom_site_fract_z
 _atom_site_occupancy
  Er  Er0  1  0.250000  0.976945  0.311341  1
  Er  Er1  1  0.250000  0.477781  0.187810  1
  Er  Er2  1  0.750000  0.015429  0.695818  1
  Er  Er3  1  0.750000  0.516459  0.805133  1
  Ga  Ga4  1  0.250000  0.339362  0.575555  1
  Ga  Ga5  1  0.250000  0.840453  0.924850  1
  Ga  Ga6  1  0.750000  0.663410  0.430735  1
  Ga  Ga7  1  0.750000  0.167360  0.067602  1
  Ir  Ir8  1  0.250000  0.729179  0.605258  1
  Ru  Ru9  1  0.250000  0.230967  0.895910  1
  Pt  Pt10  1  0.750000  0.772063  0.105465  1
  Pt  Pt11  1  0.750000  0.270592  0.394520  1
