# generated using pymatgen
data_La9Tb3(OsPd)2
_symmetry_space_group_name_H-M   'P 1'
_cell_length_a   6.62130777
_cell_length_b   7.49707329
_cell_length_c   9.96305600
_cell_angle_alpha   90.38581518
_cell_angle_beta   91.36602638
_cell_angle_gamma   90.41677287
_symmetry_Int_Tables_number   1
_chemical_formula_structural   La9Tb3(OsPd)2
_chemical_formula_sum   'La9 Tb3 Os2 Pd2'
_cell_volume   494.40494160
_cell_formula_units_Z   1
loop_
 _symmetry_equiv_pos_site_id
 _symmetry_equiv_pos_as_xyz
  1  'x, y, z'
loop_
 _atom_site_type_symbol
 _atom_site_label
 _atom_site_symmetry_multiplicity
 _atom_site_fract_x
 _atom_site_fract_y
 _atom_site_fract_z
 _atom_site_occupancy
  La  La0  1  0.628224  0.047238  0.254870  1
  La  La1  1  0.366553  0.954187  0.747989  1
  La  La2  1  0.152097  0.468839  0.749005  1
  La  La3  1  0.852986  0.528425  0.250252  1
  La  La4  1  0.170815  0.187538  0.073495  1
  La  La5  1  0.830072  0.815103  0.928682  1
  La  La6  1  0.657313  0.333594  0.924888  1
  La  La7  1  0.828526  0.816288  0.558534  1
  La  La8  1  0.344634  0.666396  0.075373  1
  Tb  Tb9  1  0.168906  0.183912  0.438686  1
  Tb  Tb10  1  0.338752  0.669987  0.442702  1
  Tb  Tb11  1  0.656851  0.326116  0.555717  1
  Os  Os12  1  0.439462  0.377372  0.272595  1
  Os  Os13  1  0.560409  0.620885  0.727525  1
  Pd  Pd14  1  0.933197  0.120030  0.741544  1
  Pd  Pd15  1  0.071202  0.884091  0.258141  1
