# generated using pymatgen
data_Hf16CrNi4Pt3
_symmetry_space_group_name_H-M   'P 1'
_cell_length_a   8.63341910
_cell_length_b   8.57946396
_cell_length_c   8.57946300
_cell_angle_alpha   59.99999985
_cell_angle_beta   60.20651946
_cell_angle_gamma   60.20652274
_symmetry_Int_Tables_number   1
_chemical_formula_structural   Hf16CrNi4Pt3
_chemical_formula_sum   'Hf16 Cr1 Ni4 Pt3'
_cell_volume   450.75103668
_cell_formula_units_Z   1
loop_
 _symmetry_equiv_pos_site_id
 _symmetry_equiv_pos_as_xyz
  1  'x, y, z'
loop_
 _atom_site_type_symbol
 _atom_site_label
 _atom_site_symmetry_multiplicity
 _atom_site_fract_x
 _atom_site_fract_y
 _atom_site_fract_z
 _atom_site_occupancy
  Hf  Hf0  1  0.087148  0.637617  0.637617  1
  Hf  Hf1  1  0.645935  0.065812  0.644127  1
  Hf  Hf2  1  0.645935  0.644127  0.065812  1
  Hf  Hf3  1  0.645935  0.644127  0.644127  1
  Hf  Hf4  1  0.804817  0.799806  0.197688  1
  Hf  Hf5  1  0.193226  0.193586  0.806594  1
  Hf  Hf6  1  0.804817  0.197688  0.799806  1
  Hf  Hf7  1  0.193226  0.806594  0.193586  1
  Hf  Hf8  1  0.193226  0.806594  0.806594  1
  Hf  Hf9  1  0.804817  0.197688  0.197688  1
  Hf  Hf10  1  0.432101  0.436100  0.065899  1
  Hf  Hf11  1  0.049611  0.076991  0.436699  1
  Hf  Hf12  1  0.432101  0.065899  0.436100  1
  Hf  Hf13  1  0.049611  0.436699  0.076991  1
  Hf  Hf14  1  0.049611  0.436699  0.436699  1
  Hf  Hf15  1  0.432101  0.065899  0.065899  1
  Cr  Cr16  1  0.748456  0.417181  0.417181  1
  Ni  Ni17  1  0.428727  0.857092  0.857092  1
  Ni  Ni18  1  0.863631  0.434097  0.851137  1
  Ni  Ni19  1  0.863631  0.851137  0.434097  1
  Ni  Ni20  1  0.863631  0.851137  0.851137  1
  Pt  Pt21  1  0.422569  0.757866  0.409782  1
  Pt  Pt22  1  0.422569  0.409782  0.757866  1
  Pt  Pt23  1  0.422569  0.409782  0.409782  1
