# generated using pymatgen
data_Gd3Dy(WN2)4
_symmetry_space_group_name_H-M   'P 1'
_cell_length_a   3.21982400
_cell_length_b   5.73959182
_cell_length_c   10.58552000
_cell_angle_alpha   90.23873345
_cell_angle_beta   90.00000000
_cell_angle_gamma   90.00000000
_symmetry_Int_Tables_number   1
_chemical_formula_structural   Gd3Dy(WN2)4
_chemical_formula_sum   'Gd3 Dy1 W4 N8'
_cell_volume   195.62374489
_cell_formula_units_Z   1
loop_
 _symmetry_equiv_pos_site_id
 _symmetry_equiv_pos_as_xyz
  1  'x, y, z'
loop_
 _atom_site_type_symbol
 _atom_site_label
 _atom_site_symmetry_multiplicity
 _atom_site_fract_x
 _atom_site_fract_y
 _atom_site_fract_z
 _atom_site_occupancy
  Gd  Gd0  1  0.750000  0.421576  0.143983  1
  Gd  Gd1  1  0.750000  0.921203  0.355451  1
  Gd  Gd2  1  0.250000  0.079422  0.644983  1
  Dy  Dy3  1  0.250000  0.578271  0.855219  1
  W  W4  1  0.250000  0.933734  0.095182  1
  W  W5  1  0.750000  0.065004  0.904517  1
  W  W6  1  0.750000  0.567411  0.596529  1
  W  W7  1  0.250000  0.433377  0.404237  1
  N  N8  1  0.250000  0.666290  0.249510  1
  N  N9  1  0.750000  0.336127  0.751753  1
  N  N10  1  0.750000  0.832107  0.750417  1
  N  N11  1  0.250000  0.166019  0.250097  1
  N  N12  1  0.250000  0.756246  0.508840  1
  N  N13  1  0.750000  0.244321  0.491911  1
  N  N14  1  0.750000  0.741513  0.006724  1
  N  N15  1  0.250000  0.257379  0.990648  1
