# generated using pymatgen
data_HoHf(NbS2)8
_symmetry_space_group_name_H-M   'P 1'
_cell_length_a   6.71510900
_cell_length_b   6.71510876
_cell_length_c   13.30829700
_cell_angle_alpha   90.00000000
_cell_angle_beta   90.00000000
_cell_angle_gamma   119.99999623
_symmetry_Int_Tables_number   1
_chemical_formula_structural   HoHf(NbS2)8
_chemical_formula_sum   'Ho1 Hf1 Nb8 S16'
_cell_volume   519.70781857
_cell_formula_units_Z   1
loop_
 _symmetry_equiv_pos_site_id
 _symmetry_equiv_pos_as_xyz
  1  'x, y, z'
loop_
 _atom_site_type_symbol
 _atom_site_label
 _atom_site_symmetry_multiplicity
 _atom_site_fract_x
 _atom_site_fract_y
 _atom_site_fract_z
 _atom_site_occupancy
  Ho  Ho0  1  0.000000  0.000000  0.000000  1
  Hf  Hf1  1  0.000000  0.000000  0.500000  1
  Nb  Nb2  1  0.989888  0.494944  0.257805  1
  Nb  Nb3  1  0.010112  0.505056  0.742195  1
  Nb  Nb4  1  0.494944  0.505056  0.742195  1
  Nb  Nb5  1  0.505056  0.010112  0.257805  1
  Nb  Nb6  1  0.000000  0.000000  0.742769  1
  Nb  Nb7  1  0.000000  0.000000  0.257231  1
  Nb  Nb8  1  0.505056  0.494944  0.257805  1
  Nb  Nb9  1  0.494944  0.989888  0.742195  1
  S  S10  1  0.333333  0.666667  0.622363  1
  S  S11  1  0.666667  0.333333  0.136738  1
  S  S12  1  0.666667  0.333333  0.377637  1
  S  S13  1  0.333333  0.666667  0.863262  1
  S  S14  1  0.167637  0.335273  0.377084  1
  S  S15  1  0.831072  0.168928  0.860693  1
  S  S16  1  0.337855  0.168928  0.860693  1
  S  S17  1  0.664727  0.832363  0.377084  1
  S  S18  1  0.167637  0.832363  0.377084  1
  S  S19  1  0.831072  0.662145  0.860693  1
  S  S20  1  0.168928  0.337855  0.139307  1
  S  S21  1  0.832363  0.167637  0.622916  1
  S  S22  1  0.335273  0.167637  0.622916  1
  S  S23  1  0.662145  0.831072  0.139307  1
  S  S24  1  0.168928  0.831072  0.139307  1
  S  S25  1  0.832363  0.664727  0.622916  1
