# generated using pymatgen
data_Ho12TlFe4Cu
_symmetry_space_group_name_H-M   'P 1'
_cell_length_a   8.31003224
_cell_length_b   8.30936231
_cell_length_c   8.31003200
_cell_angle_alpha   110.66979189
_cell_angle_beta   110.93544267
_cell_angle_gamma   106.84323937
_symmetry_Int_Tables_number   1
_chemical_formula_structural   Ho12TlFe4Cu
_chemical_formula_sum   'Ho12 Tl1 Fe4 Cu1'
_cell_volume   441.01114278
_cell_formula_units_Z   1
loop_
 _symmetry_equiv_pos_site_id
 _symmetry_equiv_pos_as_xyz
  1  'x, y, z'
loop_
 _atom_site_type_symbol
 _atom_site_label
 _atom_site_symmetry_multiplicity
 _atom_site_fract_x
 _atom_site_fract_y
 _atom_site_fract_z
 _atom_site_occupancy
  Ho  Ho0  1  0.312813  0.613419  0.300605  1
  Ho  Ho1  1  0.687187  0.386581  0.699395  1
  Ho  Ho2  1  0.312830  0.012188  0.699360  1
  Ho  Ho3  1  0.687170  0.987812  0.300640  1
  Ho  Ho4  1  0.187056  0.290048  0.477108  1
  Ho  Ho5  1  0.812944  0.709952  0.522892  1
  Ho  Ho6  1  0.187059  0.709952  0.897006  1
  Ho  Ho7  1  0.812941  0.290048  0.102994  1
  Ho  Ho8  1  0.418262  0.217290  0.201007  1
  Ho  Ho9  1  0.581738  0.782710  0.798993  1
  Ho  Ho10  1  0.016282  0.217290  0.799027  1
  Ho  Ho11  1  0.983718  0.782710  0.200973  1
  Tl  Tl12  1  0.500000  0.500000  0.000000  1
  Fe  Fe13  1  0.108337  0.608316  0.499978  1
  Fe  Fe14  1  0.891663  0.391684  0.500022  1
  Fe  Fe15  1  0.384491  0.000000  0.384491  1
  Fe  Fe16  1  0.615509  0.000000  0.615509  1
  Cu  Cu17  1  0.000000  0.000000  0.000000  1
