# generated using pymatgen
data_Tm8Nb11Si16Pt
_symmetry_space_group_name_H-M   'P 1'
_cell_length_a   7.01963067
_cell_length_b   7.01963110
_cell_length_c   12.91788942
_cell_angle_alpha   89.73992006
_cell_angle_beta   90.26007916
_cell_angle_gamma   89.82186651
_symmetry_Int_Tables_number   1
_chemical_formula_structural   Tm8Nb11Si16Pt
_chemical_formula_sum   'Tm8 Nb11 Si16 Pt1'
_cell_volume   636.51558107
_cell_formula_units_Z   1
loop_
 _symmetry_equiv_pos_site_id
 _symmetry_equiv_pos_as_xyz
  1  'x, y, z'
loop_
 _atom_site_type_symbol
 _atom_site_label
 _atom_site_symmetry_multiplicity
 _atom_site_fract_x
 _atom_site_fract_y
 _atom_site_fract_z
 _atom_site_occupancy
  Tm  Tm0  1  0.998828  0.341119  0.216299  1
  Tm  Tm1  1  0.003561  0.658808  0.718526  1
  Tm  Tm2  1  0.159563  0.498953  0.467549  1
  Tm  Tm3  1  0.498425  0.841893  0.031917  1
  Tm  Tm4  1  0.841893  0.498425  0.968083  1
  Tm  Tm5  1  0.498953  0.159563  0.532451  1
  Tm  Tm6  1  0.341119  0.998828  0.783701  1
  Tm  Tm7  1  0.658808  0.003561  0.281474  1
  Nb  Nb8  1  0.830091  0.830091  0.500000  1
  Nb  Nb9  1  0.326341  0.672399  0.247581  1
  Nb  Nb10  1  0.672399  0.326341  0.752419  1
  Nb  Nb11  1  0.151313  0.996439  0.375444  1
  Nb  Nb12  1  0.843543  0.003700  0.877720  1
  Nb  Nb13  1  0.507356  0.651507  0.626253  1
  Nb  Nb14  1  0.349753  0.495976  0.875132  1
  Nb  Nb15  1  0.495976  0.349753  0.124868  1
  Nb  Nb16  1  0.651507  0.507356  0.373747  1
  Nb  Nb17  1  0.996439  0.151313  0.624556  1
  Nb  Nb18  1  0.003700  0.843543  0.122280  1
  Si  Si19  1  0.293109  0.048378  0.185618  1
  Si  Si20  1  0.704725  0.955772  0.687260  1
  Si  Si21  1  0.454940  0.796842  0.436127  1
  Si  Si22  1  0.208292  0.548336  0.061583  1
  Si  Si23  1  0.548336  0.208292  0.938417  1
  Si  Si24  1  0.796842  0.454940  0.563873  1
  Si  Si25  1  0.048378  0.293109  0.814382  1
  Si  Si26  1  0.955772  0.704725  0.312740  1
  Si  Si27  1  0.363909  0.296867  0.317271  1
  Si  Si28  1  0.635067  0.704493  0.818181  1
  Si  Si29  1  0.206887  0.864620  0.568812  1
  Si  Si30  1  0.129492  0.788210  0.930167  1
  Si  Si31  1  0.788210  0.129492  0.069833  1
  Si  Si32  1  0.864620  0.206887  0.431188  1
  Si  Si33  1  0.296867  0.363909  0.682729  1
  Si  Si34  1  0.704493  0.635067  0.181819  1
  Pt  Pt35  1  0.170489  0.170489  0.000000  1
