# generated using pymatgen
data_Sc24MnTc7
_symmetry_space_group_name_H-M   'P 1'
_cell_length_a   5.76956742
_cell_length_b   8.55533800
_cell_length_c   13.83567086
_cell_angle_alpha   90.00000000
_cell_angle_beta   90.15833855
_cell_angle_gamma   90.00000000
_symmetry_Int_Tables_number   1
_chemical_formula_structural   Sc24MnTc7
_chemical_formula_sum   'Sc24 Mn1 Tc7'
_cell_volume   682.93439893
_cell_formula_units_Z   1
loop_
 _symmetry_equiv_pos_site_id
 _symmetry_equiv_pos_as_xyz
  1  'x, y, z'
loop_
 _atom_site_type_symbol
 _atom_site_label
 _atom_site_symmetry_multiplicity
 _atom_site_fract_x
 _atom_site_fract_y
 _atom_site_fract_z
 _atom_site_occupancy
  Sc  Sc0  1  0.526477  0.750000  0.354799  1
  Sc  Sc1  1  0.026818  0.250000  0.145621  1
  Sc  Sc2  1  0.472298  0.250000  0.646163  1
  Sc  Sc3  1  0.974806  0.750000  0.849706  1
  Sc  Sc4  1  0.787272  0.750000  0.110886  1
  Sc  Sc5  1  0.288330  0.250000  0.390236  1
  Sc  Sc6  1  0.211255  0.250000  0.887989  1
  Sc  Sc7  1  0.718462  0.750000  0.612833  1
  Sc  Sc8  1  0.437067  0.935284  0.786895  1
  Sc  Sc9  1  0.940318  0.061986  0.711020  1
  Sc  Sc10  1  0.558597  0.436418  0.210171  1
  Sc  Sc11  1  0.059365  0.562883  0.290057  1
  Sc  Sc12  1  0.558597  0.063582  0.210171  1
  Sc  Sc13  1  0.059365  0.937117  0.290057  1
  Sc  Sc14  1  0.437067  0.564716  0.786895  1
  Sc  Sc15  1  0.940318  0.438014  0.711020  1
  Sc  Sc16  1  0.247657  0.937119  0.538573  1
  Sc  Sc17  1  0.746420  0.059606  0.964432  1
  Sc  Sc18  1  0.754841  0.440841  0.466618  1
  Sc  Sc19  1  0.254016  0.560359  0.032819  1
  Sc  Sc20  1  0.754841  0.059159  0.466618  1
  Sc  Sc21  1  0.254016  0.939641  0.032819  1
  Sc  Sc22  1  0.247657  0.562881  0.538573  1
  Sc  Sc23  1  0.746420  0.440394  0.964432  1
  Mn  Mn24  1  0.150027  0.750000  0.681821  1
  Tc  Tc25  1  0.929737  0.750000  0.443690  1
  Tc  Tc26  1  0.427681  0.250000  0.057159  1
  Tc  Tc27  1  0.071732  0.250000  0.558603  1
  Tc  Tc28  1  0.573056  0.750000  0.940219  1
  Tc  Tc29  1  0.346344  0.750000  0.181258  1
  Tc  Tc30  1  0.848352  0.250000  0.319407  1
  Tc  Tc31  1  0.650792  0.250000  0.818437  1
