# generated using pymatgen
data_Tb3HoGa4(IrPt)2
_symmetry_space_group_name_H-M   'P 1'
_cell_length_a   4.42650200
_cell_length_b   6.86244343
_cell_length_c   7.72741848
_cell_angle_alpha   89.95965230
_cell_angle_beta   90.00000000
_cell_angle_gamma   90.00000000
_symmetry_Int_Tables_number   1
_chemical_formula_structural   Tb3HoGa4(IrPt)2
_chemical_formula_sum   'Tb3 Ho1 Ga4 Ir2 Pt2'
_cell_volume   234.73279302
_cell_formula_units_Z   1
loop_
 _symmetry_equiv_pos_site_id
 _symmetry_equiv_pos_as_xyz
  1  'x, y, z'
loop_
 _atom_site_type_symbol
 _atom_site_label
 _atom_site_symmetry_multiplicity
 _atom_site_fract_x
 _atom_site_fract_y
 _atom_site_fract_z
 _atom_site_occupancy
  Tb  Tb0  1  0.250000  0.978722  0.308761  1
  Tb  Tb1  1  0.250000  0.478913  0.190910  1
  Tb  Tb2  1  0.750000  0.013628  0.698718  1
  Ho  Ho3  1  0.750000  0.513863  0.801306  1
  Ga  Ga4  1  0.750000  0.670379  0.428821  1
  Ga  Ga5  1  0.250000  0.335777  0.576858  1
  Ga  Ga6  1  0.750000  0.170757  0.071273  1
  Ga  Ga7  1  0.250000  0.835085  0.923474  1
  Ir  Ir8  1  0.250000  0.725664  0.601535  1
  Ir  Ir9  1  0.250000  0.226775  0.898799  1
  Pt  Pt10  1  0.750000  0.774942  0.100502  1
  Pt  Pt11  1  0.750000  0.275495  0.399043  1
