# generated using pymatgen
data_Tb4Mn4Al3NiO20
_symmetry_space_group_name_H-M   'P 1'
_cell_length_a   5.68628800
_cell_length_b   7.29573908
_cell_length_c   8.47268365
_cell_angle_alpha   89.74593386
_cell_angle_beta   90.00000000
_cell_angle_gamma   90.00000000
_symmetry_Int_Tables_number   1
_chemical_formula_structural   Tb4Mn4Al3NiO20
_chemical_formula_sum   'Tb4 Mn4 Al3 Ni1 O20'
_cell_volume   351.49153270
_cell_formula_units_Z   1
loop_
 _symmetry_equiv_pos_site_id
 _symmetry_equiv_pos_as_xyz
  1  'x, y, z'
loop_
 _atom_site_type_symbol
 _atom_site_label
 _atom_site_symmetry_multiplicity
 _atom_site_fract_x
 _atom_site_fract_y
 _atom_site_fract_z
 _atom_site_occupancy
  Tb  Tb0  1  0.000000  0.371014  0.670138  1
  Tb  Tb1  1  0.000000  0.633078  0.329469  1
  Tb  Tb2  1  0.000000  0.863393  0.830790  1
  Tb  Tb3  1  0.000000  0.139062  0.169325  1
  Mn  Mn4  1  0.256040  0.500132  0.000157  1
  Mn  Mn5  1  0.746250  0.999728  0.499067  1
  Mn  Mn6  1  0.743960  0.500132  0.000157  1
  Mn  Mn7  1  0.253750  0.999728  0.499067  1
  Al  Al8  1  0.500000  0.892139  0.143648  1
  Al  Al9  1  0.500000  0.606878  0.641803  1
  Al  Al10  1  0.500000  0.393266  0.358760  1
  Ni  Ni11  1  0.500000  0.086819  0.851952  1
  O  O12  1  0.251545  0.896271  0.289136  1
  O  O13  1  0.242078  0.104967  0.707352  1
  O  O14  1  0.748582  0.396560  0.211711  1
  O  O15  1  0.748155  0.606041  0.789089  1
  O  O16  1  0.757922  0.104967  0.707352  1
  O  O17  1  0.748455  0.896271  0.289136  1
  O  O18  1  0.251845  0.606041  0.789089  1
  O  O19  1  0.251418  0.396560  0.211711  1
  O  O20  1  0.500000  0.345045  0.932780  1
  O  O21  1  0.500000  0.659445  0.070824  1
  O  O22  1  0.500000  0.843268  0.572332  1
  O  O23  1  0.500000  0.158113  0.429616  1
  O  O24  1  0.278702  0.998847  0.003105  1
  O  O25  1  0.718794  0.500489  0.500143  1
  O  O26  1  0.721298  0.998847  0.003105  1
  O  O27  1  0.281206  0.500489  0.500143  1
  O  O28  1  0.000000  0.162745  0.443870  1
  O  O29  1  0.000000  0.836711  0.554644  1
  O  O30  1  0.000000  0.664299  0.056066  1
  O  O31  1  0.000000  0.338655  0.944461  1
