# generated using pymatgen
data_Te14H
_symmetry_space_group_name_H-M   'P 1'
_cell_length_a   4.56900838
_cell_length_b   4.56900867
_cell_length_c   27.34826421
_cell_angle_alpha   86.32462402
_cell_angle_beta   86.32463663
_cell_angle_gamma   56.62546767
_symmetry_Int_Tables_number   1
_chemical_formula_structural   Te14H
_chemical_formula_sum   'Te14 H1'
_cell_volume   475.50372250
_cell_formula_units_Z   1
loop_
 _symmetry_equiv_pos_site_id
 _symmetry_equiv_pos_as_xyz
  1  'x, y, z'
loop_
 _atom_site_type_symbol
 _atom_site_label
 _atom_site_symmetry_multiplicity
 _atom_site_fract_x
 _atom_site_fract_y
 _atom_site_fract_z
 _atom_site_occupancy
  Te  Te0  1  0.704118  0.704118  0.058600  1
  Te  Te1  1  0.667581  0.667581  0.266386  1
  Te  Te2  1  0.658395  0.658395  0.472466  1
  Te  Te3  1  0.631919  0.631919  0.685341  1
  Te  Te4  1  0.787959  0.787959  0.842799  1
  Te  Te5  1  0.341605  0.341605  0.127534  1
  Te  Te6  1  0.332419  0.332419  0.333614  1
  Te  Te7  1  0.295882  0.295882  0.541400  1
  Te  Te8  1  0.212041  0.212041  0.757201  1
  Te  Te9  1  0.368081  0.368081  0.914659  1
  Te  Te10  1  0.995094  0.995094  0.986634  1
  Te  Te11  1  0.986825  0.986825  0.196649  1
  Te  Te12  1  0.013175  0.013175  0.403351  1
  Te  Te13  1  0.004906  0.004906  0.613366  1
  H  H14  1  0.000000  0.000000  0.800000  1
