# generated using pymatgen
data_Ti12AlSi7(PtC)4
_symmetry_space_group_name_H-M   'P 1'
_cell_length_a   8.10680915
_cell_length_b   8.10410185
_cell_length_c   8.10680900
_cell_angle_alpha   59.98895328
_cell_angle_beta   60.00000469
_cell_angle_gamma   59.98894700
_symmetry_Int_Tables_number   1
_chemical_formula_structural   Ti12AlSi7(PtC)4
_chemical_formula_sum   'Ti12 Al1 Si7 Pt4 C4'
_cell_volume   376.54530986
_cell_formula_units_Z   1
loop_
 _symmetry_equiv_pos_site_id
 _symmetry_equiv_pos_as_xyz
  1  'x, y, z'
loop_
 _atom_site_type_symbol
 _atom_site_label
 _atom_site_symmetry_multiplicity
 _atom_site_fract_x
 _atom_site_fract_y
 _atom_site_fract_z
 _atom_site_occupancy
  Ti  Ti0  1  0.934420  0.934406  0.565587  1
  Ti  Ti1  1  0.685035  0.315415  0.314514  1
  Ti  Ti2  1  0.314988  0.680815  0.689209  1
  Ti  Ti3  1  0.689209  0.680815  0.314988  1
  Ti  Ti4  1  0.685035  0.315415  0.685035  1
  Ti  Ti5  1  0.314988  0.680815  0.314988  1
  Ti  Ti6  1  0.565587  0.934406  0.565587  1
  Ti  Ti7  1  0.565587  0.934406  0.934420  1
  Ti  Ti8  1  0.934545  0.565715  0.565195  1
  Ti  Ti9  1  0.934545  0.565715  0.934545  1
  Ti  Ti10  1  0.314514  0.315415  0.685035  1
  Ti  Ti11  1  0.565195  0.565715  0.934545  1
  Al  Al12  1  0.335376  0.993871  0.335376  1
  Si  Si13  1  0.909225  0.272325  0.909225  1
  Si  Si14  1  0.339854  0.334949  0.985342  1
  Si  Si15  1  0.985342  0.334949  0.339854  1
  Si  Si16  1  0.339854  0.334949  0.339854  1
  Si  Si17  1  0.268334  0.910849  0.910409  1
  Si  Si18  1  0.910409  0.910849  0.910409  1
  Si  Si19  1  0.910409  0.910849  0.268334  1
  Pt  Pt20  1  0.124699  0.625902  0.124699  1
  Pt  Pt21  1  0.121571  0.126412  0.630445  1
  Pt  Pt22  1  0.630445  0.126412  0.121571  1
  Pt  Pt23  1  0.121571  0.126412  0.121571  1
  C  C24  1  0.624868  0.125396  0.624868  1
  C  C25  1  0.624705  0.625607  0.124983  1
  C  C26  1  0.124983  0.625607  0.624705  1
  C  C27  1  0.624705  0.625607  0.624705  1
