# generated using pymatgen
data_Ti8MnVBi4
_symmetry_space_group_name_H-M   'P 1'
_cell_length_a   7.89081074
_cell_length_b   7.89099642
_cell_length_c   7.89081139
_cell_angle_alpha   95.98368262
_cell_angle_beta   95.91079307
_cell_angle_gamma   142.44360099
_symmetry_Int_Tables_number   1
_chemical_formula_structural   Ti8MnVBi4
_chemical_formula_sum   'Ti8 Mn1 V1 Bi4'
_cell_volume   283.54967448
_cell_formula_units_Z   1
loop_
 _symmetry_equiv_pos_site_id
 _symmetry_equiv_pos_as_xyz
  1  'x, y, z'
loop_
 _atom_site_type_symbol
 _atom_site_label
 _atom_site_symmetry_multiplicity
 _atom_site_fract_x
 _atom_site_fract_y
 _atom_site_fract_z
 _atom_site_occupancy
  Ti  Ti0  1  0.695683  0.582527  0.274246  1
  Ti  Ti1  1  0.308308  0.421464  0.725882  1
  Ti  Ti2  1  0.582352  0.308225  0.886635  1
  Ti  Ti3  1  0.078410  0.191775  0.274128  1
  Ti  Ti4  1  0.804418  0.078536  0.886844  1
  Ti  Ti5  1  0.421561  0.695632  0.113282  1
  Ti  Ti6  1  0.917651  0.804368  0.725930  1
  Ti  Ti7  1  0.191719  0.917473  0.113157  1
  Mn  Mn8  1  0.749841  0.750000  0.999841  1
  V  V9  1  0.249808  0.250000  0.999808  1
  Bi  Bi10  1  0.139138  0.639104  0.778244  1
  Bi  Bi11  1  0.360994  0.139230  0.500208  1
  Bi  Bi12  1  0.860978  0.360770  0.221763  1
  Bi  Bi13  1  0.639139  0.860896  0.500034  1
