# generated using pymatgen
data_Tm2Mn3P7(Ir2Rh)3
_symmetry_space_group_name_H-M   'P 1'
_cell_length_a   9.41951000
_cell_length_b   9.41951004
_cell_length_c   3.84798700
_cell_angle_alpha   90.00000000
_cell_angle_beta   90.00000000
_cell_angle_gamma   119.99999985
_symmetry_Int_Tables_number   1
_chemical_formula_structural   Tm2Mn3P7(Ir2Rh)3
_chemical_formula_sum   'Tm2 Mn3 P7 Ir6 Rh3'
_cell_volume   295.67925377
_cell_formula_units_Z   1
loop_
 _symmetry_equiv_pos_site_id
 _symmetry_equiv_pos_as_xyz
  1  'x, y, z'
loop_
 _atom_site_type_symbol
 _atom_site_label
 _atom_site_symmetry_multiplicity
 _atom_site_fract_x
 _atom_site_fract_y
 _atom_site_fract_z
 _atom_site_occupancy
  Tm  Tm0  1  0.000000  0.000000  0.000000  1
  Tm  Tm1  1  0.666667  0.333333  0.500000  1
  Mn  Mn2  1  0.220134  0.396588  0.000000  1
  Mn  Mn3  1  0.603412  0.823546  0.000000  1
  Mn  Mn4  1  0.176454  0.779866  0.000000  1
  P  P5  1  0.443627  0.370876  0.000000  1
  P  P6  1  0.629124  0.072750  0.000000  1
  P  P7  1  0.927250  0.556373  0.000000  1
  P  P8  1  0.058010  0.268876  0.500000  1
  P  P9  1  0.731124  0.789135  0.500000  1
  P  P10  1  0.210865  0.941990  0.500000  1
  P  P11  1  0.333333  0.666667  0.000000  1
  Ir  Ir12  1  0.702122  0.599361  0.000000  1
  Ir  Ir13  1  0.400639  0.102762  0.000000  1
  Ir  Ir14  1  0.897238  0.297878  0.000000  1
  Ir  Ir15  1  0.272249  0.217110  0.500000  1
  Ir  Ir16  1  0.782890  0.055138  0.500000  1
  Ir  Ir17  1  0.944862  0.727751  0.500000  1
  Rh  Rh18  1  0.468679  0.564134  0.500000  1
  Rh  Rh19  1  0.435866  0.904545  0.500000  1
  Rh  Rh20  1  0.095455  0.531321  0.500000  1
