# generated using pymatgen
data_CeZnCu3Au
_symmetry_space_group_name_H-M   'P 1'
_cell_length_a   5.13033388
_cell_length_b   5.13033423
_cell_length_c   5.11733729
_cell_angle_alpha   59.91593733
_cell_angle_beta   59.91593708
_cell_angle_gamma   59.99999721
_symmetry_Int_Tables_number   1
_chemical_formula_structural   CeZnCu3Au
_chemical_formula_sum   'Ce1 Zn1 Cu3 Au1'
_cell_volume   95.11901323
_cell_formula_units_Z   1
loop_
 _symmetry_equiv_pos_site_id
 _symmetry_equiv_pos_as_xyz
  1  'x, y, z'
loop_
 _atom_site_type_symbol
 _atom_site_label
 _atom_site_symmetry_multiplicity
 _atom_site_fract_x
 _atom_site_fract_y
 _atom_site_fract_z
 _atom_site_occupancy
  Ce  Ce0  1  0.001641  0.001641  0.995078  1
  Zn  Zn1  1  0.622080  0.622080  0.133760  1
  Cu  Cu2  1  0.623665  0.127849  0.624821  1
  Cu  Cu3  1  0.127849  0.623665  0.624821  1
  Cu  Cu4  1  0.623665  0.623665  0.624821  1
  Au  Au5  1  0.251101  0.251101  0.246698  1
