# generated using pymatgen
data_Ta6Al2V4Si4B
_symmetry_space_group_name_H-M   'P 1'
_cell_length_a   7.53754943
_cell_length_b   7.52147418
_cell_length_c   5.03339391
_cell_angle_alpha   90.10024720
_cell_angle_beta   89.94998653
_cell_angle_gamma   119.92947946
_symmetry_Int_Tables_number   1
_chemical_formula_structural   Ta6Al2V4Si4B
_chemical_formula_sum   'Ta6 Al2 V4 Si4 B1'
_cell_volume   247.30460621
_cell_formula_units_Z   1
loop_
 _symmetry_equiv_pos_site_id
 _symmetry_equiv_pos_as_xyz
  1  'x, y, z'
loop_
 _atom_site_type_symbol
 _atom_site_label
 _atom_site_symmetry_multiplicity
 _atom_site_fract_x
 _atom_site_fract_y
 _atom_site_fract_z
 _atom_site_occupancy
  Ta  Ta0  1  0.000000  0.755049  0.244997  1
  Ta  Ta1  1  0.241383  0.241061  0.241605  1
  Ta  Ta2  1  0.758617  0.999679  0.241605  1
  Ta  Ta3  1  0.000000  0.244624  0.758634  1
  Ta  Ta4  1  0.762378  0.757517  0.758911  1
  Ta  Ta5  1  0.237622  0.995138  0.758911  1
  Al  Al6  1  0.407927  0.406708  0.747725  1
  Al  Al7  1  0.592073  0.998782  0.747725  1
  V  V8  1  0.326659  0.665269  0.495985  1
  V  V9  1  0.673341  0.338609  0.495985  1
  V  V10  1  0.672644  0.337987  0.003307  1
  V  V11  1  0.327356  0.665344  0.003307  1
  Si  Si12  1  0.000000  0.402878  0.250013  1
  Si  Si13  1  0.591709  0.593991  0.249209  1
  Si  Si14  1  0.408291  0.002282  0.249209  1
  Si  Si15  1  0.000000  0.594017  0.752279  1
  B  B16  1  0.000000  0.001064  0.500594  1
