# generated using pymatgen
data_InRh3PbSe2
_symmetry_space_group_name_H-M   'P 1'
_cell_length_a   5.85652408
_cell_length_b   5.85652390
_cell_length_c   5.85652485
_cell_angle_alpha   59.31061470
_cell_angle_beta   59.31061526
_cell_angle_gamma   59.31062169
_symmetry_Int_Tables_number   1
_chemical_formula_structural   InRh3PbSe2
_chemical_formula_sum   'In1 Rh3 Pb1 Se2'
_cell_volume   139.80862326
_cell_formula_units_Z   1
loop_
 _symmetry_equiv_pos_site_id
 _symmetry_equiv_pos_as_xyz
  1  'x, y, z'
loop_
 _atom_site_type_symbol
 _atom_site_label
 _atom_site_symmetry_multiplicity
 _atom_site_fract_x
 _atom_site_fract_y
 _atom_site_fract_z
 _atom_site_occupancy
  In  In0  1  0.500000  0.500000  0.500000  1
  Rh  Rh1  1  0.500000  0.500000  0.000000  1
  Rh  Rh2  1  0.000000  0.500000  0.500000  1
  Rh  Rh3  1  0.500000  0.000000  0.500000  1
  Pb  Pb4  1  0.000000  0.000000  0.000000  1
  Se  Se5  1  0.788721  0.788721  0.788721  1
  Se  Se6  1  0.211279  0.211279  0.211279  1
