# generated using pymatgen
data_Sm8Pb(IO8)3
_symmetry_space_group_name_H-M   'P 1'
_cell_length_a   5.60085874
_cell_length_b   7.86427628
_cell_length_c   11.88937700
_cell_angle_alpha   76.15713648
_cell_angle_beta   90.12691126
_cell_angle_gamma   89.81209639
_symmetry_Int_Tables_number   1
_chemical_formula_structural   Sm8Pb(IO8)3
_chemical_formula_sum   'Sm8 Pb1 I3 O24'
_cell_volume   508.47244703
_cell_formula_units_Z   1
loop_
 _symmetry_equiv_pos_site_id
 _symmetry_equiv_pos_as_xyz
  1  'x, y, z'
loop_
 _atom_site_type_symbol
 _atom_site_label
 _atom_site_symmetry_multiplicity
 _atom_site_fract_x
 _atom_site_fract_y
 _atom_site_fract_z
 _atom_site_occupancy
  Sm  Sm0  1  0.738144  0.978623  0.751912  1
  Sm  Sm1  1  0.257138  0.012798  0.254859  1
  Sm  Sm2  1  0.197931  0.778926  0.584414  1
  Sm  Sm3  1  0.809186  0.802967  0.069976  1
  Sm  Sm4  1  0.684352  0.505165  0.752080  1
  Sm  Sm5  1  0.304784  0.501998  0.245633  1
  Sm  Sm6  1  0.198767  0.193559  0.925918  1
  Sm  Sm7  1  0.803194  0.221127  0.422591  1
  Pb  Pb8  1  0.251362  0.711723  0.892459  1
  I  I9  1  0.747708  0.734673  0.382705  1
  I  I10  1  0.249011  0.268135  0.616014  1
  I  I11  1  0.745939  0.280406  0.112455  1
  O  O12  1  0.014598  0.944464  0.898279  1
  O  O13  1  0.534353  0.872957  0.927887  1
  O  O14  1  0.927491  0.945315  0.394578  1
  O  O15  1  0.487239  0.773380  0.714675  1
  O  O16  1  0.470933  0.836577  0.433460  1
  O  O17  1  0.973124  0.710982  0.757055  1
  O  O18  1  0.580232  0.817641  0.235029  1
  O  O19  1  0.854937  0.639854  0.533778  1
  O  O20  1  0.373958  0.462656  0.880053  1
  O  O21  1  0.021250  0.708794  0.289722  1
  O  O22  1  0.375356  0.488963  0.614524  1
  O  O23  1  0.856607  0.356207  0.955152  1
  O  O24  1  0.142142  0.638849  0.073574  1
  O  O25  1  0.630051  0.513038  0.377141  1
  O  O26  1  0.980022  0.297752  0.711960  1
  O  O27  1  0.622282  0.508678  0.105535  1
  O  O28  1  0.139037  0.363743  0.463730  1
  O  O29  1  0.417365  0.182372  0.760106  1
  O  O30  1  0.031978  0.286163  0.245136  1
  O  O31  1  0.518456  0.165233  0.560751  1
  O  O32  1  0.535859  0.224230  0.272821  1
  O  O33  1  0.065978  0.060892  0.602961  1
  O  O34  1  0.481061  0.150329  0.073672  1
  O  O35  1  0.978180  0.060833  0.107408  1
