# generated using pymatgen
data_Dy3Cd2Pt2Pb
_symmetry_space_group_name_H-M   'P 1'
_cell_length_a   7.91120300
_cell_length_b   7.76779028
_cell_length_c   3.60994800
_cell_angle_alpha   90.00000000
_cell_angle_beta   90.00000000
_cell_angle_gamma   120.61264106
_symmetry_Int_Tables_number   1
_chemical_formula_structural   Dy3Cd2Pt2Pb
_chemical_formula_sum   'Dy3 Cd2 Pt2 Pb1'
_cell_volume   190.92258000
_cell_formula_units_Z   1
loop_
 _symmetry_equiv_pos_site_id
 _symmetry_equiv_pos_as_xyz
  1  'x, y, z'
loop_
 _atom_site_type_symbol
 _atom_site_label
 _atom_site_symmetry_multiplicity
 _atom_site_fract_x
 _atom_site_fract_y
 _atom_site_fract_z
 _atom_site_occupancy
  Dy  Dy0  1  0.573068  0.000000  0.500000  1
  Dy  Dy1  1  0.425963  0.421719  0.500000  1
  Dy  Dy2  1  0.004243  0.578281  0.500000  1
  Cd  Cd3  1  0.994061  0.227664  0.000000  1
  Cd  Cd4  1  0.766397  0.772335  0.000000  1
  Pt  Pt5  1  0.677874  0.342223  0.000000  1
  Pt  Pt6  1  0.335651  0.657777  0.000000  1
  Pb  Pb7  1  0.222743  0.000000  0.000000  1
