# generated using pymatgen
data_Ca5SmRuWO12
_symmetry_space_group_name_H-M   'P 1'
_cell_length_a   6.60914584
_cell_length_b   6.59038190
_cell_length_c   6.62146649
_cell_angle_alpha   92.27500858
_cell_angle_beta   92.25110106
_cell_angle_gamma   92.23569495
_symmetry_Int_Tables_number   1
_chemical_formula_structural   Ca5SmRuWO12
_chemical_formula_sum   'Ca5 Sm1 Ru1 W1 O12'
_cell_volume   287.72232591
_cell_formula_units_Z   1
loop_
 _symmetry_equiv_pos_site_id
 _symmetry_equiv_pos_as_xyz
  1  'x, y, z'
loop_
 _atom_site_type_symbol
 _atom_site_label
 _atom_site_symmetry_multiplicity
 _atom_site_fract_x
 _atom_site_fract_y
 _atom_site_fract_z
 _atom_site_occupancy
  Ca  Ca0  1  0.740626  0.928080  0.435233  1
  Ca  Ca1  1  0.558948  0.256198  0.074899  1
  Ca  Ca2  1  0.438531  0.741702  0.927663  1
  Ca  Ca3  1  0.261929  0.068679  0.564107  1
  Ca  Ca4  1  0.074081  0.567404  0.258349  1
  Sm  Sm5  1  0.925916  0.431815  0.738887  1
  Ru  Ru6  1  0.497762  0.500858  0.497169  1
  W  W7  1  0.000006  0.000379  0.003252  1
  O  O8  1  0.940735  0.286499  0.065788  1
  O  O9  1  0.934215  0.066333  0.715887  1
  O  O10  1  0.790156  0.581206  0.455876  1
  O  O11  1  0.718004  0.933272  0.056849  1
  O  O12  1  0.583421  0.451598  0.788539  1
  O  O13  1  0.549297  0.213906  0.421376  1
  O  O14  1  0.452726  0.785447  0.580876  1
  O  O15  1  0.419628  0.548567  0.214370  1
  O  O16  1  0.281241  0.064689  0.941324  1
  O  O17  1  0.209848  0.419054  0.548308  1
  O  O18  1  0.067249  0.941828  0.281802  1
  O  O19  1  0.055680  0.712486  0.929446  1
