# generated using pymatgen
data_Nd2Si14Ir5Os
_symmetry_space_group_name_H-M   'P 1'
_cell_length_a   8.08423305
_cell_length_b   8.08423344
_cell_length_c   8.10446462
_cell_angle_alpha   56.68768556
_cell_angle_beta   56.68768192
_cell_angle_gamma   56.73582990
_symmetry_Int_Tables_number   1
_chemical_formula_structural   Nd2Si14Ir5Os
_chemical_formula_sum   'Nd2 Si14 Ir5 Os1'
_cell_volume   346.02300112
_cell_formula_units_Z   1
loop_
 _symmetry_equiv_pos_site_id
 _symmetry_equiv_pos_as_xyz
  1  'x, y, z'
loop_
 _atom_site_type_symbol
 _atom_site_label
 _atom_site_symmetry_multiplicity
 _atom_site_fract_x
 _atom_site_fract_y
 _atom_site_fract_z
 _atom_site_occupancy
  Nd  Nd0  1  0.000706  0.002197  0.997715  1
  Nd  Nd1  1  0.497803  0.499294  0.502285  1
  Si  Si2  1  0.752715  0.747285  0.750000  1
  Si  Si3  1  0.249383  0.250617  0.250000  1
  Si  Si4  1  0.850633  0.063855  0.672412  1
  Si  Si5  1  0.672121  0.851778  0.063404  1
  Si  Si6  1  0.064168  0.670050  0.850939  1
  Si  Si7  1  0.648222  0.827879  0.436596  1
  Si  Si8  1  0.436145  0.649367  0.827588  1
  Si  Si9  1  0.829950  0.435832  0.649061  1
  Si  Si10  1  0.170615  0.563891  0.354543  1
  Si  Si11  1  0.563870  0.351486  0.172070  1
  Si  Si12  1  0.350097  0.173567  0.563872  1
  Si  Si13  1  0.936109  0.329385  0.145457  1
  Si  Si14  1  0.326433  0.149903  0.936128  1
  Si  Si15  1  0.148514  0.936130  0.327930  1
  Ir  Ir16  1  0.250492  0.930550  0.568601  1
  Ir  Ir17  1  0.569450  0.249508  0.931399  1
  Ir  Ir18  1  0.929787  0.570213  0.250000  1
  Ir  Ir19  1  0.430824  0.750337  0.069154  1
  Ir  Ir20  1  0.749663  0.069176  0.430846  1
  Os  Os21  1  0.072300  0.427700  0.750000  1
