# generated using pymatgen
data_YbEu7ErPt6
_symmetry_space_group_name_H-M   'P 1'
_cell_length_a   7.82153375
_cell_length_b   7.82153369
_cell_length_c   7.82153604
_cell_angle_alpha   70.06477830
_cell_angle_beta   70.06477126
_cell_angle_gamma   70.06477811
_symmetry_Int_Tables_number   1
_chemical_formula_structural   YbEu7ErPt6
_chemical_formula_sum   'Yb1 Eu7 Er1 Pt6'
_cell_volume   408.96987363
_cell_formula_units_Z   1
loop_
 _symmetry_equiv_pos_site_id
 _symmetry_equiv_pos_as_xyz
  1  'x, y, z'
loop_
 _atom_site_type_symbol
 _atom_site_label
 _atom_site_symmetry_multiplicity
 _atom_site_fract_x
 _atom_site_fract_y
 _atom_site_fract_z
 _atom_site_occupancy
  Yb  Yb0  1  0.001535  0.001535  0.001535  1
  Eu  Eu1  1  0.196862  0.196862  0.196862  1
  Eu  Eu2  1  0.330880  0.605905  0.846283  1
  Eu  Eu3  1  0.846283  0.330880  0.605905  1
  Eu  Eu4  1  0.605905  0.846283  0.330880  1
  Eu  Eu5  1  0.669845  0.395422  0.150400  1
  Eu  Eu6  1  0.150400  0.669845  0.395422  1
  Eu  Eu7  1  0.395422  0.150400  0.669845  1
  Er  Er8  1  0.808200  0.808200  0.808200  1
  Pt  Pt9  1  0.148893  0.953725  0.600392  1
  Pt  Pt10  1  0.600392  0.148893  0.953725  1
  Pt  Pt11  1  0.953725  0.600392  0.148893  1
  Pt  Pt12  1  0.831777  0.036810  0.423071  1
  Pt  Pt13  1  0.423071  0.831777  0.036810  1
  Pt  Pt14  1  0.036810  0.423071  0.831777  1
