# generated using pymatgen
data_HoCd3P7N12
_symmetry_space_group_name_H-M   'P 1'
_cell_length_a   7.42833124
_cell_length_b   7.45437643
_cell_length_c   7.45437768
_cell_angle_alpha   109.54188697
_cell_angle_beta   109.40045816
_cell_angle_gamma   109.40046011
_symmetry_Int_Tables_number   1
_chemical_formula_structural   HoCd3P7N12
_chemical_formula_sum   'Ho1 Cd3 P7 N12'
_cell_volume   318.03185091
_cell_formula_units_Z   1
loop_
 _symmetry_equiv_pos_site_id
 _symmetry_equiv_pos_as_xyz
  1  'x, y, z'
loop_
 _atom_site_type_symbol
 _atom_site_label
 _atom_site_symmetry_multiplicity
 _atom_site_fract_x
 _atom_site_fract_y
 _atom_site_fract_z
 _atom_site_occupancy
  Ho  Ho0  1  0.640601  0.000000  0.000000  1
  Cd  Cd1  1  0.998952  0.000000  0.671008  1
  Cd  Cd2  1  0.998952  0.671008  0.000000  1
  Cd  Cd3  1  0.327944  0.328992  0.328992  1
  P  P4  1  0.249045  0.748952  0.496947  1
  P  P5  1  0.752098  0.252005  0.503053  1
  P  P6  1  0.752098  0.503053  0.252005  1
  P  P7  1  0.249045  0.496947  0.748952  1
  P  P8  1  0.500093  0.747995  0.251048  1
  P  P9  1  0.500093  0.251048  0.747995  1
  P  P10  1  0.999773  0.000000  0.000000  1
  N  N11  1  0.714491  0.293384  0.293384  1
  N  N12  1  0.288216  0.708454  0.287231  1
  N  N13  1  0.308179  0.593929  0.593929  1
  N  N14  1  0.579762  0.578777  0.291546  1
  N  N15  1  0.421107  0.706616  0.000000  1
  N  N16  1  0.000985  0.712769  0.421223  1
  N  N17  1  0.579762  0.291546  0.578777  1
  N  N18  1  0.714250  0.000000  0.406071  1
  N  N19  1  0.421107  0.000000  0.706616  1
  N  N20  1  0.714250  0.406071  0.000000  1
  N  N21  1  0.288216  0.287231  0.708454  1
  N  N22  1  0.000985  0.421223  0.712769  1
