# generated using pymatgen
data_Sm8LuSc11Si15Os
_symmetry_space_group_name_H-M   'P 1'
_cell_length_a   7.17894565
_cell_length_b   7.53664769
_cell_length_c   14.13324934
_cell_angle_alpha   89.96723707
_cell_angle_beta   90.03768764
_cell_angle_gamma   90.22833073
_symmetry_Int_Tables_number   1
_chemical_formula_structural   Sm8LuSc11Si15Os
_chemical_formula_sum   'Sm8 Lu1 Sc11 Si15 Os1'
_cell_volume   764.67569669
_cell_formula_units_Z   1
loop_
 _symmetry_equiv_pos_site_id
 _symmetry_equiv_pos_as_xyz
  1  'x, y, z'
loop_
 _atom_site_type_symbol
 _atom_site_label
 _atom_site_symmetry_multiplicity
 _atom_site_fract_x
 _atom_site_fract_y
 _atom_site_fract_z
 _atom_site_occupancy
  Sm  Sm0  1  0.012093  0.178021  0.096789  1
  Sm  Sm1  1  0.989421  0.827891  0.903971  1
  Sm  Sm2  1  0.487691  0.674566  0.904738  1
  Sm  Sm3  1  0.988541  0.826490  0.597678  1
  Sm  Sm4  1  0.511622  0.324889  0.096538  1
  Sm  Sm5  1  0.012146  0.177842  0.402647  1
  Sm  Sm6  1  0.512415  0.324931  0.401868  1
  Sm  Sm7  1  0.487614  0.675208  0.596621  1
  Lu  Lu8  1  0.317544  0.172059  0.626083  1
  Sc  Sc9  1  0.152331  0.493399  0.751632  1
  Sc  Sc10  1  0.840042  0.497430  0.249869  1
  Sc  Sc11  1  0.340379  0.003811  0.249477  1
  Sc  Sc12  1  0.669452  0.999824  0.750976  1
  Sc  Sc13  1  0.673722  0.826118  0.372275  1
  Sc  Sc14  1  0.172652  0.677408  0.372917  1
  Sc  Sc15  1  0.672993  0.826607  0.126521  1
  Sc  Sc16  1  0.835959  0.318203  0.628156  1
  Sc  Sc17  1  0.316939  0.171340  0.873001  1
  Sc  Sc18  1  0.836174  0.318389  0.873137  1
  Sc  Sc19  1  0.172581  0.677724  0.125970  1
  Si  Si20  1  0.970200  0.880527  0.249381  1
  Si  Si21  1  0.470125  0.618278  0.249387  1
  Si  Si22  1  0.529689  0.388253  0.751676  1
  Si  Si23  1  0.284511  0.870286  0.751650  1
  Si  Si24  1  0.713092  0.126167  0.249574  1
  Si  Si25  1  0.213363  0.375578  0.249516  1
  Si  Si26  1  0.778554  0.622425  0.750850  1
  Si  Si27  1  0.152595  0.472599  0.536082  1
  Si  Si28  1  0.847113  0.537773  0.460561  1
  Si  Si29  1  0.350440  0.962418  0.456552  1
  Si  Si30  1  0.848015  0.537078  0.039261  1
  Si  Si31  1  0.657076  0.033614  0.536250  1
  Si  Si32  1  0.156246  0.468195  0.963409  1
  Si  Si33  1  0.651885  0.034597  0.962003  1
  Si  Si34  1  0.348190  0.964971  0.040566  1
  Os  Os35  1  0.026598  0.115093  0.752414  1
