# generated using pymatgen
data_Ac5Th(SnPt)6
_symmetry_space_group_name_H-M   'P 1'
_cell_length_a   7.85067000
_cell_length_b   7.77975582
_cell_length_c   8.52439200
_cell_angle_alpha   90.00000000
_cell_angle_beta   90.00000000
_cell_angle_gamma   119.87293788
_symmetry_Int_Tables_number   1
_chemical_formula_structural   Ac5Th(SnPt)6
_chemical_formula_sum   'Ac5 Th1 Sn6 Pt6'
_cell_volume   451.46216999
_cell_formula_units_Z   1
loop_
 _symmetry_equiv_pos_site_id
 _symmetry_equiv_pos_as_xyz
  1  'x, y, z'
loop_
 _atom_site_type_symbol
 _atom_site_label
 _atom_site_symmetry_multiplicity
 _atom_site_fract_x
 _atom_site_fract_y
 _atom_site_fract_z
 _atom_site_occupancy
  Ac  Ac0  1  0.413856  0.000153  0.250000  1
  Ac  Ac1  1  0.585677  0.584541  0.250000  1
  Ac  Ac2  1  0.999984  0.416649  0.250000  1
  Ac  Ac3  1  0.413532  0.000592  0.750000  1
  Ac  Ac4  1  0.585013  0.585830  0.750000  1
  Th  Th5  1  0.000879  0.412157  0.750000  1
  Sn  Sn6  1  0.242627  0.244251  0.000578  1
  Sn  Sn7  1  0.000358  0.756886  0.993367  1
  Sn  Sn8  1  0.000358  0.756886  0.506633  1
  Sn  Sn9  1  0.754589  0.000213  0.499246  1
  Sn  Sn10  1  0.242627  0.244251  0.499422  1
  Sn  Sn11  1  0.754589  0.000213  0.000754  1
  Pt  Pt12  1  0.998088  0.015759  0.750000  1
  Pt  Pt13  1  0.998568  0.997615  0.250000  1
  Pt  Pt14  1  0.686323  0.337529  0.989776  1
  Pt  Pt15  1  0.318304  0.654472  0.508280  1
  Pt  Pt16  1  0.318304  0.654472  0.991720  1
  Pt  Pt17  1  0.686323  0.337529  0.510224  1
