# generated using pymatgen
data_Tb12TlCo6
_symmetry_space_group_name_H-M   'P 1'
_cell_length_a   8.40751456
_cell_length_b   8.40751443
_cell_length_c   8.40751452
_cell_angle_alpha   109.51142873
_cell_angle_beta   109.44967679
_cell_angle_gamma   109.45256064
_symmetry_Int_Tables_number   1
_chemical_formula_structural   Tb12TlCo6
_chemical_formula_sum   'Tb12 Tl1 Co6'
_cell_volume   457.48919465
_cell_formula_units_Z   1
loop_
 _symmetry_equiv_pos_site_id
 _symmetry_equiv_pos_as_xyz
  1  'x, y, z'
loop_
 _atom_site_type_symbol
 _atom_site_label
 _atom_site_symmetry_multiplicity
 _atom_site_fract_x
 _atom_site_fract_y
 _atom_site_fract_z
 _atom_site_occupancy
  Tb  Tb0  1  0.806414  0.696400  0.502814  1
  Tb  Tb1  1  0.193637  0.303155  0.496791  1
  Tb  Tb2  1  0.193586  0.696400  0.889985  1
  Tb  Tb3  1  0.806363  0.303155  0.109518  1
  Tb  Tb4  1  0.697101  0.503692  0.806592  1
  Tb  Tb5  1  0.303429  0.496908  0.193479  1
  Tb  Tb6  1  0.696571  0.890049  0.193479  1
  Tb  Tb7  1  0.302899  0.109491  0.806592  1
  Tb  Tb8  1  0.503078  0.806467  0.696530  1
  Tb  Tb9  1  0.496922  0.193451  0.303388  1
  Tb  Tb10  1  0.109938  0.806467  0.303388  1
  Tb  Tb11  1  0.890062  0.193451  0.696530  1
  Tl  Tl12  1  0.000000  0.000022  0.000022  1
  Co  Co13  1  0.887122  0.386905  0.499783  1
  Co  Co14  1  0.112878  0.612662  0.499783  1
  Co  Co15  1  0.387185  0.499709  0.886894  1
  Co  Co16  1  0.612815  0.499709  0.112525  1
  Co  Co17  1  0.500000  0.887966  0.387966  1
  Co  Co18  1  0.500000  0.113943  0.613943  1
