# generated using pymatgen
data_Tb4Al18IrPt2Rh3
_symmetry_space_group_name_H-M   'P 1'
_cell_length_a   7.57816816
_cell_length_b   7.57816705
_cell_length_c   9.46776402
_cell_angle_alpha   89.96223144
_cell_angle_beta   89.96221841
_cell_angle_gamma   119.61041389
_symmetry_Int_Tables_number   1
_chemical_formula_structural   Tb4Al18IrPt2Rh3
_chemical_formula_sum   'Tb4 Al18 Ir1 Pt2 Rh3'
_cell_volume   472.71313145
_cell_formula_units_Z   1
loop_
 _symmetry_equiv_pos_site_id
 _symmetry_equiv_pos_as_xyz
  1  'x, y, z'
loop_
 _atom_site_type_symbol
 _atom_site_label
 _atom_site_symmetry_multiplicity
 _atom_site_fract_x
 _atom_site_fract_y
 _atom_site_fract_z
 _atom_site_occupancy
  Tb  Tb0  1  0.995376  0.670159  0.250120  1
  Tb  Tb1  1  0.004624  0.329841  0.749880  1
  Tb  Tb2  1  0.670159  0.995376  0.250120  1
  Tb  Tb3  1  0.329841  0.004624  0.749880  1
  Al  Al4  1  0.127375  0.127375  0.251374  1
  Al  Al5  1  0.872625  0.872625  0.748626  1
  Al  Al6  1  0.000914  0.331276  0.077180  1
  Al  Al7  1  0.999086  0.668724  0.922820  1
  Al  Al8  1  0.000021  0.665250  0.574344  1
  Al  Al9  1  0.334750  0.999979  0.425656  1
  Al  Al10  1  0.999979  0.334750  0.425656  1
  Al  Al11  1  0.665250  0.000021  0.574344  1
  Al  Al12  1  0.668724  0.999086  0.922820  1
  Al  Al13  1  0.331276  0.000914  0.077180  1
  Al  Al14  1  0.332519  0.332519  0.550949  1
  Al  Al15  1  0.667481  0.667481  0.449051  1
  Al  Al16  1  0.668844  0.668844  0.056873  1
  Al  Al17  1  0.331156  0.331156  0.943127  1
  Al  Al18  1  0.340123  0.546864  0.253676  1
  Al  Al19  1  0.659877  0.453136  0.746324  1
  Al  Al20  1  0.546864  0.340123  0.253676  1
  Al  Al21  1  0.453136  0.659877  0.746324  1
  Ir  Ir22  1  0.000000  0.000000  0.000000  1
  Pt  Pt23  1  0.672130  0.327870  0.000000  1
  Pt  Pt24  1  0.327870  0.672130  0.000000  1
  Rh  Rh25  1  0.328164  0.671836  0.500000  1
  Rh  Rh26  1  0.671836  0.328164  0.500000  1
  Rh  Rh27  1  0.000000  0.000000  0.500000  1
