# generated using pymatgen
data_Er3TiCo3
_symmetry_space_group_name_H-M   'P 1'
_cell_length_a   5.56454960
_cell_length_b   5.56455005
_cell_length_c   13.03193100
_cell_angle_alpha   90.00000000
_cell_angle_beta   90.00000000
_cell_angle_gamma   139.45641638
_symmetry_Int_Tables_number   1
_chemical_formula_structural   Er3TiCo3
_chemical_formula_sum   'Er6 Ti2 Co6'
_cell_volume   262.30088820
_cell_formula_units_Z   2
loop_
 _symmetry_equiv_pos_site_id
 _symmetry_equiv_pos_as_xyz
  1  'x, y, z'
loop_
 _atom_site_type_symbol
 _atom_site_label
 _atom_site_symmetry_multiplicity
 _atom_site_fract_x
 _atom_site_fract_y
 _atom_site_fract_z
 _atom_site_occupancy
  Er  Er0  1  0.787308  0.212692  0.392984  1
  Er  Er1  1  0.212692  0.787308  0.607016  1
  Er  Er2  1  0.787308  0.212692  0.107016  1
  Er  Er3  1  0.212692  0.787308  0.892984  1
  Er  Er4  1  0.501097  0.498903  0.250000  1
  Er  Er5  1  0.498903  0.501097  0.750000  1
  Ti  Ti6  1  0.500000  0.500000  0.500000  1
  Ti  Ti7  1  0.500000  0.500000  0.000000  1
  Co  Co8  1  0.074542  0.925458  0.405418  1
  Co  Co9  1  0.925458  0.074542  0.594582  1
  Co  Co10  1  0.074542  0.925458  0.094582  1
  Co  Co11  1  0.925458  0.074542  0.905418  1
  Co  Co12  1  0.196001  0.803999  0.250000  1
  Co  Co13  1  0.803999  0.196001  0.750000  1
