# generated using pymatgen
data_Dy8Ta11TiSi16
_symmetry_space_group_name_H-M   'P 1'
_cell_length_a   7.04587108
_cell_length_b   7.04587108
_cell_length_c   12.99416882
_cell_angle_alpha   90.05353384
_cell_angle_beta   89.94646616
_cell_angle_gamma   89.96611914
_symmetry_Int_Tables_number   1
_chemical_formula_structural   Dy8Ta11TiSi16
_chemical_formula_sum   'Dy8 Ta11 Ti1 Si16'
_cell_volume   645.08572981
_cell_formula_units_Z   1
loop_
 _symmetry_equiv_pos_site_id
 _symmetry_equiv_pos_as_xyz
  1  'x, y, z'
loop_
 _atom_site_type_symbol
 _atom_site_label
 _atom_site_symmetry_multiplicity
 _atom_site_fract_x
 _atom_site_fract_y
 _atom_site_fract_z
 _atom_site_occupancy
  Dy  Dy0  1  0.996878  0.658487  0.032435  1
  Dy  Dy1  1  0.002825  0.341284  0.532212  1
  Dy  Dy2  1  0.658487  0.996878  0.967565  1
  Dy  Dy3  1  0.158863  0.503207  0.782317  1
  Dy  Dy4  1  0.841669  0.497231  0.282088  1
  Dy  Dy5  1  0.503207  0.158863  0.217683  1
  Dy  Dy6  1  0.497231  0.841669  0.717912  1
  Dy  Dy7  1  0.341284  0.002825  0.467788  1
  Ta  Ta8  1  0.346723  0.507036  0.375898  1
  Ta  Ta9  1  0.846693  0.992718  0.374141  1
  Ta  Ta10  1  0.007211  0.153035  0.125830  1
  Ta  Ta11  1  0.992718  0.846693  0.625859  1
  Ta  Ta12  1  0.507036  0.346723  0.624102  1
  Ta  Ta13  1  0.153035  0.007211  0.874170  1
  Ta  Ta14  1  0.671613  0.671613  0.500000  1
  Ta  Ta15  1  0.828051  0.171811  0.750154  1
  Ta  Ta16  1  0.171811  0.828051  0.249846  1
  Ta  Ta17  1  0.493198  0.653722  0.124361  1
  Ta  Ta18  1  0.653722  0.493198  0.875639  1
  Ti  Ti19  1  0.328291  0.328291  0.000000  1
  Si  Si20  1  0.045699  0.705635  0.435940  1
  Si  Si21  1  0.954917  0.294198  0.936708  1
  Si  Si22  1  0.705635  0.045699  0.564060  1
  Si  Si23  1  0.206559  0.453370  0.184645  1
  Si  Si24  1  0.794184  0.545377  0.686408  1
  Si  Si25  1  0.453370  0.206559  0.815355  1
  Si  Si26  1  0.545377  0.794184  0.313592  1
  Si  Si27  1  0.294198  0.954917  0.063292  1
  Si  Si28  1  0.796589  0.866093  0.181890  1
  Si  Si29  1  0.296824  0.634041  0.567832  1
  Si  Si30  1  0.702418  0.365733  0.066973  1
  Si  Si31  1  0.634041  0.296824  0.432168  1
  Si  Si32  1  0.365733  0.702418  0.933027  1
  Si  Si33  1  0.134410  0.203408  0.317521  1
  Si  Si34  1  0.203408  0.134410  0.682479  1
  Si  Si35  1  0.866093  0.796589  0.818110  1
