# generated using pymatgen
data_NbSe6BrF6
_symmetry_space_group_name_H-M   'P 1'
_cell_length_a   7.32190800
_cell_length_b   9.37314635
_cell_length_c   11.69559901
_cell_angle_alpha   61.64848587
_cell_angle_beta   90.00000000
_cell_angle_gamma   90.00000000
_symmetry_Int_Tables_number   1
_chemical_formula_structural   NbSe6BrF6
_chemical_formula_sum   'Nb2 Se12 Br2 F12'
_cell_volume   706.38237185
_cell_formula_units_Z   2
loop_
 _symmetry_equiv_pos_site_id
 _symmetry_equiv_pos_as_xyz
  1  'x, y, z'
loop_
 _atom_site_type_symbol
 _atom_site_label
 _atom_site_symmetry_multiplicity
 _atom_site_fract_x
 _atom_site_fract_y
 _atom_site_fract_z
 _atom_site_occupancy
  Nb  Nb0  1  0.000000  0.000000  0.000000  1
  Nb  Nb1  1  0.000000  0.000000  0.500000  1
  Se  Se2  1  0.738367  0.341736  0.617209  1
  Se  Se3  1  0.261633  0.658264  0.382791  1
  Se  Se4  1  0.244694  0.552813  0.893695  1
  Se  Se5  1  0.755306  0.447187  0.106305  1
  Se  Se6  1  0.433721  0.241953  0.618876  1
  Se  Se7  1  0.738367  0.658264  0.882791  1
  Se  Se8  1  0.566279  0.758047  0.381124  1
  Se  Se9  1  0.755306  0.552813  0.393695  1
  Se  Se10  1  0.244694  0.447187  0.606305  1
  Se  Se11  1  0.261633  0.341736  0.117209  1
  Se  Se12  1  0.566279  0.241953  0.118876  1
  Se  Se13  1  0.433721  0.758047  0.881124  1
  Br  Br14  1  0.719764  0.500000  0.750000  1
  Br  Br15  1  0.280236  0.500000  0.250000  1
  F  F16  1  0.103374  0.211850  0.885207  1
  F  F17  1  0.781820  0.945359  0.607246  1
  F  F18  1  0.218180  0.945359  0.107246  1
  F  F19  1  0.889405  0.088828  0.103187  1
  F  F20  1  0.896626  0.788150  0.114793  1
  F  F21  1  0.218180  0.054641  0.392754  1
  F  F22  1  0.896626  0.211850  0.385207  1
  F  F23  1  0.110595  0.911172  0.896813  1
  F  F24  1  0.110595  0.088828  0.603187  1
  F  F25  1  0.103374  0.788150  0.614793  1
  F  F26  1  0.889405  0.911172  0.396813  1
  F  F27  1  0.781820  0.054641  0.892754  1
