# generated using pymatgen
data_Gd6UO12
_symmetry_space_group_name_H-M   'P 1'
_cell_length_a   6.67469737
_cell_length_b   6.67464395
_cell_length_c   6.67471120
_cell_angle_alpha   98.95190369
_cell_angle_beta   98.95177854
_cell_angle_gamma   98.95134451
_symmetry_Int_Tables_number   1
_chemical_formula_structural   Gd6UO12
_chemical_formula_sum   'Gd6 U1 O12'
_cell_volume   285.19763218
_cell_formula_units_Z   1
loop_
 _symmetry_equiv_pos_site_id
 _symmetry_equiv_pos_as_xyz
  1  'x, y, z'
loop_
 _atom_site_type_symbol
 _atom_site_label
 _atom_site_symmetry_multiplicity
 _atom_site_fract_x
 _atom_site_fract_y
 _atom_site_fract_z
 _atom_site_occupancy
  Gd  Gd0  1  0.391067  0.681656  0.855225  1
  Gd  Gd1  1  0.855225  0.391069  0.681655  1
  Gd  Gd2  1  0.681659  0.855232  0.391062  1
  Gd  Gd3  1  0.608933  0.318344  0.144775  1
  Gd  Gd4  1  0.144775  0.608931  0.318345  1
  Gd  Gd5  1  0.318341  0.144768  0.608938  1
  U  U6  1  0.000000  0.000000  0.000000  1
  O  O7  1  0.177643  0.430219  0.588609  1
  O  O8  1  0.588605  0.177644  0.430218  1
  O  O9  1  0.430222  0.588610  0.177643  1
  O  O10  1  0.822357  0.569781  0.411391  1
  O  O11  1  0.411395  0.822356  0.569782  1
  O  O12  1  0.569778  0.411390  0.822357  1
  O  O13  1  0.922025  0.046211  0.695126  1
  O  O14  1  0.953788  0.304877  0.077980  1
  O  O15  1  0.304874  0.077973  0.953788  1
  O  O16  1  0.077975  0.953789  0.304874  1
  O  O17  1  0.046212  0.695123  0.922020  1
  O  O18  1  0.695126  0.922027  0.046212  1
