# generated using pymatgen
data_Dy7CoSn23Ru4Pt
_symmetry_space_group_name_H-M   'P 1'
_cell_length_a   9.85605392
_cell_length_b   9.84214913
_cell_length_c   10.07400902
_cell_angle_alpha   89.95846637
_cell_angle_beta   90.03698201
_cell_angle_gamma   120.08147058
_symmetry_Int_Tables_number   1
_chemical_formula_structural   Dy7CoSn23Ru4Pt
_chemical_formula_sum   'Dy7 Co1 Sn23 Ru4 Pt1'
_cell_volume   845.60729582
_cell_formula_units_Z   1
loop_
 _symmetry_equiv_pos_site_id
 _symmetry_equiv_pos_as_xyz
  1  'x, y, z'
loop_
 _atom_site_type_symbol
 _atom_site_label
 _atom_site_symmetry_multiplicity
 _atom_site_fract_x
 _atom_site_fract_y
 _atom_site_fract_z
 _atom_site_occupancy
  Dy  Dy0  1  0.013542  0.002292  0.002595  1
  Dy  Dy1  1  0.482424  0.519373  0.305625  1
  Dy  Dy2  1  0.516861  0.481205  0.694111  1
  Dy  Dy3  1  0.481035  0.962933  0.306186  1
  Dy  Dy4  1  0.517009  0.035339  0.693782  1
  Dy  Dy5  1  0.034880  0.519207  0.305747  1
  Dy  Dy6  1  0.963768  0.482179  0.694681  1
  Co  Co7  1  0.659887  0.828298  0.799637  1
  Sn  Sn8  1  0.350745  0.998682  0.999930  1
  Sn  Sn9  1  0.646113  0.990632  0.992403  1
  Sn  Sn10  1  0.006536  0.356138  0.997039  1
  Sn  Sn11  1  0.999036  0.651013  0.999914  1
  Sn  Sn12  1  0.653112  0.654989  0.995305  1
  Sn  Sn13  1  0.350735  0.351975  0.999336  1
  Sn  Sn14  1  0.334983  0.666944  0.816568  1
  Sn  Sn15  1  0.662609  0.337009  0.179088  1
  Sn  Sn16  1  0.000482  0.999809  0.500474  1
  Sn  Sn17  1  0.776505  0.222344  0.461293  1
  Sn  Sn18  1  0.220305  0.779595  0.542177  1
  Sn  Sn19  1  0.779025  0.559186  0.458751  1
  Sn  Sn20  1  0.220554  0.443061  0.541710  1
  Sn  Sn21  1  0.441474  0.220733  0.457492  1
  Sn  Sn22  1  0.561477  0.781125  0.547805  1
  Sn  Sn23  1  0.332765  0.665991  0.123100  1
  Sn  Sn24  1  0.666061  0.332320  0.875579  1
  Sn  Sn25  1  0.119196  0.881342  0.277753  1
  Sn  Sn26  1  0.877599  0.110192  0.727198  1
  Sn  Sn27  1  0.120202  0.235492  0.282091  1
  Sn  Sn28  1  0.878381  0.766926  0.726063  1
  Sn  Sn29  1  0.761289  0.878528  0.280573  1
  Sn  Sn30  1  0.238360  0.117787  0.722322  1
  Ru  Ru31  1  0.168000  0.830406  0.800390  1
  Ru  Ru32  1  0.830706  0.662713  0.199706  1
  Ru  Ru33  1  0.168251  0.335877  0.797773  1
  Ru  Ru34  1  0.337654  0.168580  0.198282  1
  Pt  Pt35  1  0.828440  0.169788  0.197516  1
