# generated using pymatgen
data_Cs6GaTe4I
_symmetry_space_group_name_H-M   'P 1'
_cell_length_a   12.14659400
_cell_length_b   12.14659452
_cell_length_c   9.21630400
_cell_angle_alpha   90.00000000
_cell_angle_beta   90.00000000
_cell_angle_gamma   120.00000402
_symmetry_Int_Tables_number   1
_chemical_formula_structural   Cs6GaTe4I
_chemical_formula_sum   'Cs12 Ga2 Te8 I2'
_cell_volume   1177.59636167
_cell_formula_units_Z   2
loop_
 _symmetry_equiv_pos_site_id
 _symmetry_equiv_pos_as_xyz
  1  'x, y, z'
loop_
 _atom_site_type_symbol
 _atom_site_label
 _atom_site_symmetry_multiplicity
 _atom_site_fract_x
 _atom_site_fract_y
 _atom_site_fract_z
 _atom_site_occupancy
  Cs  Cs0  1  0.141073  0.858927  0.515765  1
  Cs  Cs1  1  0.717851  0.858927  0.515765  1
  Cs  Cs2  1  0.952983  0.476491  0.319368  1
  Cs  Cs3  1  0.523509  0.476491  0.319368  1
  Cs  Cs4  1  0.858927  0.717851  0.015765  1
  Cs  Cs5  1  0.282149  0.141073  0.015765  1
  Cs  Cs6  1  0.523509  0.047017  0.319368  1
  Cs  Cs7  1  0.141073  0.282149  0.515765  1
  Cs  Cs8  1  0.858927  0.141073  0.015765  1
  Cs  Cs9  1  0.047017  0.523509  0.819368  1
  Cs  Cs10  1  0.476491  0.952983  0.819368  1
  Cs  Cs11  1  0.476491  0.523509  0.819368  1
  Ga  Ga12  1  0.666667  0.333333  0.707272  1
  Ga  Ga13  1  0.333333  0.666667  0.207272  1
  Te  Te14  1  0.423411  0.211705  0.616405  1
  Te  Te15  1  0.576589  0.788295  0.116405  1
  Te  Te16  1  0.666667  0.333333  0.007036  1
  Te  Te17  1  0.788295  0.576589  0.616405  1
  Te  Te18  1  0.211705  0.423411  0.116405  1
  Te  Te19  1  0.333333  0.666667  0.507036  1
  Te  Te20  1  0.211705  0.788295  0.116405  1
  Te  Te21  1  0.788295  0.211705  0.616405  1
  I  I22  1  0.000000  0.000000  0.271679  1
  I  I23  1  0.000000  0.000000  0.771679  1
