# generated using pymatgen
data_PmBe2Pt3
_symmetry_space_group_name_H-M   'P 1'
_cell_length_a   5.49509846
_cell_length_b   5.49509924
_cell_length_c   3.55725800
_cell_angle_alpha   90.00000000
_cell_angle_beta   90.00000000
_cell_angle_gamma   60.00300837
_symmetry_Int_Tables_number   1
_chemical_formula_structural   PmBe2Pt3
_chemical_formula_sum   'Pm1 Be2 Pt3'
_cell_volume   93.02724935
_cell_formula_units_Z   1
loop_
 _symmetry_equiv_pos_site_id
 _symmetry_equiv_pos_as_xyz
  1  'x, y, z'
loop_
 _atom_site_type_symbol
 _atom_site_label
 _atom_site_symmetry_multiplicity
 _atom_site_fract_x
 _atom_site_fract_y
 _atom_site_fract_z
 _atom_site_occupancy
  Pm  Pm0  1  0.999998  0.000002  0.000000  1
  Be  Be1  1  0.333291  0.333291  0.000000  1
  Be  Be2  1  0.666709  0.666709  0.000000  1
  Pt  Pt3  1  0.500051  0.000000  0.499999  1
  Pt  Pt4  1  0.000000  0.499948  0.499999  1
  Pt  Pt5  1  0.499944  0.500055  0.499999  1
