# generated using pymatgen
data_Er2Si2IrPt2
_symmetry_space_group_name_H-M   'P 1'
_cell_length_a   4.21061800
_cell_length_b   6.63889300
_cell_length_c   8.75550200
_cell_angle_alpha   90.00000000
_cell_angle_beta   90.00000000
_cell_angle_gamma   90.00000000
_symmetry_Int_Tables_number   1
_chemical_formula_structural   Er2Si2IrPt2
_chemical_formula_sum   'Er4 Si4 Ir2 Pt4'
_cell_volume   244.74992274
_cell_formula_units_Z   2
loop_
 _symmetry_equiv_pos_site_id
 _symmetry_equiv_pos_as_xyz
  1  'x, y, z'
loop_
 _atom_site_type_symbol
 _atom_site_label
 _atom_site_symmetry_multiplicity
 _atom_site_fract_x
 _atom_site_fract_y
 _atom_site_fract_z
 _atom_site_occupancy
  Er  Er0  1  0.000000  0.886814  0.330418  1
  Er  Er1  1  0.000000  0.113186  0.669582  1
  Er  Er2  1  0.000000  0.386814  0.169582  1
  Er  Er3  1  0.000000  0.613186  0.830418  1
  Si  Si4  1  0.500000  0.571498  0.357654  1
  Si  Si5  1  0.500000  0.428502  0.642346  1
  Si  Si6  1  0.500000  0.071498  0.142346  1
  Si  Si7  1  0.500000  0.928502  0.857654  1
  Ir  Ir8  1  0.000000  0.500000  0.500000  1
  Ir  Ir9  1  0.000000  0.000000  0.000000  1
  Pt  Pt10  1  0.500000  0.693552  0.088980  1
  Pt  Pt11  1  0.500000  0.306448  0.911020  1
  Pt  Pt12  1  0.500000  0.193552  0.411020  1
  Pt  Pt13  1  0.500000  0.806448  0.588980  1
