# generated using pymatgen
data_Li2U(Cl2O)2
_symmetry_space_group_name_H-M   'P 1'
_cell_length_a   5.77064506
_cell_length_b   6.74681742
_cell_length_c   6.74681762
_cell_angle_alpha   64.27280180
_cell_angle_beta   82.01937987
_cell_angle_gamma   82.01937706
_symmetry_Int_Tables_number   1
_chemical_formula_structural   Li2U(Cl2O)2
_chemical_formula_sum   'Li2 U1 Cl4 O2'
_cell_volume   233.43583860
_cell_formula_units_Z   1
loop_
 _symmetry_equiv_pos_site_id
 _symmetry_equiv_pos_as_xyz
  1  'x, y, z'
loop_
 _atom_site_type_symbol
 _atom_site_label
 _atom_site_symmetry_multiplicity
 _atom_site_fract_x
 _atom_site_fract_y
 _atom_site_fract_z
 _atom_site_occupancy
  Li  Li0  1  0.428576  0.214097  0.214097  1
  Li  Li1  1  0.569177  0.785723  0.785723  1
  U  U2  1  0.999015  0.999863  0.999863  1
  Cl  Cl3  1  0.266003  0.618208  0.111661  1
  Cl  Cl4  1  0.731636  0.887645  0.381548  1
  Cl  Cl5  1  0.266003  0.111661  0.618208  1
  Cl  Cl6  1  0.731636  0.381548  0.887645  1
  O  O7  1  0.208849  0.102383  0.102383  1
  O  O8  1  0.788806  0.897471  0.897471  1
