# generated using pymatgen
data_Y3Er5V4O20
_symmetry_space_group_name_H-M   'P 1'
_cell_length_a   3.71191400
_cell_length_b   10.31942837
_cell_length_c   11.24368041
_cell_angle_alpha   89.96924670
_cell_angle_beta   90.00000000
_cell_angle_gamma   90.00000000
_symmetry_Int_Tables_number   1
_chemical_formula_structural   Y3Er5V4O20
_chemical_formula_sum   'Y3 Er5 V4 O20'
_cell_volume   430.68721169
_cell_formula_units_Z   1
loop_
 _symmetry_equiv_pos_site_id
 _symmetry_equiv_pos_as_xyz
  1  'x, y, z'
loop_
 _atom_site_type_symbol
 _atom_site_label
 _atom_site_symmetry_multiplicity
 _atom_site_fract_x
 _atom_site_fract_y
 _atom_site_fract_z
 _atom_site_occupancy
  Y  Y0  1  0.250000  0.121312  0.272374  1
  Y  Y1  1  0.250000  0.135943  0.943627  1
  Y  Y2  1  0.750000  0.364613  0.444428  1
  Er  Er3  1  0.750000  0.377171  0.771905  1
  Er  Er4  1  0.250000  0.623928  0.227504  1
  Er  Er5  1  0.250000  0.637698  0.555641  1
  Er  Er6  1  0.750000  0.861534  0.054649  1
  Er  Er7  1  0.750000  0.875949  0.727666  1
  V  V8  1  0.250000  0.166669  0.616730  1
  V  V9  1  0.750000  0.334065  0.115747  1
  V  V10  1  0.250000  0.666927  0.883617  1
  V  V11  1  0.750000  0.831992  0.383929  1
  O  O12  1  0.750000  0.001918  0.893819  1
  O  O13  1  0.250000  0.002435  0.652782  1
  O  O14  1  0.250000  0.225955  0.456015  1
  O  O15  1  0.750000  0.246827  0.266820  1
  O  O16  1  0.750000  0.231551  0.615207  1
  O  O17  1  0.250000  0.269248  0.113401  1
  O  O18  1  0.250000  0.255856  0.766645  1
  O  O19  1  0.750000  0.275157  0.954337  1
  O  O20  1  0.750000  0.498011  0.152641  1
  O  O21  1  0.250000  0.498293  0.394213  1
  O  O22  1  0.750000  0.505835  0.607063  1
  O  O23  1  0.250000  0.503097  0.847955  1
  O  O24  1  0.250000  0.726431  0.044922  1
  O  O25  1  0.750000  0.745913  0.232160  1
  O  O26  1  0.750000  0.732386  0.886216  1
  O  O27  1  0.250000  0.767298  0.386308  1
  O  O28  1  0.250000  0.754029  0.732190  1
  O  O29  1  0.750000  0.772758  0.545104  1
  O  O30  1  0.750000  0.996205  0.349162  1
  O  O31  1  0.250000  0.992998  0.105225  1
