# generated using pymatgen
data_Na2AgSn3
_symmetry_space_group_name_H-M   'P 1'
_cell_length_a   9.96801400
_cell_length_b   9.96801320
_cell_length_c   7.47321000
_cell_angle_alpha   90.00000000
_cell_angle_beta   90.00000000
_cell_angle_gamma   119.99999603
_symmetry_Int_Tables_number   1
_chemical_formula_structural   Na2AgSn3
_chemical_formula_sum   'Na8 Ag4 Sn12'
_cell_volume   643.06530503
_cell_formula_units_Z   4
loop_
 _symmetry_equiv_pos_site_id
 _symmetry_equiv_pos_as_xyz
  1  'x, y, z'
loop_
 _atom_site_type_symbol
 _atom_site_label
 _atom_site_symmetry_multiplicity
 _atom_site_fract_x
 _atom_site_fract_y
 _atom_site_fract_z
 _atom_site_occupancy
  Na  Na0  1  0.531387  0.062773  0.250000  1
  Na  Na1  1  0.062773  0.531387  0.750000  1
  Na  Na2  1  0.468613  0.531387  0.750000  1
  Na  Na3  1  0.531387  0.468613  0.250000  1
  Na  Na4  1  0.468613  0.937227  0.750000  1
  Na  Na5  1  0.937227  0.468613  0.250000  1
  Na  Na6  1  0.000000  0.000000  0.750000  1
  Na  Na7  1  0.000000  0.000000  0.250000  1
  Ag  Ag8  1  0.333333  0.666667  0.449331  1
  Ag  Ag9  1  0.666667  0.333333  0.550669  1
  Ag  Ag10  1  0.666667  0.333333  0.949331  1
  Ag  Ag11  1  0.333333  0.666667  0.050669  1
  Sn  Sn12  1  0.170392  0.829608  0.051001  1
  Sn  Sn13  1  0.829608  0.659216  0.551001  1
  Sn  Sn14  1  0.340784  0.170392  0.551001  1
  Sn  Sn15  1  0.829608  0.170392  0.948999  1
  Sn  Sn16  1  0.829608  0.659216  0.948999  1
  Sn  Sn17  1  0.829608  0.170392  0.551001  1
  Sn  Sn18  1  0.340784  0.170392  0.948999  1
  Sn  Sn19  1  0.659216  0.829608  0.051001  1
  Sn  Sn20  1  0.659216  0.829608  0.448999  1
  Sn  Sn21  1  0.170392  0.340784  0.448999  1
  Sn  Sn22  1  0.170392  0.829608  0.448999  1
  Sn  Sn23  1  0.170392  0.340784  0.051001  1
