# generated using pymatgen
data_Pr2Dy2TmIn4
_symmetry_space_group_name_H-M   'P 1'
_cell_length_a   8.05840400
_cell_length_b   8.37255400
_cell_length_c   15.94885300
_cell_angle_alpha   90.00000000
_cell_angle_beta   90.00000000
_cell_angle_gamma   90.00000000
_symmetry_Int_Tables_number   1
_chemical_formula_structural   Pr2Dy2TmIn4
_chemical_formula_sum   'Pr8 Dy8 Tm4 In16'
_cell_volume   1076.05990374
_cell_formula_units_Z   4
loop_
 _symmetry_equiv_pos_site_id
 _symmetry_equiv_pos_as_xyz
  1  'x, y, z'
loop_
 _atom_site_type_symbol
 _atom_site_label
 _atom_site_symmetry_multiplicity
 _atom_site_fract_x
 _atom_site_fract_y
 _atom_site_fract_z
 _atom_site_occupancy
  Pr  Pr0  1  0.011788  0.181513  0.406312  1
  Pr  Pr1  1  0.511788  0.318487  0.406312  1
  Pr  Pr2  1  0.488212  0.681513  0.906312  1
  Pr  Pr3  1  0.488212  0.681513  0.593688  1
  Pr  Pr4  1  0.988212  0.818487  0.593688  1
  Pr  Pr5  1  0.988212  0.818487  0.906312  1
  Pr  Pr6  1  0.511788  0.318487  0.093688  1
  Pr  Pr7  1  0.011788  0.181513  0.093688  1
  Dy  Dy8  1  0.325170  0.167637  0.624522  1
  Dy  Dy9  1  0.674830  0.832363  0.375478  1
  Dy  Dy10  1  0.174830  0.667637  0.375478  1
  Dy  Dy11  1  0.825170  0.332363  0.875478  1
  Dy  Dy12  1  0.825170  0.332363  0.624522  1
  Dy  Dy13  1  0.325170  0.167637  0.875478  1
  Dy  Dy14  1  0.174830  0.667637  0.124522  1
  Dy  Dy15  1  0.674830  0.832363  0.124522  1
  Tm  Tm16  1  0.654181  0.999122  0.750000  1
  Tm  Tm17  1  0.845819  0.499122  0.250000  1
  Tm  Tm18  1  0.345819  0.000878  0.250000  1
  Tm  Tm19  1  0.154181  0.500878  0.750000  1
  In  In20  1  0.281049  0.863646  0.750000  1
  In  In21  1  0.478256  0.614132  0.250000  1
  In  In22  1  0.021744  0.114132  0.750000  1
  In  In23  1  0.521744  0.385868  0.750000  1
  In  In24  1  0.165135  0.466017  0.541933  1
  In  In25  1  0.978256  0.885868  0.250000  1
  In  In26  1  0.718951  0.136354  0.250000  1
  In  In27  1  0.834865  0.533983  0.041933  1
  In  In28  1  0.334865  0.966017  0.041933  1
  In  In29  1  0.165135  0.466017  0.958067  1
  In  In30  1  0.665135  0.033983  0.541933  1
  In  In31  1  0.334865  0.966017  0.458067  1
  In  In32  1  0.834865  0.533983  0.458067  1
  In  In33  1  0.781049  0.636354  0.750000  1
  In  In34  1  0.218951  0.363646  0.250000  1
  In  In35  1  0.665135  0.033983  0.958067  1
