# generated using pymatgen
data_SmAl2GaCu
_symmetry_space_group_name_H-M   'P 1'
_cell_length_a   4.14359643
_cell_length_b   4.14381112
_cell_length_c   6.12231303
_cell_angle_alpha   70.21945013
_cell_angle_beta   70.22051284
_cell_angle_gamma   90.00001704
_symmetry_Int_Tables_number   1
_chemical_formula_structural   SmAl2GaCu
_chemical_formula_sum   'Sm1 Al2 Ga1 Cu1'
_cell_volume   92.30137569
_cell_formula_units_Z   1
loop_
 _symmetry_equiv_pos_site_id
 _symmetry_equiv_pos_as_xyz
  1  'x, y, z'
loop_
 _atom_site_type_symbol
 _atom_site_label
 _atom_site_symmetry_multiplicity
 _atom_site_fract_x
 _atom_site_fract_y
 _atom_site_fract_z
 _atom_site_occupancy
  Sm  Sm0  1  0.993221  0.993221  0.013557  1
  Al  Al1  1  0.743217  0.243217  0.513565  1
  Al  Al2  1  0.243264  0.743264  0.513472  1
  Ga  Ga3  1  0.399147  0.399147  0.201707  1
  Cu  Cu4  1  0.621151  0.621151  0.757698  1
