# generated using pymatgen
data_Hf4In2CoCuPd2
_symmetry_space_group_name_H-M   'P 1'
_cell_length_a   7.42631391
_cell_length_b   7.42631311
_cell_length_c   3.32620800
_cell_angle_alpha   90.00000000
_cell_angle_beta   90.00000000
_cell_angle_gamma   89.09545488
_symmetry_Int_Tables_number   1
_chemical_formula_structural   Hf4In2CoCuPd2
_chemical_formula_sum   'Hf4 In2 Co1 Cu1 Pd2'
_cell_volume   183.41795182
_cell_formula_units_Z   1
loop_
 _symmetry_equiv_pos_site_id
 _symmetry_equiv_pos_as_xyz
  1  'x, y, z'
loop_
 _atom_site_type_symbol
 _atom_site_label
 _atom_site_symmetry_multiplicity
 _atom_site_fract_x
 _atom_site_fract_y
 _atom_site_fract_z
 _atom_site_occupancy
  Hf  Hf0  1  0.165877  0.334123  0.000000  1
  Hf  Hf1  1  0.812742  0.687258  0.000000  1
  Hf  Hf2  1  0.670575  0.143083  0.000000  1
  Hf  Hf3  1  0.356917  0.829425  0.000000  1
  In  In4  1  0.006045  0.000106  0.500000  1
  In  In5  1  0.499894  0.493955  0.500000  1
  Co  Co6  1  0.619961  0.880039  0.500000  1
  Cu  Cu7  1  0.373132  0.126868  0.500000  1
  Pd  Pd8  1  0.866985  0.372127  0.500000  1
  Pd  Pd9  1  0.127873  0.633015  0.500000  1
