# generated using pymatgen
data_HoTm11Tc3Ni
_symmetry_space_group_name_H-M   'P 1'
_cell_length_a   6.19114025
_cell_length_b   7.25220857
_cell_length_c   9.04019600
_cell_angle_alpha   90.00000000
_cell_angle_beta   90.00000000
_cell_angle_gamma   90.22167544
_symmetry_Int_Tables_number   1
_chemical_formula_structural   HoTm11Tc3Ni
_chemical_formula_sum   'Ho1 Tm11 Tc3 Ni1'
_cell_volume   405.89670373
_cell_formula_units_Z   1
loop_
 _symmetry_equiv_pos_site_id
 _symmetry_equiv_pos_as_xyz
  1  'x, y, z'
loop_
 _atom_site_type_symbol
 _atom_site_label
 _atom_site_symmetry_multiplicity
 _atom_site_fract_x
 _atom_site_fract_y
 _atom_site_fract_z
 _atom_site_occupancy
  Ho  Ho0  1  0.373569  0.956700  0.750000  1
  Tm  Tm1  1  0.329632  0.677322  0.066307  1
  Tm  Tm2  1  0.163034  0.177658  0.437603  1
  Tm  Tm3  1  0.665553  0.323354  0.561713  1
  Tm  Tm4  1  0.835568  0.823601  0.939390  1
  Tm  Tm5  1  0.665553  0.323354  0.938287  1
  Tm  Tm6  1  0.835568  0.823601  0.560610  1
  Tm  Tm7  1  0.329632  0.677322  0.433693  1
  Tm  Tm8  1  0.163034  0.177658  0.062397  1
  Tm  Tm9  1  0.873206  0.540478  0.250000  1
  Tm  Tm10  1  0.623841  0.039123  0.250000  1
  Tm  Tm11  1  0.138677  0.457888  0.750000  1
  Tc  Tc12  1  0.038371  0.886044  0.250000  1
  Tc  Tc13  1  0.461708  0.387935  0.250000  1
  Tc  Tc14  1  0.960004  0.114245  0.750000  1
  Ni  Ni15  1  0.543048  0.613717  0.750000  1
