# generated using pymatgen
data_Np2TlF12
_symmetry_space_group_name_H-M   'P 1'
_cell_length_a   5.76482781
_cell_length_b   6.32694644
_cell_length_c   9.65933700
_cell_angle_alpha   104.78100887
_cell_angle_beta   91.48640301
_cell_angle_gamma   115.43677293
_symmetry_Int_Tables_number   1
_chemical_formula_structural   Np2TlF12
_chemical_formula_sum   'Np2 Tl1 F12'
_cell_volume   303.90286854
_cell_formula_units_Z   1
loop_
 _symmetry_equiv_pos_site_id
 _symmetry_equiv_pos_as_xyz
  1  'x, y, z'
loop_
 _atom_site_type_symbol
 _atom_site_label
 _atom_site_symmetry_multiplicity
 _atom_site_fract_x
 _atom_site_fract_y
 _atom_site_fract_z
 _atom_site_occupancy
  Np  Np0  1  0.256400  0.023662  0.781140  1
  Np  Np1  1  0.743600  0.976338  0.218860  1
  Tl  Tl2  1  0.500000  0.500000  0.500000  1
  F  F3  1  0.812036  0.767279  0.330687  1
  F  F4  1  0.187964  0.232721  0.669313  1
  F  F5  1  0.356642  0.765392  0.204920  1
  F  F6  1  0.320878  0.801060  0.876817  1
  F  F7  1  0.679122  0.198940  0.123183  1
  F  F8  1  0.861756  0.799913  0.745544  1
  F  F9  1  0.138244  0.200087  0.254456  1
  F  F10  1  0.269116  0.805552  0.583681  1
  F  F11  1  0.730884  0.194448  0.416319  1
  F  F12  1  0.234473  0.239455  0.969023  1
  F  F13  1  0.765527  0.760545  0.030977  1
  F  F14  1  0.643358  0.234608  0.795080  1
