# generated using pymatgen
data_Tb7Y(Zr3Sn4)4
_symmetry_space_group_name_H-M   'P 1'
_cell_length_a   7.78327401
_cell_length_b   7.83510400
_cell_length_c   14.75746801
_cell_angle_alpha   89.99796628
_cell_angle_beta   90.00425895
_cell_angle_gamma   90.00200303
_symmetry_Int_Tables_number   1
_chemical_formula_structural   Tb7Y(Zr3Sn4)4
_chemical_formula_sum   'Tb7 Y1 Zr12 Sn16'
_cell_volume   899.95114590
_cell_formula_units_Z   1
loop_
 _symmetry_equiv_pos_site_id
 _symmetry_equiv_pos_as_xyz
  1  'x, y, z'
loop_
 _atom_site_type_symbol
 _atom_site_label
 _atom_site_symmetry_multiplicity
 _atom_site_fract_x
 _atom_site_fract_y
 _atom_site_fract_z
 _atom_site_occupancy
  Tb  Tb0  1  0.012956  0.177604  0.592879  1
  Tb  Tb1  1  0.487045  0.677606  0.407125  1
  Tb  Tb2  1  0.987042  0.822400  0.092871  1
  Tb  Tb3  1  0.487038  0.677614  0.092872  1
  Tb  Tb4  1  0.987047  0.822397  0.407125  1
  Tb  Tb5  1  0.512960  0.322387  0.592867  1
  Tb  Tb6  1  0.012953  0.177605  0.907125  1
  Y  Y7  1  0.512981  0.322392  0.907126  1
  Zr  Zr8  1  0.349704  0.837104  0.870860  1
  Zr  Zr9  1  0.849693  0.662866  0.629154  1
  Zr  Zr10  1  0.650290  0.162875  0.370848  1
  Zr  Zr11  1  0.150292  0.337113  0.129154  1
  Zr  Zr12  1  0.650294  0.162875  0.129155  1
  Zr  Zr13  1  0.150293  0.337120  0.370847  1
  Zr  Zr14  1  0.349706  0.837125  0.629157  1
  Zr  Zr15  1  0.849698  0.662875  0.870849  1
  Zr  Zr16  1  0.171728  0.509928  0.750001  1
  Zr  Zr17  1  0.671721  0.990070  0.749999  1
  Zr  Zr18  1  0.828280  0.490084  0.249998  1
  Zr  Zr19  1  0.328289  0.009925  0.249995  1
  Sn  Sn20  1  0.311367  0.040526  0.042386  1
  Sn  Sn21  1  0.811369  0.459462  0.457617  1
  Sn  Sn22  1  0.688629  0.959464  0.542387  1
  Sn  Sn23  1  0.188656  0.540534  0.957615  1
  Sn  Sn24  1  0.688609  0.959483  0.957611  1
  Sn  Sn25  1  0.188627  0.540542  0.542386  1
  Sn  Sn26  1  0.311372  0.040538  0.457614  1
  Sn  Sn27  1  0.811344  0.459462  0.042379  1
  Sn  Sn28  1  0.544812  0.615767  0.749995  1
  Sn  Sn29  1  0.044812  0.884243  0.750000  1
  Sn  Sn30  1  0.455186  0.384232  0.249996  1
  Sn  Sn31  1  0.955190  0.115764  0.249998  1
  Sn  Sn32  1  0.318064  0.154021  0.750013  1
  Sn  Sn33  1  0.818026  0.345986  0.749999  1
  Sn  Sn34  1  0.681959  0.846004  0.249999  1
  Sn  Sn35  1  0.181968  0.654008  0.249998  1
