# generated using pymatgen
data_Ho8Ti2ReSi16Mo9
_symmetry_space_group_name_H-M   'P 1'
_cell_length_a   6.88376130
_cell_length_b   6.88376256
_cell_length_c   12.75190804
_cell_angle_alpha   89.98730232
_cell_angle_beta   90.01269874
_cell_angle_gamma   89.37150583
_symmetry_Int_Tables_number   1
_chemical_formula_structural   Ho8Ti2ReSi16Mo9
_chemical_formula_sum   'Ho8 Ti2 Re1 Si16 Mo9'
_cell_volume   604.22780401
_cell_formula_units_Z   1
loop_
 _symmetry_equiv_pos_site_id
 _symmetry_equiv_pos_as_xyz
  1  'x, y, z'
loop_
 _atom_site_type_symbol
 _atom_site_label
 _atom_site_symmetry_multiplicity
 _atom_site_fract_x
 _atom_site_fract_y
 _atom_site_fract_z
 _atom_site_occupancy
  Ho  Ho0  1  0.341378  0.999726  0.468585  1
  Ho  Ho1  1  0.499494  0.837574  0.718419  1
  Ho  Ho2  1  0.501154  0.162007  0.218491  1
  Ho  Ho3  1  0.837574  0.499494  0.281581  1
  Ho  Ho4  1  0.162007  0.501154  0.781509  1
  Ho  Ho5  1  0.659214  0.999960  0.968631  1
  Ho  Ho6  1  0.999726  0.341378  0.531415  1
  Ho  Ho7  1  0.999960  0.659214  0.031369  1
  Ti  Ti8  1  0.170244  0.829208  0.250438  1
  Ti  Ti9  1  0.829208  0.170244  0.749562  1
  Re  Re10  1  0.667803  0.667803  0.500000  1
  Si  Si11  1  0.202387  0.129648  0.684623  1
  Si  Si12  1  0.373411  0.697773  0.934483  1
  Si  Si13  1  0.625821  0.305652  0.435354  1
  Si  Si14  1  0.697773  0.373411  0.065517  1
  Si  Si15  1  0.305652  0.625821  0.564646  1
  Si  Si16  1  0.797150  0.870477  0.184676  1
  Si  Si17  1  0.129648  0.202387  0.315377  1
  Si  Si18  1  0.870477  0.797150  0.815324  1
  Si  Si19  1  0.287907  0.962566  0.061973  1
  Si  Si20  1  0.542308  0.788879  0.317133  1
  Si  Si21  1  0.459012  0.210516  0.815801  1
  Si  Si22  1  0.788879  0.542308  0.682867  1
  Si  Si23  1  0.210516  0.459012  0.184199  1
  Si  Si24  1  0.712776  0.034399  0.561255  1
  Si  Si25  1  0.962566  0.287907  0.938027  1
  Si  Si26  1  0.034399  0.712776  0.438745  1
  Mo  Mo27  1  0.331767  0.331767  0.000000  1
  Mo  Mo28  1  0.154855  0.001449  0.872803  1
  Mo  Mo29  1  0.498020  0.665951  0.126041  1
  Mo  Mo30  1  0.501889  0.331946  0.625941  1
  Mo  Mo31  1  0.665951  0.498020  0.873959  1
  Mo  Mo32  1  0.331946  0.501889  0.374059  1
  Mo  Mo33  1  0.845367  0.000316  0.373012  1
  Mo  Mo34  1  0.001449  0.154855  0.127197  1
  Mo  Mo35  1  0.000316  0.845367  0.626988  1
