# generated using pymatgen
data_ErTm4In4CuPt
_symmetry_space_group_name_H-M   'P 1'
_cell_length_a   3.60184700
_cell_length_b   8.02394887
_cell_length_c   18.00537981
_cell_angle_alpha   90.01114471
_cell_angle_beta   90.00000000
_cell_angle_gamma   90.00000000
_symmetry_Int_Tables_number   1
_chemical_formula_structural   ErTm4In4CuPt
_chemical_formula_sum   'Er2 Tm8 In8 Cu2 Pt2'
_cell_volume   520.37412293
_cell_formula_units_Z   2
loop_
 _symmetry_equiv_pos_site_id
 _symmetry_equiv_pos_as_xyz
  1  'x, y, z'
loop_
 _atom_site_type_symbol
 _atom_site_label
 _atom_site_symmetry_multiplicity
 _atom_site_fract_x
 _atom_site_fract_y
 _atom_site_fract_z
 _atom_site_occupancy
  Er  Er0  1  0.000000  0.000000  0.000000  1
  Er  Er1  1  0.000000  0.500000  0.500000  1
  Tm  Tm2  1  0.000000  0.117119  0.415886  1
  Tm  Tm3  1  0.000000  0.882881  0.584114  1
  Tm  Tm4  1  0.000000  0.381853  0.915865  1
  Tm  Tm5  1  0.000000  0.618147  0.084135  1
  Tm  Tm6  1  0.000000  0.248370  0.219627  1
  Tm  Tm7  1  0.000000  0.751630  0.780373  1
  Tm  Tm8  1  0.000000  0.259666  0.719990  1
  Tm  Tm9  1  0.000000  0.740334  0.280010  1
  In  In10  1  0.500000  0.419384  0.352327  1
  In  In11  1  0.500000  0.580616  0.647673  1
  In  In12  1  0.500000  0.073707  0.848965  1
  In  In13  1  0.500000  0.926293  0.151035  1
  In  In14  1  0.500000  0.292994  0.066298  1
  In  In15  1  0.500000  0.707006  0.933702  1
  In  In16  1  0.500000  0.206843  0.568282  1
  In  In17  1  0.500000  0.793157  0.431718  1
  Cu  Cu18  1  0.500000  0.029263  0.302503  1
  Cu  Cu19  1  0.500000  0.970737  0.697497  1
  Pt  Pt20  1  0.500000  0.470587  0.802785  1
  Pt  Pt21  1  0.500000  0.529413  0.197215  1
