# generated using pymatgen
data_ErTmGa5Co3
_symmetry_space_group_name_H-M   'P 1'
_cell_length_a   8.30391873
_cell_length_b   8.30391810
_cell_length_c   5.47319201
_cell_angle_alpha   70.76545613
_cell_angle_beta   70.76546210
_cell_angle_gamma   97.02778714
_symmetry_Int_Tables_number   1
_chemical_formula_structural   ErTmGa5Co3
_chemical_formula_sum   'Er2 Tm2 Ga10 Co6'
_cell_volume   324.96620249
_cell_formula_units_Z   2
loop_
 _symmetry_equiv_pos_site_id
 _symmetry_equiv_pos_as_xyz
  1  'x, y, z'
loop_
 _atom_site_type_symbol
 _atom_site_label
 _atom_site_symmetry_multiplicity
 _atom_site_fract_x
 _atom_site_fract_y
 _atom_site_fract_z
 _atom_site_occupancy
  Er  Er0  1  0.575443  0.869395  0.277959  1
  Er  Er1  1  0.869395  0.575443  0.777959  1
  Tm  Tm2  1  0.424628  0.130604  0.722006  1
  Tm  Tm3  1  0.130604  0.424628  0.222006  1
  Ga  Ga4  1  0.264363  0.101838  0.316676  1
  Ga  Ga5  1  0.898319  0.735713  0.183208  1
  Ga  Ga6  1  0.735713  0.898319  0.683208  1
  Ga  Ga7  1  0.101838  0.264363  0.816676  1
  Ga  Ga8  1  0.202179  0.797883  0.750064  1
  Ga  Ga9  1  0.797883  0.202179  0.250064  1
  Ga  Ga10  1  0.499924  0.499888  0.750093  1
  Ga  Ga11  1  0.499888  0.499924  0.250093  1
  Ga  Ga12  1  0.798015  0.202048  0.749875  1
  Ga  Ga13  1  0.202048  0.798015  0.249875  1
  Co  Co14  1  0.000064  0.999990  0.749971  1
  Co  Co15  1  0.999990  0.000064  0.249971  1
  Co  Co16  1  0.733979  0.431677  0.417404  1
  Co  Co17  1  0.431677  0.733979  0.917404  1
  Co  Co18  1  0.265882  0.568168  0.582744  1
  Co  Co19  1  0.568168  0.265882  0.082744  1
