# generated using pymatgen
data_Tm2MgZn(Ni3B)2
_symmetry_space_group_name_H-M   'P 1'
_cell_length_a   5.04795300
_cell_length_b   5.04795279
_cell_length_c   14.04471500
_cell_angle_alpha   90.00000000
_cell_angle_beta   90.00000000
_cell_angle_gamma   120.00000795
_symmetry_Int_Tables_number   1
_chemical_formula_structural   Tm2MgZn(Ni3B)2
_chemical_formula_sum   'Tm4 Mg2 Zn2 Ni12 B4'
_cell_volume   309.93749216
_cell_formula_units_Z   2
loop_
 _symmetry_equiv_pos_site_id
 _symmetry_equiv_pos_as_xyz
  1  'x, y, z'
loop_
 _atom_site_type_symbol
 _atom_site_label
 _atom_site_symmetry_multiplicity
 _atom_site_fract_x
 _atom_site_fract_y
 _atom_site_fract_z
 _atom_site_occupancy
  Tm  Tm0  1  0.666667  0.333333  0.467691  1
  Tm  Tm1  1  0.333333  0.666667  0.967691  1
  Tm  Tm2  1  0.333333  0.666667  0.744694  1
  Tm  Tm3  1  0.666667  0.333333  0.244694  1
  Mg  Mg4  1  0.333333  0.666667  0.532799  1
  Mg  Mg5  1  0.666667  0.333333  0.032799  1
  Zn  Zn6  1  0.000000  0.000000  0.001501  1
  Zn  Zn7  1  0.000000  0.000000  0.501501  1
  Ni  Ni8  1  0.166863  0.333725  0.148036  1
  Ni  Ni9  1  0.833137  0.666275  0.648036  1
  Ni  Ni10  1  0.666275  0.833137  0.148036  1
  Ni  Ni11  1  0.166863  0.833137  0.148036  1
  Ni  Ni12  1  0.833137  0.166863  0.648036  1
  Ni  Ni13  1  0.333725  0.166863  0.648036  1
  Ni  Ni14  1  0.832899  0.665799  0.852376  1
  Ni  Ni15  1  0.832899  0.167101  0.852376  1
  Ni  Ni16  1  0.334201  0.167101  0.852376  1
  Ni  Ni17  1  0.665799  0.832899  0.352376  1
  Ni  Ni18  1  0.167101  0.832899  0.352376  1
  Ni  Ni19  1  0.167101  0.334201  0.352376  1
  B  B20  1  0.333333  0.666667  0.250698  1
  B  B21  1  0.666667  0.333333  0.750698  1
  B  B22  1  0.000000  0.000000  0.251383  1
  B  B23  1  0.000000  0.000000  0.751383  1
