# generated using pymatgen
data_Yb3(GdPb2)2
_symmetry_space_group_name_H-M   'P 1'
_cell_length_a   8.16406100
_cell_length_b   8.79307000
_cell_length_c   16.69125300
_cell_angle_alpha   90.00000000
_cell_angle_beta   90.00000000
_cell_angle_gamma   90.00000000
_symmetry_Int_Tables_number   1
_chemical_formula_structural   Yb3(GdPb2)2
_chemical_formula_sum   'Yb12 Gd8 Pb16'
_cell_volume   1198.21764733
_cell_formula_units_Z   4
loop_
 _symmetry_equiv_pos_site_id
 _symmetry_equiv_pos_as_xyz
  1  'x, y, z'
loop_
 _atom_site_type_symbol
 _atom_site_label
 _atom_site_symmetry_multiplicity
 _atom_site_fract_x
 _atom_site_fract_y
 _atom_site_fract_z
 _atom_site_occupancy
  Yb  Yb0  1  0.501469  0.689668  0.592545  1
  Yb  Yb1  1  0.001469  0.810332  0.907455  1
  Yb  Yb2  1  0.498531  0.310332  0.092545  1
  Yb  Yb3  1  0.998531  0.189668  0.407455  1
  Yb  Yb4  1  0.498531  0.310332  0.407455  1
  Yb  Yb5  1  0.998531  0.189668  0.092545  1
  Yb  Yb6  1  0.501469  0.689668  0.907455  1
  Yb  Yb7  1  0.001469  0.810332  0.592545  1
  Yb  Yb8  1  0.833333  0.509947  0.750000  1
  Yb  Yb9  1  0.333333  0.990053  0.750000  1
  Yb  Yb10  1  0.166667  0.490053  0.250000  1
  Yb  Yb11  1  0.666667  0.009947  0.250000  1
  Gd  Gd12  1  0.672093  0.162746  0.621603  1
  Gd  Gd13  1  0.172093  0.337254  0.878397  1
  Gd  Gd14  1  0.327907  0.837254  0.121603  1
  Gd  Gd15  1  0.827907  0.662746  0.378397  1
  Gd  Gd16  1  0.327907  0.837254  0.378397  1
  Gd  Gd17  1  0.827907  0.662746  0.121603  1
  Gd  Gd18  1  0.672093  0.162746  0.878397  1
  Gd  Gd19  1  0.172093  0.337254  0.621603  1
  Pb  Pb20  1  0.677108  0.964779  0.457864  1
  Pb  Pb21  1  0.177108  0.535221  0.042136  1
  Pb  Pb22  1  0.322892  0.035221  0.957864  1
  Pb  Pb23  1  0.822892  0.464779  0.542136  1
  Pb  Pb24  1  0.322892  0.035221  0.542136  1
  Pb  Pb25  1  0.822892  0.464779  0.957864  1
  Pb  Pb26  1  0.677108  0.964779  0.042136  1
  Pb  Pb27  1  0.177108  0.535221  0.457864  1
  Pb  Pb28  1  0.472206  0.373498  0.750000  1
  Pb  Pb29  1  0.972206  0.126502  0.750000  1
  Pb  Pb30  1  0.527794  0.626502  0.250000  1
  Pb  Pb31  1  0.027794  0.873498  0.250000  1
  Pb  Pb32  1  0.710178  0.866803  0.750000  1
  Pb  Pb33  1  0.210178  0.633197  0.750000  1
  Pb  Pb34  1  0.289822  0.133197  0.250000  1
  Pb  Pb35  1  0.789822  0.366803  0.250000  1
