# generated using pymatgen
data_TbNd2LuIn4
_symmetry_space_group_name_H-M   'P 1'
_cell_length_a   6.66214301
_cell_length_b   6.66214205
_cell_length_c   10.00724700
_cell_angle_alpha   90.00000000
_cell_angle_beta   90.00000000
_cell_angle_gamma   97.19442483
_symmetry_Int_Tables_number   1
_chemical_formula_structural   TbNd2LuIn4
_chemical_formula_sum   'Tb2 Nd4 Lu2 In8'
_cell_volume   440.66613859
_cell_formula_units_Z   2
loop_
 _symmetry_equiv_pos_site_id
 _symmetry_equiv_pos_as_xyz
  1  'x, y, z'
loop_
 _atom_site_type_symbol
 _atom_site_label
 _atom_site_symmetry_multiplicity
 _atom_site_fract_x
 _atom_site_fract_y
 _atom_site_fract_z
 _atom_site_occupancy
  Tb  Tb0  1  0.534846  0.534846  0.250000  1
  Tb  Tb1  1  0.465154  0.465154  0.750000  1
  Nd  Nd2  1  0.245126  0.754874  0.500000  1
  Nd  Nd3  1  0.245126  0.754874  0.000000  1
  Nd  Nd4  1  0.754874  0.245126  0.500000  1
  Nd  Nd5  1  0.754874  0.245126  0.000000  1
  Lu  Lu6  1  0.978177  0.978177  0.250000  1
  Lu  Lu7  1  0.021823  0.021823  0.750000  1
  In  In8  1  0.252128  0.252128  0.022748  1
  In  In9  1  0.747872  0.747872  0.977252  1
  In  In10  1  0.252128  0.252128  0.477252  1
  In  In11  1  0.747872  0.747872  0.522748  1
  In  In12  1  0.481550  0.024377  0.250000  1
  In  In13  1  0.975623  0.518450  0.750000  1
  In  In14  1  0.518450  0.975623  0.750000  1
  In  In15  1  0.024377  0.481550  0.250000  1
