# generated using pymatgen
data_LaAlCu3Pd
_symmetry_space_group_name_H-M   'P 1'
_cell_length_a   5.08530773
_cell_length_b   5.33257207
_cell_length_c   4.18776200
_cell_angle_alpha   90.00000000
_cell_angle_beta   90.00000000
_cell_angle_gamma   117.20288805
_symmetry_Int_Tables_number   1
_chemical_formula_structural   LaAlCu3Pd
_chemical_formula_sum   'La1 Al1 Cu3 Pd1'
_cell_volume   101.00196720
_cell_formula_units_Z   1
loop_
 _symmetry_equiv_pos_site_id
 _symmetry_equiv_pos_as_xyz
  1  'x, y, z'
loop_
 _atom_site_type_symbol
 _atom_site_label
 _atom_site_symmetry_multiplicity
 _atom_site_fract_x
 _atom_site_fract_y
 _atom_site_fract_z
 _atom_site_occupancy
  La  La0  1  0.500000  0.500000  0.000000  1
  Al  Al1  1  0.000000  0.000000  0.500000  1
  Cu  Cu2  1  0.180470  0.863686  0.000000  1
  Cu  Cu3  1  0.819530  0.136314  0.000000  1
  Cu  Cu4  1  0.500000  0.000000  0.500000  1
  Pd  Pd5  1  0.000000  0.500000  0.500000  1
