# generated using pymatgen
data_Y3Tm3Th2(CdIr)2
_symmetry_space_group_name_H-M   'P 1'
_cell_length_a   9.70770822
_cell_length_b   9.70770771
_cell_length_c   9.70770800
_cell_angle_alpha   59.99999900
_cell_angle_beta   60.00000077
_cell_angle_gamma   59.99999874
_symmetry_Int_Tables_number   1
_chemical_formula_structural   Y3Tm3Th2(CdIr)2
_chemical_formula_sum   'Y6 Tm6 Th4 Cd4 Ir4'
_cell_volume   646.89695675
_cell_formula_units_Z   2
loop_
 _symmetry_equiv_pos_site_id
 _symmetry_equiv_pos_as_xyz
  1  'x, y, z'
loop_
 _atom_site_type_symbol
 _atom_site_label
 _atom_site_symmetry_multiplicity
 _atom_site_fract_x
 _atom_site_fract_y
 _atom_site_fract_z
 _atom_site_occupancy
  Y  Y0  1  0.936145  0.563855  0.563855  1
  Y  Y1  1  0.563855  0.936145  0.936145  1
  Y  Y2  1  0.563855  0.936145  0.563855  1
  Y  Y3  1  0.936145  0.563855  0.936145  1
  Y  Y4  1  0.563855  0.563855  0.936145  1
  Y  Y5  1  0.936145  0.936145  0.563855  1
  Tm  Tm6  1  0.813143  0.186857  0.186857  1
  Tm  Tm7  1  0.186857  0.813143  0.813143  1
  Tm  Tm8  1  0.186857  0.813143  0.186857  1
  Tm  Tm9  1  0.813143  0.186857  0.813143  1
  Tm  Tm10  1  0.186857  0.186857  0.813143  1
  Tm  Tm11  1  0.813143  0.813143  0.186857  1
  Th  Th12  1  0.350043  0.350043  0.350043  1
  Th  Th13  1  0.350043  0.350043  0.949872  1
  Th  Th14  1  0.350043  0.949872  0.350043  1
  Th  Th15  1  0.949872  0.350043  0.350043  1
  Cd  Cd16  1  0.582783  0.582783  0.582783  1
  Cd  Cd17  1  0.582783  0.582783  0.251652  1
  Cd  Cd18  1  0.582783  0.251652  0.582783  1
  Cd  Cd19  1  0.251652  0.582783  0.582783  1
  Ir  Ir20  1  0.142577  0.142577  0.142577  1
  Ir  Ir21  1  0.142577  0.142577  0.572267  1
  Ir  Ir22  1  0.142577  0.572267  0.142577  1
  Ir  Ir23  1  0.572267  0.142577  0.142577  1
