# generated using pymatgen
data_Pr2P24Ru7Rh
_symmetry_space_group_name_H-M   'P 1'
_cell_length_a   8.11990754
_cell_length_b   8.11990754
_cell_length_c   8.11990754
_cell_angle_alpha   89.95014409
_cell_angle_beta   89.95014409
_cell_angle_gamma   89.95014409
_symmetry_Int_Tables_number   1
_chemical_formula_structural   Pr2P24Ru7Rh
_chemical_formula_sum   'Pr2 P24 Ru7 Rh1'
_cell_volume   535.36843091
_cell_formula_units_Z   1
loop_
 _symmetry_equiv_pos_site_id
 _symmetry_equiv_pos_as_xyz
  1  'x, y, z'
loop_
 _atom_site_type_symbol
 _atom_site_label
 _atom_site_symmetry_multiplicity
 _atom_site_fract_x
 _atom_site_fract_y
 _atom_site_fract_z
 _atom_site_occupancy
  Pr  Pr0  1  0.997380  0.997380  0.997380  1
  Pr  Pr1  1  0.502619  0.502619  0.502619  1
  P  P2  1  0.357770  0.142378  0.997716  1
  P  P3  1  0.642751  0.143943  0.000059  1
  P  P4  1  0.356728  0.856550  0.999758  1
  P  P5  1  0.642710  0.856294  0.999939  1
  P  P6  1  0.357606  0.502278  0.142230  1
  P  P7  1  0.643452  0.500249  0.143276  1
  P  P8  1  0.997716  0.357770  0.142378  1
  P  P9  1  0.000059  0.642751  0.143943  1
  P  P10  1  0.502278  0.142230  0.357606  1
  P  P11  1  0.499943  0.857249  0.356058  1
  P  P12  1  0.142378  0.997716  0.357770  1
  P  P13  1  0.856550  0.999758  0.356728  1
  P  P14  1  0.142230  0.357606  0.502278  1
  P  P15  1  0.857249  0.356058  0.499943  1
  P  P16  1  0.143276  0.643452  0.500249  1
  P  P17  1  0.857294  0.643706  0.500069  1
  P  P18  1  0.143943  0.000059  0.642751  1
  P  P19  1  0.856294  0.999939  0.642710  1
  P  P20  1  0.500249  0.143276  0.643452  1
  P  P21  1  0.500069  0.857294  0.643706  1
  P  P22  1  0.999758  0.356728  0.856550  1
  P  P23  1  0.999939  0.642710  0.856294  1
  P  P24  1  0.356058  0.499943  0.857249  1
  P  P25  1  0.643706  0.500069  0.857294  1
  Ru  Ru26  1  0.749998  0.250001  0.249994  1
  Ru  Ru27  1  0.249994  0.749998  0.250001  1
  Ru  Ru28  1  0.750004  0.750002  0.250002  1
  Ru  Ru29  1  0.250001  0.249994  0.749998  1
  Ru  Ru30  1  0.750002  0.250002  0.750004  1
  Ru  Ru31  1  0.250002  0.750004  0.750002  1
  Ru  Ru32  1  0.750002  0.750002  0.750002  1
  Rh  Rh33  1  0.249989  0.249989  0.249989  1
