# generated using pymatgen
data_TbEu2Ga8Ag3
_symmetry_space_group_name_H-M   'P 1'
_cell_length_a   4.43235729
_cell_length_b   8.51811822
_cell_length_c   8.51811792
_cell_angle_alpha   69.54569545
_cell_angle_beta   74.91970699
_cell_angle_gamma   74.91970587
_symmetry_Int_Tables_number   1
_chemical_formula_structural   TbEu2Ga8Ag3
_chemical_formula_sum   'Tb1 Eu2 Ga8 Ag3'
_cell_volume   285.81354067
_cell_formula_units_Z   1
loop_
 _symmetry_equiv_pos_site_id
 _symmetry_equiv_pos_as_xyz
  1  'x, y, z'
loop_
 _atom_site_type_symbol
 _atom_site_label
 _atom_site_symmetry_multiplicity
 _atom_site_fract_x
 _atom_site_fract_y
 _atom_site_fract_z
 _atom_site_occupancy
  Tb  Tb0  1  0.799300  0.200700  0.200700  1
  Eu  Eu1  1  0.500829  0.499171  0.499171  1
  Eu  Eu2  1  0.199980  0.800020  0.800020  1
  Ga  Ga3  1  0.356336  0.359916  0.927411  1
  Ga  Ga4  1  0.645294  0.633465  0.075948  1
  Ga  Ga5  1  0.356336  0.927411  0.359916  1
  Ga  Ga6  1  0.645294  0.075948  0.633465  1
  Ga  Ga7  1  0.161369  0.469683  0.207580  1
  Ga  Ga8  1  0.838760  0.526897  0.795583  1
  Ga  Ga9  1  0.161369  0.207580  0.469683  1
  Ga  Ga10  1  0.838760  0.795583  0.526897  1
  Ag  Ag11  1  0.497623  0.002377  0.002377  1
  Ag  Ag12  1  0.999375  0.804414  0.196836  1
  Ag  Ag13  1  0.999375  0.196836  0.804414  1
