# generated using pymatgen
data_Mn3Ga2CuPt6
_symmetry_space_group_name_H-M   'P 1'
_cell_length_a   4.03834500
_cell_length_b   7.23059000
_cell_length_c   12.06568001
_cell_angle_alpha   90.00000000
_cell_angle_beta   90.00426034
_cell_angle_gamma   90.00000000
_symmetry_Int_Tables_number   1
_chemical_formula_structural   Mn3Ga2CuPt6
_chemical_formula_sum   'Mn6 Ga4 Cu2 Pt12'
_cell_volume   352.31323404
_cell_formula_units_Z   2
loop_
 _symmetry_equiv_pos_site_id
 _symmetry_equiv_pos_as_xyz
  1  'x, y, z'
loop_
 _atom_site_type_symbol
 _atom_site_label
 _atom_site_symmetry_multiplicity
 _atom_site_fract_x
 _atom_site_fract_y
 _atom_site_fract_z
 _atom_site_occupancy
  Mn  Mn0  1  0.000006  0.000000  0.007162  1
  Mn  Mn1  1  0.499989  0.499999  0.159438  1
  Mn  Mn2  1  0.000026  0.000000  0.325309  1
  Mn  Mn3  1  0.500013  0.499999  0.499399  1
  Mn  Mn4  1  0.999975  0.000000  0.667334  1
  Mn  Mn5  1  0.500031  0.499999  0.841374  1
  Ga  Ga6  1  0.000012  0.499999  0.330734  1
  Ga  Ga7  1  0.499992  0.000000  0.496779  1
  Ga  Ga8  1  0.999986  0.499999  0.669798  1
  Ga  Ga9  1  0.499981  0.000000  0.835904  1
  Cu  Cu10  1  0.999982  0.499999  0.999248  1
  Cu  Cu11  1  0.500009  0.000000  0.167502  1
  Pt  Pt12  1  0.500008  0.245284  0.000431  1
  Pt  Pt13  1  0.500008  0.754717  0.000431  1
  Pt  Pt14  1  0.000001  0.254668  0.166230  1
  Pt  Pt15  1  0.000001  0.745332  0.166230  1
  Pt  Pt16  1  0.499995  0.252738  0.332712  1
  Pt  Pt17  1  0.499995  0.747263  0.332712  1
  Pt  Pt18  1  0.000004  0.248614  0.499891  1
  Pt  Pt19  1  0.000004  0.751385  0.499891  1
  Pt  Pt20  1  0.499982  0.251360  0.666812  1
  Pt  Pt21  1  0.499982  0.748641  0.666812  1
  Pt  Pt22  1  0.000010  0.247460  0.833930  1
  Pt  Pt23  1  0.000010  0.752540  0.833930  1
