# generated using pymatgen
data_La8NdDy11Sn16
_symmetry_space_group_name_H-M   'P 1'
_cell_length_a   8.16511966
_cell_length_b   8.35092125
_cell_length_c   15.76466000
_cell_angle_alpha   89.86159951
_cell_angle_beta   90.02305130
_cell_angle_gamma   89.92649875
_symmetry_Int_Tables_number   1
_chemical_formula_structural   La8NdDy11Sn16
_chemical_formula_sum   'La8 Nd1 Dy11 Sn16'
_cell_volume   1074.92927396
_cell_formula_units_Z   1
loop_
 _symmetry_equiv_pos_site_id
 _symmetry_equiv_pos_as_xyz
  1  'x, y, z'
loop_
 _atom_site_type_symbol
 _atom_site_label
 _atom_site_symmetry_multiplicity
 _atom_site_fract_x
 _atom_site_fract_y
 _atom_site_fract_z
 _atom_site_occupancy
  La  La0  1  0.513748  0.321579  0.903113  1
  La  La1  1  0.013291  0.179090  0.596304  1
  La  La2  1  0.486146  0.678106  0.402666  1
  La  La3  1  0.986632  0.822212  0.097534  1
  La  La4  1  0.486175  0.678182  0.098253  1
  La  La5  1  0.986135  0.821444  0.402870  1
  La  La6  1  0.514025  0.321489  0.595564  1
  La  La7  1  0.013756  0.179430  0.903142  1
  Nd  Nd8  1  0.361262  0.834312  0.879471  1
  Dy  Dy9  1  0.859870  0.663811  0.621633  1
  Dy  Dy10  1  0.640954  0.164203  0.376894  1
  Dy  Dy11  1  0.139799  0.336137  0.125115  1
  Dy  Dy12  1  0.640168  0.163662  0.122992  1
  Dy  Dy13  1  0.140551  0.336073  0.376936  1
  Dy  Dy14  1  0.359188  0.835789  0.622445  1
  Dy  Dy15  1  0.858600  0.664821  0.876337  1
  Dy  Dy16  1  0.192541  0.502146  0.749019  1
  Dy  Dy17  1  0.693495  0.997614  0.749652  1
  Dy  Dy18  1  0.806235  0.497449  0.249985  1
  Dy  Dy19  1  0.306444  0.002715  0.250769  1
  Sn  Sn20  1  0.304281  0.043771  0.045593  1
  Sn  Sn21  1  0.805509  0.458940  0.456855  1
  Sn  Sn22  1  0.693679  0.958994  0.541997  1
  Sn  Sn23  1  0.189457  0.536216  0.958859  1
  Sn  Sn24  1  0.701690  0.961082  0.958363  1
  Sn  Sn25  1  0.194978  0.541161  0.541878  1
  Sn  Sn26  1  0.306015  0.040911  0.457553  1
  Sn  Sn27  1  0.806230  0.459050  0.042159  1
  Sn  Sn28  1  0.560006  0.621814  0.748569  1
  Sn  Sn29  1  0.057131  0.875519  0.747851  1
  Sn  Sn30  1  0.441993  0.375290  0.250305  1
  Sn  Sn31  1  0.941069  0.124460  0.250686  1
  Sn  Sn32  1  0.321230  0.142257  0.748583  1
  Sn  Sn33  1  0.821597  0.359607  0.749354  1
  Sn  Sn34  1  0.677981  0.859841  0.250248  1
  Sn  Sn35  1  0.178138  0.640822  0.250453  1
