# generated using pymatgen
data_Er9Tm(InBi2)2
_symmetry_space_group_name_H-M   'P 1'
_cell_length_a   6.47370509
_cell_length_b   9.03950121
_cell_length_c   9.00904699
_cell_angle_alpha   120.11285666
_cell_angle_beta   89.98242215
_cell_angle_gamma   90.00347776
_symmetry_Int_Tables_number   1
_chemical_formula_structural   Er9Tm(InBi2)2
_chemical_formula_sum   'Er9 Tm1 In2 Bi4'
_cell_volume   456.04933531
_cell_formula_units_Z   1
loop_
 _symmetry_equiv_pos_site_id
 _symmetry_equiv_pos_as_xyz
  1  'x, y, z'
loop_
 _atom_site_type_symbol
 _atom_site_label
 _atom_site_symmetry_multiplicity
 _atom_site_fract_x
 _atom_site_fract_y
 _atom_site_fract_z
 _atom_site_occupancy
  Er  Er0  1  0.496657  0.331425  0.659981  1
  Er  Er1  1  0.496654  0.671453  0.340124  1
  Er  Er2  1  0.003267  0.671431  0.340041  1
  Er  Er3  1  0.749993  0.235861  0.000063  1
  Er  Er4  1  0.750024  0.765425  0.763548  1
  Er  Er5  1  0.750044  0.001834  0.236477  1
  Er  Er6  1  0.249945  0.767489  0.000002  1
  Er  Er7  1  0.249948  0.233408  0.242336  1
  Er  Er8  1  0.249956  0.991113  0.757728  1
  Tm  Tm9  1  0.003344  0.331466  0.659772  1
  In  In10  1  0.249851  0.604436  0.606351  1
  In  In11  1  0.249984  0.998259  0.393746  1
  Bi  Bi12  1  0.750119  0.606431  0.999783  1
  Bi  Bi13  1  0.750167  0.396306  0.393065  1
  Bi  Bi14  1  0.750273  0.003776  0.607180  1
  Bi  Bi15  1  0.249772  0.389888  0.999803  1
