# generated using pymatgen
data_U4Si4Tc7Sb2
_symmetry_space_group_name_H-M   'P 1'
_cell_length_a   7.28419282
_cell_length_b   7.25757971
_cell_length_c   7.25757993
_cell_angle_alpha   109.56397158
_cell_angle_beta   109.35105632
_cell_angle_gamma   109.35106239
_symmetry_Int_Tables_number   1
_chemical_formula_structural   U4Si4Tc7Sb2
_chemical_formula_sum   'U4 Si4 Tc7 Sb2'
_cell_volume   295.88988626
_cell_formula_units_Z   1
loop_
 _symmetry_equiv_pos_site_id
 _symmetry_equiv_pos_as_xyz
  1  'x, y, z'
loop_
 _atom_site_type_symbol
 _atom_site_label
 _atom_site_symmetry_multiplicity
 _atom_site_fract_x
 _atom_site_fract_y
 _atom_site_fract_z
 _atom_site_occupancy
  U  U0  1  0.473260  0.465425  0.465425  1
  U  U1  1  0.019382  0.509691  0.009691  1
  U  U2  1  0.473260  0.007835  0.007835  1
  U  U3  1  0.019382  0.009691  0.509691  1
  Si  Si4  1  0.319415  0.324145  0.995269  1
  Si  Si5  1  0.991814  0.682683  0.682683  1
  Si  Si6  1  0.991814  0.309131  0.309131  1
  Si  Si7  1  0.319415  0.995269  0.324145  1
  Tc  Tc8  1  0.490065  0.745033  0.245033  1
  Tc  Tc9  1  0.744136  0.249456  0.494680  1
  Tc  Tc10  1  0.235597  0.740717  0.494879  1
  Tc  Tc11  1  0.235597  0.494879  0.740717  1
  Tc  Tc12  1  0.053535  0.026767  0.026767  1
  Tc  Tc13  1  0.490065  0.245033  0.745033  1
  Tc  Tc14  1  0.744136  0.494680  0.249456  1
  Sb  Sb15  1  0.699564  0.994982  0.704581  1
  Sb  Sb16  1  0.699564  0.704581  0.994982  1
