# generated using pymatgen
data_La3Yb12Pr5Si16
_symmetry_space_group_name_H-M   'P 1'
_cell_length_a   7.53207882
_cell_length_b   7.97913554
_cell_length_c   15.23383922
_cell_angle_alpha   89.97301593
_cell_angle_beta   89.96810186
_cell_angle_gamma   89.99646806
_symmetry_Int_Tables_number   1
_chemical_formula_structural   La3Yb12Pr5Si16
_chemical_formula_sum   'La3 Yb12 Pr5 Si16'
_cell_volume   915.54553704
_cell_formula_units_Z   1
loop_
 _symmetry_equiv_pos_site_id
 _symmetry_equiv_pos_as_xyz
  1  'x, y, z'
loop_
 _atom_site_type_symbol
 _atom_site_label
 _atom_site_symmetry_multiplicity
 _atom_site_fract_x
 _atom_site_fract_y
 _atom_site_fract_z
 _atom_site_occupancy
  La  La0  1  0.020721  0.182962  0.402869  1
  La  La1  1  0.520617  0.317120  0.402841  1
  La  La2  1  0.478044  0.683564  0.902806  1
  Yb  Yb3  1  0.324188  0.182619  0.623017  1
  Yb  Yb4  1  0.676595  0.816769  0.376918  1
  Yb  Yb5  1  0.648306  0.003089  0.750210  1
  Yb  Yb6  1  0.176669  0.683245  0.376893  1
  Yb  Yb7  1  0.823858  0.316604  0.876909  1
  Yb  Yb8  1  0.824289  0.316955  0.622757  1
  Yb  Yb9  1  0.852141  0.502956  0.249402  1
  Yb  Yb10  1  0.351950  0.997191  0.249447  1
  Yb  Yb11  1  0.323103  0.182955  0.877248  1
  Yb  Yb12  1  0.175768  0.683318  0.122074  1
  Yb  Yb13  1  0.676404  0.817122  0.122187  1
  Yb  Yb14  1  0.148290  0.497045  0.749914  1
  Pr  Pr15  1  0.475872  0.687171  0.599836  1
  Pr  Pr16  1  0.975574  0.812704  0.599811  1
  Pr  Pr17  1  0.976802  0.814741  0.901749  1
  Pr  Pr18  1  0.524599  0.313477  0.099265  1
  Pr  Pr19  1  0.023925  0.186230  0.098416  1
  Si  Si20  1  0.260092  0.872874  0.750512  1
  Si  Si21  1  0.465981  0.589262  0.248445  1
  Si  Si22  1  0.033977  0.088522  0.749529  1
  Si  Si23  1  0.534485  0.411182  0.748917  1
  Si  Si24  1  0.144595  0.473122  0.537388  1
  Si  Si25  1  0.966083  0.910933  0.248535  1
  Si  Si26  1  0.739430  0.126801  0.249386  1
  Si  Si27  1  0.855588  0.527373  0.036777  1
  Si  Si28  1  0.356466  0.973332  0.037205  1
  Si  Si29  1  0.141953  0.472474  0.962574  1
  Si  Si30  1  0.644413  0.026541  0.537436  1
  Si  Si31  1  0.357590  0.970886  0.463442  1
  Si  Si32  1  0.857766  0.529011  0.463287  1
  Si  Si33  1  0.761124  0.627132  0.749806  1
  Si  Si34  1  0.239333  0.373220  0.249508  1
  Si  Si35  1  0.643414  0.029500  0.962686  1
