# generated using pymatgen
data_Li2PrDySnBi
_symmetry_space_group_name_H-M   'P 1'
_cell_length_a   4.81811200
_cell_length_b   4.81811166
_cell_length_c   7.42245200
_cell_angle_alpha   90.00000000
_cell_angle_beta   90.00000000
_cell_angle_gamma   120.00000232
_symmetry_Int_Tables_number   1
_chemical_formula_structural   Li2PrDySnBi
_chemical_formula_sum   'Li2 Pr1 Dy1 Sn1 Bi1'
_cell_volume   149.22162713
_cell_formula_units_Z   1
loop_
 _symmetry_equiv_pos_site_id
 _symmetry_equiv_pos_as_xyz
  1  'x, y, z'
loop_
 _atom_site_type_symbol
 _atom_site_label
 _atom_site_symmetry_multiplicity
 _atom_site_fract_x
 _atom_site_fract_y
 _atom_site_fract_z
 _atom_site_occupancy
  Li  Li0  1  0.666667  0.333333  0.721049  1
  Li  Li1  1  0.333333  0.666667  0.277616  1
  Pr  Pr2  1  0.000000  0.000000  0.007530  1
  Dy  Dy3  1  0.000000  0.000000  0.492000  1
  Sn  Sn4  1  0.666667  0.333333  0.262902  1
  Bi  Bi5  1  0.333333  0.666667  0.738903  1
