# generated using pymatgen
data_Ce8Zn2CuSi12Rh
_symmetry_space_group_name_H-M   'P 1'
_cell_length_a   8.14890600
_cell_length_b   8.14890584
_cell_length_c   8.36723400
_cell_angle_alpha   90.00000000
_cell_angle_beta   90.00000000
_cell_angle_gamma   119.99999254
_symmetry_Int_Tables_number   1
_chemical_formula_structural   Ce8Zn2CuSi12Rh
_chemical_formula_sum   'Ce8 Zn2 Cu1 Si12 Rh1'
_cell_volume   481.18400962
_cell_formula_units_Z   1
loop_
 _symmetry_equiv_pos_site_id
 _symmetry_equiv_pos_as_xyz
  1  'x, y, z'
loop_
 _atom_site_type_symbol
 _atom_site_label
 _atom_site_symmetry_multiplicity
 _atom_site_fract_x
 _atom_site_fract_y
 _atom_site_fract_z
 _atom_site_occupancy
  Ce  Ce0  1  0.000000  0.000000  0.250492  1
  Ce  Ce1  1  0.000000  0.000000  0.749534  1
  Ce  Ce2  1  0.498693  0.501307  0.246928  1
  Ce  Ce3  1  0.498693  0.997385  0.246928  1
  Ce  Ce4  1  0.002615  0.501307  0.246928  1
  Ce  Ce5  1  0.497950  0.502050  0.753134  1
  Ce  Ce6  1  0.497950  0.995900  0.753134  1
  Ce  Ce7  1  0.004100  0.502050  0.753134  1
  Zn  Zn8  1  0.333333  0.666667  0.499081  1
  Zn  Zn9  1  0.666667  0.333333  0.502815  1
  Cu  Cu10  1  0.666667  0.333333  0.997741  1
  Si  Si11  1  0.165649  0.834351  0.499858  1
  Si  Si12  1  0.165649  0.331300  0.499858  1
  Si  Si13  1  0.668700  0.834351  0.499858  1
  Si  Si14  1  0.834058  0.165942  0.500244  1
  Si  Si15  1  0.834058  0.668114  0.500244  1
  Si  Si16  1  0.331886  0.165942  0.500244  1
  Si  Si17  1  0.832252  0.167748  0.999459  1
  Si  Si18  1  0.832252  0.664502  0.999459  1
  Si  Si19  1  0.335498  0.167748  0.999459  1
  Si  Si20  1  0.165393  0.834607  0.000403  1
  Si  Si21  1  0.165393  0.330787  0.000403  1
  Si  Si22  1  0.669213  0.834607  0.000403  1
  Rh  Rh23  1  0.333333  0.666667  0.000262  1
