# generated using pymatgen
data_Co2Ag2(MoO4)3
_symmetry_space_group_name_H-M   'P 1'
_cell_length_a   7.08669001
_cell_length_b   8.89517814
_cell_length_c   10.46474697
_cell_angle_alpha   107.34829252
_cell_angle_beta   105.19678041
_cell_angle_gamma   103.72597355
_symmetry_Int_Tables_number   1
_chemical_formula_structural   Co2Ag2(MoO4)3
_chemical_formula_sum   'Co4 Ag4 Mo6 O24'
_cell_volume   570.90255780
_cell_formula_units_Z   2
loop_
 _symmetry_equiv_pos_site_id
 _symmetry_equiv_pos_as_xyz
  1  'x, y, z'
loop_
 _atom_site_type_symbol
 _atom_site_label
 _atom_site_symmetry_multiplicity
 _atom_site_fract_x
 _atom_site_fract_y
 _atom_site_fract_z
 _atom_site_occupancy
  Co  Co0  1  0.874182  0.462298  0.103933  1
  Co  Co1  1  0.122848  0.539516  0.898140  1
  Co  Co2  1  0.463505  0.302746  0.482731  1
  Co  Co3  1  0.538608  0.698597  0.519871  1
  Ag  Ag4  1  0.824439  0.834983  0.338008  1
  Ag  Ag5  1  0.178038  0.166250  0.666879  1
  Ag  Ag6  1  0.487783  0.998974  0.994013  1
  Ag  Ag7  1  0.989225  0.023352  0.054130  1
  Mo  Mo8  1  0.286828  0.837106  0.238204  1
  Mo  Mo9  1  0.713469  0.163148  0.761264  1
  Mo  Mo10  1  0.909139  0.249678  0.363605  1
  Mo  Mo11  1  0.095433  0.750769  0.636992  1
  Mo  Mo12  1  0.619319  0.593735  0.834569  1
  Mo  Mo13  1  0.377773  0.406130  0.166743  1
  O  O14  1  0.333841  0.055389  0.322932  1
  O  O15  1  0.662203  0.946033  0.672696  1
  O  O16  1  0.030569  0.723295  0.226449  1
  O  O17  1  0.968304  0.278022  0.771356  1
  O  O18  1  0.172791  0.477297  0.082475  1
  O  O19  1  0.825715  0.524206  0.920334  1
  O  O20  1  0.745342  0.308319  0.458693  1
  O  O21  1  0.252823  0.686232  0.537975  1
  O  O22  1  0.612471  0.493531  0.141995  1
  O  O23  1  0.383279  0.501873  0.855291  1
  O  O24  1  0.287267  0.791421  0.056440  1
  O  O25  1  0.719628  0.206351  0.944737  1
  O  O26  1  0.942947  0.367264  0.254220  1
  O  O27  1  0.063093  0.633503  0.746645  1
  O  O28  1  0.294670  0.183414  0.077487  1
  O  O29  1  0.694461  0.814530  0.926132  1
  O  O30  1  0.841298  0.729628  0.517786  1
  O  O31  1  0.161056  0.272113  0.484741  1
  O  O32  1  0.783173  0.032669  0.240038  1
  O  O33  1  0.232510  0.966689  0.756482  1
  O  O34  1  0.478935  0.777499  0.345456  1
  O  O35  1  0.522129  0.226713  0.656816  1
  O  O36  1  0.426216  0.449181  0.355454  1
  O  O37  1  0.576193  0.552947  0.646188  1
