# generated using pymatgen
data_LiZr4Os2Ru
_symmetry_space_group_name_H-M   'P 1'
_cell_length_a   6.57288100
_cell_length_b   4.65080500
_cell_length_c   9.35203800
_cell_angle_alpha   90.00000000
_cell_angle_beta   90.00000000
_cell_angle_gamma   90.00000000
_symmetry_Int_Tables_number   1
_chemical_formula_structural   LiZr4Os2Ru
_chemical_formula_sum   'Li2 Zr8 Os4 Ru2'
_cell_volume   285.88420611
_cell_formula_units_Z   2
loop_
 _symmetry_equiv_pos_site_id
 _symmetry_equiv_pos_as_xyz
  1  'x, y, z'
loop_
 _atom_site_type_symbol
 _atom_site_label
 _atom_site_symmetry_multiplicity
 _atom_site_fract_x
 _atom_site_fract_y
 _atom_site_fract_z
 _atom_site_occupancy
  Li  Li0  1  0.249969  0.250000  0.125178  1
  Li  Li1  1  0.749969  0.750001  0.374822  1
  Zr  Zr2  1  0.998238  0.750001  0.123384  1
  Zr  Zr3  1  0.501649  0.750001  0.123404  1
  Zr  Zr4  1  0.001648  0.250000  0.376596  1
  Zr  Zr5  1  0.498238  0.250000  0.376616  1
  Zr  Zr6  1  0.499525  0.750001  0.626572  1
  Zr  Zr7  1  0.000580  0.750001  0.626556  1
  Zr  Zr8  1  0.500580  0.250000  0.873444  1
  Zr  Zr9  1  0.999525  0.250000  0.873428  1
  Os  Os10  1  0.749961  0.250000  0.127626  1
  Os  Os11  1  0.249961  0.750001  0.372375  1
  Os  Os12  1  0.750030  0.250000  0.621697  1
  Os  Os13  1  0.250030  0.750001  0.878303  1
  Ru  Ru14  1  0.250049  0.250000  0.626851  1
  Ru  Ru15  1  0.750049  0.750001  0.873149  1
