# generated using pymatgen
data_Ta12MnAl8Fe(RhC2)2
_symmetry_space_group_name_H-M   'P 1'
_cell_length_a   8.26628162
_cell_length_b   8.26639870
_cell_length_c   8.29398300
_cell_angle_alpha   59.89001479
_cell_angle_beta   59.88948010
_cell_angle_gamma   59.77536033
_symmetry_Int_Tables_number   1
_chemical_formula_structural   Ta12MnAl8Fe(RhC2)2
_chemical_formula_sum   'Ta12 Mn1 Al8 Fe1 Rh2 C4'
_cell_volume   399.40054980
_cell_formula_units_Z   1
loop_
 _symmetry_equiv_pos_site_id
 _symmetry_equiv_pos_as_xyz
  1  'x, y, z'
loop_
 _atom_site_type_symbol
 _atom_site_label
 _atom_site_symmetry_multiplicity
 _atom_site_fract_x
 _atom_site_fract_y
 _atom_site_fract_z
 _atom_site_occupancy
  Ta  Ta0  1  0.556985  0.939782  0.564029  1
  Ta  Ta1  1  0.310215  0.693014  0.685972  1
  Ta  Ta2  1  0.695759  0.309088  0.309861  1
  Ta  Ta3  1  0.309089  0.695758  0.309863  1
  Ta  Ta4  1  0.686980  0.686979  0.313247  1
  Ta  Ta5  1  0.306783  0.306786  0.695027  1
  Ta  Ta6  1  0.563020  0.563021  0.936753  1
  Ta  Ta7  1  0.939785  0.556986  0.564028  1
  Ta  Ta8  1  0.554241  0.940912  0.940139  1
  Ta  Ta9  1  0.943217  0.943214  0.554973  1
  Ta  Ta10  1  0.693015  0.310218  0.685971  1
  Ta  Ta11  1  0.940911  0.554242  0.940137  1
  Mn  Mn12  1  0.125000  0.125000  0.125000  1
  Al  Al13  1  0.918923  0.918923  0.911438  1
  Al  Al14  1  0.004848  0.328403  0.334735  1
  Al  Al15  1  0.328402  0.004850  0.334735  1
  Al  Al16  1  0.331833  0.331835  0.999811  1
  Al  Al17  1  0.921598  0.245150  0.915265  1
  Al  Al18  1  0.918167  0.918165  0.250189  1
  Al  Al19  1  0.245152  0.921597  0.915265  1
  Al  Al20  1  0.331077  0.331077  0.338562  1
  Fe  Fe21  1  0.125000  0.125000  0.625000  1
  Rh  Rh22  1  0.625000  0.125000  0.125000  1
  Rh  Rh23  1  0.125000  0.625000  0.125000  1
  C  C24  1  0.625000  0.625000  0.625000  1
  C  C25  1  0.125000  0.625000  0.625000  1
  C  C26  1  0.625000  0.125000  0.625000  1
  C  C27  1  0.625000  0.625000  0.125000  1
