# generated using pymatgen
data_La2Nd3Ru2
_symmetry_space_group_name_H-M   'P 1'
_cell_length_a   9.07001994
_cell_length_b   9.07002059
_cell_length_c   7.33666424
_cell_angle_alpha   84.39718438
_cell_angle_beta   84.39718315
_cell_angle_gamma   43.22108364
_symmetry_Int_Tables_number   1
_chemical_formula_structural   La2Nd3Ru2
_chemical_formula_sum   'La4 Nd6 Ru4'
_cell_volume   411.03675467
_cell_formula_units_Z   2
loop_
 _symmetry_equiv_pos_site_id
 _symmetry_equiv_pos_as_xyz
  1  'x, y, z'
loop_
 _atom_site_type_symbol
 _atom_site_label
 _atom_site_symmetry_multiplicity
 _atom_site_fract_x
 _atom_site_fract_y
 _atom_site_fract_z
 _atom_site_occupancy
  La  La0  1  0.017669  0.794000  0.904823  1
  La  La1  1  0.206000  0.982331  0.595177  1
  La  La2  1  0.982331  0.206000  0.095177  1
  La  La3  1  0.794000  0.017669  0.404823  1
  Nd  Nd4  1  0.361701  0.208143  0.815780  1
  Nd  Nd5  1  0.791857  0.638299  0.684220  1
  Nd  Nd6  1  0.638299  0.791857  0.184220  1
  Nd  Nd7  1  0.208143  0.361701  0.315780  1
  Nd  Nd8  1  0.574655  0.425345  0.750000  1
  Nd  Nd9  1  0.425345  0.574655  0.250000  1
  Ru  Ru10  1  0.165713  0.611073  0.585707  1
  Ru  Ru11  1  0.388927  0.834287  0.914293  1
  Ru  Ru12  1  0.834287  0.388927  0.414293  1
  Ru  Ru13  1  0.611073  0.165713  0.085707  1
