# generated using pymatgen
data_Yb2Dy3Lu(Si3Ru)8
_symmetry_space_group_name_H-M   'P 1'
_cell_length_a   10.13363272
_cell_length_b   10.13363406
_cell_length_c   8.13849897
_cell_angle_alpha   89.99781844
_cell_angle_beta   89.99781720
_cell_angle_gamma   132.65299413
_symmetry_Int_Tables_number   1
_chemical_formula_structural   Yb2Dy3Lu(Si3Ru)8
_chemical_formula_sum   'Yb2 Dy3 Lu1 Si24 Ru8'
_cell_volume   614.66724757
_cell_formula_units_Z   1
loop_
 _symmetry_equiv_pos_site_id
 _symmetry_equiv_pos_as_xyz
  1  'x, y, z'
loop_
 _atom_site_type_symbol
 _atom_site_label
 _atom_site_symmetry_multiplicity
 _atom_site_fract_x
 _atom_site_fract_y
 _atom_site_fract_z
 _atom_site_occupancy
  Yb  Yb0  1  0.500893  0.000982  0.750073  1
  Yb  Yb1  1  0.999018  0.499107  0.249927  1
  Dy  Dy2  1  0.000156  0.999844  0.000000  1
  Dy  Dy3  1  0.496662  0.996601  0.249997  1
  Dy  Dy4  1  0.003399  0.503338  0.750003  1
  Lu  Lu5  1  0.499744  0.500256  0.500000  1
  Si  Si6  1  0.794356  0.205644  0.500000  1
  Si  Si7  1  0.294369  0.705631  0.000000  1
  Si  Si8  1  0.205913  0.794087  0.500000  1
  Si  Si9  1  0.705370  0.294630  0.000000  1
  Si  Si10  1  0.330047  0.336084  0.832252  1
  Si  Si11  1  0.663916  0.669953  0.167748  1
  Si  Si12  1  0.170808  0.164815  0.333112  1
  Si  Si13  1  0.835185  0.829192  0.666888  1
  Si  Si14  1  0.121486  0.887087  0.727499  1
  Si  Si15  1  0.112913  0.878514  0.272501  1
  Si  Si16  1  0.609377  0.376380  0.228564  1
  Si  Si17  1  0.623620  0.390623  0.771436  1
  Si  Si18  1  0.876270  0.110113  0.272261  1
  Si  Si19  1  0.889887  0.123730  0.727739  1
  Si  Si20  1  0.387676  0.621352  0.771866  1
  Si  Si21  1  0.378648  0.612324  0.228134  1
  Si  Si22  1  0.344603  0.111532  0.503205  1
  Si  Si23  1  0.888468  0.655397  0.496795  1
  Si  Si24  1  0.389012  0.155447  0.005787  1
  Si  Si25  1  0.844553  0.610988  0.994213  1
  Si  Si26  1  0.655243  0.888086  0.493941  1
  Si  Si27  1  0.111914  0.344757  0.506059  1
  Si  Si28  1  0.610710  0.844318  0.997221  1
  Si  Si29  1  0.155682  0.389290  0.002779  1
  Ru  Ru30  1  0.669352  0.330648  0.500000  1
  Ru  Ru31  1  0.168999  0.831001  0.000000  1
  Ru  Ru32  1  0.331533  0.668467  0.500000  1
  Ru  Ru33  1  0.830115  0.169885  0.000000  1
  Ru  Ru34  1  0.126274  0.127157  0.626050  1
  Ru  Ru35  1  0.872843  0.873726  0.373950  1
  Ru  Ru36  1  0.374571  0.373585  0.126697  1
  Ru  Ru37  1  0.626415  0.625429  0.873303  1
