# generated using pymatgen
data_YHo5OsPd
_symmetry_space_group_name_H-M   'P 1'
_cell_length_a   6.40823424
_cell_length_b   7.27686326
_cell_length_c   9.20145300
_cell_angle_alpha   90.00000000
_cell_angle_beta   90.00000000
_cell_angle_gamma   90.31788093
_symmetry_Int_Tables_number   1
_chemical_formula_structural   YHo5OsPd
_chemical_formula_sum   'Y2 Ho10 Os2 Pd2'
_cell_volume   429.07411981
_cell_formula_units_Z   2
loop_
 _symmetry_equiv_pos_site_id
 _symmetry_equiv_pos_as_xyz
  1  'x, y, z'
loop_
 _atom_site_type_symbol
 _atom_site_label
 _atom_site_symmetry_multiplicity
 _atom_site_fract_x
 _atom_site_fract_y
 _atom_site_fract_z
 _atom_site_occupancy
  Y  Y0  1  0.123427  0.476114  0.750000  1
  Y  Y1  1  0.876573  0.523886  0.250000  1
  Ho  Ho2  1  0.623894  0.042650  0.250000  1
  Ho  Ho3  1  0.376106  0.957350  0.750000  1
  Ho  Ho4  1  0.178864  0.183702  0.062237  1
  Ho  Ho5  1  0.821136  0.816298  0.937763  1
  Ho  Ho6  1  0.662539  0.324960  0.941232  1
  Ho  Ho7  1  0.821136  0.816298  0.562237  1
  Ho  Ho8  1  0.337461  0.675040  0.058768  1
  Ho  Ho9  1  0.178864  0.183702  0.437763  1
  Ho  Ho10  1  0.337461  0.675040  0.441232  1
  Ho  Ho11  1  0.662539  0.324960  0.558768  1
  Os  Os12  1  0.456662  0.385038  0.250000  1
  Os  Os13  1  0.543338  0.614962  0.750000  1
  Pd  Pd14  1  0.952015  0.111631  0.750000  1
  Pd  Pd15  1  0.047985  0.888369  0.250000  1
