# generated using pymatgen
data_Y4Ga10(IrRh)3
_symmetry_space_group_name_H-M   'P 1'
_cell_length_a   8.60464526
_cell_length_b   8.61231965
_cell_length_c   5.68714516
_cell_angle_alpha   70.73290372
_cell_angle_beta   70.69709141
_cell_angle_gamma   96.52734569
_symmetry_Int_Tables_number   1
_chemical_formula_structural   Y4Ga10(IrRh)3
_chemical_formula_sum   'Y4 Ga10 Ir3 Rh3'
_cell_volume   363.55526395
_cell_formula_units_Z   1
loop_
 _symmetry_equiv_pos_site_id
 _symmetry_equiv_pos_as_xyz
  1  'x, y, z'
loop_
 _atom_site_type_symbol
 _atom_site_label
 _atom_site_symmetry_multiplicity
 _atom_site_fract_x
 _atom_site_fract_y
 _atom_site_fract_z
 _atom_site_occupancy
  Y  Y0  1  0.869803  0.584019  0.773706  1
  Y  Y1  1  0.415738  0.130444  0.726221  1
  Y  Y2  1  0.131390  0.416521  0.225433  1
  Y  Y3  1  0.583060  0.866812  0.275764  1
  Ga  Ga4  1  0.092401  0.262705  0.822021  1
  Ga  Ga5  1  0.737292  0.907918  0.677749  1
  Ga  Ga6  1  0.907426  0.736596  0.178318  1
  Ga  Ga7  1  0.263710  0.093646  0.320993  1
  Ga  Ga8  1  0.201916  0.799005  0.749014  1
  Ga  Ga9  1  0.797943  0.201643  0.249012  1
  Ga  Ga10  1  0.500218  0.499429  0.750020  1
  Ga  Ga11  1  0.499788  0.499931  0.250366  1
  Ga  Ga12  1  0.797732  0.201990  0.751338  1
  Ga  Ga13  1  0.202140  0.798745  0.250067  1
  Ir  Ir14  1  0.257748  0.560826  0.591196  1
  Ir  Ir15  1  0.439329  0.741779  0.909007  1
  Ir  Ir16  1  0.740698  0.437870  0.410230  1
  Rh  Rh17  1  0.561926  0.260562  0.089144  1
  Rh  Rh18  1  0.999821  0.999812  0.750276  1
  Rh  Rh19  1  0.999922  0.999744  0.250125  1
