# generated using pymatgen
data_Y4Sc2AlGaPt4
_symmetry_space_group_name_H-M   'P 1'
_cell_length_a   4.40035800
_cell_length_b   7.20176569
_cell_length_c   8.08175857
_cell_angle_alpha   90.59298133
_cell_angle_beta   90.00000000
_cell_angle_gamma   90.00000000
_symmetry_Int_Tables_number   1
_chemical_formula_structural   Y4Sc2AlGaPt4
_chemical_formula_sum   'Y4 Sc2 Al1 Ga1 Pt4'
_cell_volume   256.10001922
_cell_formula_units_Z   1
loop_
 _symmetry_equiv_pos_site_id
 _symmetry_equiv_pos_as_xyz
  1  'x, y, z'
loop_
 _atom_site_type_symbol
 _atom_site_label
 _atom_site_symmetry_multiplicity
 _atom_site_fract_x
 _atom_site_fract_y
 _atom_site_fract_z
 _atom_site_occupancy
  Y  Y0  1  0.250000  0.985873  0.324581  1
  Y  Y1  1  0.250000  0.446968  0.175797  1
  Y  Y2  1  0.750000  0.050517  0.678922  1
  Y  Y3  1  0.750000  0.512111  0.826688  1
  Sc  Sc4  1  0.250000  0.869261  0.937259  1
  Sc  Sc5  1  0.750000  0.631957  0.436596  1
  Al  Al6  1  0.250000  0.362653  0.564481  1
  Ga  Ga7  1  0.750000  0.138477  0.067008  1
  Pt  Pt8  1  0.250000  0.239682  0.872543  1
  Pt  Pt9  1  0.250000  0.737655  0.614581  1
  Pt  Pt10  1  0.750000  0.760544  0.116734  1
  Pt  Pt11  1  0.750000  0.264301  0.384808  1
