# generated using pymatgen
data_Sm8Si12PdPt3
_symmetry_space_group_name_H-M   'P 1'
_cell_length_a   8.20835000
_cell_length_b   8.20835033
_cell_length_c   8.39818500
_cell_angle_alpha   90.00000000
_cell_angle_beta   90.00000000
_cell_angle_gamma   119.99999868
_symmetry_Int_Tables_number   1
_chemical_formula_structural   Sm8Si12PdPt3
_chemical_formula_sum   'Sm8 Si12 Pd1 Pt3'
_cell_volume   490.03581759
_cell_formula_units_Z   1
loop_
 _symmetry_equiv_pos_site_id
 _symmetry_equiv_pos_as_xyz
  1  'x, y, z'
loop_
 _atom_site_type_symbol
 _atom_site_label
 _atom_site_symmetry_multiplicity
 _atom_site_fract_x
 _atom_site_fract_y
 _atom_site_fract_z
 _atom_site_occupancy
  Sm  Sm0  1  0.501222  0.002445  0.249953  1
  Sm  Sm1  1  0.500157  0.000314  0.750128  1
  Sm  Sm2  1  0.997555  0.498778  0.249953  1
  Sm  Sm3  1  0.999686  0.499843  0.750128  1
  Sm  Sm4  1  0.501222  0.498778  0.249953  1
  Sm  Sm5  1  0.500157  0.499843  0.750128  1
  Sm  Sm6  1  0.000000  0.000000  0.250945  1
  Sm  Sm7  1  0.000000  0.000000  0.748864  1
  Si  Si8  1  0.165822  0.331643  0.001398  1
  Si  Si9  1  0.834198  0.668395  0.998596  1
  Si  Si10  1  0.668357  0.834178  0.001398  1
  Si  Si11  1  0.834693  0.669386  0.498389  1
  Si  Si12  1  0.331605  0.165802  0.998596  1
  Si  Si13  1  0.165766  0.331533  0.501718  1
  Si  Si14  1  0.165822  0.834178  0.001398  1
  Si  Si15  1  0.330614  0.165307  0.498389  1
  Si  Si16  1  0.834198  0.165802  0.998596  1
  Si  Si17  1  0.668467  0.834234  0.501718  1
  Si  Si18  1  0.834693  0.165307  0.498389  1
  Si  Si19  1  0.165766  0.834234  0.501718  1
  Pd  Pd20  1  0.333333  0.666667  0.497493  1
  Pt  Pt21  1  0.333333  0.666667  0.000037  1
  Pt  Pt22  1  0.666667  0.333333  0.999907  1
  Pt  Pt23  1  0.666667  0.333333  0.502211  1
