# generated using pymatgen
data_Tb2V3Ni9P7
_symmetry_space_group_name_H-M   'P 1'
_cell_length_a   9.15883400
_cell_length_b   9.15883408
_cell_length_c   3.66365800
_cell_angle_alpha   90.00000000
_cell_angle_beta   90.00000000
_cell_angle_gamma   119.99999973
_symmetry_Int_Tables_number   1
_chemical_formula_structural   Tb2V3Ni9P7
_chemical_formula_sum   'Tb2 V3 Ni9 P7'
_cell_volume   266.14967343
_cell_formula_units_Z   1
loop_
 _symmetry_equiv_pos_site_id
 _symmetry_equiv_pos_as_xyz
  1  'x, y, z'
loop_
 _atom_site_type_symbol
 _atom_site_label
 _atom_site_symmetry_multiplicity
 _atom_site_fract_x
 _atom_site_fract_y
 _atom_site_fract_z
 _atom_site_occupancy
  Tb  Tb0  1  0.333333  0.666667  0.000000  1
  Tb  Tb1  1  0.666667  0.333333  0.500000  1
  V  V2  1  0.218567  0.117517  0.500000  1
  V  V3  1  0.882483  0.101051  0.500000  1
  V  V4  1  0.898949  0.781433  0.500000  1
  Ni  Ni5  1  0.125484  0.279484  0.000000  1
  Ni  Ni6  1  0.720516  0.846000  0.000000  1
  Ni  Ni7  1  0.154000  0.874516  0.000000  1
  Ni  Ni8  1  0.432532  0.371332  0.000000  1
  Ni  Ni9  1  0.628668  0.061199  0.000000  1
  Ni  Ni10  1  0.938801  0.567468  0.000000  1
  Ni  Ni11  1  0.053527  0.437468  0.500000  1
  Ni  Ni12  1  0.562532  0.616059  0.500000  1
  Ni  Ni13  1  0.383941  0.946473  0.500000  1
  P  P14  1  0.290595  0.403466  0.500000  1
  P  P15  1  0.596534  0.887128  0.500000  1
  P  P16  1  0.112872  0.709405  0.500000  1
  P  P17  1  0.407317  0.112855  0.000000  1
  P  P18  1  0.887145  0.294463  0.000000  1
  P  P19  1  0.705537  0.592683  0.000000  1
  P  P20  1  0.000000  0.000000  0.000000  1
