# generated using pymatgen
data_La6Cu3Ni3Bi8
_symmetry_space_group_name_H-M   'P 1'
_cell_length_a   8.69443740
_cell_length_b   8.71978777
_cell_length_c   8.69443716
_cell_angle_alpha   109.56053768
_cell_angle_beta   109.23311914
_cell_angle_gamma   109.50173257
_symmetry_Int_Tables_number   1
_chemical_formula_structural   La6Cu3Ni3Bi8
_chemical_formula_sum   'La6 Cu3 Ni3 Bi8'
_cell_volume   508.15506432
_cell_formula_units_Z   1
loop_
 _symmetry_equiv_pos_site_id
 _symmetry_equiv_pos_as_xyz
  1  'x, y, z'
loop_
 _atom_site_type_symbol
 _atom_site_label
 _atom_site_symmetry_multiplicity
 _atom_site_fract_x
 _atom_site_fract_y
 _atom_site_fract_z
 _atom_site_occupancy
  La  La0  1  0.122402  0.871436  0.246157  1
  La  La1  1  0.374721  0.628564  0.750966  1
  La  La2  1  0.878691  0.250000  0.128691  1
  La  La3  1  0.622767  0.750000  0.372767  1
  La  La4  1  0.248769  0.119722  0.875428  1
  La  La5  1  0.755707  0.380278  0.629048  1
  Cu  Cu6  1  0.626484  0.374972  0.250632  1
  Cu  Cu7  1  0.875660  0.125028  0.751512  1
  Cu  Cu8  1  0.374623  0.250000  0.624623  1
  Ni  Ni9  1  0.124543  0.750000  0.874543  1
  Ni  Ni10  1  0.248957  0.625238  0.373069  1
  Ni  Ni11  1  0.747831  0.874762  0.123719  1
  Bi  Bi12  1  0.341075  0.345665  0.341207  1
  Bi  Bi13  1  0.160272  0.504012  0.003225  1
  Bi  Bi14  1  0.995542  0.154335  0.495410  1
  Bi  Bi15  1  0.843244  0.839343  0.844188  1
  Bi  Bi16  1  0.499214  0.995988  0.156260  1
  Bi  Bi17  1  0.658592  0.504223  0.000284  1
  Bi  Bi18  1  0.496061  0.995777  0.654370  1
  Bi  Bi19  1  0.004844  0.660657  0.503901  1
