# generated using pymatgen
data_ScPa(Al3Rh)3
_symmetry_space_group_name_H-M   'P 1'
_cell_length_a   7.56432850
_cell_length_b   7.57127662
_cell_length_c   9.31367400
_cell_angle_alpha   90.00000000
_cell_angle_beta   90.00000000
_cell_angle_gamma   119.86596718
_symmetry_Int_Tables_number   1
_chemical_formula_structural   ScPa(Al3Rh)3
_chemical_formula_sum   'Sc2 Pa2 Al18 Rh6'
_cell_volume   462.56858542
_cell_formula_units_Z   2
loop_
 _symmetry_equiv_pos_site_id
 _symmetry_equiv_pos_as_xyz
  1  'x, y, z'
loop_
 _atom_site_type_symbol
 _atom_site_label
 _atom_site_symmetry_multiplicity
 _atom_site_fract_x
 _atom_site_fract_y
 _atom_site_fract_z
 _atom_site_occupancy
  Sc  Sc0  1  0.668898  0.992989  0.250000  1
  Sc  Sc1  1  0.331102  0.007011  0.750000  1
  Pa  Pa2  1  0.997771  0.670890  0.250000  1
  Pa  Pa3  1  0.002229  0.329110  0.750000  1
  Al  Al4  1  0.128094  0.124577  0.250000  1
  Al  Al5  1  0.871906  0.875423  0.750000  1
  Al  Al6  1  0.996863  0.328237  0.080374  1
  Al  Al7  1  0.003137  0.671763  0.919626  1
  Al  Al8  1  0.003137  0.671763  0.580374  1
  Al  Al9  1  0.340371  0.002569  0.426090  1
  Al  Al10  1  0.996863  0.328237  0.419626  1
  Al  Al11  1  0.659629  0.997431  0.573910  1
  Al  Al12  1  0.659629  0.997431  0.926090  1
  Al  Al13  1  0.340371  0.002569  0.073910  1
  Al  Al14  1  0.334603  0.330818  0.555171  1
  Al  Al15  1  0.665397  0.669182  0.444829  1
  Al  Al16  1  0.665397  0.669182  0.055171  1
  Al  Al17  1  0.334603  0.330818  0.944829  1
  Al  Al18  1  0.342980  0.551751  0.250000  1
  Al  Al19  1  0.657020  0.448249  0.750000  1
  Al  Al20  1  0.549617  0.338475  0.250000  1
  Al  Al21  1  0.450383  0.661525  0.750000  1
  Rh  Rh22  1  0.675692  0.329638  0.999557  1
  Rh  Rh23  1  0.324308  0.670362  0.000443  1
  Rh  Rh24  1  0.324308  0.670362  0.499557  1
  Rh  Rh25  1  0.675692  0.329638  0.500443  1
  Rh  Rh26  1  0.000000  0.000000  0.000000  1
  Rh  Rh27  1  0.000000  0.000000  0.500000  1
