# generated using pymatgen
data_TbDy3Sc2CoTe2
_symmetry_space_group_name_H-M   'P 1'
_cell_length_a   3.91891000
_cell_length_b   8.20825788
_cell_length_c   8.20686903
_cell_angle_alpha   121.13521663
_cell_angle_beta   90.00000000
_cell_angle_gamma   90.00000000
_symmetry_Int_Tables_number   1
_chemical_formula_structural   TbDy3Sc2CoTe2
_chemical_formula_sum   'Tb1 Dy3 Sc2 Co1 Te2'
_cell_volume   225.96537449
_cell_formula_units_Z   1
loop_
 _symmetry_equiv_pos_site_id
 _symmetry_equiv_pos_as_xyz
  1  'x, y, z'
loop_
 _atom_site_type_symbol
 _atom_site_label
 _atom_site_symmetry_multiplicity
 _atom_site_fract_x
 _atom_site_fract_y
 _atom_site_fract_z
 _atom_site_occupancy
  Tb  Tb0  1  0.000000  0.599579  0.001048  1
  Dy  Dy1  1  0.500000  0.767944  0.767878  1
  Dy  Dy2  1  0.000000  0.383389  0.383254  1
  Dy  Dy3  1  0.000000  0.001152  0.600298  1
  Sc  Sc4  1  0.500000  0.994303  0.225015  1
  Sc  Sc5  1  0.500000  0.224809  0.994064  1
  Co  Co6  1  0.000000  0.035742  0.035020  1
  Te  Te7  1  0.500000  0.665759  0.328650  1
  Te  Te8  1  0.500000  0.327323  0.664772  1
