# generated using pymatgen
data_La4V3PtF28
_symmetry_space_group_name_H-M   'P 1'
_cell_length_a   5.71247401
_cell_length_b   9.26316196
_cell_length_c   12.32978092
_cell_angle_alpha   62.44054317
_cell_angle_beta   89.90326903
_cell_angle_gamma   89.89620936
_symmetry_Int_Tables_number   1
_chemical_formula_structural   La4V3PtF28
_chemical_formula_sum   'La4 V3 Pt1 F28'
_cell_volume   578.40489825
_cell_formula_units_Z   1
loop_
 _symmetry_equiv_pos_site_id
 _symmetry_equiv_pos_as_xyz
  1  'x, y, z'
loop_
 _atom_site_type_symbol
 _atom_site_label
 _atom_site_symmetry_multiplicity
 _atom_site_fract_x
 _atom_site_fract_y
 _atom_site_fract_z
 _atom_site_occupancy
  La  La0  1  0.758576  0.807424  0.766786  1
  La  La1  1  0.257846  0.191966  0.736076  1
  La  La2  1  0.239196  0.191831  0.230522  1
  La  La3  1  0.742197  0.804759  0.268484  1
  V  V4  1  0.753016  0.275238  0.956821  1
  V  V5  1  0.255535  0.724504  0.544730  1
  V  V6  1  0.246159  0.725667  0.043252  1
  Pt  Pt7  1  0.743855  0.272516  0.456812  1
  F  F8  1  0.442554  0.709817  0.925323  1
  F  F9  1  0.926087  0.296746  0.582851  1
  F  F10  1  0.555941  0.291786  0.074212  1
  F  F11  1  0.059723  0.710709  0.425897  1
  F  F12  1  0.450130  0.284568  0.536502  1
  F  F13  1  0.974100  0.713769  0.957452  1
  F  F14  1  0.528462  0.715385  0.458032  1
  F  F15  1  0.026422  0.288269  0.041733  1
  F  F16  1  0.760637  0.498337  0.866760  1
  F  F17  1  0.266480  0.499858  0.633869  1
  F  F18  1  0.238252  0.502016  0.133678  1
  F  F19  1  0.738229  0.510866  0.359521  1
  F  F20  1  0.760805  0.053097  0.045208  1
  F  F21  1  0.259481  0.946835  0.455399  1
  F  F22  1  0.239319  0.949201  0.954108  1
  F  F23  1  0.740574  0.033259  0.548178  1
  F  F24  1  0.989528  0.726081  0.636855  1
  F  F25  1  0.485278  0.267588  0.868436  1
  F  F26  1  0.034974  0.267993  0.372624  1
  F  F27  1  0.513139  0.735117  0.130989  1
  F  F28  1  0.051221  0.746170  0.161484  1
  F  F29  1  0.563168  0.254935  0.327395  1
  F  F30  1  0.949496  0.257728  0.837574  1
  F  F31  1  0.449633  0.739111  0.665703  1
  F  F32  1  0.406916  0.969756  0.226993  1
  F  F33  1  0.907292  0.031936  0.270627  1
  F  F34  1  0.593241  0.034084  0.770140  1
  F  F35  1  0.092536  0.971078  0.728974  1
