# generated using pymatgen
data_V12FeSi3
_symmetry_space_group_name_H-M   'P 1'
_cell_length_a   4.67812300
_cell_length_b   4.69355200
_cell_length_c   9.40245600
_cell_angle_alpha   90.00000000
_cell_angle_beta   90.00000000
_cell_angle_gamma   90.00000000
_symmetry_Int_Tables_number   1
_chemical_formula_structural   V12FeSi3
_chemical_formula_sum   'V12 Fe1 Si3'
_cell_volume   206.44985392
_cell_formula_units_Z   1
loop_
 _symmetry_equiv_pos_site_id
 _symmetry_equiv_pos_as_xyz
  1  'x, y, z'
loop_
 _atom_site_type_symbol
 _atom_site_label
 _atom_site_symmetry_multiplicity
 _atom_site_fract_x
 _atom_site_fract_y
 _atom_site_fract_z
 _atom_site_occupancy
  V  V0  1  0.500000  0.000000  0.618191  1
  V  V1  1  0.500000  0.000000  0.129762  1
  V  V2  1  0.747972  0.500000  0.253652  1
  V  V3  1  0.747972  0.500000  0.746348  1
  V  V4  1  0.000000  0.746747  0.500000  1
  V  V5  1  0.000000  0.755968  0.000000  1
  V  V6  1  0.500000  0.000000  0.381809  1
  V  V7  1  0.500000  0.000000  0.870238  1
  V  V8  1  0.252028  0.500000  0.253652  1
  V  V9  1  0.252028  0.500000  0.746348  1
  V  V10  1  0.000000  0.253253  0.500000  1
  V  V11  1  0.000000  0.244032  0.000000  1
  Fe  Fe12  1  0.500000  0.500000  0.500000  1
  Si  Si13  1  0.500000  0.500000  0.000000  1
  Si  Si14  1  0.000000  0.000000  0.248676  1
  Si  Si15  1  0.000000  0.000000  0.751324  1
