# generated using pymatgen
data_Tb8Cu2Si12PdAu
_symmetry_space_group_name_H-M   'P 1'
_cell_length_a   8.11557200
_cell_length_b   8.11557119
_cell_length_c   8.20750600
_cell_angle_alpha   90.00000000
_cell_angle_beta   90.00000000
_cell_angle_gamma   120.00001147
_symmetry_Int_Tables_number   1
_chemical_formula_structural   Tb8Cu2Si12PdAu
_chemical_formula_sum   'Tb8 Cu2 Si12 Pd1 Au1'
_cell_volume   468.14459864
_cell_formula_units_Z   1
loop_
 _symmetry_equiv_pos_site_id
 _symmetry_equiv_pos_as_xyz
  1  'x, y, z'
loop_
 _atom_site_type_symbol
 _atom_site_label
 _atom_site_symmetry_multiplicity
 _atom_site_fract_x
 _atom_site_fract_y
 _atom_site_fract_z
 _atom_site_occupancy
  Tb  Tb0  1  0.501372  0.002742  0.253375  1
  Tb  Tb1  1  0.500861  0.001723  0.746776  1
  Tb  Tb2  1  0.997258  0.498628  0.253375  1
  Tb  Tb3  1  0.998277  0.499139  0.746776  1
  Tb  Tb4  1  0.501372  0.498628  0.253375  1
  Tb  Tb5  1  0.500861  0.499139  0.746776  1
  Tb  Tb6  1  0.000000  0.000000  0.252353  1
  Tb  Tb7  1  0.000000  0.000000  0.747027  1
  Cu  Cu8  1  0.666667  0.333333  0.500499  1
  Cu  Cu9  1  0.333333  0.666667  0.499635  1
  Si  Si10  1  0.162175  0.324350  0.999203  1
  Si  Si11  1  0.832625  0.665250  0.999977  1
  Si  Si12  1  0.675650  0.837825  0.999203  1
  Si  Si13  1  0.830736  0.661472  0.501498  1
  Si  Si14  1  0.334750  0.167375  0.999977  1
  Si  Si15  1  0.169376  0.338751  0.498557  1
  Si  Si16  1  0.162175  0.837825  0.999203  1
  Si  Si17  1  0.338528  0.169264  0.501498  1
  Si  Si18  1  0.832625  0.167375  0.999977  1
  Si  Si19  1  0.661249  0.830624  0.498557  1
  Si  Si20  1  0.830736  0.169264  0.501498  1
  Si  Si21  1  0.169376  0.830624  0.498557  1
  Pd  Pd22  1  0.666667  0.333333  0.000624  1
  Au  Au23  1  0.333333  0.666667  0.001703  1
