# generated using pymatgen
data_Dy3Er2Ga2Sb
_symmetry_space_group_name_H-M   'P 1'
_cell_length_a   8.66208204
_cell_length_b   8.68239446
_cell_length_c   6.50830600
_cell_angle_alpha   90.00000000
_cell_angle_beta   90.00000000
_cell_angle_gamma   120.07760868
_symmetry_Int_Tables_number   1
_chemical_formula_structural   Dy3Er2Ga2Sb
_chemical_formula_sum   'Dy6 Er4 Ga4 Sb2'
_cell_volume   423.56516526
_cell_formula_units_Z   2
loop_
 _symmetry_equiv_pos_site_id
 _symmetry_equiv_pos_as_xyz
  1  'x, y, z'
loop_
 _atom_site_type_symbol
 _atom_site_label
 _atom_site_symmetry_multiplicity
 _atom_site_fract_x
 _atom_site_fract_y
 _atom_site_fract_z
 _atom_site_occupancy
  Dy  Dy0  1  0.986904  0.750419  0.750000  1
  Dy  Dy1  1  0.986904  0.236484  0.250000  1
  Dy  Dy2  1  0.765558  0.765831  0.250000  1
  Dy  Dy3  1  0.765558  0.999729  0.750000  1
  Dy  Dy4  1  0.236428  0.249081  0.750000  1
  Dy  Dy5  1  0.236428  0.987346  0.250000  1
  Er  Er6  1  0.331880  0.665941  0.500000  1
  Er  Er7  1  0.684586  0.342293  0.000000  1
  Er  Er8  1  0.684586  0.342293  0.500000  1
  Er  Er9  1  0.331880  0.665941  0.000000  1
  Ga  Ga10  1  0.001441  0.601099  0.250000  1
  Ga  Ga11  1  0.001441  0.400342  0.750000  1
  Ga  Ga12  1  0.597789  0.601234  0.750000  1
  Ga  Ga13  1  0.597789  0.996554  0.250000  1
  Sb  Sb14  1  0.395414  0.004193  0.750000  1
  Sb  Sb15  1  0.395414  0.391221  0.250000  1
