# generated using pymatgen
data_Yb7Y(Sc3Pt4)4
_symmetry_space_group_name_H-M   'P 1'
_cell_length_a   7.29294722
_cell_length_b   7.34548546
_cell_length_c   13.99499612
_cell_angle_alpha   89.96164337
_cell_angle_beta   90.02475141
_cell_angle_gamma   90.01353084
_symmetry_Int_Tables_number   1
_chemical_formula_structural   Yb7Y(Sc3Pt4)4
_chemical_formula_sum   'Yb7 Y1 Sc12 Pt16'
_cell_volume   749.71501071
_cell_formula_units_Z   1
loop_
 _symmetry_equiv_pos_site_id
 _symmetry_equiv_pos_as_xyz
  1  'x, y, z'
loop_
 _atom_site_type_symbol
 _atom_site_label
 _atom_site_symmetry_multiplicity
 _atom_site_fract_x
 _atom_site_fract_y
 _atom_site_fract_z
 _atom_site_occupancy
  Yb  Yb0  1  0.991452  0.824683  0.907343  1
  Yb  Yb1  1  0.509999  0.325064  0.093370  1
  Yb  Yb2  1  0.010313  0.175245  0.406062  1
  Yb  Yb3  1  0.509936  0.324079  0.405833  1
  Yb  Yb4  1  0.009512  0.175484  0.093371  1
  Yb  Yb5  1  0.489956  0.675255  0.905915  1
  Yb  Yb6  1  0.990461  0.825013  0.593464  1
  Y  Y7  1  0.490349  0.675281  0.594499  1
  Sc  Sc8  1  0.650794  0.167478  0.623859  1
  Sc  Sc9  1  0.150263  0.334700  0.875404  1
  Sc  Sc10  1  0.349133  0.834140  0.123780  1
  Sc  Sc11  1  0.850048  0.665113  0.375755  1
  Sc  Sc12  1  0.348798  0.834755  0.374544  1
  Sc  Sc13  1  0.849307  0.665165  0.124502  1
  Sc  Sc14  1  0.651345  0.166618  0.876355  1
  Sc  Sc15  1  0.148708  0.333521  0.625011  1
  Sc  Sc16  1  0.814087  0.505294  0.750734  1
  Sc  Sc17  1  0.312890  0.996148  0.750617  1
  Sc  Sc18  1  0.186973  0.494759  0.250043  1
  Sc  Sc19  1  0.686353  0.004720  0.249538  1
  Pt  Pt20  1  0.673843  0.953459  0.454018  1
  Pt  Pt21  1  0.174615  0.543110  0.047265  1
  Pt  Pt22  1  0.326027  0.043803  0.952725  1
  Pt  Pt23  1  0.821116  0.461327  0.546516  1
  Pt  Pt24  1  0.326383  0.040769  0.547090  1
  Pt  Pt25  1  0.825329  0.457310  0.952885  1
  Pt  Pt26  1  0.674759  0.956500  0.046954  1
  Pt  Pt27  1  0.179087  0.543323  0.456091  1
  Pt  Pt28  1  0.449558  0.369814  0.749561  1
  Pt  Pt29  1  0.948371  0.128109  0.750997  1
  Pt  Pt30  1  0.549956  0.629323  0.249565  1
  Pt  Pt31  1  0.049079  0.870499  0.249392  1
  Pt  Pt32  1  0.675034  0.864196  0.748702  1
  Pt  Pt33  1  0.175611  0.635907  0.749142  1
  Pt  Pt34  1  0.324495  0.134487  0.249117  1
  Pt  Pt35  1  0.826060  0.365549  0.249982  1
