# generated using pymatgen
data_Sm2YCI3
_symmetry_space_group_name_H-M   'P 1'
_cell_length_a   3.96546500
_cell_length_b   8.85203574
_cell_length_c   12.03365334
_cell_angle_alpha   92.13812567
_cell_angle_beta   90.00000000
_cell_angle_gamma   90.00000000
_symmetry_Int_Tables_number   1
_chemical_formula_structural   Sm2YCI3
_chemical_formula_sum   'Sm4 Y2 C2 I6'
_cell_volume   422.11648211
_cell_formula_units_Z   2
loop_
 _symmetry_equiv_pos_site_id
 _symmetry_equiv_pos_as_xyz
  1  'x, y, z'
loop_
 _atom_site_type_symbol
 _atom_site_label
 _atom_site_symmetry_multiplicity
 _atom_site_fract_x
 _atom_site_fract_y
 _atom_site_fract_z
 _atom_site_occupancy
  Sm  Sm0  1  0.250000  0.915703  0.601173  1
  Sm  Sm1  1  0.750000  0.084297  0.398827  1
  Sm  Sm2  1  0.250000  0.886669  0.183471  1
  Sm  Sm3  1  0.750000  0.113331  0.816529  1
  Y  Y4  1  0.250000  0.291414  0.615529  1
  Y  Y5  1  0.750000  0.708586  0.384471  1
  C  C6  1  0.250000  0.879195  0.385767  1
  C  C7  1  0.750000  0.120805  0.614233  1
  I  I8  1  0.250000  0.854093  0.874135  1
  I  I9  1  0.750000  0.145907  0.125865  1
  I  I10  1  0.250000  0.380177  0.867645  1
  I  I11  1  0.750000  0.619823  0.132355  1
  I  I12  1  0.250000  0.386461  0.370393  1
  I  I13  1  0.750000  0.613539  0.629607  1
