# generated using pymatgen
data_YLu3Os7W
_symmetry_space_group_name_H-M   'P 1'
_cell_length_a   5.43879400
_cell_length_b   5.24652143
_cell_length_c   8.86982116
_cell_angle_alpha   90.01867244
_cell_angle_beta   90.00000000
_cell_angle_gamma   121.21987056
_symmetry_Int_Tables_number   1
_chemical_formula_structural   YLu3Os7W
_chemical_formula_sum   'Y1 Lu3 Os7 W1'
_cell_volume   216.44558929
_cell_formula_units_Z   1
loop_
 _symmetry_equiv_pos_site_id
 _symmetry_equiv_pos_as_xyz
  1  'x, y, z'
loop_
 _atom_site_type_symbol
 _atom_site_label
 _atom_site_symmetry_multiplicity
 _atom_site_fract_x
 _atom_site_fract_y
 _atom_site_fract_z
 _atom_site_occupancy
  Y  Y0  1  0.334276  0.668553  0.434033  1
  Lu  Lu1  1  0.671492  0.342983  0.564113  1
  Lu  Lu2  1  0.671370  0.342739  0.936720  1
  Lu  Lu3  1  0.333824  0.667649  0.065311  1
  Os  Os4  1  0.173566  0.824304  0.751521  1
  Os  Os5  1  0.339131  0.166118  0.248228  1
  Os  Os6  1  0.823501  0.647002  0.248421  1
  Os  Os7  1  0.650737  0.824304  0.751521  1
  Os  Os8  1  0.006157  0.012315  0.002974  1
  Os  Os9  1  0.826988  0.166118  0.248228  1
  Os  Os10  1  0.005540  0.011081  0.497726  1
  W  W11  1  0.163417  0.326836  0.751204  1
