# generated using pymatgen
data_CuAgF34
_symmetry_space_group_name_H-M   'P 1'
_cell_length_a   8.55566898
_cell_length_b   8.32651107
_cell_length_c   10.10035182
_cell_angle_alpha   82.75130617
_cell_angle_beta   89.58702721
_cell_angle_gamma   64.12535739
_symmetry_Int_Tables_number   1
_chemical_formula_structural   CuAgF34
_chemical_formula_sum   'Cu1 Ag1 F34'
_cell_volume   641.30678431
_cell_formula_units_Z   1
loop_
 _symmetry_equiv_pos_site_id
 _symmetry_equiv_pos_as_xyz
  1  'x, y, z'
loop_
 _atom_site_type_symbol
 _atom_site_label
 _atom_site_symmetry_multiplicity
 _atom_site_fract_x
 _atom_site_fract_y
 _atom_site_fract_z
 _atom_site_occupancy
  Cu  Cu0  1  0.140163  0.743526  0.244550  1
  Ag  Ag1  1  0.866587  0.251248  0.751092  1
  F  F2  1  0.604827  0.214002  0.489759  1
  F  F3  1  0.384653  0.788699  0.510128  1
  F  F4  1  0.830767  0.677623  0.722259  1
  F  F5  1  0.157173  0.322669  0.308927  1
  F  F6  1  0.099205  0.753387  0.872847  1
  F  F7  1  0.894824  0.249482  0.125674  1
  F  F8  1  0.565069  0.152229  0.373843  1
  F  F9  1  0.438393  0.844720  0.622644  1
  F  F10  1  0.629437  0.339541  0.679279  1
  F  F11  1  0.358612  0.667244  0.312153  1
  F  F12  1  0.942858  0.054517  0.645455  1
  F  F13  1  0.064057  0.929137  0.339469  1
  F  F14  1  0.910839  0.393925  0.602390  1
  F  F15  1  0.097284  0.615620  0.384371  1
  F  F16  1  0.842421  0.817442  0.630637  1
  F  F17  1  0.155059  0.161202  0.372807  1
  F  F18  1  0.795017  0.451204  0.853531  1
  F  F19  1  0.211056  0.552514  0.155340  1
  F  F20  1  0.213586  0.691704  0.768715  1
  F  F21  1  0.780170  0.314647  0.229104  1
  F  F22  1  0.923866  0.819451  0.174449  1
  F  F23  1  0.101343  0.164220  0.824784  1
  F  F24  1  0.821075  0.107602  0.897226  1
  F  F25  1  0.183455  0.874365  0.108156  1
  F  F26  1  0.489531  0.599102  0.992499  1
  F  F27  1  0.499646  0.423508  0.003397  1
  F  F28  1  0.463531  0.087746  0.862771  1
  F  F29  1  0.539726  0.921644  0.140024  1
  F  F30  1  0.286293  0.251860  0.602033  1
  F  F31  1  0.718425  0.745698  0.403980  1
  F  F32  1  0.257932  0.404594  0.664926  1
  F  F33  1  0.739888  0.604633  0.329515  1
  F  F34  1  0.549720  0.902057  0.848024  1
  F  F35  1  0.443506  0.107238  0.153243  1
