# generated using pymatgen
data_Ho21Fe8Bi7C12
_symmetry_space_group_name_H-M   'P 1'
_cell_length_a   11.10983802
_cell_length_b   11.11160490
_cell_length_c   11.11193200
_cell_angle_alpha   119.97884471
_cell_angle_beta   90.00350690
_cell_angle_gamma   119.98526892
_symmetry_Int_Tables_number   1
_chemical_formula_structural   Ho21Fe8Bi7C12
_chemical_formula_sum   'Ho21 Fe8 Bi7 C12'
_cell_volume   970.46802299
_cell_formula_units_Z   1
loop_
 _symmetry_equiv_pos_site_id
 _symmetry_equiv_pos_as_xyz
  1  'x, y, z'
loop_
 _atom_site_type_symbol
 _atom_site_label
 _atom_site_symmetry_multiplicity
 _atom_site_fract_x
 _atom_site_fract_y
 _atom_site_fract_z
 _atom_site_occupancy
  Ho  Ho0  1  0.656677  0.999855  0.999684  1
  Ho  Ho1  1  0.000328  0.000193  0.343347  1
  Ho  Ho2  1  0.999879  0.342890  0.999647  1
  Ho  Ho3  1  0.360271  0.720661  0.081028  1
  Ho  Ho4  1  0.343205  0.342965  0.343171  1
  Ho  Ho5  1  0.657303  0.657391  0.999914  1
  Ho  Ho6  1  0.639356  0.279265  0.360334  1
  Ho  Ho7  1  0.639629  0.720750  0.360625  1
  Ho  Ho8  1  0.342624  0.342654  0.999983  1
  Ho  Ho9  1  0.343308  0.000178  0.000316  1
  Ho  Ho10  1  0.656831  0.657032  0.656759  1
  Ho  Ho11  1  0.999906  0.657409  0.657305  1
  Ho  Ho12  1  0.999762  0.000015  0.656762  1
  Ho  Ho13  1  0.000250  0.657125  0.000201  1
  Ho  Ho14  1  0.081256  0.720999  0.360417  1
  Ho  Ho15  1  0.918856  0.279021  0.639718  1
  Ho  Ho16  1  0.639565  0.279038  0.918754  1
  Ho  Ho17  1  0.000088  0.342615  0.342710  1
  Ho  Ho18  1  0.360691  0.720874  0.639610  1
  Ho  Ho19  1  0.360236  0.279258  0.639521  1
  Ho  Ho20  1  0.500002  0.000073  0.499994  1
  Fe  Fe21  1  0.577270  0.384811  0.192483  1
  Fe  Fe22  1  0.192554  0.614979  0.807521  1
  Fe  Fe23  1  0.192504  0.384904  0.577377  1
  Fe  Fe24  1  0.807594  0.615152  0.422753  1
  Fe  Fe25  1  0.192420  0.384854  0.807553  1
  Fe  Fe26  1  0.807610  0.615026  0.192573  1
  Fe  Fe27  1  0.807538  0.385025  0.192524  1
  Fe  Fe28  1  0.422589  0.615051  0.807493  1
  Bi  Bi29  1  0.291454  0.999995  0.708549  1
  Bi  Bi30  1  0.708094  0.000001  0.708084  1
  Bi  Bi31  1  0.708531  0.000019  0.291476  1
  Bi  Bi32  1  0.291889  0.000010  0.291870  1
  Bi  Bi33  1  0.291427  0.582853  0.291420  1
  Bi  Bi34  1  0.708590  0.417161  0.708569  1
  Bi  Bi35  1  0.000025  0.999992  0.999981  1
  C  C36  1  0.396109  0.499920  0.603883  1
  C  C37  1  0.395908  0.499905  0.895811  1
  C  C38  1  0.895861  0.499914  0.395897  1
  C  C39  1  0.604030  0.500090  0.104145  1
  C  C40  1  0.896118  0.499991  0.103926  1
  C  C41  1  0.104091  0.500077  0.604103  1
  C  C42  1  0.396075  0.792212  0.896067  1
  C  C43  1  0.103955  0.207769  0.603896  1
  C  C44  1  0.103922  0.500008  0.896048  1
  C  C45  1  0.603882  0.500016  0.396091  1
  C  C46  1  0.603880  0.207759  0.103958  1
  C  C47  1  0.896059  0.792250  0.396148  1
