# generated using pymatgen
data_Ba2SmFeO5
_symmetry_space_group_name_H-M   'P 1'
_cell_length_a   6.24240400
_cell_length_b   7.99394214
_cell_length_c   12.92459327
_cell_angle_alpha   91.62367774
_cell_angle_beta   90.00000000
_cell_angle_gamma   90.00000000
_symmetry_Int_Tables_number   1
_chemical_formula_structural   Ba2SmFeO5
_chemical_formula_sum   'Ba8 Sm4 Fe4 O20'
_cell_volume   644.69655467
_cell_formula_units_Z   4
loop_
 _symmetry_equiv_pos_site_id
 _symmetry_equiv_pos_as_xyz
  1  'x, y, z'
loop_
 _atom_site_type_symbol
 _atom_site_label
 _atom_site_symmetry_multiplicity
 _atom_site_fract_x
 _atom_site_fract_y
 _atom_site_fract_z
 _atom_site_occupancy
  Ba  Ba0  1  0.767446  0.480850  0.344055  1
  Ba  Ba1  1  0.732554  0.980850  0.844055  1
  Ba  Ba2  1  0.232554  0.519150  0.655945  1
  Ba  Ba3  1  0.267446  0.019150  0.155945  1
  Ba  Ba4  1  0.759874  0.992504  0.378827  1
  Ba  Ba5  1  0.740126  0.492504  0.878827  1
  Ba  Ba6  1  0.240126  0.007496  0.621173  1
  Ba  Ba7  1  0.259874  0.507496  0.121173  1
  Sm  Sm8  1  0.749291  0.269536  0.627006  1
  Sm  Sm9  1  0.750709  0.769536  0.127006  1
  Sm  Sm10  1  0.250709  0.730464  0.372994  1
  Sm  Sm11  1  0.249291  0.230464  0.872994  1
  Fe  Fe12  1  0.730751  0.743019  0.583410  1
  Fe  Fe13  1  0.769249  0.243019  0.083410  1
  Fe  Fe14  1  0.269249  0.256981  0.416590  1
  Fe  Fe15  1  0.230751  0.756981  0.916590  1
  O  O16  1  0.767264  0.971068  0.630659  1
  O  O17  1  0.732736  0.471068  0.130659  1
  O  O18  1  0.232736  0.028932  0.369341  1
  O  O19  1  0.267264  0.528932  0.869341  1
  O  O20  1  0.725133  0.066662  0.177281  1
  O  O21  1  0.774867  0.566662  0.677281  1
  O  O22  1  0.274867  0.933338  0.822719  1
  O  O23  1  0.225133  0.433338  0.322719  1
  O  O24  1  0.554283  0.744110  0.277595  1
  O  O25  1  0.945717  0.244110  0.777595  1
  O  O26  1  0.445717  0.255890  0.722405  1
  O  O27  1  0.054283  0.755890  0.222405  1
  O  O28  1  0.565649  0.219840  0.973062  1
  O  O29  1  0.934351  0.719840  0.473062  1
  O  O30  1  0.434351  0.780160  0.026938  1
  O  O31  1  0.065649  0.280160  0.526938  1
  O  O32  1  0.055081  0.233073  0.030173  1
  O  O33  1  0.444919  0.733073  0.530173  1
  O  O34  1  0.944919  0.766927  0.969827  1
  O  O35  1  0.555081  0.266927  0.469827  1
