# generated using pymatgen
data_Rb4YErF10
_symmetry_space_group_name_H-M   'P 1'
_cell_length_a   6.97421916
_cell_length_b   7.46651700
_cell_length_c   11.53837071
_cell_angle_alpha   90.00000000
_cell_angle_beta   90.24804433
_cell_angle_gamma   90.00000000
_symmetry_Int_Tables_number   1
_chemical_formula_structural   Rb4YErF10
_chemical_formula_sum   'Rb8 Y2 Er2 F20'
_cell_volume   600.83340050
_cell_formula_units_Z   2
loop_
 _symmetry_equiv_pos_site_id
 _symmetry_equiv_pos_as_xyz
  1  'x, y, z'
loop_
 _atom_site_type_symbol
 _atom_site_label
 _atom_site_symmetry_multiplicity
 _atom_site_fract_x
 _atom_site_fract_y
 _atom_site_fract_z
 _atom_site_occupancy
  Rb  Rb0  1  0.536800  0.997430  0.830522  1
  Rb  Rb1  1  0.463200  0.497430  0.169478  1
  Rb  Rb2  1  0.963538  0.997710  0.328068  1
  Rb  Rb3  1  0.036462  0.497710  0.671932  1
  Rb  Rb4  1  0.536800  0.502570  0.830522  1
  Rb  Rb5  1  0.463200  0.002570  0.169478  1
  Rb  Rb6  1  0.963538  0.502290  0.328068  1
  Rb  Rb7  1  0.036462  0.002290  0.671932  1
  Y  Y8  1  0.560381  0.250000  0.501887  1
  Y  Y9  1  0.439619  0.750000  0.498113  1
  Er  Er10  1  0.941606  0.250000  0.001473  1
  Er  Er11  1  0.058394  0.750000  0.998527  1
  F  F12  1  0.884110  0.750000  0.841520  1
  F  F13  1  0.115890  0.250000  0.158480  1
  F  F14  1  0.617461  0.750000  0.339499  1
  F  F15  1  0.382539  0.250000  0.660501  1
  F  F16  1  0.851379  0.250000  0.819703  1
  F  F17  1  0.148621  0.750000  0.180297  1
  F  F18  1  0.650060  0.250000  0.317538  1
  F  F19  1  0.349940  0.750000  0.682462  1
  F  F20  1  0.642873  0.964810  0.570271  1
  F  F21  1  0.357127  0.464810  0.429729  1
  F  F22  1  0.859333  0.964344  0.067552  1
  F  F23  1  0.140667  0.464344  0.932448  1
  F  F24  1  0.369631  0.750000  0.983665  1
  F  F25  1  0.630369  0.250000  0.016335  1
  F  F26  1  0.123435  0.750000  0.484643  1
  F  F27  1  0.876565  0.250000  0.515357  1
  F  F28  1  0.140667  0.035656  0.932448  1
  F  F29  1  0.859333  0.535656  0.067552  1
  F  F30  1  0.357127  0.035190  0.429729  1
  F  F31  1  0.642873  0.535190  0.570271  1
