# generated using pymatgen
data_Sr4GdTmTa2O12
_symmetry_space_group_name_H-M   'P 1'
_cell_length_a   5.86239346
_cell_length_b   5.92856206
_cell_length_c   8.31571235
_cell_angle_alpha   90.01332138
_cell_angle_beta   90.19682367
_cell_angle_gamma   89.98977526
_symmetry_Int_Tables_number   1
_chemical_formula_structural   Sr4GdTmTa2O12
_chemical_formula_sum   'Sr4 Gd1 Tm1 Ta2 O12'
_cell_volume   289.01555059
_cell_formula_units_Z   1
loop_
 _symmetry_equiv_pos_site_id
 _symmetry_equiv_pos_as_xyz
  1  'x, y, z'
loop_
 _atom_site_type_symbol
 _atom_site_label
 _atom_site_symmetry_multiplicity
 _atom_site_fract_x
 _atom_site_fract_y
 _atom_site_fract_z
 _atom_site_occupancy
  Sr  Sr0  1  0.491516  0.534542  0.252533  1
  Sr  Sr1  1  0.008635  0.036068  0.252773  1
  Sr  Sr2  1  0.991366  0.963932  0.747228  1
  Sr  Sr3  1  0.508484  0.465458  0.747468  1
  Gd  Gd4  1  0.500000  0.000000  0.000000  1
  Tm  Tm5  1  0.000000  0.499999  0.500000  1
  Ta  Ta6  1  0.000000  0.499999  0.000000  1
  Ta  Ta7  1  0.500001  0.000000  0.500000  1
  O  O8  1  0.273704  0.305849  0.042897  1
  O  O9  1  0.190975  0.774611  0.045965  1
  O  O10  1  0.919972  0.476906  0.236840  1
  O  O11  1  0.582326  0.976189  0.267409  1
  O  O12  1  0.299464  0.272488  0.456163  1
  O  O13  1  0.228369  0.796848  0.459758  1
  O  O14  1  0.771632  0.203152  0.540241  1
  O  O15  1  0.700536  0.727512  0.543837  1
  O  O16  1  0.417675  0.023811  0.732591  1
  O  O17  1  0.080029  0.523094  0.763160  1
  O  O18  1  0.809025  0.225389  0.954036  1
  O  O19  1  0.726295  0.694151  0.957103  1
