# generated using pymatgen
data_Tb3In3NiPdPt
_symmetry_space_group_name_H-M   'P 1'
_cell_length_a   7.75525200
_cell_length_b   7.75525129
_cell_length_c   3.71578800
_cell_angle_alpha   90.00000000
_cell_angle_beta   90.00000000
_cell_angle_gamma   119.99999451
_symmetry_Int_Tables_number   1
_chemical_formula_structural   Tb3In3NiPdPt
_chemical_formula_sum   'Tb3 In3 Ni1 Pd1 Pt1'
_cell_volume   193.54117463
_cell_formula_units_Z   1
loop_
 _symmetry_equiv_pos_site_id
 _symmetry_equiv_pos_as_xyz
  1  'x, y, z'
loop_
 _atom_site_type_symbol
 _atom_site_label
 _atom_site_symmetry_multiplicity
 _atom_site_fract_x
 _atom_site_fract_y
 _atom_site_fract_z
 _atom_site_occupancy
  Tb  Tb0  1  0.994274  0.587789  0.500000  1
  Tb  Tb1  1  0.593515  0.005726  0.500000  1
  Tb  Tb2  1  0.412211  0.406485  0.500000  1
  In  In3  1  0.748243  0.751214  0.000000  1
  In  In4  1  0.002971  0.251757  0.000000  1
  In  In5  1  0.248786  0.997029  0.000000  1
  Ni  Ni6  1  0.000000  0.000000  0.500000  1
  Pd  Pd7  1  0.333333  0.666667  0.000000  1
  Pt  Pt8  1  0.666667  0.333333  0.000000  1
