# generated using pymatgen
data_SmEuPd2O5
_symmetry_space_group_name_H-M   'P 1'
_cell_length_a   6.63082358
_cell_length_b   6.63133483
_cell_length_c   5.62299800
_cell_angle_alpha   90.00000000
_cell_angle_beta   90.00000000
_cell_angle_gamma   89.71104035
_symmetry_Int_Tables_number   1
_chemical_formula_structural   SmEuPd2O5
_chemical_formula_sum   'Sm2 Eu2 Pd4 O10'
_cell_volume   247.24688925
_cell_formula_units_Z   2
loop_
 _symmetry_equiv_pos_site_id
 _symmetry_equiv_pos_as_xyz
  1  'x, y, z'
loop_
 _atom_site_type_symbol
 _atom_site_label
 _atom_site_symmetry_multiplicity
 _atom_site_fract_x
 _atom_site_fract_y
 _atom_site_fract_z
 _atom_site_occupancy
  Sm  Sm0  1  0.258053  0.895641  0.500000  1
  Sm  Sm1  1  0.102395  0.254377  0.000000  1
  Eu  Eu2  1  0.740847  0.104244  0.500000  1
  Eu  Eu3  1  0.896541  0.741005  0.000000  1
  Pd  Pd4  1  0.594354  0.306586  0.000000  1
  Pd  Pd5  1  0.305515  0.406716  0.500000  1
  Pd  Pd6  1  0.406377  0.694371  0.000000  1
  Pd  Pd7  1  0.693843  0.592101  0.500000  1
  O  O8  1  0.596796  0.802193  0.260494  1
  O  O9  1  0.805769  0.399777  0.759806  1
  O  O10  1  0.397124  0.196728  0.744096  1
  O  O11  1  0.397124  0.196728  0.255904  1
  O  O12  1  0.004013  0.001265  0.750393  1
  O  O13  1  0.197336  0.602517  0.755823  1
  O  O14  1  0.197336  0.602517  0.244177  1
  O  O15  1  0.596796  0.802193  0.739506  1
  O  O16  1  0.004013  0.001265  0.249607  1
  O  O17  1  0.805769  0.399777  0.240194  1
