# generated using pymatgen
data_ErPa3Co4
_symmetry_space_group_name_H-M   'P 1'
_cell_length_a   3.71812400
_cell_length_b   5.60436874
_cell_length_c   7.15430472
_cell_angle_alpha   90.10490447
_cell_angle_beta   90.00000000
_cell_angle_gamma   90.00000000
_symmetry_Int_Tables_number   1
_chemical_formula_structural   ErPa3Co4
_chemical_formula_sum   'Er1 Pa3 Co4'
_cell_volume   149.07927688
_cell_formula_units_Z   1
loop_
 _symmetry_equiv_pos_site_id
 _symmetry_equiv_pos_as_xyz
  1  'x, y, z'
loop_
 _atom_site_type_symbol
 _atom_site_label
 _atom_site_symmetry_multiplicity
 _atom_site_fract_x
 _atom_site_fract_y
 _atom_site_fract_z
 _atom_site_occupancy
  Er  Er0  1  0.750000  0.834716  0.825362  1
  Pa  Pa1  1  0.250000  0.328750  0.678716  1
  Pa  Pa2  1  0.250000  0.175666  0.171615  1
  Pa  Pa3  1  0.750000  0.679747  0.327171  1
  Co  Co4  1  0.250000  0.840448  0.534945  1
  Co  Co5  1  0.250000  0.634939  0.078664  1
  Co  Co6  1  0.750000  0.178927  0.442350  1
  Co  Co7  1  0.750000  0.326805  0.941176  1
