# generated using pymatgen
data_Ce4PrU5O20
_symmetry_space_group_name_H-M   'P 1'
_cell_length_a   6.71245974
_cell_length_b   7.71070561
_cell_length_c   8.61972388
_cell_angle_alpha   103.11927751
_cell_angle_beta   97.89787334
_cell_angle_gamma   106.59720860
_symmetry_Int_Tables_number   1
_chemical_formula_structural   Ce4PrU5O20
_chemical_formula_sum   'Ce4 Pr1 U5 O20'
_cell_volume   406.49775713
_cell_formula_units_Z   1
loop_
 _symmetry_equiv_pos_site_id
 _symmetry_equiv_pos_as_xyz
  1  'x, y, z'
loop_
 _atom_site_type_symbol
 _atom_site_label
 _atom_site_symmetry_multiplicity
 _atom_site_fract_x
 _atom_site_fract_y
 _atom_site_fract_z
 _atom_site_occupancy
  Ce  Ce0  1  0.402989  0.798976  0.799805  1
  Ce  Ce1  1  0.400726  0.301597  0.799431  1
  Ce  Ce2  1  0.796213  0.099333  0.600640  1
  Ce  Ce3  1  0.797063  0.599236  0.600559  1
  Pr  Pr4  1  0.003648  0.000547  0.998950  1
  U  U5  1  0.003368  0.501580  0.000109  1
  U  U6  1  0.197632  0.399570  0.399950  1
  U  U7  1  0.199780  0.899784  0.400174  1
  U  U8  1  0.599832  0.699222  0.201237  1
  U  U9  1  0.600304  0.200172  0.200480  1
  O  O10  1  0.374628  0.085898  0.963739  1
  O  O11  1  0.362248  0.580924  0.964745  1
  O  O12  1  0.053371  0.245099  0.855336  1
  O  O13  1  0.055228  0.709559  0.852255  1
  O  O14  1  0.433346  0.515316  0.635907  1
  O  O15  1  0.428904  0.017406  0.637943  1
  O  O16  1  0.748267  0.376462  0.755222  1
  O  O17  1  0.744488  0.871992  0.744682  1
  O  O18  1  0.143777  0.666206  0.535766  1
  O  O19  1  0.139165  0.170956  0.540353  1
  O  O20  1  0.837273  0.316793  0.436037  1
  O  O21  1  0.541078  0.474646  0.338464  1
  O  O22  1  0.534994  0.966298  0.345399  1
  O  O23  1  0.847081  0.821207  0.436744  1
  O  O24  1  0.261698  0.134155  0.264299  1
  O  O25  1  0.255750  0.626059  0.251339  1
  O  O26  1  0.663857  0.434777  0.057965  1
  O  O27  1  0.655279  0.927410  0.068732  1
  O  O28  1  0.955697  0.291517  0.157160  1
  O  O29  1  0.962320  0.767304  0.156579  1
