# generated using pymatgen
data_TlBCl4
_symmetry_space_group_name_H-M   'P 1'
_cell_length_a   10.73516600
_cell_length_b   6.66260900
_cell_length_c   8.81951000
_cell_angle_alpha   90.00000000
_cell_angle_beta   90.00000000
_cell_angle_gamma   90.00000000
_symmetry_Int_Tables_number   1
_chemical_formula_structural   TlBCl4
_chemical_formula_sum   'Tl4 B4 Cl16'
_cell_volume   630.80851716
_cell_formula_units_Z   4
loop_
 _symmetry_equiv_pos_site_id
 _symmetry_equiv_pos_as_xyz
  1  'x, y, z'
loop_
 _atom_site_type_symbol
 _atom_site_label
 _atom_site_symmetry_multiplicity
 _atom_site_fract_x
 _atom_site_fract_y
 _atom_site_fract_z
 _atom_site_occupancy
  Tl  Tl0  1  0.680838  0.250000  0.170167  1
  Tl  Tl1  1  0.180839  0.250000  0.329833  1
  Tl  Tl2  1  0.819162  0.750000  0.670167  1
  Tl  Tl3  1  0.319162  0.750000  0.829833  1
  B  B4  1  0.928995  0.750000  0.191625  1
  B  B5  1  0.428995  0.750000  0.308376  1
  B  B6  1  0.571005  0.250000  0.691624  1
  B  B7  1  0.071006  0.250000  0.808375  1
  Cl  Cl8  1  0.793776  0.750000  0.059955  1
  Cl  Cl9  1  0.077743  0.750000  0.089553  1
  Cl  Cl10  1  0.418315  0.522941  0.182632  1
  Cl  Cl11  1  0.418315  0.977059  0.182632  1
  Cl  Cl12  1  0.918315  0.522941  0.317368  1
  Cl  Cl13  1  0.918315  0.977059  0.317368  1
  Cl  Cl14  1  0.577743  0.750000  0.410448  1
  Cl  Cl15  1  0.293777  0.750000  0.440046  1
  Cl  Cl16  1  0.706224  0.250000  0.559954  1
  Cl  Cl17  1  0.422257  0.250000  0.589552  1
  Cl  Cl18  1  0.081685  0.022941  0.682632  1
  Cl  Cl19  1  0.081685  0.477059  0.682632  1
  Cl  Cl20  1  0.581685  0.022941  0.817368  1
  Cl  Cl21  1  0.581685  0.477059  0.817368  1
  Cl  Cl22  1  0.922257  0.250000  0.910447  1
  Cl  Cl23  1  0.206224  0.250000  0.940045  1
