# generated using pymatgen
data_Yb2Zn21Pt
_symmetry_space_group_name_H-M   'P 1'
_cell_length_a   8.31921417
_cell_length_b   8.28946962
_cell_length_c   8.28947005
_cell_angle_alpha   98.82837412
_cell_angle_beta   100.25215496
_cell_angle_gamma   131.72203886
_symmetry_Int_Tables_number   1
_chemical_formula_structural   Yb2Zn21Pt
_chemical_formula_sum   'Yb2 Zn21 Pt1'
_cell_volume   390.02650911
_cell_formula_units_Z   1
loop_
 _symmetry_equiv_pos_site_id
 _symmetry_equiv_pos_as_xyz
  1  'x, y, z'
loop_
 _atom_site_type_symbol
 _atom_site_label
 _atom_site_symmetry_multiplicity
 _atom_site_fract_x
 _atom_site_fract_y
 _atom_site_fract_z
 _atom_site_occupancy
  Yb  Yb0  1  0.503702  0.503328  0.000374  1
  Yb  Yb1  1  0.746298  0.246672  0.499626  1
  Zn  Zn2  1  0.402040  0.077115  0.083712  1
  Zn  Zn3  1  0.992892  0.320071  0.914659  1
  Zn  Zn4  1  0.257108  0.671766  0.827178  1
  Zn  Zn5  1  0.847960  0.431671  0.175074  1
  Zn  Zn6  1  0.923862  0.596718  0.915538  1
  Zn  Zn7  1  0.681117  0.006852  0.083266  1
  Zn  Zn8  1  0.326138  0.741676  0.172855  1
  Zn  Zn9  1  0.568883  0.152149  0.825735  1
  Zn  Zn10  1  0.847960  0.672885  0.416288  1
  Zn  Zn11  1  0.257108  0.429929  0.585341  1
  Zn  Zn12  1  0.992892  0.078234  0.672822  1
  Zn  Zn13  1  0.402040  0.318329  0.324926  1
  Zn  Zn14  1  0.326138  0.153282  0.584462  1
  Zn  Zn15  1  0.568883  0.743148  0.416734  1
  Zn  Zn16  1  0.923862  0.008324  0.327145  1
  Zn  Zn17  1  0.681117  0.597851  0.674265  1
  Zn  Zn18  1  0.257591  0.752240  0.505350  1
  Zn  Zn19  1  0.992409  0.997760  0.994650  1
  Zn  Zn20  1  0.125000  0.875000  0.750000  1
  Zn  Zn21  1  0.125000  0.375000  0.250000  1
  Zn  Zn22  1  0.125000  0.875000  0.250000  1
  Pt  Pt23  1  0.625000  0.875000  0.750000  1
