# generated using pymatgen
data_Yb7Pr9(MgOs)4
_symmetry_space_group_name_H-M   'P 1'
_cell_length_a   10.04406516
_cell_length_b   10.02607919
_cell_length_c   10.04413039
_cell_angle_alpha   60.35048185
_cell_angle_beta   61.04861462
_cell_angle_gamma   60.35067040
_symmetry_Int_Tables_number   1
_chemical_formula_structural   Yb7Pr9(MgOs)4
_chemical_formula_sum   'Yb7 Pr9 Mg4 Os4'
_cell_volume   724.56899441
_cell_formula_units_Z   1
loop_
 _symmetry_equiv_pos_site_id
 _symmetry_equiv_pos_as_xyz
  1  'x, y, z'
loop_
 _atom_site_type_symbol
 _atom_site_label
 _atom_site_symmetry_multiplicity
 _atom_site_fract_x
 _atom_site_fract_y
 _atom_site_fract_z
 _atom_site_occupancy
  Yb  Yb0  1  0.051153  0.445548  0.450193  1
  Yb  Yb1  1  0.188802  0.811432  0.188837  1
  Yb  Yb2  1  0.658717  0.656811  0.658717  1
  Yb  Yb3  1  0.450190  0.445589  0.051158  1
  Yb  Yb4  1  0.049540  0.451120  0.049523  1
  Yb  Yb5  1  0.451432  0.051954  0.053568  1
  Yb  Yb6  1  0.053562  0.051954  0.451476  1
  Pr  Pr7  1  0.656508  0.658175  0.027309  1
  Pr  Pr8  1  0.659002  0.024909  0.659031  1
  Pr  Pr9  1  0.195588  0.808705  0.805048  1
  Pr  Pr10  1  0.450608  0.050092  0.450583  1
  Pr  Pr11  1  0.192486  0.189790  0.806317  1
  Pr  Pr12  1  0.027320  0.658183  0.656473  1
  Pr  Pr13  1  0.805037  0.808733  0.195553  1
  Pr  Pr14  1  0.806333  0.189818  0.192475  1
  Pr  Pr15  1  0.807961  0.191579  0.807998  1
  Mg  Mg16  1  0.422269  0.420166  0.422268  1
  Mg  Mg17  1  0.423478  0.734848  0.423450  1
  Mg  Mg18  1  0.731282  0.423157  0.420858  1
  Mg  Mg19  1  0.420857  0.423147  0.731285  1
  Os  Os20  1  0.864856  0.860659  0.864812  1
  Os  Os21  1  0.408419  0.868447  0.857909  1
  Os  Os22  1  0.866776  0.406676  0.866736  1
  Os  Os23  1  0.857822  0.868513  0.408427  1
