# generated using pymatgen
data_Ho4Er(In2Cu)2
_symmetry_space_group_name_H-M   'P 1'
_cell_length_a   3.63737900
_cell_length_b   8.01278000
_cell_length_c   17.90117201
_cell_angle_alpha   90.00281375
_cell_angle_beta   90.00000000
_cell_angle_gamma   90.00000000
_symmetry_Int_Tables_number   1
_chemical_formula_structural   Ho4Er(In2Cu)2
_chemical_formula_sum   'Ho8 Er2 In8 Cu4'
_cell_volume   521.73892513
_cell_formula_units_Z   2
loop_
 _symmetry_equiv_pos_site_id
 _symmetry_equiv_pos_as_xyz
  1  'x, y, z'
loop_
 _atom_site_type_symbol
 _atom_site_label
 _atom_site_symmetry_multiplicity
 _atom_site_fract_x
 _atom_site_fract_y
 _atom_site_fract_z
 _atom_site_occupancy
  Ho  Ho0  1  0.000000  0.500000  0.500000  1
  Ho  Ho1  1  0.000000  0.000000  0.000000  1
  Ho  Ho2  1  0.000000  0.738715  0.280287  1
  Ho  Ho3  1  0.000000  0.261285  0.719713  1
  Ho  Ho4  1  0.000000  0.761349  0.780265  1
  Ho  Ho5  1  0.000000  0.238651  0.219735  1
  Ho  Ho6  1  0.000000  0.618244  0.083079  1
  Ho  Ho7  1  0.000000  0.381756  0.916921  1
  Er  Er8  1  0.000000  0.881842  0.583173  1
  Er  Er9  1  0.000000  0.118158  0.416827  1
  In  In10  1  0.500000  0.707536  0.931049  1
  In  In11  1  0.500000  0.292464  0.068951  1
  In  In12  1  0.500000  0.792792  0.431149  1
  In  In13  1  0.500000  0.207208  0.568851  1
  In  In14  1  0.500000  0.578669  0.650096  1
  In  In15  1  0.500000  0.421331  0.349904  1
  In  In16  1  0.500000  0.921616  0.150147  1
  In  In17  1  0.500000  0.078384  0.849853  1
  Cu  Cu18  1  0.500000  0.524340  0.197309  1
  Cu  Cu19  1  0.500000  0.475660  0.802691  1
  Cu  Cu20  1  0.500000  0.975556  0.697169  1
  Cu  Cu21  1  0.500000  0.024444  0.302831  1
