# generated using pymatgen
data_SmNiSnH
_symmetry_space_group_name_H-M   'P 1'
_cell_length_a   4.31817700
_cell_length_b   7.17544000
_cell_length_c   8.42343800
_cell_angle_alpha   90.00000000
_cell_angle_beta   90.00000000
_cell_angle_gamma   90.00000000
_symmetry_Int_Tables_number   1
_chemical_formula_structural   SmNiSnH
_chemical_formula_sum   'Sm4 Ni4 Sn4 H4'
_cell_volume   260.99870998
_cell_formula_units_Z   4
loop_
 _symmetry_equiv_pos_site_id
 _symmetry_equiv_pos_as_xyz
  1  'x, y, z'
loop_
 _atom_site_type_symbol
 _atom_site_label
 _atom_site_symmetry_multiplicity
 _atom_site_fract_x
 _atom_site_fract_y
 _atom_site_fract_z
 _atom_site_occupancy
  Sm  Sm0  1  0.750000  0.013161  0.687481  1
  Sm  Sm1  1  0.250000  0.986839  0.312519  1
  Sm  Sm2  1  0.250000  0.486839  0.187481  1
  Sm  Sm3  1  0.750000  0.513161  0.812519  1
  Ni  Ni4  1  0.750000  0.779581  0.102751  1
  Ni  Ni5  1  0.250000  0.220419  0.897249  1
  Ni  Ni6  1  0.250000  0.720419  0.602751  1
  Ni  Ni7  1  0.750000  0.279581  0.397249  1
  Sn  Sn8  1  0.750000  0.657533  0.429550  1
  Sn  Sn9  1  0.250000  0.342467  0.570450  1
  Sn  Sn10  1  0.250000  0.842467  0.929550  1
  Sn  Sn11  1  0.750000  0.157533  0.070450  1
  H  H12  1  0.250000  0.441207  0.920179  1
  H  H13  1  0.750000  0.558793  0.079821  1
  H  H14  1  0.750000  0.058793  0.420179  1
  H  H15  1  0.250000  0.941207  0.579821  1
