# generated using pymatgen
data_ZnBi6(IrO9)2
_symmetry_space_group_name_H-M   'P 1'
_cell_length_a   9.31570500
_cell_length_b   9.31570399
_cell_length_c   5.14778100
_cell_angle_alpha   90.00000000
_cell_angle_beta   90.00000000
_cell_angle_gamma   119.99999768
_symmetry_Int_Tables_number   1
_chemical_formula_structural   ZnBi6(IrO9)2
_chemical_formula_sum   'Zn1 Bi6 Ir2 O18'
_cell_volume   386.88519611
_cell_formula_units_Z   1
loop_
 _symmetry_equiv_pos_site_id
 _symmetry_equiv_pos_as_xyz
  1  'x, y, z'
loop_
 _atom_site_type_symbol
 _atom_site_label
 _atom_site_symmetry_multiplicity
 _atom_site_fract_x
 _atom_site_fract_y
 _atom_site_fract_z
 _atom_site_occupancy
  Zn  Zn0  1  0.666667  0.333333  0.005883  1
  Bi  Bi1  1  0.985934  0.368994  0.505059  1
  Bi  Bi2  1  0.301118  0.294581  0.005790  1
  Bi  Bi3  1  0.993462  0.698882  0.005790  1
  Bi  Bi4  1  0.631006  0.616939  0.505059  1
  Bi  Bi5  1  0.383061  0.014066  0.505059  1
  Bi  Bi6  1  0.705419  0.006538  0.005790  1
  Ir  Ir7  1  0.000000  0.000000  0.501232  1
  Ir  Ir8  1  0.333333  0.666667  0.996240  1
  O  O9  1  0.088109  0.197919  0.708044  1
  O  O10  1  0.225738  0.468126  0.207985  1
  O  O11  1  0.135693  0.596990  0.779297  1
  O  O12  1  0.403010  0.538703  0.779297  1
  O  O13  1  0.242389  0.774262  0.207985  1
  O  O14  1  0.109808  0.911891  0.708044  1
  O  O15  1  0.531874  0.757611  0.207985  1
  O  O16  1  0.196548  0.075853  0.277673  1
  O  O17  1  0.461297  0.864307  0.779297  1
  O  O18  1  0.802081  0.890192  0.708044  1
  O  O19  1  0.450546  0.224658  0.778067  1
  O  O20  1  0.594130  0.122216  0.236966  1
  O  O21  1  0.528086  0.405870  0.236966  1
  O  O22  1  0.775342  0.225888  0.778067  1
  O  O23  1  0.924147  0.120695  0.277673  1
  O  O24  1  0.774112  0.549454  0.778067  1
  O  O25  1  0.877784  0.471914  0.236966  1
  O  O26  1  0.879305  0.803452  0.277673  1
