# generated using pymatgen
data_CePr4(RhO6)2
_symmetry_space_group_name_H-M   'P 1'
_cell_length_a   7.14305723
_cell_length_b   7.14305762
_cell_length_c   7.54807900
_cell_angle_alpha   74.47150624
_cell_angle_beta   74.47149704
_cell_angle_gamma   50.49810169
_symmetry_Int_Tables_number   1
_chemical_formula_structural   CePr4(RhO6)2
_chemical_formula_sum   'Ce1 Pr4 Rh2 O12'
_cell_volume   283.84956831
_cell_formula_units_Z   1
loop_
 _symmetry_equiv_pos_site_id
 _symmetry_equiv_pos_as_xyz
  1  'x, y, z'
loop_
 _atom_site_type_symbol
 _atom_site_label
 _atom_site_symmetry_multiplicity
 _atom_site_fract_x
 _atom_site_fract_y
 _atom_site_fract_z
 _atom_site_occupancy
  Ce  Ce0  1  0.306707  0.306707  0.353086  1
  Pr  Pr1  1  0.693498  0.693498  0.645457  1
  Pr  Pr2  1  0.693955  0.693955  0.159930  1
  Pr  Pr3  1  0.304958  0.304958  0.840320  1
  Pr  Pr4  1  0.000998  0.000998  0.497782  1
  Rh  Rh5  1  0.753375  0.245992  0.002119  1
  Rh  Rh6  1  0.245992  0.753375  0.002119  1
  O  O7  1  0.102524  0.589553  0.562398  1
  O  O8  1  0.000136  0.000136  0.174004  1
  O  O9  1  0.395516  0.919780  0.422765  1
  O  O10  1  0.498516  0.498516  0.184250  1
  O  O11  1  0.103353  0.567068  0.092547  1
  O  O12  1  0.919780  0.395516  0.422765  1
  O  O13  1  0.997448  0.997448  0.829045  1
  O  O14  1  0.589553  0.102523  0.562398  1
  O  O15  1  0.498686  0.498686  0.822671  1
  O  O16  1  0.567068  0.103353  0.092547  1
  O  O17  1  0.426895  0.901042  0.916898  1
  O  O18  1  0.901042  0.426895  0.916898  1
