# generated using pymatgen
data_Ca3La3(HoSn2)4
_symmetry_space_group_name_H-M   'P 1'
_cell_length_a   7.99652600
_cell_length_b   8.44910769
_cell_length_c   15.91100600
_cell_angle_alpha   90.11041290
_cell_angle_beta   90.00000000
_cell_angle_gamma   90.00000000
_symmetry_Int_Tables_number   1
_chemical_formula_structural   Ca3La3(HoSn2)4
_chemical_formula_sum   'Ca6 La6 Ho8 Sn16'
_cell_volume   1075.00140589
_cell_formula_units_Z   2
loop_
 _symmetry_equiv_pos_site_id
 _symmetry_equiv_pos_as_xyz
  1  'x, y, z'
loop_
 _atom_site_type_symbol
 _atom_site_label
 _atom_site_symmetry_multiplicity
 _atom_site_fract_x
 _atom_site_fract_y
 _atom_site_fract_z
 _atom_site_occupancy
  Ca  Ca0  1  0.500977  0.684606  0.905949  1
  Ca  Ca1  1  0.000977  0.815394  0.594051  1
  Ca  Ca2  1  0.829343  0.507430  0.750443  1
  Ca  Ca3  1  0.329343  0.992570  0.749557  1
  Ca  Ca4  1  0.171038  0.495395  0.249992  1
  Ca  Ca5  1  0.671038  0.004605  0.250008  1
  La  La6  1  0.503450  0.681860  0.593598  1
  La  La7  1  0.003450  0.818140  0.906402  1
  La  La8  1  0.497361  0.317907  0.095374  1
  La  La9  1  0.997361  0.182093  0.404626  1
  La  La10  1  0.496423  0.319305  0.404604  1
  La  La11  1  0.996423  0.180695  0.095396  1
  Ho  Ho12  1  0.666685  0.169567  0.623742  1
  Ho  Ho13  1  0.166685  0.330433  0.876258  1
  Ho  Ho14  1  0.335406  0.829667  0.122972  1
  Ho  Ho15  1  0.835406  0.670333  0.377028  1
  Ho  Ho16  1  0.333726  0.829037  0.376736  1
  Ho  Ho17  1  0.833726  0.670963  0.123264  1
  Ho  Ho18  1  0.665013  0.168763  0.875934  1
  Ho  Ho19  1  0.165013  0.331237  0.624066  1
  Sn  Sn20  1  0.672480  0.962163  0.461587  1
  Sn  Sn21  1  0.172480  0.537837  0.038413  1
  Sn  Sn22  1  0.325052  0.040714  0.962101  1
  Sn  Sn23  1  0.825052  0.459286  0.537899  1
  Sn  Sn24  1  0.325559  0.038080  0.538896  1
  Sn  Sn25  1  0.825559  0.461920  0.961104  1
  Sn  Sn26  1  0.674510  0.961567  0.038686  1
  Sn  Sn27  1  0.174510  0.538433  0.461314  1
  Sn  Sn28  1  0.464289  0.377934  0.749674  1
  Sn  Sn29  1  0.964289  0.122066  0.750326  1
  Sn  Sn30  1  0.536172  0.623250  0.249301  1
  Sn  Sn31  1  0.036172  0.876750  0.250699  1
  Sn  Sn32  1  0.707280  0.870194  0.750040  1
  Sn  Sn33  1  0.207280  0.629806  0.749960  1
  Sn  Sn34  1  0.295235  0.131156  0.249361  1
  Sn  Sn35  1  0.795235  0.368844  0.250639  1
