# generated using pymatgen
data_Dy3Tm2Bi2Ru
_symmetry_space_group_name_H-M   'P 1'
_cell_length_a   7.93069600
_cell_length_b   8.98882800
_cell_length_c   12.42481600
_cell_angle_alpha   90.00000000
_cell_angle_beta   90.00000000
_cell_angle_gamma   90.00000000
_symmetry_Int_Tables_number   1
_chemical_formula_structural   Dy3Tm2Bi2Ru
_chemical_formula_sum   'Dy12 Tm8 Bi8 Ru4'
_cell_volume   885.73608670
_cell_formula_units_Z   4
loop_
 _symmetry_equiv_pos_site_id
 _symmetry_equiv_pos_as_xyz
  1  'x, y, z'
loop_
 _atom_site_type_symbol
 _atom_site_label
 _atom_site_symmetry_multiplicity
 _atom_site_fract_x
 _atom_site_fract_y
 _atom_site_fract_z
 _atom_site_occupancy
  Dy  Dy0  1  0.842558  0.750000  0.792487  1
  Dy  Dy1  1  0.157442  0.250000  0.207513  1
  Dy  Dy2  1  0.342558  0.250000  0.707513  1
  Dy  Dy3  1  0.657442  0.750000  0.292487  1
  Dy  Dy4  1  0.374439  0.750000  0.689734  1
  Dy  Dy5  1  0.625561  0.250000  0.310266  1
  Dy  Dy6  1  0.874439  0.250000  0.810266  1
  Dy  Dy7  1  0.125561  0.750000  0.189734  1
  Dy  Dy8  1  0.945544  0.750000  0.504893  1
  Dy  Dy9  1  0.054456  0.250000  0.495107  1
  Dy  Dy10  1  0.445544  0.250000  0.995107  1
  Dy  Dy11  1  0.554456  0.750000  0.004893  1
  Tm  Tm12  1  0.672590  0.042454  0.564455  1
  Tm  Tm13  1  0.327410  0.957546  0.435545  1
  Tm  Tm14  1  0.172590  0.957546  0.935545  1
  Tm  Tm15  1  0.327410  0.542454  0.435545  1
  Tm  Tm16  1  0.827410  0.042454  0.064455  1
  Tm  Tm17  1  0.672590  0.457546  0.564455  1
  Tm  Tm18  1  0.827410  0.457546  0.064455  1
  Tm  Tm19  1  0.172590  0.542454  0.935545  1
  Bi  Bi20  1  0.567163  0.494806  0.827426  1
  Bi  Bi21  1  0.432837  0.505194  0.172574  1
  Bi  Bi22  1  0.067163  0.505194  0.672574  1
  Bi  Bi23  1  0.432837  0.994806  0.172574  1
  Bi  Bi24  1  0.932837  0.494806  0.327426  1
  Bi  Bi25  1  0.567163  0.005194  0.827426  1
  Bi  Bi26  1  0.932837  0.005194  0.327426  1
  Bi  Bi27  1  0.067163  0.994806  0.672574  1
  Ru  Ru28  1  0.572603  0.750000  0.509596  1
  Ru  Ru29  1  0.427397  0.250000  0.490404  1
  Ru  Ru30  1  0.072603  0.250000  0.990404  1
  Ru  Ru31  1  0.927397  0.750000  0.009596  1
