# generated using pymatgen
data_Tm3FeCo7P6Ru
_symmetry_space_group_name_H-M   'P 1'
_cell_length_a   3.69383400
_cell_length_b   10.52571600
_cell_length_c   12.10230100
_cell_angle_alpha   90.00000000
_cell_angle_beta   90.00000000
_cell_angle_gamma   90.00000000
_symmetry_Int_Tables_number   1
_chemical_formula_structural   Tm3FeCo7P6Ru
_chemical_formula_sum   'Tm6 Fe2 Co14 P12 Ru2'
_cell_volume   470.54045984
_cell_formula_units_Z   2
loop_
 _symmetry_equiv_pos_site_id
 _symmetry_equiv_pos_as_xyz
  1  'x, y, z'
loop_
 _atom_site_type_symbol
 _atom_site_label
 _atom_site_symmetry_multiplicity
 _atom_site_fract_x
 _atom_site_fract_y
 _atom_site_fract_z
 _atom_site_occupancy
  Tm  Tm0  1  0.000000  0.500000  0.525850  1
  Tm  Tm1  1  0.500000  0.000000  0.474150  1
  Tm  Tm2  1  0.500000  0.818735  0.204998  1
  Tm  Tm3  1  0.500000  0.181265  0.204998  1
  Tm  Tm4  1  0.000000  0.681265  0.795002  1
  Tm  Tm5  1  0.000000  0.318735  0.795002  1
  Fe  Fe6  1  0.000000  0.500000  0.987438  1
  Fe  Fe7  1  0.500000  0.000000  0.012562  1
  Co  Co8  1  0.500000  0.500000  0.701438  1
  Co  Co9  1  0.000000  0.000000  0.298562  1
  Co  Co10  1  0.500000  0.331528  0.990868  1
  Co  Co11  1  0.500000  0.668472  0.990868  1
  Co  Co12  1  0.000000  0.168472  0.009132  1
  Co  Co13  1  0.000000  0.831528  0.009132  1
  Co  Co14  1  0.500000  0.296819  0.431083  1
  Co  Co15  1  0.500000  0.703181  0.431083  1
  Co  Co16  1  0.000000  0.203181  0.568917  1
  Co  Co17  1  0.000000  0.796819  0.568917  1
  Co  Co18  1  0.500000  0.878088  0.707475  1
  Co  Co19  1  0.500000  0.121912  0.707475  1
  Co  Co20  1  0.000000  0.621912  0.292525  1
  Co  Co21  1  0.000000  0.378088  0.292525  1
  P  P22  1  0.500000  0.500000  0.881771  1
  P  P23  1  0.000000  0.000000  0.118229  1
  P  P24  1  0.500000  0.500000  0.350926  1
  P  P25  1  0.000000  0.000000  0.649074  1
  P  P26  1  0.500000  0.312335  0.617262  1
  P  P27  1  0.500000  0.687665  0.617262  1
  P  P28  1  0.000000  0.187665  0.382738  1
  P  P29  1  0.000000  0.812335  0.382738  1
  P  P30  1  0.500000  0.846061  0.893721  1
  P  P31  1  0.500000  0.153939  0.893721  1
  P  P32  1  0.000000  0.653939  0.106279  1
  P  P33  1  0.000000  0.346061  0.106279  1
  Ru  Ru34  1  0.500000  0.500000  0.158393  1
  Ru  Ru35  1  0.000000  0.000000  0.841607  1
