# generated using pymatgen
data_Tm(ZrRe6)4
_symmetry_space_group_name_H-M   'P 1'
_cell_length_a   8.50223297
_cell_length_b   8.50223212
_cell_length_c   8.50223200
_cell_angle_alpha   109.47122512
_cell_angle_beta   109.47122308
_cell_angle_gamma   109.47122023
_symmetry_Int_Tables_number   1
_chemical_formula_structural   Tm(ZrRe6)4
_chemical_formula_sum   'Tm1 Zr4 Re24'
_cell_volume   473.12618447
_cell_formula_units_Z   1
loop_
 _symmetry_equiv_pos_site_id
 _symmetry_equiv_pos_as_xyz
  1  'x, y, z'
loop_
 _atom_site_type_symbol
 _atom_site_label
 _atom_site_symmetry_multiplicity
 _atom_site_fract_x
 _atom_site_fract_y
 _atom_site_fract_z
 _atom_site_occupancy
  Tm  Tm0  1  0.000000  0.000000  0.000000  1
  Zr  Zr1  1  0.628530  0.000000  0.000000  1
  Zr  Zr2  1  0.000000  0.628530  0.000000  1
  Zr  Zr3  1  0.000000  0.000000  0.628530  1
  Zr  Zr4  1  0.371470  0.371470  0.371470  1
  Re  Re5  1  0.396344  0.676048  0.000000  1
  Re  Re6  1  0.720296  0.323952  0.323952  1
  Re  Re7  1  0.396344  0.000000  0.676048  1
  Re  Re8  1  0.676048  0.396344  0.000000  1
  Re  Re9  1  0.000000  0.396344  0.676048  1
  Re  Re10  1  0.323952  0.720296  0.323952  1
  Re  Re11  1  0.323952  0.323952  0.720296  1
  Re  Re12  1  0.000000  0.676048  0.396344  1
  Re  Re13  1  0.676048  0.000000  0.396344  1
  Re  Re14  1  0.603656  0.603656  0.279704  1
  Re  Re15  1  0.279704  0.603656  0.603656  1
  Re  Re16  1  0.603656  0.279704  0.603656  1
  Re  Re17  1  0.377730  0.194619  0.000000  1
  Re  Re18  1  0.183111  0.805381  0.805381  1
  Re  Re19  1  0.377730  0.000000  0.194619  1
  Re  Re20  1  0.194619  0.377730  0.000000  1
  Re  Re21  1  0.000000  0.377730  0.194619  1
  Re  Re22  1  0.805381  0.183111  0.805381  1
  Re  Re23  1  0.805381  0.805381  0.183111  1
  Re  Re24  1  0.000000  0.194619  0.377730  1
  Re  Re25  1  0.194619  0.000000  0.377730  1
  Re  Re26  1  0.622270  0.622270  0.816889  1
  Re  Re27  1  0.816889  0.622270  0.622270  1
  Re  Re28  1  0.622270  0.816889  0.622270  1
