# generated using pymatgen
data_Li8Pr8SnBiPb6
_symmetry_space_group_name_H-M   'P 1'
_cell_length_a   9.72223106
_cell_length_b   9.72223130
_cell_length_c   7.75065115
_cell_angle_alpha   89.93318838
_cell_angle_beta   90.06681237
_cell_angle_gamma   119.98686510
_symmetry_Int_Tables_number   1
_chemical_formula_structural   Li8Pr8SnBiPb6
_chemical_formula_sum   'Li8 Pr8 Sn1 Bi1 Pb6'
_cell_volume   634.53821371
_cell_formula_units_Z   1
loop_
 _symmetry_equiv_pos_site_id
 _symmetry_equiv_pos_as_xyz
  1  'x, y, z'
loop_
 _atom_site_type_symbol
 _atom_site_label
 _atom_site_symmetry_multiplicity
 _atom_site_fract_x
 _atom_site_fract_y
 _atom_site_fract_z
 _atom_site_occupancy
  Li  Li0  1  0.833047  0.166953  0.715459  1
  Li  Li1  1  0.832109  0.665515  0.712720  1
  Li  Li2  1  0.334485  0.167891  0.712720  1
  Li  Li3  1  0.167722  0.832278  0.213929  1
  Li  Li4  1  0.169789  0.336454  0.211077  1
  Li  Li5  1  0.663546  0.830211  0.211077  1
  Li  Li6  1  0.665821  0.334179  0.332524  1
  Li  Li7  1  0.333631  0.666369  0.832052  1
  Pr  Pr8  1  0.486702  0.513298  0.503635  1
  Pr  Pr9  1  0.483941  0.972781  0.505688  1
  Pr  Pr10  1  0.027219  0.516059  0.505688  1
  Pr  Pr11  1  0.511453  0.488547  0.004633  1
  Pr  Pr12  1  0.508031  0.020393  0.004260  1
  Pr  Pr13  1  0.979607  0.491969  0.004260  1
  Pr  Pr14  1  0.001445  0.998555  0.501836  1
  Pr  Pr15  1  0.001176  0.998824  0.998848  1
  Sn  Sn16  1  0.333210  0.666790  0.233450  1
  Bi  Bi17  1  0.833251  0.166749  0.268097  1
  Pb  Pb18  1  0.833549  0.666463  0.270643  1
  Pb  Pb19  1  0.333537  0.166451  0.270643  1
  Pb  Pb20  1  0.166630  0.833370  0.769600  1
  Pb  Pb21  1  0.166021  0.333299  0.770250  1
  Pb  Pb22  1  0.666701  0.833979  0.770250  1
  Pb  Pb23  1  0.667377  0.332623  0.734666  1
