# generated using pymatgen
data_YbErTaIr3
_symmetry_space_group_name_H-M   'P 1'
_cell_length_a   5.22199246
_cell_length_b   5.65318964
_cell_length_c   5.65318900
_cell_angle_alpha   59.99999789
_cell_angle_beta   57.22872776
_cell_angle_gamma   57.22873222
_symmetry_Int_Tables_number   1
_chemical_formula_structural   YbErTaIr3
_chemical_formula_sum   'Yb1 Er1 Ta1 Ir3'
_cell_volume   112.81985967
_cell_formula_units_Z   1
loop_
 _symmetry_equiv_pos_site_id
 _symmetry_equiv_pos_as_xyz
  1  'x, y, z'
loop_
 _atom_site_type_symbol
 _atom_site_label
 _atom_site_symmetry_multiplicity
 _atom_site_fract_x
 _atom_site_fract_y
 _atom_site_fract_z
 _atom_site_occupancy
  Yb  Yb0  1  0.749537  0.750154  0.750154  1
  Er  Er1  1  0.501490  0.499503  0.499503  1
  Ta  Ta2  1  0.622693  0.125769  0.125769  1
  Ir  Ir3  1  0.125427  0.124183  0.124183  1
  Ir  Ir4  1  0.125427  0.124183  0.626208  1
  Ir  Ir5  1  0.125427  0.626208  0.124183  1
