# generated using pymatgen
data_La2Ga(CuNi2)3
_symmetry_space_group_name_H-M   'P 1'
_cell_length_a   4.98769960
_cell_length_b   4.98770050
_cell_length_c   8.19542700
_cell_angle_alpha   90.00000000
_cell_angle_beta   90.00000000
_cell_angle_gamma   118.50689054
_symmetry_Int_Tables_number   1
_chemical_formula_structural   La2Ga(CuNi2)3
_chemical_formula_sum   'La2 Ga1 Cu3 Ni6'
_cell_volume   179.16054948
_cell_formula_units_Z   1
loop_
 _symmetry_equiv_pos_site_id
 _symmetry_equiv_pos_as_xyz
  1  'x, y, z'
loop_
 _atom_site_type_symbol
 _atom_site_label
 _atom_site_symmetry_multiplicity
 _atom_site_fract_x
 _atom_site_fract_y
 _atom_site_fract_z
 _atom_site_occupancy
  La  La0  1  0.000000  0.000000  0.746048  1
  La  La1  1  0.000000  0.000000  0.253952  1
  Ga  Ga2  1  0.500000  0.500000  0.500000  1
  Cu  Cu3  1  0.500000  0.500000  0.000000  1
  Cu  Cu4  1  0.000000  0.500000  0.000000  1
  Cu  Cu5  1  0.500000  0.000000  0.000000  1
  Ni  Ni6  1  0.667910  0.332090  0.749342  1
  Ni  Ni7  1  0.667910  0.332090  0.250658  1
  Ni  Ni8  1  0.332090  0.667910  0.749342  1
  Ni  Ni9  1  0.500000  0.000000  0.500000  1
  Ni  Ni10  1  0.332090  0.667910  0.250658  1
  Ni  Ni11  1  0.000000  0.500000  0.500000  1
