# generated using pymatgen
data_Dy5GaGe6P5Ir19
_symmetry_space_group_name_H-M   'P 1'
_cell_length_a   13.00283146
_cell_length_b   12.98403366
_cell_length_c   3.98071600
_cell_angle_alpha   90.00000000
_cell_angle_beta   90.00000000
_cell_angle_gamma   120.00236472
_symmetry_Int_Tables_number   1
_chemical_formula_structural   Dy5GaGe6P5Ir19
_chemical_formula_sum   'Dy5 Ga1 Ge6 P5 Ir19'
_cell_volume   582.00811897
_cell_formula_units_Z   1
loop_
 _symmetry_equiv_pos_site_id
 _symmetry_equiv_pos_as_xyz
  1  'x, y, z'
loop_
 _atom_site_type_symbol
 _atom_site_label
 _atom_site_symmetry_multiplicity
 _atom_site_fract_x
 _atom_site_fract_y
 _atom_site_fract_z
 _atom_site_occupancy
  Dy  Dy0  1  0.329972  0.666785  0.500000  1
  Dy  Dy1  1  0.670482  0.333140  0.500000  1
  Dy  Dy2  1  0.000215  0.816590  0.000000  1
  Dy  Dy3  1  0.183745  0.184725  0.000000  1
  Dy  Dy4  1  0.816810  0.997334  0.000000  1
  Ga  Ga5  1  0.996640  0.638113  0.500000  1
  Ge  Ge6  1  0.362423  0.363030  0.500000  1
  Ge  Ge7  1  0.640598  0.002086  0.500000  1
  Ge  Ge8  1  0.516612  0.681136  0.000000  1
  Ge  Ge9  1  0.318812  0.839629  0.000000  1
  Ge  Ge10  1  0.159894  0.481639  0.000000  1
  Ge  Ge11  1  0.484720  0.171284  0.000000  1
  P  P12  1  0.695387  0.514285  0.000000  1
  P  P13  1  0.829100  0.307801  0.000000  1
  P  P14  1  0.998489  0.174851  0.500000  1
  P  P15  1  0.822428  0.817648  0.500000  1
  P  P16  1  0.178629  0.003818  0.500000  1
  Ir  Ir17  1  0.518185  0.872119  0.000000  1
  Ir  Ir18  1  0.128138  0.648287  0.000000  1
  Ir  Ir19  1  0.350206  0.481561  0.000000  1
  Ir  Ir20  1  0.500256  0.372529  0.000000  1
  Ir  Ir21  1  0.869431  0.500127  0.000000  1
  Ir  Ir22  1  0.645811  0.130299  0.000000  1
  Ir  Ir23  1  0.007494  0.450614  0.500000  1
  Ir  Ir24  1  0.545887  0.558021  0.500000  1
  Ir  Ir25  1  0.449943  0.001672  0.500000  1
  Ir  Ir26  1  0.993809  0.270073  0.000000  1
  Ir  Ir27  1  0.725557  0.718393  0.000000  1
  Ir  Ir28  1  0.272999  0.005358  0.000000  1
  Ir  Ir29  1  0.637113  0.809727  0.500000  1
  Ir  Ir30  1  0.193495  0.829140  0.500000  1
  Ir  Ir31  1  0.171859  0.363305  0.500000  1
  Ir  Ir32  1  0.373514  0.180726  0.500000  1
  Ir  Ir33  1  0.787905  0.611108  0.500000  1
  Ir  Ir34  1  0.825648  0.205847  0.500000  1
  Ir  Ir35  1  0.997793  0.997197  0.500000  1
