# generated using pymatgen
data_La13Pr3Cd4Co3Tc
_symmetry_space_group_name_H-M   'P 1'
_cell_length_a   10.01471011
_cell_length_b   9.94062341
_cell_length_c   9.95118200
_cell_angle_alpha   59.96485762
_cell_angle_beta   60.20961969
_cell_angle_gamma   60.22719264
_symmetry_Int_Tables_number   1
_chemical_formula_structural   La13Pr3Cd4Co3Tc
_chemical_formula_sum   'La13 Pr3 Cd4 Co3 Tc1'
_cell_volume   702.62121677
_cell_formula_units_Z   1
loop_
 _symmetry_equiv_pos_site_id
 _symmetry_equiv_pos_as_xyz
  1  'x, y, z'
loop_
 _atom_site_type_symbol
 _atom_site_label
 _atom_site_symmetry_multiplicity
 _atom_site_fract_x
 _atom_site_fract_y
 _atom_site_fract_z
 _atom_site_occupancy
  La  La0  1  0.681782  0.693692  0.312264  1
  La  La1  1  0.161240  0.152113  0.534602  1
  La  La2  1  0.306674  0.692107  0.690446  1
  La  La3  1  0.161240  0.152113  0.152043  1
  La  La4  1  0.539937  0.152792  0.153634  1
  La  La5  1  0.306674  0.692107  0.310773  1
  La  La6  1  0.307637  0.310093  0.691135  1
  La  La7  1  0.683807  0.311612  0.691804  1
  La  La8  1  0.934786  0.558397  0.558910  1
  La  La9  1  0.559759  0.559492  0.940375  1
  La  La10  1  0.160180  0.536322  0.151748  1
  La  La11  1  0.683807  0.311612  0.312778  1
  La  La12  1  0.934786  0.558397  0.947905  1
  Pr  Pr13  1  0.933242  0.943912  0.561422  1
  Pr  Pr14  1  0.561775  0.939051  0.562195  1
  Pr  Pr15  1  0.561775  0.939051  0.936979  1
  Cd  Cd16  1  0.240062  0.920326  0.919805  1
  Cd  Cd17  1  0.920338  0.922049  0.920881  1
  Cd  Cd18  1  0.920338  0.922049  0.236732  1
  Cd  Cd19  1  0.920880  0.236175  0.921472  1
  Co  Co20  1  0.370252  0.357543  0.915782  1
  Co  Co21  1  0.369220  0.916027  0.357376  1
  Co  Co22  1  0.370252  0.357543  0.356422  1
  Tc  Tc23  1  0.909552  0.365423  0.362512  1
