# generated using pymatgen
data_Dy2Si7(NiRu)6
_symmetry_space_group_name_H-M   'P 1'
_cell_length_a   9.45317100
_cell_length_b   9.45317055
_cell_length_c   3.74862700
_cell_angle_alpha   90.00000000
_cell_angle_beta   90.00000000
_cell_angle_gamma   119.99999808
_symmetry_Int_Tables_number   1
_chemical_formula_structural   Dy2Si7(NiRu)6
_chemical_formula_sum   'Dy2 Si7 Ni6 Ru6'
_cell_volume   290.10677839
_cell_formula_units_Z   1
loop_
 _symmetry_equiv_pos_site_id
 _symmetry_equiv_pos_as_xyz
  1  'x, y, z'
loop_
 _atom_site_type_symbol
 _atom_site_label
 _atom_site_symmetry_multiplicity
 _atom_site_fract_x
 _atom_site_fract_y
 _atom_site_fract_z
 _atom_site_occupancy
  Dy  Dy0  1  0.666667  0.333333  0.000000  1
  Dy  Dy1  1  0.000000  0.000000  0.500000  1
  Si  Si2  1  0.447512  0.066096  0.500000  1
  Si  Si3  1  0.933904  0.381416  0.500000  1
  Si  Si4  1  0.618584  0.552488  0.500000  1
  Si  Si5  1  0.333333  0.666667  0.000000  1
  Si  Si6  1  0.732893  0.952876  0.000000  1
  Si  Si7  1  0.047124  0.780017  0.000000  1
  Si  Si8  1  0.219983  0.267107  0.000000  1
  Ni  Ni9  1  0.765248  0.726529  0.000000  1
  Ni  Ni10  1  0.273471  0.038720  0.000000  1
  Ni  Ni11  1  0.961280  0.234752  0.000000  1
  Ni  Ni12  1  0.487124  0.944685  0.000000  1
  Ni  Ni13  1  0.055315  0.542439  0.000000  1
  Ni  Ni14  1  0.457561  0.512876  0.000000  1
  Ru  Ru15  1  0.722034  0.103741  0.500000  1
  Ru  Ru16  1  0.896259  0.618293  0.500000  1
  Ru  Ru17  1  0.381707  0.277966  0.500000  1
  Ru  Ru18  1  0.547466  0.761929  0.500000  1
  Ru  Ru19  1  0.238071  0.785537  0.500000  1
  Ru  Ru20  1  0.214463  0.452534  0.500000  1
