# generated using pymatgen
data_Ta12Al8NiRh3C4
_symmetry_space_group_name_H-M   'P 1'
_cell_length_a   8.30329663
_cell_length_b   8.28784980
_cell_length_c   8.30329500
_cell_angle_alpha   59.93832961
_cell_angle_beta   60.00000251
_cell_angle_gamma   59.93832415
_symmetry_Int_Tables_number   1
_chemical_formula_structural   Ta12Al8NiRh3C4
_chemical_formula_sum   'Ta12 Al8 Ni1 Rh3 C4'
_cell_volume   403.66623992
_cell_formula_units_Z   1
loop_
 _symmetry_equiv_pos_site_id
 _symmetry_equiv_pos_as_xyz
  1  'x, y, z'
loop_
 _atom_site_type_symbol
 _atom_site_label
 _atom_site_symmetry_multiplicity
 _atom_site_fract_x
 _atom_site_fract_y
 _atom_site_fract_z
 _atom_site_occupancy
  Ta  Ta0  1  0.564953  0.935352  0.564953  1
  Ta  Ta1  1  0.315171  0.686213  0.683444  1
  Ta  Ta2  1  0.685047  0.314648  0.315259  1
  Ta  Ta3  1  0.315171  0.686213  0.315171  1
  Ta  Ta4  1  0.683444  0.686213  0.315171  1
  Ta  Ta5  1  0.315259  0.314648  0.685047  1
  Ta  Ta6  1  0.566556  0.563787  0.934829  1
  Ta  Ta7  1  0.934829  0.563787  0.566556  1
  Ta  Ta8  1  0.564953  0.935352  0.934741  1
  Ta  Ta9  1  0.934741  0.935352  0.564953  1
  Ta  Ta10  1  0.685047  0.314648  0.685047  1
  Ta  Ta11  1  0.934829  0.563787  0.934829  1
  Al  Al12  1  0.919496  0.912419  0.919496  1
  Al  Al13  1  0.001411  0.337581  0.330504  1
  Al  Al14  1  0.332927  0.001219  0.332927  1
  Al  Al15  1  0.330504  0.337581  0.001411  1
  Al  Al16  1  0.917073  0.248781  0.917073  1
  Al  Al17  1  0.919496  0.912419  0.248589  1
  Al  Al18  1  0.248589  0.912419  0.919496  1
  Al  Al19  1  0.330504  0.337581  0.330504  1
  Ni  Ni20  1  0.125000  0.625000  0.125000  1
  Rh  Rh21  1  0.125000  0.125000  0.125000  1
  Rh  Rh22  1  0.625000  0.125000  0.125000  1
  Rh  Rh23  1  0.125000  0.125000  0.625000  1
  C  C24  1  0.625000  0.625000  0.625000  1
  C  C25  1  0.125000  0.625000  0.625000  1
  C  C26  1  0.625000  0.125000  0.625000  1
  C  C27  1  0.625000  0.625000  0.125000  1
