# generated using pymatgen
data_CaYb2Y3(Si3Ru)8
_symmetry_space_group_name_H-M   'P 1'
_cell_length_a   10.14928582
_cell_length_b   10.14928700
_cell_length_c   8.12988471
_cell_angle_alpha   89.94192671
_cell_angle_beta   90.05807187
_cell_angle_gamma   132.77024850
_symmetry_Int_Tables_number   1
_chemical_formula_structural   CaYb2Y3(Si3Ru)8
_chemical_formula_sum   'Ca1 Yb2 Y3 Si24 Ru8'
_cell_volume   614.75214428
_cell_formula_units_Z   1
loop_
 _symmetry_equiv_pos_site_id
 _symmetry_equiv_pos_as_xyz
  1  'x, y, z'
loop_
 _atom_site_type_symbol
 _atom_site_label
 _atom_site_symmetry_multiplicity
 _atom_site_fract_x
 _atom_site_fract_y
 _atom_site_fract_z
 _atom_site_occupancy
  Ca  Ca0  1  0.001501  0.501501  0.250000  1
  Yb  Yb1  1  0.000262  0.000261  0.000360  1
  Yb  Yb2  1  0.500261  0.500262  0.499640  1
  Y  Y3  1  0.499413  0.999413  0.750000  1
  Y  Y4  1  0.998654  0.498654  0.750000  1
  Y  Y5  1  0.501242  0.001242  0.250000  1
  Si  Si6  1  0.294793  0.703756  0.000501  1
  Si  Si7  1  0.796229  0.205618  0.498919  1
  Si  Si8  1  0.705618  0.296229  0.001081  1
  Si  Si9  1  0.203756  0.794793  0.499499  1
  Si  Si10  1  0.832754  0.834156  0.332555  1
  Si  Si11  1  0.166085  0.168777  0.667285  1
  Si  Si12  1  0.668777  0.666085  0.832715  1
  Si  Si13  1  0.334156  0.332754  0.167445  1
  Si  Si14  1  0.621815  0.389483  0.230071  1
  Si  Si15  1  0.608891  0.377179  0.770363  1
  Si  Si16  1  0.108846  0.876949  0.729762  1
  Si  Si17  1  0.123748  0.891362  0.269896  1
  Si  Si18  1  0.376949  0.608846  0.770238  1
  Si  Si19  1  0.391362  0.623748  0.230104  1
  Si  Si20  1  0.889483  0.121815  0.269929  1
  Si  Si21  1  0.877179  0.108891  0.729637  1
  Si  Si22  1  0.846084  0.613683  0.004865  1
  Si  Si23  1  0.386209  0.154229  0.993697  1
  Si  Si24  1  0.885918  0.653445  0.507136  1
  Si  Si25  1  0.345427  0.113816  0.493113  1
  Si  Si26  1  0.153445  0.385918  0.992864  1
  Si  Si27  1  0.613816  0.845427  0.006887  1
  Si  Si28  1  0.113683  0.346084  0.495135  1
  Si  Si29  1  0.654229  0.886209  0.506303  1
  Ru  Ru30  1  0.171927  0.830000  0.998595  1
  Ru  Ru31  1  0.668863  0.327691  0.501503  1
  Ru  Ru32  1  0.827691  0.168863  0.998497  1
  Ru  Ru33  1  0.330000  0.671927  0.501405  1
  Ru  Ru34  1  0.626108  0.626247  0.125763  1
  Ru  Ru35  1  0.374006  0.374581  0.874409  1
  Ru  Ru36  1  0.874581  0.874006  0.625591  1
  Ru  Ru37  1  0.126247  0.126108  0.374237  1
