# generated using pymatgen
data_MgTiNb2(PRh)4
_symmetry_space_group_name_H-M   'P 1'
_cell_length_a   3.74245100
_cell_length_b   6.33887405
_cell_length_c   7.27018549
_cell_angle_alpha   89.58824074
_cell_angle_beta   90.00000000
_cell_angle_gamma   90.00000000
_symmetry_Int_Tables_number   1
_chemical_formula_structural   MgTiNb2(PRh)4
_chemical_formula_sum   'Mg1 Ti1 Nb2 P4 Rh4'
_cell_volume   172.46561529
_cell_formula_units_Z   1
loop_
 _symmetry_equiv_pos_site_id
 _symmetry_equiv_pos_as_xyz
  1  'x, y, z'
loop_
 _atom_site_type_symbol
 _atom_site_label
 _atom_site_symmetry_multiplicity
 _atom_site_fract_x
 _atom_site_fract_y
 _atom_site_fract_z
 _atom_site_occupancy
  Mg  Mg0  1  0.250000  0.531987  0.677456  1
  Ti  Ti1  1  0.250000  0.028154  0.827369  1
  Nb  Nb2  1  0.750000  0.971219  0.174584  1
  Nb  Nb3  1  0.750000  0.468542  0.323671  1
  P  P4  1  0.250000  0.760862  0.371340  1
  P  P5  1  0.250000  0.262488  0.126074  1
  P  P6  1  0.750000  0.239107  0.621876  1
  P  P7  1  0.750000  0.750154  0.880562  1
  Rh  Rh8  1  0.250000  0.143639  0.442889  1
  Rh  Rh9  1  0.250000  0.646202  0.057224  1
  Rh  Rh10  1  0.750000  0.850636  0.565796  1
  Rh  Rh11  1  0.750000  0.347011  0.931159  1
