# generated using pymatgen
data_Er3In3GePdPt
_symmetry_space_group_name_H-M   'P 1'
_cell_length_a   7.46652000
_cell_length_b   7.46651914
_cell_length_c   4.09540000
_cell_angle_alpha   90.00000000
_cell_angle_beta   90.00000000
_cell_angle_gamma   120.00000383
_symmetry_Int_Tables_number   1
_chemical_formula_structural   Er3In3GePdPt
_chemical_formula_sum   'Er3 In3 Ge1 Pd1 Pt1'
_cell_volume   197.72580671
_cell_formula_units_Z   1
loop_
 _symmetry_equiv_pos_site_id
 _symmetry_equiv_pos_as_xyz
  1  'x, y, z'
loop_
 _atom_site_type_symbol
 _atom_site_label
 _atom_site_symmetry_multiplicity
 _atom_site_fract_x
 _atom_site_fract_y
 _atom_site_fract_z
 _atom_site_occupancy
  Er  Er0  1  0.594589  0.009814  0.500000  1
  Er  Er1  1  0.415225  0.405411  0.500000  1
  Er  Er2  1  0.990186  0.584775  0.500000  1
  In  In3  1  0.749210  0.743178  0.000000  1
  In  In4  1  0.993968  0.250790  0.000000  1
  In  In5  1  0.256822  0.006032  0.000000  1
  Ge  Ge6  1  0.333333  0.666667  0.000000  1
  Pd  Pd7  1  0.000000  0.000000  0.500000  1
  Pt  Pt8  1  0.666667  0.333333  0.000000  1
