# generated using pymatgen
data_Y12TmTh3(MgRh)4
_symmetry_space_group_name_H-M   'P 1'
_cell_length_a   9.81263688
_cell_length_b   9.79528607
_cell_length_c   9.79528500
_cell_angle_alpha   59.99999347
_cell_angle_beta   60.05846823
_cell_angle_gamma   60.05846853
_symmetry_Int_Tables_number   1
_chemical_formula_structural   Y12TmTh3(MgRh)4
_chemical_formula_sum   'Y12 Tm1 Th3 Mg4 Rh4'
_cell_volume   666.32813575
_cell_formula_units_Z   1
loop_
 _symmetry_equiv_pos_site_id
 _symmetry_equiv_pos_as_xyz
  1  'x, y, z'
loop_
 _atom_site_type_symbol
 _atom_site_label
 _atom_site_symmetry_multiplicity
 _atom_site_fract_x
 _atom_site_fract_y
 _atom_site_fract_z
 _atom_site_occupancy
  Y  Y0  1  0.062479  0.438163  0.438163  1
  Y  Y1  1  0.437313  0.063303  0.063303  1
  Y  Y2  1  0.437313  0.063303  0.436079  1
  Y  Y3  1  0.062479  0.438163  0.061193  1
  Y  Y4  1  0.437313  0.436079  0.063303  1
  Y  Y5  1  0.062479  0.061193  0.438163  1
  Y  Y6  1  0.185144  0.814628  0.814628  1
  Y  Y7  1  0.815513  0.184416  0.184416  1
  Y  Y8  1  0.815513  0.184416  0.815655  1
  Y  Y9  1  0.185144  0.814628  0.185600  1
  Y  Y10  1  0.815513  0.815655  0.184416  1
  Y  Y11  1  0.185144  0.185600  0.814628  1
  Tm  Tm12  1  0.205886  0.598038  0.598038  1
  Th  Th13  1  0.595546  0.598508  0.598508  1
  Th  Th14  1  0.595546  0.598508  0.207439  1
  Th  Th15  1  0.595546  0.207439  0.598508  1
  Mg  Mg16  1  0.831351  0.829727  0.829727  1
  Mg  Mg17  1  0.831351  0.829727  0.509193  1
  Mg  Mg18  1  0.831351  0.509193  0.829727  1
  Mg  Mg19  1  0.507385  0.830872  0.830872  1
  Rh  Rh20  1  0.395970  0.393761  0.393761  1
  Rh  Rh21  1  0.395970  0.393761  0.816508  1
  Rh  Rh22  1  0.395970  0.816508  0.393761  1
  Rh  Rh23  1  0.816781  0.394406  0.394406  1
