# generated using pymatgen
data_LaGdDyNbO7
_symmetry_space_group_name_H-M   'P 1'
_cell_length_a   6.56551651
_cell_length_b   6.56551551
_cell_length_c   7.69990400
_cell_angle_alpha   90.00000000
_cell_angle_beta   90.00000000
_cell_angle_gamma   109.13503412
_symmetry_Int_Tables_number   1
_chemical_formula_structural   LaGdDyNbO7
_chemical_formula_sum   'La2 Gd2 Dy2 Nb2 O14'
_cell_volume   313.57347697
_cell_formula_units_Z   2
loop_
 _symmetry_equiv_pos_site_id
 _symmetry_equiv_pos_as_xyz
  1  'x, y, z'
loop_
 _atom_site_type_symbol
 _atom_site_label
 _atom_site_symmetry_multiplicity
 _atom_site_fract_x
 _atom_site_fract_y
 _atom_site_fract_z
 _atom_site_occupancy
  La  La0  1  0.501549  0.501549  0.500000  1
  La  La1  1  0.501549  0.501549  0.000000  1
  Gd  Gd2  1  0.466796  0.999398  0.250000  1
  Gd  Gd3  1  0.999398  0.466796  0.750000  1
  Dy  Dy4  1  0.535446  0.000973  0.750000  1
  Dy  Dy5  1  0.000973  0.535446  0.250000  1
  Nb  Nb6  1  0.000867  0.000867  0.500000  1
  Nb  Nb7  1  0.000867  0.000867  0.000000  1
  O  O8  1  0.679300  0.931542  0.470788  1
  O  O9  1  0.931542  0.679300  0.529212  1
  O  O10  1  0.679300  0.931542  0.029212  1
  O  O11  1  0.931542  0.679300  0.970788  1
  O  O12  1  0.317790  0.066612  0.536131  1
  O  O13  1  0.066612  0.317790  0.463869  1
  O  O14  1  0.317790  0.066612  0.963869  1
  O  O15  1  0.066612  0.317790  0.036131  1
  O  O16  1  0.366743  0.638992  0.750000  1
  O  O17  1  0.638992  0.366743  0.250000  1
  O  O18  1  0.641545  0.356476  0.750000  1
  O  O19  1  0.356476  0.641545  0.250000  1
  O  O20  1  0.934164  0.064148  0.750000  1
  O  O21  1  0.064148  0.934164  0.250000  1
