# generated using pymatgen
data_BaSb12OsPdRu2
_symmetry_space_group_name_H-M   'P 1'
_cell_length_a   8.19523073
_cell_length_b   8.19605610
_cell_length_c   8.20344568
_cell_angle_alpha   109.50115376
_cell_angle_beta   109.48725149
_cell_angle_gamma   109.42077882
_symmetry_Int_Tables_number   1
_chemical_formula_structural   BaSb12OsPdRu2
_chemical_formula_sum   'Ba1 Sb12 Os1 Pd1 Ru2'
_cell_volume   424.19382135
_cell_formula_units_Z   1
loop_
 _symmetry_equiv_pos_site_id
 _symmetry_equiv_pos_as_xyz
  1  'x, y, z'
loop_
 _atom_site_type_symbol
 _atom_site_label
 _atom_site_symmetry_multiplicity
 _atom_site_fract_x
 _atom_site_fract_y
 _atom_site_fract_z
 _atom_site_occupancy
  Ba  Ba0  1  0.000000  0.000000  0.000000  1
  Sb  Sb1  1  0.340063  0.180901  0.840343  1
  Sb  Sb2  1  0.659937  0.819099  0.159657  1
  Sb  Sb3  1  0.649613  0.498418  0.838933  1
  Sb  Sb4  1  0.350387  0.501582  0.161067  1
  Sb  Sb5  1  0.189584  0.848868  0.350420  1
  Sb  Sb6  1  0.810416  0.151132  0.649580  1
  Sb  Sb7  1  0.500607  0.839894  0.659045  1
  Sb  Sb8  1  0.499393  0.160106  0.340955  1
  Sb  Sb9  1  0.840121  0.341575  0.190035  1
  Sb  Sb10  1  0.159879  0.658425  0.809965  1
  Sb  Sb11  1  0.840691  0.660241  0.500242  1
  Sb  Sb12  1  0.159309  0.339759  0.499758  1
  Os  Os13  1  0.500000  0.000000  0.000000  1
  Pd  Pd14  1  0.000000  0.500000  0.000000  1
  Ru  Ru15  1  0.000000  0.000000  0.500000  1
  Ru  Ru16  1  0.500000  0.500000  0.500000  1
