# generated using pymatgen
data_LiDy(PSe3)2
_symmetry_space_group_name_H-M   'P 1'
_cell_length_a   6.58624015
_cell_length_b   6.58623878
_cell_length_c   7.71871200
_cell_angle_alpha   82.03769630
_cell_angle_beta   82.03769796
_cell_angle_gamma   119.97640161
_symmetry_Int_Tables_number   1
_chemical_formula_structural   LiDy(PSe3)2
_chemical_formula_sum   'Li1 Dy1 P2 Se6'
_cell_volume   278.69269201
_cell_formula_units_Z   1
loop_
 _symmetry_equiv_pos_site_id
 _symmetry_equiv_pos_as_xyz
  1  'x, y, z'
loop_
 _atom_site_type_symbol
 _atom_site_label
 _atom_site_symmetry_multiplicity
 _atom_site_fract_x
 _atom_site_fract_y
 _atom_site_fract_z
 _atom_site_occupancy
  Li  Li0  1  0.333078  0.666922  0.000000  1
  Dy  Dy1  1  0.666710  0.333290  0.000000  1
  P  P2  1  0.049116  0.048976  0.848436  1
  P  P3  1  0.951024  0.950884  0.151564  1
  Se  Se4  1  0.087470  0.403545  0.762211  1
  Se  Se5  1  0.393127  0.066466  0.762336  1
  Se  Se6  1  0.933533  0.606873  0.237664  1
  Se  Se7  1  0.596455  0.912530  0.237789  1
  Se  Se8  1  0.239035  0.249547  0.237327  1
  Se  Se9  1  0.750453  0.760965  0.762673  1
