# generated using pymatgen
data_BaLiPRh2
_symmetry_space_group_name_H-M   'P 1'
_cell_length_a   6.19407172
_cell_length_b   6.19407133
_cell_length_c   6.19407193
_cell_angle_alpha   139.41967222
_cell_angle_beta   139.41966950
_cell_angle_gamma   58.73551686
_symmetry_Int_Tables_number   1
_chemical_formula_structural   BaLiPRh2
_chemical_formula_sum   'Ba1 Li1 P1 Rh2'
_cell_volume   99.61981085
_cell_formula_units_Z   1
loop_
 _symmetry_equiv_pos_site_id
 _symmetry_equiv_pos_as_xyz
  1  'x, y, z'
loop_
 _atom_site_type_symbol
 _atom_site_label
 _atom_site_symmetry_multiplicity
 _atom_site_fract_x
 _atom_site_fract_y
 _atom_site_fract_z
 _atom_site_occupancy
  Ba  Ba0  1  0.000014  0.000014  0.000000  1
  Li  Li1  1  0.639454  0.639454  0.000000  1
  P  P2  1  0.339112  0.339112  0.000000  1
  Rh  Rh3  1  0.760710  0.260710  0.500000  1
  Rh  Rh4  1  0.260710  0.760710  0.500000  1
