# generated using pymatgen
data_Yb2CeEr(Pd2Pb)2
_symmetry_space_group_name_H-M   'P 1'
_cell_length_a   7.89344649
_cell_length_b   7.89344631
_cell_length_c   3.67954400
_cell_angle_alpha   90.00000000
_cell_angle_beta   90.00000000
_cell_angle_gamma   91.06333989
_symmetry_Int_Tables_number   1
_chemical_formula_structural   Yb2CeEr(Pd2Pb)2
_chemical_formula_sum   'Yb2 Ce1 Er1 Pd4 Pb2'
_cell_volume   229.22001301
_cell_formula_units_Z   1
loop_
 _symmetry_equiv_pos_site_id
 _symmetry_equiv_pos_as_xyz
  1  'x, y, z'
loop_
 _atom_site_type_symbol
 _atom_site_label
 _atom_site_symmetry_multiplicity
 _atom_site_fract_x
 _atom_site_fract_y
 _atom_site_fract_z
 _atom_site_occupancy
  Yb  Yb0  1  0.168824  0.327835  0.500000  1
  Yb  Yb1  1  0.827835  0.668824  0.500000  1
  Ce  Ce2  1  0.327260  0.827260  0.500000  1
  Er  Er3  1  0.673158  0.173158  0.500000  1
  Pd  Pd4  1  0.376911  0.125393  0.000000  1
  Pd  Pd5  1  0.129164  0.629164  0.000000  1
  Pd  Pd6  1  0.625393  0.876911  0.000000  1
  Pd  Pd7  1  0.872825  0.372825  0.000000  1
  Pb  Pb8  1  0.997504  0.001125  0.000000  1
  Pb  Pb9  1  0.501125  0.497504  0.000000  1
