# generated using pymatgen
data_Ho20Ir5Ru6Au
_symmetry_space_group_name_H-M   'P 1'
_cell_length_a   10.82716217
_cell_length_b   10.81833121
_cell_length_c   6.40588945
_cell_angle_alpha   90.02085836
_cell_angle_beta   89.79297058
_cell_angle_gamma   90.29565756
_symmetry_Int_Tables_number   1
_chemical_formula_structural   Ho20Ir5Ru6Au
_chemical_formula_sum   'Ho20 Ir5 Ru6 Au1'
_cell_volume   750.31859835
_cell_formula_units_Z   1
loop_
 _symmetry_equiv_pos_site_id
 _symmetry_equiv_pos_as_xyz
  1  'x, y, z'
loop_
 _atom_site_type_symbol
 _atom_site_label
 _atom_site_symmetry_multiplicity
 _atom_site_fract_x
 _atom_site_fract_y
 _atom_site_fract_z
 _atom_site_occupancy
  Ho  Ho0  1  0.298619  0.082107  0.364370  1
  Ho  Ho1  1  0.297542  0.906326  0.882174  1
  Ho  Ho2  1  0.710448  0.085673  0.874885  1
  Ho  Ho3  1  0.706565  0.912565  0.376324  1
  Ho  Ho4  1  0.588955  0.792588  0.879530  1
  Ho  Ho5  1  0.588625  0.205601  0.379950  1
  Ho  Ho6  1  0.413886  0.792272  0.378423  1
  Ho  Ho7  1  0.423315  0.206617  0.876656  1
  Ho  Ho8  1  0.206370  0.423541  0.622896  1
  Ho  Ho9  1  0.205385  0.587623  0.120645  1
  Ho  Ho10  1  0.791831  0.412626  0.121934  1
  Ho  Ho11  1  0.792165  0.588898  0.621811  1
  Ho  Ho12  1  0.912433  0.705333  0.121601  1
  Ho  Ho13  1  0.906392  0.297156  0.618405  1
  Ho  Ho14  1  0.084630  0.710316  0.623916  1
  Ho  Ho15  1  0.081706  0.297220  0.137197  1
  Ho  Ho16  1  0.994707  0.999132  0.496375  1
  Ho  Ho17  1  0.996413  0.994988  0.002565  1
  Ho  Ho18  1  0.498683  0.500429  0.001303  1
  Ho  Ho19  1  0.499790  0.498588  0.499319  1
  Ir  Ir20  1  0.152592  0.847862  0.250536  1
  Ir  Ir21  1  0.651404  0.348588  0.749991  1
  Ir  Ir22  1  0.651769  0.651577  0.249903  1
  Ir  Ir23  1  0.345768  0.345388  0.250312  1
  Ir  Ir24  1  0.347882  0.652176  0.749946  1
  Ru  Ru25  1  0.848373  0.151638  0.248674  1
  Ru  Ru26  1  0.847335  0.847310  0.749346  1
  Ru  Ru27  1  0.501689  0.999188  0.121619  1
  Ru  Ru28  1  0.500696  0.998858  0.624086  1
  Ru  Ru29  1  0.998661  0.500509  0.876307  1
  Ru  Ru30  1  0.998478  0.500902  0.378431  1
  Au  Au31  1  0.156890  0.156404  0.750568  1
