# generated using pymatgen
data_LiTb4Co17(P6Os)2
_symmetry_space_group_name_H-M   'P 1'
_cell_length_a   3.68858400
_cell_length_b   10.32712751
_cell_length_c   11.76550687
_cell_angle_alpha   89.92000595
_cell_angle_beta   90.00000000
_cell_angle_gamma   90.00000000
_symmetry_Int_Tables_number   1
_chemical_formula_structural   LiTb4Co17(P6Os)2
_chemical_formula_sum   'Li1 Tb4 Co17 P12 Os2'
_cell_volume   448.17686670
_cell_formula_units_Z   1
loop_
 _symmetry_equiv_pos_site_id
 _symmetry_equiv_pos_as_xyz
  1  'x, y, z'
loop_
 _atom_site_type_symbol
 _atom_site_label
 _atom_site_symmetry_multiplicity
 _atom_site_fract_x
 _atom_site_fract_y
 _atom_site_fract_z
 _atom_site_occupancy
  Li  Li0  1  0.750000  0.296825  0.009222  1
  Tb  Tb1  1  0.250000  0.582141  0.701626  1
  Tb  Tb2  1  0.250000  0.918894  0.202058  1
  Tb  Tb3  1  0.750000  0.414037  0.296488  1
  Tb  Tb4  1  0.750000  0.085349  0.795250  1
  Co  Co5  1  0.750000  0.215503  0.508656  1
  Co  Co6  1  0.250000  0.406224  0.487062  1
  Co  Co7  1  0.250000  0.091860  0.987841  1
  Co  Co8  1  0.750000  0.592292  0.509504  1
  Co  Co9  1  0.750000  0.905093  0.010094  1
  Co  Co10  1  0.250000  0.218696  0.179166  1
  Co  Co11  1  0.250000  0.281025  0.673346  1
  Co  Co12  1  0.750000  0.776411  0.823438  1
  Co  Co13  1  0.750000  0.722081  0.323520  1
  Co  Co14  1  0.250000  0.886745  0.702255  1
  Co  Co15  1  0.250000  0.614468  0.201606  1
  Co  Co16  1  0.750000  0.114204  0.302621  1
  Co  Co17  1  0.750000  0.383155  0.800009  1
  Co  Co18  1  0.250000  0.464682  0.933694  1
  Co  Co19  1  0.250000  0.033682  0.433956  1
  Co  Co20  1  0.750000  0.535285  0.068917  1
  Co  Co21  1  0.750000  0.966110  0.569132  1
  P  P22  1  0.250000  0.417596  0.115110  1
  P  P23  1  0.250000  0.083722  0.612251  1
  P  P24  1  0.750000  0.576691  0.886554  1
  P  P25  1  0.750000  0.920752  0.387520  1
  P  P26  1  0.250000  0.271438  0.863512  1
  P  P27  1  0.250000  0.227764  0.369269  1
  P  P28  1  0.750000  0.730278  0.133155  1
  P  P29  1  0.750000  0.770952  0.633339  1
  P  P30  1  0.250000  0.594677  0.390301  1
  P  P31  1  0.250000  0.904742  0.891453  1
  P  P32  1  0.750000  0.397580  0.606677  1
  P  P33  1  0.750000  0.102834  0.108482  1
  Os  Os34  1  0.250000  0.710969  0.990988  1
  Os  Os35  1  0.250000  0.785243  0.491925  1
