# generated using pymatgen
data_TmPa3Mn2(Co2Si5)2
_symmetry_space_group_name_H-M   'P 1'
_cell_length_a   5.55863181
_cell_length_b   7.90249988
_cell_length_c   7.87582392
_cell_angle_alpha   75.21971018
_cell_angle_beta   69.32132138
_cell_angle_gamma   69.40348511
_symmetry_Int_Tables_number   1
_chemical_formula_structural   TmPa3Mn2(Co2Si5)2
_chemical_formula_sum   'Tm1 Pa3 Mn2 Co4 Si10'
_cell_volume   299.58171598
_cell_formula_units_Z   1
loop_
 _symmetry_equiv_pos_site_id
 _symmetry_equiv_pos_as_xyz
  1  'x, y, z'
loop_
 _atom_site_type_symbol
 _atom_site_label
 _atom_site_symmetry_multiplicity
 _atom_site_fract_x
 _atom_site_fract_y
 _atom_site_fract_z
 _atom_site_occupancy
  Tm  Tm0  1  0.869579  0.865318  0.395957  1
  Pa  Pa1  1  0.131507  0.132536  0.604334  1
  Pa  Pa2  1  0.369657  0.393033  0.867710  1
  Pa  Pa3  1  0.628341  0.608104  0.134939  1
  Mn  Mn4  1  0.251216  0.001653  0.996380  1
  Mn  Mn5  1  0.751060  0.001482  0.995671  1
  Co  Co6  1  0.636204  0.249683  0.478131  1
  Co  Co7  1  0.363172  0.750758  0.522862  1
  Co  Co8  1  0.139867  0.475954  0.243501  1
  Co  Co9  1  0.860708  0.521773  0.757324  1
  Si  Si10  1  0.246600  0.501487  0.500231  1
  Si  Si11  1  0.751464  0.501732  0.500457  1
  Si  Si12  1  0.017420  0.229238  0.232408  1
  Si  Si13  1  0.480805  0.767488  0.767030  1
  Si  Si14  1  0.984637  0.767580  0.767037  1
  Si  Si15  1  0.520807  0.229684  0.232395  1
  Si  Si16  1  0.608332  0.047274  0.735878  1
  Si  Si17  1  0.392619  0.952285  0.262813  1
  Si  Si18  1  0.102766  0.742865  0.051381  1
  Si  Si19  1  0.893234  0.260071  0.953563  1
