# generated using pymatgen
data_TeI3Br2
_symmetry_space_group_name_H-M   'P 1'
_cell_length_a   9.57128506
_cell_length_b   8.70886852
_cell_length_c   10.92874726
_cell_angle_alpha   89.48145876
_cell_angle_beta   104.03335760
_cell_angle_gamma   126.93777617
_symmetry_Int_Tables_number   1
_chemical_formula_structural   TeI3Br2
_chemical_formula_sum   'Te2 I6 Br4'
_cell_volume   695.33545803
_cell_formula_units_Z   2
loop_
 _symmetry_equiv_pos_site_id
 _symmetry_equiv_pos_as_xyz
  1  'x, y, z'
loop_
 _atom_site_type_symbol
 _atom_site_label
 _atom_site_symmetry_multiplicity
 _atom_site_fract_x
 _atom_site_fract_y
 _atom_site_fract_z
 _atom_site_occupancy
  Te  Te0  1  0.141067  0.198247  0.194997  1
  Te  Te1  1  0.858933  0.801753  0.805003  1
  I  I2  1  0.964390  0.217033  0.373584  1
  I  I3  1  0.035610  0.782967  0.626416  1
  I  I4  1  0.248514  0.191474  0.956411  1
  I  I5  1  0.751486  0.808526  0.043589  1
  I  I6  1  0.031120  0.578120  0.886366  1
  I  I7  1  0.968880  0.421880  0.113634  1
  Br  Br8  1  0.763580  0.997177  0.690803  1
  Br  Br9  1  0.236420  0.002823  0.309197  1
  Br  Br10  1  0.544192  0.466133  0.703593  1
  Br  Br11  1  0.455808  0.533867  0.296407  1
