# generated using pymatgen
data_PrYEr2(WO6)2
_symmetry_space_group_name_H-M   'P 1'
_cell_length_a   5.45532200
_cell_length_b   7.77142168
_cell_length_c   11.51450598
_cell_angle_alpha   75.71190404
_cell_angle_beta   90.00000000
_cell_angle_gamma   90.00000000
_symmetry_Int_Tables_number   1
_chemical_formula_structural   PrYEr2(WO6)2
_chemical_formula_sum   'Pr2 Y2 Er4 W4 O24'
_cell_volume   473.06410012
_cell_formula_units_Z   2
loop_
 _symmetry_equiv_pos_site_id
 _symmetry_equiv_pos_as_xyz
  1  'x, y, z'
loop_
 _atom_site_type_symbol
 _atom_site_label
 _atom_site_symmetry_multiplicity
 _atom_site_fract_x
 _atom_site_fract_y
 _atom_site_fract_z
 _atom_site_occupancy
  Pr  Pr0  1  0.685633  0.500000  0.250000  1
  Pr  Pr1  1  0.314367  0.500000  0.750000  1
  Y  Y2  1  0.743246  0.000000  0.250000  1
  Y  Y3  1  0.256754  0.000000  0.750000  1
  Er  Er4  1  0.184989  0.203213  0.422996  1
  Er  Er5  1  0.184989  0.796787  0.077004  1
  Er  Er6  1  0.815011  0.796787  0.577004  1
  Er  Er7  1  0.815011  0.203213  0.922996  1
  W  W8  1  0.254165  0.271692  0.115678  1
  W  W9  1  0.254165  0.728308  0.384322  1
  W  W10  1  0.745835  0.728308  0.884322  1
  W  W11  1  0.745835  0.271692  0.615678  1
  O  O12  1  0.453197  0.204525  0.273827  1
  O  O13  1  0.453197  0.795475  0.226173  1
  O  O14  1  0.546803  0.795475  0.726173  1
  O  O15  1  0.546803  0.204525  0.773827  1
  O  O16  1  0.045334  0.058103  0.102948  1
  O  O17  1  0.045334  0.941897  0.397052  1
  O  O18  1  0.954666  0.941897  0.897052  1
  O  O19  1  0.954666  0.058103  0.602948  1
  O  O20  1  0.986849  0.279065  0.231060  1
  O  O21  1  0.986849  0.720935  0.268940  1
  O  O22  1  0.013151  0.720935  0.768940  1
  O  O23  1  0.013151  0.279065  0.731060  1
  O  O24  1  0.855925  0.357776  0.454408  1
  O  O25  1  0.855925  0.642224  0.045592  1
  O  O26  1  0.144075  0.642224  0.545592  1
  O  O27  1  0.144075  0.357776  0.954408  1
  O  O28  1  0.653895  0.506810  0.612610  1
  O  O29  1  0.653895  0.493190  0.887390  1
  O  O30  1  0.346105  0.493190  0.387390  1
  O  O31  1  0.346105  0.506810  0.112610  1
  O  O32  1  0.463928  0.156520  0.568694  1
  O  O33  1  0.463928  0.843480  0.931306  1
  O  O34  1  0.536072  0.843480  0.431306  1
  O  O35  1  0.536072  0.156520  0.068694  1
