# generated using pymatgen
data_Ac2PbI2
_symmetry_space_group_name_H-M   'P 1'
_cell_length_a   12.07471648
_cell_length_b   12.07471661
_cell_length_c   12.07471655
_cell_angle_alpha   23.39045661
_cell_angle_beta   23.39045509
_cell_angle_gamma   23.39045560
_symmetry_Int_Tables_number   1
_chemical_formula_structural   Ac2PbI2
_chemical_formula_sum   'Ac2 Pb1 I2'
_cell_volume   243.62315899
_cell_formula_units_Z   1
loop_
 _symmetry_equiv_pos_site_id
 _symmetry_equiv_pos_as_xyz
  1  'x, y, z'
loop_
 _atom_site_type_symbol
 _atom_site_label
 _atom_site_symmetry_multiplicity
 _atom_site_fract_x
 _atom_site_fract_y
 _atom_site_fract_z
 _atom_site_occupancy
  Ac  Ac0  1  0.385393  0.385393  0.385393  1
  Ac  Ac1  1  0.614607  0.614607  0.614607  1
  Pb  Pb2  1  0.000000  0.000000  0.000000  1
  I  I3  1  0.224275  0.224275  0.224275  1
  I  I4  1  0.775726  0.775726  0.775726  1
