# generated using pymatgen
data_La4PrP12Ru16Rh3
_symmetry_space_group_name_H-M   'P 1'
_cell_length_a   12.69751500
_cell_length_b   12.69751514
_cell_length_c   4.04135700
_cell_angle_alpha   90.00000000
_cell_angle_beta   90.00000000
_cell_angle_gamma   119.99999704
_symmetry_Int_Tables_number   1
_chemical_formula_structural   La4PrP12Ru16Rh3
_chemical_formula_sum   'La4 Pr1 P12 Ru16 Rh3'
_cell_volume   564.28087958
_cell_formula_units_Z   1
loop_
 _symmetry_equiv_pos_site_id
 _symmetry_equiv_pos_as_xyz
  1  'x, y, z'
loop_
 _atom_site_type_symbol
 _atom_site_label
 _atom_site_symmetry_multiplicity
 _atom_site_fract_x
 _atom_site_fract_y
 _atom_site_fract_z
 _atom_site_occupancy
  La  La0  1  0.182765  0.182804  0.500000  1
  La  La1  1  0.817196  0.999961  0.500000  1
  La  La2  1  0.000039  0.817235  0.500000  1
  La  La3  1  0.666667  0.333333  0.000000  1
  Pr  Pr4  1  0.333333  0.666667  0.000000  1
  P  P5  1  0.809939  0.810004  0.000000  1
  P  P6  1  0.189996  0.999935  0.000000  1
  P  P7  1  0.000065  0.190061  0.000000  1
  P  P8  1  0.175429  0.476347  0.500000  1
  P  P9  1  0.523653  0.699081  0.500000  1
  P  P10  1  0.300919  0.824571  0.500000  1
  P  P11  1  0.699214  0.524192  0.500000  1
  P  P12  1  0.824977  0.300786  0.500000  1
  P  P13  1  0.475808  0.175023  0.500000  1
  P  P14  1  0.373799  0.373801  0.000000  1
  P  P15  1  0.626199  0.999998  0.000000  1
  P  P16  1  0.000002  0.626201  0.000000  1
  Ru  Ru17  1  0.711680  0.711644  0.500000  1
  Ru  Ru18  1  0.288356  0.000036  0.500000  1
  Ru  Ru19  1  0.999964  0.288320  0.500000  1
  Ru  Ru20  1  0.185470  0.379510  0.000000  1
  Ru  Ru21  1  0.620490  0.805961  0.000000  1
  Ru  Ru22  1  0.194039  0.814530  0.000000  1
  Ru  Ru23  1  0.805978  0.620626  0.000000  1
  Ru  Ru24  1  0.814649  0.194022  0.000000  1
  Ru  Ru25  1  0.379374  0.185351  0.000000  1
  Ru  Ru26  1  0.369169  0.492537  0.500000  1
  Ru  Ru27  1  0.507463  0.876633  0.500000  1
  Ru  Ru28  1  0.123367  0.630831  0.500000  1
  Ru  Ru29  1  0.877013  0.507949  0.500000  1
  Ru  Ru30  1  0.630937  0.122987  0.500000  1
  Ru  Ru31  1  0.492051  0.369063  0.500000  1
  Ru  Ru32  1  0.000000  0.000000  0.000000  1
  Rh  Rh33  1  0.553256  0.553316  0.000000  1
  Rh  Rh34  1  0.446684  0.999940  0.000000  1
  Rh  Rh35  1  0.000060  0.446744  0.000000  1
