# generated using pymatgen
data_Nd4Al15Si3(Ir2Os)2
_symmetry_space_group_name_H-M   'P 1'
_cell_length_a   7.54598929
_cell_length_b   7.53015151
_cell_length_c   9.37771900
_cell_angle_alpha   90.02886797
_cell_angle_beta   89.91008510
_cell_angle_gamma   119.52583980
_symmetry_Int_Tables_number   1
_chemical_formula_structural   Nd4Al15Si3(Ir2Os)2
_chemical_formula_sum   'Nd4 Al15 Si3 Ir4 Os2'
_cell_volume   463.66302338
_cell_formula_units_Z   1
loop_
 _symmetry_equiv_pos_site_id
 _symmetry_equiv_pos_as_xyz
  1  'x, y, z'
loop_
 _atom_site_type_symbol
 _atom_site_label
 _atom_site_symmetry_multiplicity
 _atom_site_fract_x
 _atom_site_fract_y
 _atom_site_fract_z
 _atom_site_occupancy
  Nd  Nd0  1  0.994110  0.671181  0.247633  1
  Nd  Nd1  1  0.005009  0.323559  0.752889  1
  Nd  Nd2  1  0.680856  0.000180  0.247985  1
  Nd  Nd3  1  0.322645  0.005415  0.750085  1
  Al  Al4  1  0.995557  0.667798  0.922117  1
  Al  Al5  1  0.996487  0.664087  0.575398  1
  Al  Al6  1  0.335898  0.002005  0.424198  1
  Al  Al7  1  0.004036  0.335952  0.428355  1
  Al  Al8  1  0.663521  0.997014  0.575610  1
  Al  Al9  1  0.658945  0.992195  0.922488  1
  Al  Al10  1  0.335195  0.002213  0.075694  1
  Al  Al11  1  0.335761  0.335065  0.550209  1
  Al  Al12  1  0.666092  0.666549  0.449067  1
  Al  Al13  1  0.665509  0.666466  0.052196  1
  Al  Al14  1  0.338489  0.335345  0.949568  1
  Al  Al15  1  0.336549  0.546202  0.250182  1
  Al  Al16  1  0.663449  0.452331  0.750413  1
  Al  Al17  1  0.544622  0.337309  0.250262  1
  Al  Al18  1  0.451707  0.661308  0.749401  1
  Si  Si19  1  0.133175  0.128726  0.251146  1
  Si  Si20  1  0.869066  0.871027  0.750177  1
  Si  Si21  1  0.004067  0.336161  0.073236  1
  Ir  Ir22  1  0.678195  0.329122  0.001871  1
  Ir  Ir23  1  0.320921  0.663447  0.000265  1
  Ir  Ir24  1  0.328531  0.670757  0.499127  1
  Ir  Ir25  1  0.671563  0.329229  0.499225  1
  Os  Os26  1  0.999895  0.008655  0.001408  1
  Os  Os27  1  0.000154  0.000702  0.499795  1
