# generated using pymatgen
data_DyTm7(LuSb)12
_symmetry_space_group_name_H-M   'P 1'
_cell_length_a   8.04314926
_cell_length_b   9.11321100
_cell_length_c   11.67616438
_cell_angle_alpha   90.00000000
_cell_angle_beta   90.02939304
_cell_angle_gamma   90.00000000
_symmetry_Int_Tables_number   1
_chemical_formula_structural   DyTm7(LuSb)12
_chemical_formula_sum   'Dy1 Tm7 Lu12 Sb12'
_cell_volume   855.85008389
_cell_formula_units_Z   1
loop_
 _symmetry_equiv_pos_site_id
 _symmetry_equiv_pos_as_xyz
  1  'x, y, z'
loop_
 _atom_site_type_symbol
 _atom_site_label
 _atom_site_symmetry_multiplicity
 _atom_site_fract_x
 _atom_site_fract_y
 _atom_site_fract_z
 _atom_site_occupancy
  Dy  Dy0  1  0.175924  0.750000  0.228827  1
  Tm  Tm1  1  0.676029  0.250000  0.271310  1
  Tm  Tm2  1  0.823982  0.250000  0.771140  1
  Tm  Tm3  1  0.323983  0.750000  0.728943  1
  Tm  Tm4  1  0.658814  0.750000  0.291121  1
  Tm  Tm5  1  0.158366  0.250000  0.208988  1
  Tm  Tm6  1  0.341789  0.250000  0.709042  1
  Tm  Tm7  1  0.841416  0.750000  0.790850  1
  Lu  Lu8  1  0.809182  0.938695  0.066154  1
  Lu  Lu9  1  0.308930  0.061329  0.433988  1
  Lu  Lu10  1  0.191102  0.438860  0.933894  1
  Lu  Lu11  1  0.691065  0.561128  0.566207  1
  Lu  Lu12  1  0.191102  0.061140  0.933894  1
  Lu  Lu13  1  0.691065  0.938872  0.566207  1
  Lu  Lu14  1  0.809182  0.561305  0.066154  1
  Lu  Lu15  1  0.308930  0.438671  0.433988  1
  Lu  Lu16  1  0.525067  0.250000  0.995022  1
  Lu  Lu17  1  0.024755  0.750000  0.505115  1
  Lu  Lu18  1  0.475147  0.750000  0.004750  1
  Lu  Lu19  1  0.974819  0.250000  0.495192  1
  Sb  Sb20  1  0.935333  0.991671  0.326547  1
  Sb  Sb21  1  0.437483  0.009692  0.173870  1
  Sb  Sb22  1  0.063463  0.490735  0.673950  1
  Sb  Sb23  1  0.563464  0.509156  0.825922  1
  Sb  Sb24  1  0.063463  0.009265  0.673950  1
  Sb  Sb25  1  0.563464  0.990844  0.825922  1
  Sb  Sb26  1  0.935333  0.508329  0.326547  1
  Sb  Sb27  1  0.437483  0.490308  0.173870  1
  Sb  Sb28  1  0.902498  0.250000  0.024641  1
  Sb  Sb29  1  0.402704  0.750000  0.475419  1
  Sb  Sb30  1  0.097290  0.750000  0.973791  1
  Sb  Sb31  1  0.597372  0.250000  0.524787  1
