# generated using pymatgen
data_DyHo7CdInNi2
_symmetry_space_group_name_H-M   'P 1'
_cell_length_a   9.52350686
_cell_length_b   9.52350577
_cell_length_c   9.51918100
_cell_angle_alpha   60.01503129
_cell_angle_beta   60.01503507
_cell_angle_gamma   60.14390360
_symmetry_Int_Tables_number   1
_chemical_formula_structural   DyHo7CdInNi2
_chemical_formula_sum   'Dy2 Ho14 Cd2 In2 Ni4'
_cell_volume   611.28999566
_cell_formula_units_Z   2
loop_
 _symmetry_equiv_pos_site_id
 _symmetry_equiv_pos_as_xyz
  1  'x, y, z'
loop_
 _atom_site_type_symbol
 _atom_site_label
 _atom_site_symmetry_multiplicity
 _atom_site_fract_x
 _atom_site_fract_y
 _atom_site_fract_z
 _atom_site_occupancy
  Dy  Dy0  1  0.347760  0.347760  0.347729  1
  Dy  Dy1  1  0.347760  0.347760  0.956748  1
  Ho  Ho2  1  0.349952  0.952930  0.348559  1
  Ho  Ho3  1  0.952930  0.349952  0.348559  1
  Ho  Ho4  1  0.811770  0.188962  0.188205  1
  Ho  Ho5  1  0.188962  0.811770  0.811062  1
  Ho  Ho6  1  0.188962  0.811770  0.188205  1
  Ho  Ho7  1  0.811770  0.188962  0.811062  1
  Ho  Ho8  1  0.187943  0.187943  0.812057  1
  Ho  Ho9  1  0.810690  0.810690  0.189310  1
  Ho  Ho10  1  0.937824  0.563906  0.563859  1
  Ho  Ho11  1  0.563906  0.937824  0.934411  1
  Ho  Ho12  1  0.563906  0.937824  0.563859  1
  Ho  Ho13  1  0.937824  0.563906  0.934411  1
  Ho  Ho14  1  0.564412  0.564412  0.935588  1
  Ho  Ho15  1  0.937491  0.937491  0.562509  1
  Cd  Cd16  1  0.580428  0.254293  0.582641  1
  Cd  Cd17  1  0.254293  0.580428  0.582641  1
  In  In18  1  0.581300  0.581300  0.582850  1
  In  In19  1  0.581300  0.581300  0.254550  1
  Ni  Ni20  1  0.142041  0.142041  0.143419  1
  Ni  Ni21  1  0.142041  0.142041  0.572500  1
  Ni  Ni22  1  0.141608  0.573127  0.142633  1
  Ni  Ni23  1  0.573127  0.141608  0.142633  1
