# generated using pymatgen
data_Nb4Si4OsPt3
_symmetry_space_group_name_H-M   'P 1'
_cell_length_a   3.83147500
_cell_length_b   6.49262803
_cell_length_c   7.40515800
_cell_angle_alpha   89.71488382
_cell_angle_beta   90.00000000
_cell_angle_gamma   90.00000000
_symmetry_Int_Tables_number   1
_chemical_formula_structural   Nb4Si4OsPt3
_chemical_formula_sum   'Nb4 Si4 Os1 Pt3'
_cell_volume   184.21096197
_cell_formula_units_Z   1
loop_
 _symmetry_equiv_pos_site_id
 _symmetry_equiv_pos_as_xyz
  1  'x, y, z'
loop_
 _atom_site_type_symbol
 _atom_site_label
 _atom_site_symmetry_multiplicity
 _atom_site_fract_x
 _atom_site_fract_y
 _atom_site_fract_z
 _atom_site_occupancy
  Nb  Nb0  1  0.750000  0.480119  0.326215  1
  Nb  Nb1  1  0.250000  0.026619  0.836950  1
  Nb  Nb2  1  0.750000  0.970055  0.163445  1
  Nb  Nb3  1  0.250000  0.526723  0.674757  1
  Si  Si4  1  0.250000  0.270366  0.127424  1
  Si  Si5  1  0.250000  0.765555  0.367993  1
  Si  Si6  1  0.750000  0.734105  0.878867  1
  Si  Si7  1  0.750000  0.233297  0.626231  1
  Os  Os8  1  0.250000  0.643459  0.058992  1
  Pt  Pt9  1  0.250000  0.149811  0.436660  1
  Pt  Pt10  1  0.750000  0.847569  0.566092  1
  Pt  Pt11  1  0.750000  0.352321  0.936373  1
