# generated using pymatgen
data_Er4In2Hg3Pt
_symmetry_space_group_name_H-M   'P 1'
_cell_length_a   8.12779306
_cell_length_b   8.12779306
_cell_length_c   3.72403500
_cell_angle_alpha   90.00000000
_cell_angle_beta   90.00000000
_cell_angle_gamma   88.95329574
_symmetry_Int_Tables_number   1
_chemical_formula_structural   Er4In2Hg3Pt
_chemical_formula_sum   'Er4 In2 Hg3 Pt1'
_cell_volume   245.97250037
_cell_formula_units_Z   1
loop_
 _symmetry_equiv_pos_site_id
 _symmetry_equiv_pos_as_xyz
  1  'x, y, z'
loop_
 _atom_site_type_symbol
 _atom_site_label
 _atom_site_symmetry_multiplicity
 _atom_site_fract_x
 _atom_site_fract_y
 _atom_site_fract_z
 _atom_site_occupancy
  Er  Er0  1  0.320616  0.140173  0.500000  1
  Er  Er1  1  0.834250  0.334249  0.500000  1
  Er  Er2  1  0.188698  0.688699  0.500000  1
  Er  Er3  1  0.640174  0.820617  0.500000  1
  In  In4  1  0.002328  0.999010  0.000000  1
  In  In5  1  0.499009  0.502327  0.000000  1
  Hg  Hg6  1  0.629800  0.129799  0.000000  1
  Hg  Hg7  1  0.136328  0.375533  0.000000  1
  Hg  Hg8  1  0.875533  0.636329  0.000000  1
  Pt  Pt9  1  0.373262  0.873262  0.000000  1
