# generated using pymatgen
data_Li2P3Pd3W
_symmetry_space_group_name_H-M   'P 1'
_cell_length_a   6.66857606
_cell_length_b   6.66857674
_cell_length_c   3.30235800
_cell_angle_alpha   90.00000000
_cell_angle_beta   90.00000000
_cell_angle_gamma   119.58540611
_symmetry_Int_Tables_number   1
_chemical_formula_structural   Li2P3Pd3W
_chemical_formula_sum   'Li2 P3 Pd3 W1'
_cell_volume   127.70864296
_cell_formula_units_Z   1
loop_
 _symmetry_equiv_pos_site_id
 _symmetry_equiv_pos_as_xyz
  1  'x, y, z'
loop_
 _atom_site_type_symbol
 _atom_site_label
 _atom_site_symmetry_multiplicity
 _atom_site_fract_x
 _atom_site_fract_y
 _atom_site_fract_z
 _atom_site_occupancy
  Li  Li0  1  0.394177  0.005291  0.500000  1
  Li  Li1  1  0.005291  0.394177  0.500000  1
  P  P2  1  0.363354  0.657855  0.000000  1
  P  P3  1  0.657855  0.363354  0.000000  1
  P  P4  1  0.974777  0.974777  0.500000  1
  Pd  Pd5  1  0.721757  0.037909  0.000000  1
  Pd  Pd6  1  0.037909  0.721757  0.000000  1
  Pd  Pd7  1  0.230418  0.230418  0.000000  1
  W  W8  1  0.614462  0.614462  0.500000  1
