# generated using pymatgen
data_Ho20IrRu8Au3
_symmetry_space_group_name_H-M   'P 1'
_cell_length_a   10.89075377
_cell_length_b   10.89075407
_cell_length_c   6.43602378
_cell_angle_alpha   90.12975791
_cell_angle_beta   90.12975874
_cell_angle_gamma   90.11409436
_symmetry_Int_Tables_number   1
_chemical_formula_structural   Ho20IrRu8Au3
_chemical_formula_sum   'Ho20 Ir1 Ru8 Au3'
_cell_volume   763.36182506
_cell_formula_units_Z   1
loop_
 _symmetry_equiv_pos_site_id
 _symmetry_equiv_pos_as_xyz
  1  'x, y, z'
loop_
 _atom_site_type_symbol
 _atom_site_label
 _atom_site_symmetry_multiplicity
 _atom_site_fract_x
 _atom_site_fract_y
 _atom_site_fract_z
 _atom_site_occupancy
  Ho  Ho0  1  0.298021  0.083858  0.364641  1
  Ho  Ho1  1  0.293068  0.906579  0.881281  1
  Ho  Ho2  1  0.706502  0.083567  0.879995  1
  Ho  Ho3  1  0.700872  0.914621  0.364850  1
  Ho  Ho4  1  0.578395  0.789523  0.876618  1
  Ho  Ho5  1  0.584380  0.203093  0.365835  1
  Ho  Ho6  1  0.411770  0.794457  0.379222  1
  Ho  Ho7  1  0.414831  0.205538  0.882006  1
  Ho  Ho8  1  0.210477  0.421605  0.623382  1
  Ho  Ho9  1  0.205543  0.588230  0.120778  1
  Ho  Ho10  1  0.796907  0.415620  0.134165  1
  Ho  Ho11  1  0.794462  0.585169  0.617994  1
  Ho  Ho12  1  0.916142  0.701979  0.135359  1
  Ho  Ho13  1  0.916433  0.293498  0.620005  1
  Ho  Ho14  1  0.093421  0.706932  0.618719  1
  Ho  Ho15  1  0.085379  0.299128  0.135150  1
  Ho  Ho16  1  0.999872  0.999253  0.491947  1
  Ho  Ho17  1  0.000747  0.000128  0.008053  1
  Ho  Ho18  1  0.495280  0.502574  0.006246  1
  Ho  Ho19  1  0.497426  0.504720  0.493754  1
  Ir  Ir20  1  0.347311  0.652689  0.750000  1
  Ru  Ru21  1  0.849869  0.150131  0.250000  1
  Ru  Ru22  1  0.148976  0.851024  0.250000  1
  Ru  Ru23  1  0.652627  0.651795  0.248222  1
  Ru  Ru24  1  0.348205  0.347373  0.251778  1
  Ru  Ru25  1  0.499253  0.999543  0.119016  1
  Ru  Ru26  1  0.499502  0.000659  0.627506  1
  Ru  Ru27  1  0.999341  0.500498  0.872494  1
  Ru  Ru28  1  0.000457  0.500747  0.380984  1
  Au  Au29  1  0.843952  0.843855  0.750584  1
  Au  Au30  1  0.156145  0.156048  0.749416  1
  Au  Au31  1  0.654432  0.345568  0.750000  1
