# generated using pymatgen
data_Sc2Mn4Fe8P7
_symmetry_space_group_name_H-M   'P 1'
_cell_length_a   8.96376964
_cell_length_b   9.08739721
_cell_length_c   3.56827300
_cell_angle_alpha   90.00000000
_cell_angle_beta   90.00000000
_cell_angle_gamma   120.19617406
_symmetry_Int_Tables_number   1
_chemical_formula_structural   Sc2Mn4Fe8P7
_chemical_formula_sum   'Sc2 Mn4 Fe8 P7'
_cell_volume   251.22161355
_cell_formula_units_Z   1
loop_
 _symmetry_equiv_pos_site_id
 _symmetry_equiv_pos_as_xyz
  1  'x, y, z'
loop_
 _atom_site_type_symbol
 _atom_site_label
 _atom_site_symmetry_multiplicity
 _atom_site_fract_x
 _atom_site_fract_y
 _atom_site_fract_z
 _atom_site_occupancy
  Sc  Sc0  1  0.670039  0.342078  0.000000  1
  Sc  Sc1  1  0.331398  0.659717  0.500000  1
  Mn  Mn2  1  0.608680  0.047074  0.500000  1
  Mn  Mn3  1  0.125860  0.893565  0.500000  1
  Mn  Mn4  1  0.101632  0.224596  0.500000  1
  Mn  Mn5  1  0.772764  0.875293  0.500000  1
  Fe  Fe6  1  0.375503  0.945824  0.000000  1
  Fe  Fe7  1  0.059580  0.428729  0.000000  1
  Fe  Fe8  1  0.572145  0.627166  0.000000  1
  Fe  Fe9  1  0.882343  0.726318  0.000000  1
  Fe  Fe10  1  0.274451  0.155892  0.000000  1
  Fe  Fe11  1  0.837863  0.119459  0.000000  1
  Fe  Fe12  1  0.950381  0.564716  0.500000  1
  Fe  Fe13  1  0.437931  0.388656  0.500000  1
  P  P14  1  0.115776  0.697482  0.000000  1
  P  P15  1  0.300814  0.415255  0.000000  1
  P  P16  1  0.581324  0.870891  0.000000  1
  P  P17  1  0.713108  0.590201  0.500000  1
  P  P18  1  0.410118  0.132224  0.500000  1
  P  P19  1  0.880856  0.295147  0.500000  1
  P  P20  1  0.997434  0.999717  0.000000  1
