# generated using pymatgen
data_Er12Rh3I16
_symmetry_space_group_name_H-M   'P 1'
_cell_length_a   9.59396754
_cell_length_b   12.80943110
_cell_length_c   13.51547327
_cell_angle_alpha   116.83531753
_cell_angle_beta   100.98404581
_cell_angle_gamma   100.41348447
_symmetry_Int_Tables_number   1
_chemical_formula_structural   Er12Rh3I16
_chemical_formula_sum   'Er12 Rh3 I16'
_cell_volume   1385.82720355
_cell_formula_units_Z   1
loop_
 _symmetry_equiv_pos_site_id
 _symmetry_equiv_pos_as_xyz
  1  'x, y, z'
loop_
 _atom_site_type_symbol
 _atom_site_label
 _atom_site_symmetry_multiplicity
 _atom_site_fract_x
 _atom_site_fract_y
 _atom_site_fract_z
 _atom_site_occupancy
  Er  Er0  1  0.090968  0.277814  0.363759  1
  Er  Er1  1  0.909032  0.722186  0.636241  1
  Er  Er2  1  0.783480  0.534829  0.335085  1
  Er  Er3  1  0.216520  0.465171  0.664915  1
  Er  Er4  1  0.271862  0.722761  0.636019  1
  Er  Er5  1  0.728138  0.277239  0.363981  1
  Er  Er6  1  0.145567  0.535254  0.334751  1
  Er  Er7  1  0.854433  0.464746  0.665249  1
  Er  Er8  1  0.409610  0.365777  0.283419  1
  Er  Er9  1  0.590390  0.634223  0.716581  1
  Er  Er10  1  0.461463  0.319031  0.520920  1
  Er  Er11  1  0.538537  0.680969  0.479080  1
  Rh  Rh12  1  0.000000  0.500000  0.500000  1
  Rh  Rh13  1  0.340088  0.500179  0.499871  1
  Rh  Rh14  1  0.659913  0.499821  0.500129  1
  I  I15  1  0.389285  0.732453  0.874162  1
  I  I16  1  0.610715  0.267547  0.125838  1
  I  I17  1  0.182718  0.951486  0.775773  1
  I  I18  1  0.817282  0.048514  0.224227  1
  I  I19  1  0.341802  0.108107  0.262014  1
  I  I20  1  0.658198  0.891893  0.737986  1
  I  I21  1  0.561931  0.435679  0.790614  1
  I  I22  1  0.438069  0.564321  0.209386  1
  I  I23  1  0.300412  0.820078  0.462811  1
  I  I24  1  0.699588  0.179922  0.537189  1
  I  I25  1  0.164919  0.180541  0.536850  1
  I  I26  1  0.835081  0.819459  0.463150  1
  I  I27  1  0.926822  0.571937  0.165167  1
  I  I28  1  0.073178  0.428063  0.834833  1
  I  I29  1  0.923146  0.731825  0.874451  1
  I  I30  1  0.076854  0.268175  0.125549  1
