# generated using pymatgen
data_Tb2Al20CoTc3
_symmetry_space_group_name_H-M   'P 1'
_cell_length_a   6.86057081
_cell_length_b   6.92098648
_cell_length_c   9.12347683
_cell_angle_alpha   90.17213720
_cell_angle_beta   90.60966986
_cell_angle_gamma   97.00434412
_symmetry_Int_Tables_number   1
_chemical_formula_structural   Tb2Al20CoTc3
_chemical_formula_sum   'Tb2 Al20 Co1 Tc3'
_cell_volume   429.93878445
_cell_formula_units_Z   1
loop_
 _symmetry_equiv_pos_site_id
 _symmetry_equiv_pos_as_xyz
  1  'x, y, z'
loop_
 _atom_site_type_symbol
 _atom_site_label
 _atom_site_symmetry_multiplicity
 _atom_site_fract_x
 _atom_site_fract_y
 _atom_site_fract_z
 _atom_site_occupancy
  Tb  Tb0  1  0.877716  0.131284  0.750309  1
  Tb  Tb1  1  0.122284  0.868716  0.249691  1
  Al  Al2  1  0.412698  0.135827  0.754043  1
  Al  Al3  1  0.138863  0.409433  0.249980  1
  Al  Al4  1  0.587302  0.864173  0.245957  1
  Al  Al5  1  0.861137  0.590567  0.750020  1
  Al  Al6  1  0.523531  0.784227  0.750279  1
  Al  Al7  1  0.778083  0.522624  0.247810  1
  Al  Al8  1  0.476469  0.215773  0.249721  1
  Al  Al9  1  0.221917  0.477376  0.752190  1
  Al  Al10  1  0.844160  0.154314  0.401777  1
  Al  Al11  1  0.155840  0.845686  0.598223  1
  Al  Al12  1  0.842071  0.152805  0.097416  1
  Al  Al13  1  0.157929  0.847195  0.902584  1
  Al  Al14  1  0.621838  0.374183  0.955291  1
  Al  Al15  1  0.378162  0.625817  0.044709  1
  Al  Al16  1  0.623286  0.375208  0.544664  1
  Al  Al17  1  0.376714  0.624792  0.455336  1
  Al  Al18  1  0.770805  0.776153  0.998521  1
  Al  Al19  1  0.772512  0.773467  0.498518  1
  Al  Al20  1  0.229195  0.223846  0.001479  1
  Al  Al21  1  0.227488  0.226532  0.501482  1
  Co  Co22  1  0.500000  0.000000  0.000000  1
  Tc  Tc23  1  0.000000  0.500000  0.000000  1
  Tc  Tc24  1  0.500000  0.000000  0.500000  1
  Tc  Tc25  1  0.000000  0.500000  0.500000  1
