# generated using pymatgen
data_Er4ThPb3C
_symmetry_space_group_name_H-M   'P 1'
_cell_length_a   9.06027100
_cell_length_b   9.13070114
_cell_length_c   6.54340200
_cell_angle_alpha   90.00000000
_cell_angle_beta   90.00000000
_cell_angle_gamma   119.74516772
_symmetry_Int_Tables_number   1
_chemical_formula_structural   Er4ThPb3C
_chemical_formula_sum   'Er8 Th2 Pb6 C2'
_cell_volume   469.99045650
_cell_formula_units_Z   2
loop_
 _symmetry_equiv_pos_site_id
 _symmetry_equiv_pos_as_xyz
  1  'x, y, z'
loop_
 _atom_site_type_symbol
 _atom_site_label
 _atom_site_symmetry_multiplicity
 _atom_site_fract_x
 _atom_site_fract_y
 _atom_site_fract_z
 _atom_site_occupancy
  Er  Er0  1  0.999163  0.211861  0.250000  1
  Er  Er1  1  0.000837  0.788139  0.750000  1
  Er  Er2  1  0.787303  0.788139  0.250000  1
  Er  Er3  1  0.212697  0.211861  0.750000  1
  Er  Er4  1  0.333261  0.666524  0.000000  1
  Er  Er5  1  0.666739  0.333476  0.000000  1
  Er  Er6  1  0.666739  0.333476  0.500000  1
  Er  Er7  1  0.333261  0.666524  0.500000  1
  Th  Th8  1  0.214931  0.000000  0.250000  1
  Th  Th9  1  0.785069  0.000000  0.750000  1
  Pb  Pb10  1  0.596543  0.000000  0.250000  1
  Pb  Pb11  1  0.403457  0.000000  0.750000  1
  Pb  Pb12  1  0.995270  0.589232  0.250000  1
  Pb  Pb13  1  0.004730  0.410768  0.750000  1
  Pb  Pb14  1  0.406039  0.410768  0.250000  1
  Pb  Pb15  1  0.593961  0.589232  0.750000  1
  C  C16  1  0.000000  0.000000  0.000000  1
  C  C17  1  0.000000  0.000000  0.500000  1
