# generated using pymatgen
data_Y4Al15(GaIr2)3
_symmetry_space_group_name_H-M   'P 1'
_cell_length_a   7.54013340
_cell_length_b   7.54090302
_cell_length_c   9.54972600
_cell_angle_alpha   90.00000000
_cell_angle_beta   90.00000000
_cell_angle_gamma   119.44323867
_symmetry_Int_Tables_number   1
_chemical_formula_structural   Y4Al15(GaIr2)3
_chemical_formula_sum   'Y4 Al15 Ga3 Ir6'
_cell_volume   472.86068956
_cell_formula_units_Z   1
loop_
 _symmetry_equiv_pos_site_id
 _symmetry_equiv_pos_as_xyz
  1  'x, y, z'
loop_
 _atom_site_type_symbol
 _atom_site_label
 _atom_site_symmetry_multiplicity
 _atom_site_fract_x
 _atom_site_fract_y
 _atom_site_fract_z
 _atom_site_occupancy
  Y  Y0  1  0.997846  0.674834  0.250000  1
  Y  Y1  1  0.006000  0.325809  0.750000  1
  Y  Y2  1  0.670228  0.990663  0.250000  1
  Y  Y3  1  0.324918  0.004042  0.750000  1
  Al  Al4  1  0.001456  0.335421  0.071753  1
  Al  Al5  1  0.998294  0.664219  0.927100  1
  Al  Al6  1  0.998294  0.664219  0.572900  1
  Al  Al7  1  0.336116  0.003237  0.427926  1
  Al  Al8  1  0.001456  0.335421  0.428247  1
  Al  Al9  1  0.664491  0.999372  0.572568  1
  Al  Al10  1  0.664491  0.999372  0.927432  1
  Al  Al11  1  0.336116  0.003237  0.072074  1
  Al  Al12  1  0.334292  0.334346  0.555731  1
  Al  Al13  1  0.666084  0.665813  0.448992  1
  Al  Al14  1  0.666084  0.665813  0.051008  1
  Al  Al15  1  0.334292  0.334346  0.944269  1
  Al  Al16  1  0.662747  0.450558  0.750000  1
  Al  Al17  1  0.550210  0.339485  0.250000  1
  Al  Al18  1  0.451139  0.662603  0.750000  1
  Ga  Ga19  1  0.131842  0.132607  0.250000  1
  Ga  Ga20  1  0.864740  0.864560  0.750000  1
  Ga  Ga21  1  0.339031  0.545959  0.250000  1
  Ir  Ir22  1  0.671492  0.329315  0.000290  1
  Ir  Ir23  1  0.328447  0.672272  0.998102  1
  Ir  Ir24  1  0.328447  0.672272  0.501898  1
  Ir  Ir25  1  0.671492  0.329315  0.499710  1
  Ir  Ir26  1  0.999977  0.000445  0.999814  1
  Ir  Ir27  1  0.999977  0.000445  0.500186  1
