# generated using pymatgen
data_Ac3C2Br3
_symmetry_space_group_name_H-M   'P 1'
_cell_length_a   10.71541700
_cell_length_b   10.71541755
_cell_length_c   17.73903000
_cell_angle_alpha   90.00000000
_cell_angle_beta   90.00000000
_cell_angle_gamma   112.09265323
_symmetry_Int_Tables_number   1
_chemical_formula_structural   Ac3C2Br3
_chemical_formula_sum   'Ac24 C16 Br24'
_cell_volume   1887.25027016
_cell_formula_units_Z   8
loop_
 _symmetry_equiv_pos_site_id
 _symmetry_equiv_pos_as_xyz
  1  'x, y, z'
loop_
 _atom_site_type_symbol
 _atom_site_label
 _atom_site_symmetry_multiplicity
 _atom_site_fract_x
 _atom_site_fract_y
 _atom_site_fract_z
 _atom_site_occupancy
  Ac  Ac0  1  0.161280  0.838720  0.250000  1
  Ac  Ac1  1  0.838720  0.161280  0.750000  1
  Ac  Ac2  1  0.984861  0.453326  0.604816  1
  Ac  Ac3  1  0.015139  0.546674  0.104816  1
  Ac  Ac4  1  0.453326  0.984861  0.395184  1
  Ac  Ac5  1  0.546674  0.015139  0.895184  1
  Ac  Ac6  1  0.224919  0.251687  0.393359  1
  Ac  Ac7  1  0.775081  0.748313  0.893359  1
  Ac  Ac8  1  0.251687  0.224919  0.606641  1
  Ac  Ac9  1  0.748313  0.775081  0.106641  1
  Ac  Ac10  1  0.608534  0.324455  0.515504  1
  Ac  Ac11  1  0.391466  0.675545  0.015504  1
  Ac  Ac12  1  0.324455  0.608534  0.484496  1
  Ac  Ac13  1  0.675545  0.391466  0.984496  1
  Ac  Ac14  1  0.884622  0.138606  0.496702  1
  Ac  Ac15  1  0.115378  0.861394  0.996702  1
  Ac  Ac16  1  0.138606  0.884622  0.503298  1
  Ac  Ac17  1  0.861394  0.115378  0.003298  1
  Ac  Ac18  1  0.377181  0.622819  0.250000  1
  Ac  Ac19  1  0.622819  0.377181  0.750000  1
  Ac  Ac20  1  0.990897  0.480830  0.874028  1
  Ac  Ac21  1  0.009103  0.519170  0.374028  1
  Ac  Ac22  1  0.480830  0.990897  0.125972  1
  Ac  Ac23  1  0.519170  0.009103  0.625972  1
  C  C24  1  0.859965  0.661294  0.023655  1
  C  C25  1  0.140035  0.338706  0.523655  1
  C  C26  1  0.661294  0.859965  0.976345  1
  C  C27  1  0.338706  0.140035  0.476345  1
  C  C28  1  0.914045  0.602107  0.968553  1
  C  C29  1  0.085955  0.397893  0.468553  1
  C  C30  1  0.602107  0.914045  0.031447  1
  C  C31  1  0.397893  0.085955  0.531447  1
  C  C32  1  0.713305  0.272797  0.649694  1
  C  C33  1  0.286695  0.727203  0.149694  1
  C  C34  1  0.272797  0.713305  0.350306  1
  C  C35  1  0.727203  0.286695  0.850306  1
  C  C36  1  0.784339  0.228081  0.903829  1
  C  C37  1  0.215661  0.771918  0.403829  1
  C  C38  1  0.228082  0.784339  0.096171  1
  C  C39  1  0.771918  0.215661  0.596171  1
  Br  Br40  1  0.245060  0.732624  0.630972  1
  Br  Br41  1  0.754940  0.267376  0.130972  1
  Br  Br42  1  0.732624  0.245060  0.369028  1
  Br  Br43  1  0.267376  0.754940  0.869028  1
  Br  Br44  1  0.855661  0.618441  0.502641  1
  Br  Br45  1  0.144339  0.381559  0.002641  1
  Br  Br46  1  0.618441  0.855661  0.497359  1
  Br  Br47  1  0.381559  0.144339  0.997359  1
  Br  Br48  1  0.138665  0.370517  0.740614  1
  Br  Br49  1  0.861335  0.629483  0.240614  1
  Br  Br50  1  0.370517  0.138665  0.259386  1
  Br  Br51  1  0.629483  0.861335  0.759386  1
  Br  Br52  1  0.508231  0.494535  0.384079  1
  Br  Br53  1  0.491769  0.505465  0.884079  1
  Br  Br54  1  0.494535  0.508231  0.615921  1
  Br  Br55  1  0.505465  0.491769  0.115921  1
  Br  Br56  1  0.899240  0.633552  0.741417  1
  Br  Br57  1  0.100760  0.366448  0.241417  1
  Br  Br58  1  0.633552  0.899240  0.258583  1
  Br  Br59  1  0.366448  0.100760  0.758583  1
  Br  Br60  1  0.027369  0.014838  0.132676  1
  Br  Br61  1  0.972631  0.985162  0.632676  1
  Br  Br62  1  0.014838  0.027369  0.867324  1
  Br  Br63  1  0.985162  0.972631  0.367324  1
