# generated using pymatgen
data_K2NbAuSe4
_symmetry_space_group_name_H-M   'P 1'
_cell_length_a   13.95309226
_cell_length_b   12.44573130
_cell_length_c   7.60760411
_cell_angle_alpha   84.52027409
_cell_angle_beta   62.60968231
_cell_angle_gamma   32.87004774
_symmetry_Int_Tables_number   1
_chemical_formula_structural   K2NbAuSe4
_chemical_formula_sum   'K4 Nb2 Au2 Se8'
_cell_volume   507.54318338
_cell_formula_units_Z   2
loop_
 _symmetry_equiv_pos_site_id
 _symmetry_equiv_pos_as_xyz
  1  'x, y, z'
loop_
 _atom_site_type_symbol
 _atom_site_label
 _atom_site_symmetry_multiplicity
 _atom_site_fract_x
 _atom_site_fract_y
 _atom_site_fract_z
 _atom_site_occupancy
  K  K0  1  0.430671  0.430671  0.069329  1
  K  K1  1  0.819329  0.819329  0.180671  1
  K  K2  1  0.069329  0.069329  0.430671  1
  K  K3  1  0.180671  0.180671  0.819329  1
  Nb  Nb4  1  0.250000  0.250000  0.250000  1
  Nb  Nb5  1  0.000000  0.000000  0.000000  1
  Au  Au6  1  0.750000  0.750000  0.750000  1
  Au  Au7  1  0.500000  0.500000  0.500000  1
  Se  Se8  1  0.732147  0.386667  0.058254  1
  Se  Se9  1  0.822932  0.058254  0.386667  1
  Se  Se10  1  0.058254  0.822932  0.732147  1
  Se  Se11  1  0.386667  0.732147  0.822932  1
  Se  Se12  1  0.517853  0.863333  0.191746  1
  Se  Se13  1  0.863333  0.517853  0.427068  1
  Se  Se14  1  0.191746  0.427068  0.517853  1
  Se  Se15  1  0.427068  0.191746  0.863333  1
