# generated using pymatgen
data_PuHg2(PO4)2
_symmetry_space_group_name_H-M   'P 1'
_cell_length_a   5.41666191
_cell_length_b   5.30955693
_cell_length_c   8.73898881
_cell_angle_alpha   90.15374119
_cell_angle_beta   71.17087514
_cell_angle_gamma   66.98354187
_symmetry_Int_Tables_number   1
_chemical_formula_structural   PuHg2(PO4)2
_chemical_formula_sum   'Pu1 Hg2 P2 O8'
_cell_volume   216.53738735
_cell_formula_units_Z   1
loop_
 _symmetry_equiv_pos_site_id
 _symmetry_equiv_pos_as_xyz
  1  'x, y, z'
loop_
 _atom_site_type_symbol
 _atom_site_label
 _atom_site_symmetry_multiplicity
 _atom_site_fract_x
 _atom_site_fract_y
 _atom_site_fract_z
 _atom_site_occupancy
  Pu  Pu0  1  0.000003  0.000000  0.999998  1
  Hg  Hg1  1  0.193112  0.253324  0.452899  1
  Hg  Hg2  1  0.806887  0.746670  0.547100  1
  P  P3  1  0.516620  0.690706  0.198395  1
  P  P4  1  0.483381  0.309293  0.801603  1
  O  O5  1  0.725570  0.777156  0.064319  1
  O  O6  1  0.221683  0.801711  0.175279  1
  O  O7  1  0.648130  0.371084  0.188178  1
  O  O8  1  0.471073  0.817788  0.372389  1
  O  O9  1  0.528923  0.182205  0.627614  1
  O  O10  1  0.351868  0.628916  0.811818  1
  O  O11  1  0.778318  0.198296  0.824720  1
  O  O12  1  0.274430  0.222849  0.935685  1
