# generated using pymatgen
data_LiMgTa7NbB20
_symmetry_space_group_name_H-M   'P 1'
_cell_length_a   6.16087188
_cell_length_b   7.01405629
_cell_length_c   7.38065908
_cell_angle_alpha   94.00217832
_cell_angle_beta   102.09758818
_cell_angle_gamma   116.02088624
_symmetry_Int_Tables_number   1
_chemical_formula_structural   LiMgTa7NbB20
_chemical_formula_sum   'Li1 Mg1 Ta7 Nb1 B20'
_cell_volume   275.45545455
_cell_formula_units_Z   1
loop_
 _symmetry_equiv_pos_site_id
 _symmetry_equiv_pos_as_xyz
  1  'x, y, z'
loop_
 _atom_site_type_symbol
 _atom_site_label
 _atom_site_symmetry_multiplicity
 _atom_site_fract_x
 _atom_site_fract_y
 _atom_site_fract_z
 _atom_site_occupancy
  Li  Li0  1  0.999584  0.996989  0.997547  1
  Mg  Mg1  1  0.000728  0.605457  0.803891  1
  Ta  Ta2  1  0.499877  0.999669  0.000633  1
  Ta  Ta3  1  0.500138  0.800158  0.399820  1
  Ta  Ta4  1  0.999138  0.394403  0.201502  1
  Ta  Ta5  1  0.502325  0.201097  0.600183  1
  Ta  Ta6  1  0.000082  0.800540  0.399143  1
  Ta  Ta7  1  0.501289  0.600930  0.799710  1
  Ta  Ta8  1  0.496357  0.397732  0.199297  1
  Nb  Nb9  1  0.000849  0.204361  0.598822  1
  B  B10  1  0.330702  0.230055  0.870408  1
  B  B11  1  0.331822  0.632348  0.066246  1
  B  B12  1  0.165584  0.364252  0.935895  1
  B  B13  1  0.330097  0.032778  0.261341  1
  B  B14  1  0.164318  0.767304  0.130672  1
  B  B15  1  0.834118  0.232102  0.868627  1
  B  B16  1  0.165468  0.164733  0.327804  1
  B  B17  1  0.835448  0.635306  0.065020  1
  B  B18  1  0.334514  0.434111  0.465343  1
  B  B19  1  0.667532  0.367646  0.932295  1
  B  B20  1  0.833780  0.031511  0.261420  1
  B  B21  1  0.668666  0.768615  0.129712  1
  B  B22  1  0.333363  0.833558  0.668065  1
  B  B23  1  0.167335  0.569523  0.535159  1
  B  B24  1  0.665045  0.165307  0.333849  1
  B  B25  1  0.833315  0.435159  0.468188  1
  B  B26  1  0.164777  0.965950  0.736023  1
  B  B27  1  0.835747  0.833907  0.670633  1
  B  B28  1  0.668100  0.567723  0.535494  1
  B  B29  1  0.669903  0.966779  0.737259  1
