# generated using pymatgen
data_Ta2Nb2(SnPt)5
_symmetry_space_group_name_H-M   'P 1'
_cell_length_a   6.28732489
_cell_length_b   7.66844896
_cell_length_c   7.66938604
_cell_angle_alpha   80.33491915
_cell_angle_beta   114.19305419
_cell_angle_gamma   114.18571991
_symmetry_Int_Tables_number   1
_chemical_formula_structural   Ta2Nb2(SnPt)5
_chemical_formula_sum   'Ta2 Nb2 Sn5 Pt5'
_cell_volume   307.68787812
_cell_formula_units_Z   1
loop_
 _symmetry_equiv_pos_site_id
 _symmetry_equiv_pos_as_xyz
  1  'x, y, z'
loop_
 _atom_site_type_symbol
 _atom_site_label
 _atom_site_symmetry_multiplicity
 _atom_site_fract_x
 _atom_site_fract_y
 _atom_site_fract_z
 _atom_site_occupancy
  Ta  Ta0  1  0.201780  0.797616  0.599996  1
  Ta  Ta1  1  0.595792  0.399802  0.797656  1
  Nb  Nb2  1  0.398272  0.600113  0.202229  1
  Nb  Nb3  1  0.803821  0.202201  0.399671  1
  Sn  Sn4  1  0.500058  0.999926  0.000185  1
  Sn  Sn5  1  0.903176  0.633648  0.192665  1
  Sn  Sn6  1  0.289270  0.192779  0.366015  1
  Sn  Sn7  1  0.730531  0.807726  0.633677  1
  Sn  Sn8  1  0.076997  0.366022  0.807456  1
  Pt  Pt9  1  0.938420  0.323327  0.105871  1
  Pt  Pt10  1  0.382414  0.892436  0.324257  1
  Pt  Pt11  1  0.751304  0.500842  0.501748  1
  Pt  Pt12  1  0.169231  0.107103  0.677353  1
  Pt  Pt13  1  0.508931  0.676456  0.891221  1
