# generated using pymatgen
data_Ca3Co8As6Ru
_symmetry_space_group_name_H-M   'P 1'
_cell_length_a   3.84209100
_cell_length_b   10.96255900
_cell_length_c   12.73059200
_cell_angle_alpha   90.00000000
_cell_angle_beta   90.00000000
_cell_angle_gamma   90.00000000
_symmetry_Int_Tables_number   1
_chemical_formula_structural   Ca3Co8As6Ru
_chemical_formula_sum   'Ca6 Co16 As12 Ru2'
_cell_volume   536.20170475
_cell_formula_units_Z   2
loop_
 _symmetry_equiv_pos_site_id
 _symmetry_equiv_pos_as_xyz
  1  'x, y, z'
loop_
 _atom_site_type_symbol
 _atom_site_label
 _atom_site_symmetry_multiplicity
 _atom_site_fract_x
 _atom_site_fract_y
 _atom_site_fract_z
 _atom_site_occupancy
  Ca  Ca0  1  0.000000  0.500000  0.526740  1
  Ca  Ca1  1  0.500000  0.000000  0.473260  1
  Ca  Ca2  1  0.500000  0.819901  0.206103  1
  Ca  Ca3  1  0.500000  0.180099  0.206103  1
  Ca  Ca4  1  0.000000  0.680099  0.793897  1
  Ca  Ca5  1  0.000000  0.319901  0.793897  1
  Co  Co6  1  0.500000  0.500000  0.700623  1
  Co  Co7  1  0.000000  0.000000  0.299377  1
  Co  Co8  1  0.000000  0.500000  0.988361  1
  Co  Co9  1  0.500000  0.000000  0.011639  1
  Co  Co10  1  0.500000  0.331744  0.993176  1
  Co  Co11  1  0.500000  0.668256  0.993176  1
  Co  Co12  1  0.000000  0.168256  0.006824  1
  Co  Co13  1  0.000000  0.831744  0.006824  1
  Co  Co14  1  0.500000  0.298191  0.431322  1
  Co  Co15  1  0.500000  0.701809  0.431322  1
  Co  Co16  1  0.000000  0.201809  0.568678  1
  Co  Co17  1  0.000000  0.798191  0.568678  1
  Co  Co18  1  0.500000  0.881514  0.706474  1
  Co  Co19  1  0.500000  0.118486  0.706474  1
  Co  Co20  1  0.000000  0.618486  0.293526  1
  Co  Co21  1  0.000000  0.381514  0.293526  1
  As  As22  1  0.500000  0.500000  0.881054  1
  As  As23  1  0.000000  0.000000  0.118946  1
  As  As24  1  0.500000  0.500000  0.348343  1
  As  As25  1  0.000000  0.000000  0.651657  1
  As  As26  1  0.500000  0.309925  0.617470  1
  As  As27  1  0.500000  0.690075  0.617470  1
  As  As28  1  0.000000  0.190075  0.382530  1
  As  As29  1  0.000000  0.809925  0.382530  1
  As  As30  1  0.500000  0.845770  0.891026  1
  As  As31  1  0.500000  0.154230  0.891026  1
  As  As32  1  0.000000  0.654230  0.108974  1
  As  As33  1  0.000000  0.345770  0.108974  1
  Ru  Ru34  1  0.500000  0.500000  0.154934  1
  Ru  Ru35  1  0.000000  0.000000  0.845066  1
