# generated using pymatgen
data_NdAg3Ir2(RuO7)2
_symmetry_space_group_name_H-M   'P 1'
_cell_length_a   7.29971096
_cell_length_b   7.29012074
_cell_length_c   7.29012115
_cell_angle_alpha   59.33833132
_cell_angle_beta   59.49774663
_cell_angle_gamma   59.49774255
_symmetry_Int_Tables_number   1
_chemical_formula_structural   NdAg3Ir2(RuO7)2
_chemical_formula_sum   'Nd1 Ag3 Ir2 Ru2 O14'
_cell_volume   270.85410560
_cell_formula_units_Z   1
loop_
 _symmetry_equiv_pos_site_id
 _symmetry_equiv_pos_as_xyz
  1  'x, y, z'
loop_
 _atom_site_type_symbol
 _atom_site_label
 _atom_site_symmetry_multiplicity
 _atom_site_fract_x
 _atom_site_fract_y
 _atom_site_fract_z
 _atom_site_occupancy
  Nd  Nd0  1  0.125000  0.125000  0.125000  1
  Ag  Ag1  1  0.625000  0.125000  0.125000  1
  Ag  Ag2  1  0.125000  0.625000  0.125000  1
  Ag  Ag3  1  0.125000  0.125000  0.625000  1
  Ir  Ir4  1  0.625000  0.125000  0.625000  1
  Ir  Ir5  1  0.625000  0.625000  0.125000  1
  Ru  Ru6  1  0.125000  0.625000  0.625000  1
  Ru  Ru7  1  0.625000  0.625000  0.625000  1
  O  O8  1  0.694684  0.690116  0.305926  1
  O  O9  1  0.299787  0.299484  0.702463  1
  O  O10  1  0.694684  0.305926  0.690116  1
  O  O11  1  0.299787  0.702463  0.299484  1
  O  O12  1  0.312321  0.685989  0.685989  1
  O  O13  1  0.707490  0.295131  0.295131  1
  O  O14  1  0.555316  0.559884  0.944074  1
  O  O15  1  0.950213  0.950516  0.547537  1
  O  O16  1  0.555316  0.944074  0.559884  1
  O  O17  1  0.950213  0.547537  0.950516  1
  O  O18  1  0.937679  0.564011  0.564011  1
  O  O19  1  0.542510  0.954869  0.954869  1
  O  O20  1  0.257712  0.258868  0.258868  1
  O  O21  1  0.992288  0.991132  0.991132  1
