# generated using pymatgen
data_NdHo3Pd4F28
_symmetry_space_group_name_H-M   'P 1'
_cell_length_a   5.53325328
_cell_length_b   8.87430355
_cell_length_c   11.96762564
_cell_angle_alpha   62.51936340
_cell_angle_beta   89.87810140
_cell_angle_gamma   89.96671760
_symmetry_Int_Tables_number   1
_chemical_formula_structural   NdHo3Pd4F28
_chemical_formula_sum   'Nd1 Ho3 Pd4 F28'
_cell_volume   521.34725981
_cell_formula_units_Z   1
loop_
 _symmetry_equiv_pos_site_id
 _symmetry_equiv_pos_as_xyz
  1  'x, y, z'
loop_
 _atom_site_type_symbol
 _atom_site_label
 _atom_site_symmetry_multiplicity
 _atom_site_fract_x
 _atom_site_fract_y
 _atom_site_fract_z
 _atom_site_occupancy
  Nd  Nd0  1  0.761530  0.813833  0.765108  1
  Ho  Ho1  1  0.263410  0.192008  0.734944  1
  Ho  Ho2  1  0.237507  0.185942  0.235973  1
  Ho  Ho3  1  0.737752  0.814651  0.264195  1
  Pd  Pd4  1  0.759294  0.268106  0.958811  1
  Pd  Pd5  1  0.256994  0.726749  0.539265  1
  Pd  Pd6  1  0.241042  0.726276  0.047404  1
  Pd  Pd7  1  0.739975  0.275476  0.454618  1
  F  F8  1  0.428689  0.701716  0.919503  1
  F  F9  1  0.933162  0.298506  0.581540  1
  F  F10  1  0.565004  0.294931  0.084069  1
  F  F11  1  0.066061  0.702580  0.412567  1
  F  F12  1  0.441047  0.279938  0.540357  1
  F  F13  1  0.942570  0.718606  0.965380  1
  F  F14  1  0.560335  0.722650  0.456554  1
  F  F15  1  0.058120  0.275266  0.043260  1
  F  F16  1  0.776789  0.513496  0.860883  1
  F  F17  1  0.275120  0.479996  0.638690  1
  F  F18  1  0.226521  0.478294  0.143519  1
  F  F19  1  0.723996  0.522385  0.357784  1
  F  F20  1  0.753378  0.021699  0.051001  1
  F  F21  1  0.252222  0.973467  0.449026  1
  F  F22  1  0.245156  0.972570  0.953384  1
  F  F23  1  0.746300  0.029584  0.545241  1
  F  F24  1  0.963996  0.722321  0.629350  1
  F  F25  1  0.466564  0.273672  0.866616  1
  F  F26  1  0.032098  0.275543  0.363328  1
  F  F27  1  0.535286  0.725516  0.136741  1
  F  F28  1  0.054614  0.745722  0.178398  1
  F  F29  1  0.550851  0.255408  0.323960  1
  F  F30  1  0.948434  0.251176  0.826694  1
  F  F31  1  0.437132  0.743005  0.672731  1
  F  F32  1  0.416318  0.971600  0.232804  1
  F  F33  1  0.916242  0.029196  0.267388  1
  F  F34  1  0.585946  0.041983  0.768603  1
  F  F35  1  0.100544  0.976133  0.730311  1
