# generated using pymatgen
data_Yb4TcRu7
_symmetry_space_group_name_H-M   'P 1'
_cell_length_a   5.21678133
_cell_length_b   5.42747681
_cell_length_c   8.69878600
_cell_angle_alpha   90.00000000
_cell_angle_beta   90.00000000
_cell_angle_gamma   121.34528312
_symmetry_Int_Tables_number   1
_chemical_formula_structural   Yb4TcRu7
_chemical_formula_sum   'Yb4 Tc1 Ru7'
_cell_volume   210.34951717
_cell_formula_units_Z   1
loop_
 _symmetry_equiv_pos_site_id
 _symmetry_equiv_pos_as_xyz
  1  'x, y, z'
loop_
 _atom_site_type_symbol
 _atom_site_label
 _atom_site_symmetry_multiplicity
 _atom_site_fract_x
 _atom_site_fract_y
 _atom_site_fract_z
 _atom_site_occupancy
  Yb  Yb0  1  0.327108  0.663555  0.432080  1
  Yb  Yb1  1  0.664478  0.332239  0.563430  1
  Yb  Yb2  1  0.664478  0.332239  0.936570  1
  Yb  Yb3  1  0.327108  0.663555  0.067920  1
  Tc  Tc4  1  0.651972  0.825985  0.750000  1
  Ru  Ru5  1  0.983941  0.991970  0.502682  1
  Ru  Ru6  1  0.983941  0.991970  0.997318  1
  Ru  Ru7  1  0.831940  0.164564  0.250000  1
  Ru  Ru8  1  0.831940  0.667376  0.250000  1
  Ru  Ru9  1  0.365437  0.182719  0.250000  1
  Ru  Ru10  1  0.183828  0.837149  0.750000  1
  Ru  Ru11  1  0.183828  0.346679  0.750000  1
