# generated using pymatgen
data_Dy5MnPtO12
_symmetry_space_group_name_H-M   'P 1'
_cell_length_a   6.86144059
_cell_length_b   6.86144057
_cell_length_c   7.25823289
_cell_angle_alpha   74.56040722
_cell_angle_beta   74.56067452
_cell_angle_gamma   50.65421011
_symmetry_Int_Tables_number   1
_chemical_formula_structural   Dy5MnPtO12
_chemical_formula_sum   'Dy5 Mn1 Pt1 O12'
_cell_volume   252.53629233
_cell_formula_units_Z   1
loop_
 _symmetry_equiv_pos_site_id
 _symmetry_equiv_pos_as_xyz
  1  'x, y, z'
loop_
 _atom_site_type_symbol
 _atom_site_label
 _atom_site_symmetry_multiplicity
 _atom_site_fract_x
 _atom_site_fract_y
 _atom_site_fract_z
 _atom_site_occupancy
  Dy  Dy0  1  0.296187  0.307103  0.359486  1
  Dy  Dy1  1  0.692898  0.703809  0.640512  1
  Dy  Dy2  1  0.307481  0.305739  0.832845  1
  Dy  Dy3  1  0.694254  0.692526  0.167154  1
  Dy  Dy4  1  0.001860  0.998139  0.500005  1
  Mn  Mn5  1  0.247772  0.752247  0.999993  1
  Pt  Pt6  1  0.754942  0.245058  0.000005  1
  O  O7  1  0.904084  0.428975  0.916170  1
  O  O8  1  0.424186  0.899628  0.917946  1
  O  O9  1  0.100370  0.575812  0.082051  1
  O  O10  1  0.571025  0.095914  0.083833  1
  O  O11  1  0.096054  0.598125  0.574704  1
  O  O12  1  0.598405  0.097948  0.573786  1
  O  O13  1  0.902046  0.401598  0.426214  1
  O  O14  1  0.401871  0.903952  0.425294  1
  O  O15  1  0.010944  0.989276  0.818580  1
  O  O16  1  0.010728  0.989048  0.181422  1
  O  O17  1  0.492536  0.507639  0.815551  1
  O  O18  1  0.492358  0.507464  0.184449  1
