# generated using pymatgen
data_Pr7Nd3Sn20Ir3Pd5
_symmetry_space_group_name_H-M   'P 1'
_cell_length_a   14.29275605
_cell_length_b   14.29452536
_cell_length_c   4.67632300
_cell_angle_alpha   90.00000000
_cell_angle_beta   90.00000000
_cell_angle_gamma   89.94286724
_symmetry_Int_Tables_number   1
_chemical_formula_structural   Pr7Nd3Sn20Ir3Pd5
_chemical_formula_sum   'Pr7 Nd3 Sn20 Ir3 Pd5'
_cell_volume   955.41049041
_cell_formula_units_Z   1
loop_
 _symmetry_equiv_pos_site_id
 _symmetry_equiv_pos_as_xyz
  1  'x, y, z'
loop_
 _atom_site_type_symbol
 _atom_site_label
 _atom_site_symmetry_multiplicity
 _atom_site_fract_x
 _atom_site_fract_y
 _atom_site_fract_z
 _atom_site_occupancy
  Pr  Pr0  1  0.500923  0.496679  0.000000  1
  Pr  Pr1  1  0.001046  0.999479  0.000000  1
  Pr  Pr2  1  0.823037  0.680848  0.500000  1
  Pr  Pr3  1  0.892927  0.389601  0.500000  1
  Pr  Pr4  1  0.106937  0.610164  0.500000  1
  Pr  Pr5  1  0.393546  0.110674  0.500000  1
  Pr  Pr6  1  0.608711  0.891866  0.500000  1
  Nd  Nd7  1  0.676253  0.181645  0.500000  1
  Nd  Nd8  1  0.320144  0.820875  0.500000  1
  Nd  Nd9  1  0.175781  0.318412  0.500000  1
  Sn  Sn10  1  0.568640  0.071546  0.000000  1
  Sn  Sn11  1  0.431260  0.932593  0.000000  1
  Sn  Sn12  1  0.068944  0.429700  0.000000  1
  Sn  Sn13  1  0.932183  0.570343  0.000000  1
  Sn  Sn14  1  0.652583  0.700645  0.000000  1
  Sn  Sn15  1  0.347277  0.296401  0.000000  1
  Sn  Sn16  1  0.151032  0.796440  0.000000  1
  Sn  Sn17  1  0.848256  0.202425  0.000000  1
  Sn  Sn18  1  0.298905  0.652459  0.000000  1
  Sn  Sn19  1  0.699960  0.346831  0.000000  1
  Sn  Sn20  1  0.198671  0.152552  0.000000  1
  Sn  Sn21  1  0.800655  0.848391  0.000000  1
  Sn  Sn22  1  0.663506  0.500699  0.500000  1
  Sn  Sn23  1  0.337100  0.495645  0.500000  1
  Sn  Sn24  1  0.163121  0.997762  0.500000  1
  Sn  Sn25  1  0.837439  0.004221  0.500000  1
  Sn  Sn26  1  0.498551  0.662465  0.500000  1
  Sn  Sn27  1  0.503403  0.336841  0.500000  1
  Sn  Sn28  1  0.004734  0.162217  0.500000  1
  Sn  Sn29  1  0.995173  0.837550  0.500000  1
  Ir  Ir30  1  0.532258  0.256739  0.000000  1
  Ir  Ir31  1  0.031846  0.244796  0.000000  1
  Ir  Ir32  1  0.967102  0.755930  0.000000  1
  Pd  Pd33  1  0.745588  0.530859  0.000000  1
  Pd  Pd34  1  0.255267  0.467982  0.000000  1
  Pd  Pd35  1  0.244263  0.967542  0.000000  1
  Pd  Pd36  1  0.755038  0.032181  0.000000  1
  Pd  Pd37  1  0.467941  0.746002  0.000000  1
