# generated using pymatgen
data_Ti12Sn4N
_symmetry_space_group_name_H-M   'P 1'
_cell_length_a   5.93197700
_cell_length_b   4.78403287
_cell_length_c   10.25459346
_cell_angle_alpha   89.92330586
_cell_angle_beta   90.00000000
_cell_angle_gamma   90.00000000
_symmetry_Int_Tables_number   1
_chemical_formula_structural   Ti12Sn4N
_chemical_formula_sum   'Ti12 Sn4 N1'
_cell_volume   291.01251868
_cell_formula_units_Z   1
loop_
 _symmetry_equiv_pos_site_id
 _symmetry_equiv_pos_as_xyz
  1  'x, y, z'
loop_
 _atom_site_type_symbol
 _atom_site_label
 _atom_site_symmetry_multiplicity
 _atom_site_fract_x
 _atom_site_fract_y
 _atom_site_fract_z
 _atom_site_occupancy
  Ti  Ti0  1  0.000000  0.758583  0.163658  1
  Ti  Ti1  1  0.500000  0.752246  0.661095  1
  Ti  Ti2  1  0.746390  0.752117  0.419202  1
  Ti  Ti3  1  0.244946  0.756365  0.917922  1
  Ti  Ti4  1  0.253610  0.752117  0.419202  1
  Ti  Ti5  1  0.755054  0.756365  0.917922  1
  Ti  Ti6  1  0.500000  0.247754  0.338905  1
  Ti  Ti7  1  0.000000  0.241417  0.836342  1
  Ti  Ti8  1  0.755054  0.243635  0.082078  1
  Ti  Ti9  1  0.253610  0.247883  0.580798  1
  Ti  Ti10  1  0.244946  0.243635  0.082078  1
  Ti  Ti11  1  0.746390  0.247883  0.580798  1
  Sn  Sn12  1  0.500000  0.747227  0.167582  1
  Sn  Sn13  1  0.000000  0.746313  0.666876  1
  Sn  Sn14  1  0.000000  0.253687  0.333124  1
  Sn  Sn15  1  0.500000  0.252773  0.832417  1
  N  N16  1  0.000000  0.500000  0.000000  1
