# generated using pymatgen
data_YbPa2Sb4Pt3
_symmetry_space_group_name_H-M   'P 1'
_cell_length_a   8.45307168
_cell_length_b   8.45307196
_cell_length_c   8.45307280
_cell_angle_alpha   109.73838745
_cell_angle_beta   109.73839010
_cell_angle_gamma   108.93819769
_symmetry_Int_Tables_number   1
_chemical_formula_structural   YbPa2Sb4Pt3
_chemical_formula_sum   'Yb2 Pa4 Sb8 Pt6'
_cell_volume   464.93652573
_cell_formula_units_Z   2
loop_
 _symmetry_equiv_pos_site_id
 _symmetry_equiv_pos_as_xyz
  1  'x, y, z'
loop_
 _atom_site_type_symbol
 _atom_site_label
 _atom_site_symmetry_multiplicity
 _atom_site_fract_x
 _atom_site_fract_y
 _atom_site_fract_z
 _atom_site_occupancy
  Yb  Yb0  1  0.125000  0.875000  0.250000  1
  Yb  Yb1  1  0.375000  0.625000  0.750000  1
  Pa  Pa2  1  0.877611  0.250000  0.127611  1
  Pa  Pa3  1  0.622389  0.750000  0.372389  1
  Pa  Pa4  1  0.250000  0.122389  0.872389  1
  Pa  Pa5  1  0.750000  0.377611  0.627611  1
  Sb  Sb6  1  0.673969  0.501422  0.998975  1
  Sb  Sb7  1  0.497554  0.998578  0.672547  1
  Sb  Sb8  1  0.002446  0.674993  0.501025  1
  Sb  Sb9  1  0.826031  0.825007  0.827453  1
  Sb  Sb10  1  0.498578  0.997554  0.172547  1
  Sb  Sb11  1  0.174993  0.502446  0.001025  1
  Sb  Sb12  1  0.001422  0.173969  0.498975  1
  Sb  Sb13  1  0.325007  0.326031  0.327453  1
  Pt  Pt14  1  0.376753  0.250000  0.626753  1
  Pt  Pt15  1  0.123247  0.750000  0.873247  1
  Pt  Pt16  1  0.250000  0.623247  0.373247  1
  Pt  Pt17  1  0.750000  0.876753  0.126753  1
  Pt  Pt18  1  0.625000  0.375000  0.250000  1
  Pt  Pt19  1  0.875000  0.125000  0.750000  1
