# generated using pymatgen
data_Nd5(CoO6)2
_symmetry_space_group_name_H-M   'P 1'
_cell_length_a   6.97628702
_cell_length_b   6.97628655
_cell_length_c   7.53263573
_cell_angle_alpha   74.46323422
_cell_angle_beta   74.46323545
_cell_angle_gamma   50.02498350
_symmetry_Int_Tables_number   1
_chemical_formula_structural   Nd5(CoO6)2
_chemical_formula_sum   'Nd5 Co2 O12'
_cell_volume   268.38409071
_cell_formula_units_Z   1
loop_
 _symmetry_equiv_pos_site_id
 _symmetry_equiv_pos_as_xyz
  1  'x, y, z'
loop_
 _atom_site_type_symbol
 _atom_site_label
 _atom_site_symmetry_multiplicity
 _atom_site_fract_x
 _atom_site_fract_y
 _atom_site_fract_z
 _atom_site_occupancy
  Nd  Nd0  1  0.308587  0.308587  0.353607  1
  Nd  Nd1  1  0.691413  0.691413  0.646393  1
  Nd  Nd2  1  0.693138  0.693138  0.162343  1
  Nd  Nd3  1  0.306862  0.306862  0.837657  1
  Nd  Nd4  1  0.000000  0.000000  0.500000  1
  Co  Co5  1  0.757028  0.242972  0.000000  1
  Co  Co6  1  0.242972  0.757028  0.000000  1
  O  O7  1  0.095906  0.596951  0.578274  1
  O  O8  1  0.999169  0.999169  0.163722  1
  O  O9  1  0.403049  0.904094  0.421726  1
  O  O10  1  0.500548  0.500548  0.165627  1
  O  O11  1  0.101935  0.590229  0.075320  1
  O  O12  1  0.904094  0.403049  0.421726  1
  O  O13  1  0.000831  0.000831  0.836278  1
  O  O14  1  0.596951  0.095905  0.578274  1
  O  O15  1  0.499452  0.499452  0.834373  1
  O  O16  1  0.590229  0.101935  0.075320  1
  O  O17  1  0.409771  0.898065  0.924680  1
  O  O18  1  0.898065  0.409771  0.924680  1
