# generated using pymatgen
data_LaYb5(YSi2)4
_symmetry_space_group_name_H-M   'P 1'
_cell_length_a   7.44229600
_cell_length_b   7.86093390
_cell_length_c   15.11807717
_cell_angle_alpha   90.25268339
_cell_angle_beta   90.00000000
_cell_angle_gamma   90.00000000
_symmetry_Int_Tables_number   1
_chemical_formula_structural   LaYb5(YSi2)4
_chemical_formula_sum   'La2 Yb10 Y8 Si16'
_cell_volume   884.45026786
_cell_formula_units_Z   2
loop_
 _symmetry_equiv_pos_site_id
 _symmetry_equiv_pos_as_xyz
  1  'x, y, z'
loop_
 _atom_site_type_symbol
 _atom_site_label
 _atom_site_symmetry_multiplicity
 _atom_site_fract_x
 _atom_site_fract_y
 _atom_site_fract_z
 _atom_site_occupancy
  La  La0  1  0.971018  0.817983  0.403027  1
  La  La1  1  0.471018  0.682017  0.096973  1
  Yb  Yb2  1  0.528565  0.315306  0.597204  1
  Yb  Yb3  1  0.028565  0.184694  0.902796  1
  Yb  Yb4  1  0.029699  0.184244  0.597212  1
  Yb  Yb5  1  0.529699  0.315756  0.902788  1
  Yb  Yb6  1  0.470726  0.682368  0.402947  1
  Yb  Yb7  1  0.970726  0.817632  0.097053  1
  Yb  Yb8  1  0.353577  0.021098  0.749841  1
  Yb  Yb9  1  0.853577  0.478902  0.750159  1
  Yb  Yb10  1  0.145852  0.516192  0.250196  1
  Yb  Yb11  1  0.645852  0.983808  0.249804  1
  Y  Y12  1  0.314947  0.178594  0.121266  1
  Y  Y13  1  0.814947  0.321406  0.378734  1
  Y  Y14  1  0.185611  0.677993  0.877713  1
  Y  Y15  1  0.685611  0.822007  0.622287  1
  Y  Y16  1  0.314467  0.179819  0.378548  1
  Y  Y17  1  0.814467  0.320181  0.121452  1
  Y  Y18  1  0.187281  0.676378  0.622751  1
  Y  Y19  1  0.687281  0.823622  0.877249  1
  Si  Si20  1  0.856864  0.531558  0.537888  1
  Si  Si21  1  0.356864  0.968442  0.962112  1
  Si  Si22  1  0.641845  0.029681  0.461683  1
  Si  Si23  1  0.141845  0.470319  0.038317  1
  Si  Si24  1  0.141471  0.469828  0.461825  1
  Si  Si25  1  0.641471  0.030172  0.038175  1
  Si  Si26  1  0.355543  0.966836  0.537669  1
  Si  Si27  1  0.855543  0.533164  0.962331  1
  Si  Si28  1  0.978843  0.886737  0.750150  1
  Si  Si29  1  0.478843  0.613263  0.749850  1
  Si  Si30  1  0.522649  0.386533  0.250065  1
  Si  Si31  1  0.022649  0.113467  0.249935  1
  Si  Si32  1  0.249883  0.393424  0.750152  1
  Si  Si33  1  0.749883  0.106576  0.749848  1
  Si  Si34  1  0.251160  0.891256  0.248561  1
  Si  Si35  1  0.751160  0.608744  0.251439  1
