# generated using pymatgen
data_KRb3CdBr6
_symmetry_space_group_name_H-M   'P 1'
_cell_length_a   9.38888454
_cell_length_b   9.38888446
_cell_length_c   9.38888446
_cell_angle_alpha   90.87207122
_cell_angle_beta   90.87206938
_cell_angle_gamma   90.87206673
_symmetry_Int_Tables_number   1
_chemical_formula_structural   KRb3CdBr6
_chemical_formula_sum   'K2 Rb6 Cd2 Br12'
_cell_volume   827.35043495
_cell_formula_units_Z   2
loop_
 _symmetry_equiv_pos_site_id
 _symmetry_equiv_pos_as_xyz
  1  'x, y, z'
loop_
 _atom_site_type_symbol
 _atom_site_label
 _atom_site_symmetry_multiplicity
 _atom_site_fract_x
 _atom_site_fract_y
 _atom_site_fract_z
 _atom_site_occupancy
  K  K0  1  0.250000  0.250000  0.250000  1
  K  K1  1  0.750000  0.750000  0.750000  1
  Rb  Rb2  1  0.372092  0.127908  0.750000  1
  Rb  Rb3  1  0.127908  0.750000  0.372092  1
  Rb  Rb4  1  0.750000  0.372092  0.127908  1
  Rb  Rb5  1  0.627908  0.872092  0.250000  1
  Rb  Rb6  1  0.250000  0.627908  0.872092  1
  Rb  Rb7  1  0.872092  0.250000  0.627908  1
  Cd  Cd8  1  0.000000  0.000000  0.000000  1
  Cd  Cd9  1  0.500000  0.500000  0.500000  1
  Br  Br10  1  0.948116  0.075126  0.289407  1
  Br  Br11  1  0.075126  0.289407  0.948116  1
  Br  Br12  1  0.289407  0.948116  0.075126  1
  Br  Br13  1  0.575126  0.448116  0.789407  1
  Br  Br14  1  0.789407  0.575126  0.448116  1
  Br  Br15  1  0.448116  0.789407  0.575126  1
  Br  Br16  1  0.210593  0.424874  0.551884  1
  Br  Br17  1  0.424874  0.551884  0.210593  1
  Br  Br18  1  0.551884  0.210593  0.424874  1
  Br  Br19  1  0.924874  0.710593  0.051884  1
  Br  Br20  1  0.051884  0.924874  0.710593  1
  Br  Br21  1  0.710593  0.051884  0.924874  1
