# generated using pymatgen
data_S27Cl
_symmetry_space_group_name_H-M   'P 1'
_cell_length_a   14.51127481
_cell_length_b   14.51127554
_cell_length_c   14.51127505
_cell_angle_alpha   117.86217239
_cell_angle_beta   117.86217527
_cell_angle_gamma   117.86217028
_symmetry_Int_Tables_number   1
_chemical_formula_structural   S27Cl
_chemical_formula_sum   'S27 Cl1'
_cell_volume   1145.85833988
_cell_formula_units_Z   1
loop_
 _symmetry_equiv_pos_site_id
 _symmetry_equiv_pos_as_xyz
  1  'x, y, z'
loop_
 _atom_site_type_symbol
 _atom_site_label
 _atom_site_symmetry_multiplicity
 _atom_site_fract_x
 _atom_site_fract_y
 _atom_site_fract_z
 _atom_site_occupancy
  S  S0  1  0.042990  0.647281  0.647281  1
  S  S1  1  0.647281  0.647281  0.042990  1
  S  S2  1  0.647281  0.042990  0.647281  1
  S  S3  1  0.220284  0.837731  0.702388  1
  S  S4  1  0.837731  0.702388  0.220284  1
  S  S5  1  0.702388  0.220284  0.837731  1
  S  S6  1  0.837731  0.220284  0.702388  1
  S  S7  1  0.220284  0.702388  0.837731  1
  S  S8  1  0.702388  0.837731  0.220284  1
  S  S9  1  0.120972  0.655170  0.464246  1
  S  S10  1  0.655170  0.464246  0.120972  1
  S  S11  1  0.464246  0.120972  0.655170  1
  S  S12  1  0.655170  0.120972  0.464246  1
  S  S13  1  0.120972  0.464246  0.655170  1
  S  S14  1  0.464246  0.655170  0.120972  1
  S  S15  1  0.333004  0.716896  0.581914  1
  S  S16  1  0.716896  0.581914  0.333004  1
  S  S17  1  0.581914  0.333004  0.716896  1
  S  S18  1  0.716896  0.333004  0.581914  1
  S  S19  1  0.333004  0.581914  0.716896  1
  S  S20  1  0.581914  0.716896  0.333004  1
  S  S21  1  0.203835  0.476386  0.476386  1
  S  S22  1  0.476386  0.476386  0.203835  1
  S  S23  1  0.476386  0.203835  0.476386  1
  S  S24  1  0.001835  0.919296  0.919296  1
  S  S25  1  0.919296  0.919296  0.001835  1
  S  S26  1  0.919296  0.001835  0.919296  1
  Cl  Cl27  1  0.447304  0.447304  0.447304  1
