# generated using pymatgen
data_Li4GeP8
_symmetry_space_group_name_H-M   'P 1'
_cell_length_a   9.51534038
_cell_length_b   9.51534172
_cell_length_c   9.51533975
_cell_angle_alpha   95.85333269
_cell_angle_beta   95.85333347
_cell_angle_gamma   142.75314642
_symmetry_Int_Tables_number   1
_chemical_formula_structural   Li4GeP8
_chemical_formula_sum   'Li8 Ge2 P16'
_cell_volume   494.14051967
_cell_formula_units_Z   2
loop_
 _symmetry_equiv_pos_site_id
 _symmetry_equiv_pos_as_xyz
  1  'x, y, z'
loop_
 _atom_site_type_symbol
 _atom_site_label
 _atom_site_symmetry_multiplicity
 _atom_site_fract_x
 _atom_site_fract_y
 _atom_site_fract_z
 _atom_site_occupancy
  Li  Li0  1  0.385985  0.594961  0.813028  1
  Li  Li1  1  0.822957  0.135985  0.291025  1
  Li  Li2  1  0.844961  0.531933  0.708975  1
  Li  Li3  1  0.781933  0.572957  0.186972  1
  Li  Li4  1  0.864015  0.155039  0.686972  1
  Li  Li5  1  0.427043  0.614015  0.208975  1
  Li  Li6  1  0.405039  0.218067  0.791025  1
  Li  Li7  1  0.468067  0.177043  0.313028  1
  Ge  Ge8  1  0.250000  0.750000  0.500000  1
  Ge  Ge9  1  0.000000  0.000000  0.000000  1
  P  P10  1  0.356489  0.151769  0.041807  1
  P  P11  1  0.401769  0.859962  0.295280  1
  P  P12  1  0.685318  0.643511  0.795280  1
  P  P13  1  0.140038  0.435318  0.541807  1
  P  P14  1  0.893511  0.598231  0.458193  1
  P  P15  1  0.848231  0.890038  0.204720  1
  P  P16  1  0.564682  0.106489  0.704720  1
  P  P17  1  0.109962  0.314682  0.958193  1
  P  P18  1  0.039700  0.924462  0.560173  1
  P  P19  1  0.729527  0.789700  0.615239  1
  P  P20  1  0.174462  0.114288  0.384761  1
  P  P21  1  0.364288  0.479527  0.439827  1
  P  P22  1  0.210300  0.825538  0.939827  1
  P  P23  1  0.520473  0.960300  0.884761  1
  P  P24  1  0.075538  0.635712  0.115239  1
  P  P25  1  0.885712  0.270473  0.060173  1
