# generated using pymatgen
data_DyY3OsI4
_symmetry_space_group_name_H-M   'P 1'
_cell_length_a   11.66874259
_cell_length_b   11.69290885
_cell_length_c   6.18971316
_cell_angle_alpha   90.04815577
_cell_angle_beta   90.05460118
_cell_angle_gamma   89.95495139
_symmetry_Int_Tables_number   1
_chemical_formula_structural   DyY3OsI4
_chemical_formula_sum   'Dy2 Y6 Os2 I8'
_cell_volume   844.53307460
_cell_formula_units_Z   2
loop_
 _symmetry_equiv_pos_site_id
 _symmetry_equiv_pos_as_xyz
  1  'x, y, z'
loop_
 _atom_site_type_symbol
 _atom_site_label
 _atom_site_symmetry_multiplicity
 _atom_site_fract_x
 _atom_site_fract_y
 _atom_site_fract_z
 _atom_site_occupancy
  Dy  Dy0  1  0.191147  0.921012  0.998836  1
  Dy  Dy1  1  0.808859  0.921561  0.498842  1
  Y  Y2  1  0.807421  0.079249  0.001166  1
  Y  Y3  1  0.079639  0.807614  0.501165  1
  Y  Y4  1  0.078846  0.192251  0.001191  1
  Y  Y5  1  0.192562  0.078707  0.501181  1
  Y  Y6  1  0.920919  0.807628  0.998818  1
  Y  Y7  1  0.920606  0.192268  0.498831  1
  Os  Os8  1  0.000233  0.999497  0.250013  1
  Os  Os9  1  0.999777  0.000002  0.750012  1
  I  I10  1  0.653889  0.143533  0.487515  1
  I  I11  1  0.855242  0.655758  0.507303  1
  I  I12  1  0.344258  0.144817  0.992695  1
  I  I13  1  0.144799  0.344284  0.492681  1
  I  I14  1  0.655678  0.855251  0.007284  1
  I  I15  1  0.346178  0.856535  0.512450  1
  I  I16  1  0.143479  0.653880  0.987510  1
  I  I17  1  0.856468  0.346153  0.012505  1
