# generated using pymatgen
data_Ce5PrNd2(ZnRh)8
_symmetry_space_group_name_H-M   'P 1'
_cell_length_a   3.94928200
_cell_length_b   7.38920294
_cell_length_c   16.39178012
_cell_angle_alpha   89.42737215
_cell_angle_beta   90.00000000
_cell_angle_gamma   90.00000000
_symmetry_Int_Tables_number   1
_chemical_formula_structural   Ce5PrNd2(ZnRh)8
_chemical_formula_sum   'Ce5 Pr1 Nd2 Zn8 Rh8'
_cell_volume   478.32179442
_cell_formula_units_Z   1
loop_
 _symmetry_equiv_pos_site_id
 _symmetry_equiv_pos_as_xyz
  1  'x, y, z'
loop_
 _atom_site_type_symbol
 _atom_site_label
 _atom_site_symmetry_multiplicity
 _atom_site_fract_x
 _atom_site_fract_y
 _atom_site_fract_z
 _atom_site_occupancy
  Ce  Ce0  1  0.250000  0.181668  0.941065  1
  Ce  Ce1  1  0.750000  0.939386  0.284654  1
  Ce  Ce2  1  0.250000  0.559567  0.785244  1
  Ce  Ce3  1  0.750000  0.444419  0.217014  1
  Ce  Ce4  1  0.750000  0.319531  0.440817  1
  Pr  Pr5  1  0.250000  0.668608  0.559658  1
  Nd  Nd6  1  0.750000  0.830657  0.060125  1
  Nd  Nd7  1  0.250000  0.055367  0.715944  1
  Zn  Zn8  1  0.250000  0.117009  0.151900  1
  Zn  Zn9  1  0.750000  0.510889  0.941042  1
  Zn  Zn10  1  0.750000  0.995763  0.560894  1
  Zn  Zn11  1  0.750000  0.380110  0.651371  1
  Zn  Zn12  1  0.750000  0.892728  0.847677  1
  Zn  Zn13  1  0.250000  0.503234  0.060108  1
  Zn  Zn14  1  0.250000  0.608750  0.349138  1
  Zn  Zn15  1  0.250000  0.995102  0.439025  1
  Rh  Rh16  1  0.750000  0.757802  0.427925  1
  Rh  Rh17  1  0.750000  0.270751  0.820213  1
  Rh  Rh18  1  0.750000  0.744882  0.692493  1
  Rh  Rh19  1  0.250000  0.732657  0.191998  1
  Rh  Rh20  1  0.250000  0.750481  0.929651  1
  Rh  Rh21  1  0.250000  0.248521  0.557929  1
  Rh  Rh22  1  0.750000  0.252506  0.061608  1
  Rh  Rh23  1  0.250000  0.239614  0.312509  1
