# generated using pymatgen
data_Dy7HoTc2(B12Ru)2
_symmetry_space_group_name_H-M   'P 1'
_cell_length_a   3.67436800
_cell_length_b   9.14900297
_cell_length_c   11.53692900
_cell_angle_alpha   89.85191761
_cell_angle_beta   90.00000000
_cell_angle_gamma   90.00000000
_symmetry_Int_Tables_number   1
_chemical_formula_structural   Dy7HoTc2(B12Ru)2
_chemical_formula_sum   'Dy7 Ho1 Tc2 B24 Ru2'
_cell_volume   387.83338295
_cell_formula_units_Z   1
loop_
 _symmetry_equiv_pos_site_id
 _symmetry_equiv_pos_as_xyz
  1  'x, y, z'
loop_
 _atom_site_type_symbol
 _atom_site_label
 _atom_site_symmetry_multiplicity
 _atom_site_fract_x
 _atom_site_fract_y
 _atom_site_fract_z
 _atom_site_occupancy
  Dy  Dy0  1  0.000000  0.325240  0.415574  1
  Dy  Dy1  1  0.000000  0.674772  0.584526  1
  Dy  Dy2  1  0.000000  0.821490  0.087334  1
  Dy  Dy3  1  0.000000  0.178525  0.912589  1
  Dy  Dy4  1  0.000000  0.942168  0.370473  1
  Dy  Dy5  1  0.000000  0.057828  0.629544  1
  Dy  Dy6  1  0.000000  0.443082  0.129973  1
  Ho  Ho7  1  0.000000  0.556924  0.869812  1
  Tc  Tc8  1  0.000000  0.638467  0.320257  1
  Tc  Tc9  1  0.000000  0.361725  0.679866  1
  B  B10  1  0.500000  0.553180  0.432923  1
  B  B11  1  0.500000  0.446834  0.567127  1
  B  B12  1  0.500000  0.053910  0.067145  1
  B  B13  1  0.500000  0.946025  0.932838  1
  B  B14  1  0.500000  0.748194  0.418856  1
  B  B15  1  0.500000  0.251833  0.581150  1
  B  B16  1  0.500000  0.248220  0.081195  1
  B  B17  1  0.500000  0.751492  0.918785  1
  B  B18  1  0.500000  0.791253  0.265359  1
  B  B19  1  0.500000  0.208817  0.734673  1
  B  B20  1  0.500000  0.290338  0.234141  1
  B  B21  1  0.500000  0.709397  0.765940  1
  B  B22  1  0.500000  0.631527  0.185363  1
  B  B23  1  0.500000  0.368699  0.814746  1
  B  B24  1  0.500000  0.131245  0.313823  1
  B  B25  1  0.500000  0.868712  0.686217  1
  B  B26  1  0.500000  0.983498  0.211807  1
  B  B27  1  0.500000  0.016492  0.788201  1
  B  B28  1  0.500000  0.482963  0.287734  1
  B  B29  1  0.500000  0.517216  0.712487  1
  B  B30  1  0.500000  0.604092  0.028413  1
  B  B31  1  0.500000  0.396128  0.971105  1
  B  B32  1  0.500000  0.104265  0.470983  1
  B  B33  1  0.500000  0.895734  0.529029  1
  Ru  Ru34  1  0.000000  0.137722  0.178349  1
  Ru  Ru35  1  0.000000  0.861991  0.821661  1
