# generated using pymatgen
data_NaPr(TlCl3)2
_symmetry_space_group_name_H-M   'P 1'
_cell_length_a   7.42800423
_cell_length_b   7.98323100
_cell_length_c   13.08915400
_cell_angle_alpha   90.00000000
_cell_angle_beta   123.81148130
_cell_angle_gamma   90.00000000
_symmetry_Int_Tables_number   1
_chemical_formula_structural   NaPr(TlCl3)2
_chemical_formula_sum   'Na2 Pr2 Tl4 Cl12'
_cell_volume   644.90694084
_cell_formula_units_Z   2
loop_
 _symmetry_equiv_pos_site_id
 _symmetry_equiv_pos_as_xyz
  1  'x, y, z'
loop_
 _atom_site_type_symbol
 _atom_site_label
 _atom_site_symmetry_multiplicity
 _atom_site_fract_x
 _atom_site_fract_y
 _atom_site_fract_z
 _atom_site_occupancy
  Na  Na0  1  0.500000  0.500001  0.000000  1
  Na  Na1  1  0.499999  0.000000  0.500000  1
  Pr  Pr2  1  0.000000  0.000000  0.000000  1
  Pr  Pr3  1  0.000000  0.500001  0.500000  1
  Tl  Tl4  1  0.275821  0.418319  0.249781  1
  Tl  Tl5  1  0.724179  0.918320  0.250220  1
  Tl  Tl6  1  0.275820  0.081681  0.749780  1
  Tl  Tl7  1  0.724179  0.581680  0.750220  1
  Cl  Cl8  1  0.228909  0.702961  0.045285  1
  Cl  Cl9  1  0.353713  0.184964  0.045955  1
  Cl  Cl10  1  0.152026  0.020168  0.247101  1
  Cl  Cl11  1  0.847974  0.520168  0.252899  1
  Cl  Cl12  1  0.646289  0.684965  0.454045  1
  Cl  Cl13  1  0.771090  0.202960  0.454715  1
  Cl  Cl14  1  0.228911  0.797040  0.545285  1
  Cl  Cl15  1  0.353712  0.315036  0.545955  1
  Cl  Cl16  1  0.152026  0.479833  0.747101  1
  Cl  Cl17  1  0.847975  0.979832  0.752899  1
  Cl  Cl18  1  0.646288  0.815036  0.954045  1
  Cl  Cl19  1  0.771090  0.297039  0.954715  1
