# generated using pymatgen
data_Ac2TmTaO7
_symmetry_space_group_name_H-M   'P 1'
_cell_length_a   7.87579883
_cell_length_b   7.87579690
_cell_length_c   7.87579800
_cell_angle_alpha   120.45672071
_cell_angle_beta   119.79880167
_cell_angle_gamma   89.77980585
_symmetry_Int_Tables_number   1
_chemical_formula_structural   Ac2TmTaO7
_chemical_formula_sum   'Ac4 Tm2 Ta2 O14'
_cell_volume   344.75274967
_cell_formula_units_Z   2
loop_
 _symmetry_equiv_pos_site_id
 _symmetry_equiv_pos_as_xyz
  1  'x, y, z'
loop_
 _atom_site_type_symbol
 _atom_site_label
 _atom_site_symmetry_multiplicity
 _atom_site_fract_x
 _atom_site_fract_y
 _atom_site_fract_z
 _atom_site_occupancy
  Ac  Ac0  1  0.500000  0.000000  0.000000  1
  Ac  Ac1  1  0.500000  0.500000  0.500000  1
  Ac  Ac2  1  0.500000  0.000000  0.500000  1
  Ac  Ac3  1  0.000000  0.000000  0.000000  1
  Tm  Tm4  1  0.000000  0.500000  0.000000  1
  Tm  Tm5  1  0.000000  0.000000  0.500000  1
  Ta  Ta6  1  0.000000  0.500000  0.500000  1
  Ta  Ta7  1  0.500000  0.500000  0.000000  1
  O  O8  1  0.621219  0.871219  0.750000  1
  O  O9  1  0.378781  0.128781  0.250000  1
  O  O10  1  0.300943  0.550943  0.750000  1
  O  O11  1  0.902379  0.152379  0.750000  1
  O  O12  1  0.346015  0.190288  0.780978  1
  O  O13  1  0.909310  0.565038  0.719022  1
  O  O14  1  0.346015  0.565038  0.155728  1
  O  O15  1  0.909310  0.190288  0.344272  1
  O  O16  1  0.699057  0.449057  0.250000  1
  O  O17  1  0.097621  0.847621  0.250000  1
  O  O18  1  0.653985  0.809712  0.219022  1
  O  O19  1  0.090690  0.434962  0.280978  1
  O  O20  1  0.653985  0.434962  0.844272  1
  O  O21  1  0.090690  0.809712  0.655728  1
