# generated using pymatgen
data_SrMn(As4Ru)3
_symmetry_space_group_name_H-M   'P 1'
_cell_length_a   7.48857811
_cell_length_b   7.48899271
_cell_length_c   7.48857764
_cell_angle_alpha   109.47234919
_cell_angle_beta   109.47009794
_cell_angle_gamma   109.47234727
_symmetry_Int_Tables_number   1
_chemical_formula_structural   SrMn(As4Ru)3
_chemical_formula_sum   'Sr1 Mn1 As12 Ru3'
_cell_volume   323.29139696
_cell_formula_units_Z   1
loop_
 _symmetry_equiv_pos_site_id
 _symmetry_equiv_pos_as_xyz
  1  'x, y, z'
loop_
 _atom_site_type_symbol
 _atom_site_label
 _atom_site_symmetry_multiplicity
 _atom_site_fract_x
 _atom_site_fract_y
 _atom_site_fract_z
 _atom_site_occupancy
  Sr  Sr0  1  0.000000  0.000000  0.000000  1
  Mn  Mn1  1  0.000000  0.500000  0.000000  1
  As  As2  1  0.849751  0.651833  0.501468  1
  As  As3  1  0.150249  0.348167  0.498532  1
  As  As4  1  0.150914  0.651776  0.798535  1
  As  As5  1  0.849086  0.348224  0.201465  1
  As  As6  1  0.647621  0.500863  0.849086  1
  As  As7  1  0.352379  0.499137  0.150914  1
  As  As8  1  0.651717  0.802082  0.150249  1
  As  As9  1  0.348283  0.197918  0.849751  1
  As  As10  1  0.501468  0.849636  0.651717  1
  As  As11  1  0.498532  0.150364  0.348283  1
  As  As12  1  0.201465  0.853242  0.352379  1
  As  As13  1  0.798535  0.146758  0.647621  1
  Ru  Ru14  1  0.500000  0.500000  0.500000  1
  Ru  Ru15  1  0.500000  0.000000  0.000000  1
  Ru  Ru16  1  0.000000  0.000000  0.500000  1
