# generated using pymatgen
data_PmZnGeF
_symmetry_space_group_name_H-M   'P 1'
_cell_length_a   4.01837100
_cell_length_b   4.01837100
_cell_length_c   8.70469200
_cell_angle_alpha   90.00000000
_cell_angle_beta   90.00000000
_cell_angle_gamma   90.00000000
_symmetry_Int_Tables_number   1
_chemical_formula_structural   PmZnGeF
_chemical_formula_sum   'Pm2 Zn2 Ge2 F2'
_cell_volume   140.55732095
_cell_formula_units_Z   2
loop_
 _symmetry_equiv_pos_site_id
 _symmetry_equiv_pos_as_xyz
  1  'x, y, z'
loop_
 _atom_site_type_symbol
 _atom_site_label
 _atom_site_symmetry_multiplicity
 _atom_site_fract_x
 _atom_site_fract_y
 _atom_site_fract_z
 _atom_site_occupancy
  Pm  Pm0  1  0.250003  0.250003  0.179896  1
  Pm  Pm1  1  0.750002  0.750002  0.820106  1
  Zn  Zn2  1  0.750002  0.250003  0.500000  1
  Zn  Zn3  1  0.250003  0.750002  0.500000  1
  Ge  Ge4  1  0.750002  0.750002  0.310466  1
  Ge  Ge5  1  0.250003  0.250003  0.689533  1
  F  F6  1  0.750002  0.250003  0.000000  1
  F  F7  1  0.250003  0.750002  0.000000  1
