# generated using pymatgen
data_PrDy3(AlRu)4
_symmetry_space_group_name_H-M   'P 1'
_cell_length_a   7.10599092
_cell_length_b   4.03646800
_cell_length_c   8.15299561
_cell_angle_alpha   90.00000000
_cell_angle_beta   89.80377894
_cell_angle_gamma   90.00000000
_symmetry_Int_Tables_number   1
_chemical_formula_structural   PrDy3(AlRu)4
_chemical_formula_sum   'Pr1 Dy3 Al4 Ru4'
_cell_volume   233.85185737
_cell_formula_units_Z   1
loop_
 _symmetry_equiv_pos_site_id
 _symmetry_equiv_pos_as_xyz
  1  'x, y, z'
loop_
 _atom_site_type_symbol
 _atom_site_label
 _atom_site_symmetry_multiplicity
 _atom_site_fract_x
 _atom_site_fract_y
 _atom_site_fract_z
 _atom_site_occupancy
  Pr  Pr0  1  0.529983  0.750000  0.681271  1
  Dy  Dy1  1  0.967967  0.250000  0.178424  1
  Dy  Dy2  1  0.468354  0.250000  0.316922  1
  Dy  Dy3  1  0.031751  0.750000  0.820852  1
  Al  Al4  1  0.865958  0.250000  0.555690  1
  Al  Al5  1  0.358714  0.250000  0.944804  1
  Al  Al6  1  0.135307  0.750000  0.438699  1
  Al  Al7  1  0.639890  0.750000  0.062570  1
  Ru  Ru8  1  0.734182  0.250000  0.879794  1
  Ru  Ru9  1  0.223980  0.250000  0.623084  1
  Ru  Ru10  1  0.271651  0.750000  0.126104  1
  Ru  Ru11  1  0.772263  0.750000  0.371784  1
