# generated using pymatgen
data_SrLa3Nd3CoI12
_symmetry_space_group_name_H-M   'P 1'
_cell_length_a   9.97828511
_cell_length_b   10.14393563
_cell_length_c   10.13323843
_cell_angle_alpha   106.21485300
_cell_angle_beta   106.55504974
_cell_angle_gamma   106.14917759
_symmetry_Int_Tables_number   1
_chemical_formula_structural   SrLa3Nd3CoI12
_chemical_formula_sum   'Sr1 La3 Nd3 Co1 I12'
_cell_volume   869.84078373
_cell_formula_units_Z   1
loop_
 _symmetry_equiv_pos_site_id
 _symmetry_equiv_pos_as_xyz
  1  'x, y, z'
loop_
 _atom_site_type_symbol
 _atom_site_label
 _atom_site_symmetry_multiplicity
 _atom_site_fract_x
 _atom_site_fract_y
 _atom_site_fract_z
 _atom_site_occupancy
  Sr  Sr0  1  0.499641  0.500017  0.499332  1
  La  La1  1  0.285097  0.020506  0.092034  1
  La  La2  1  0.901757  0.695702  0.979630  1
  La  La3  1  0.715199  0.980137  0.908066  1
  Nd  Nd4  1  0.979557  0.904618  0.699889  1
  Nd  Nd5  1  0.021255  0.097980  0.300769  1
  Nd  Nd6  1  0.097179  0.298925  0.020720  1
  Co  Co7  1  0.000212  0.000328  0.000362  1
  I  I8  1  0.542192  0.626818  0.852901  1
  I  I9  1  0.453555  0.372928  0.144973  1
  I  I10  1  0.321574  0.926630  0.773963  1
  I  I11  1  0.371738  0.145759  0.453964  1
  I  I12  1  0.928204  0.779225  0.324559  1
  I  I13  1  0.678504  0.073640  0.226084  1
  I  I14  1  0.072723  0.223546  0.679479  1
  I  I15  1  0.774955  0.322062  0.926288  1
  I  I16  1  0.228689  0.676634  0.074416  1
  I  I17  1  0.859023  0.550197  0.628230  1
  I  I18  1  0.140706  0.449776  0.368116  1
  I  I19  1  0.628243  0.854572  0.546222  1
