# generated using pymatgen
data_RbBHBr3
_symmetry_space_group_name_H-M   'P 1'
_cell_length_a   5.91062633
_cell_length_b   5.91062687
_cell_length_c   5.91062693
_cell_angle_alpha   74.93460513
_cell_angle_beta   74.93460028
_cell_angle_gamma   74.93461766
_symmetry_Int_Tables_number   1
_chemical_formula_structural   RbBHBr3
_chemical_formula_sum   'Rb1 B1 H1 Br3'
_cell_volume   188.39865947
_cell_formula_units_Z   1
loop_
 _symmetry_equiv_pos_site_id
 _symmetry_equiv_pos_as_xyz
  1  'x, y, z'
loop_
 _atom_site_type_symbol
 _atom_site_label
 _atom_site_symmetry_multiplicity
 _atom_site_fract_x
 _atom_site_fract_y
 _atom_site_fract_z
 _atom_site_occupancy
  Rb  Rb0  1  0.983260  0.983260  0.983260  1
  B  B1  1  0.489096  0.489096  0.489096  1
  H  H2  1  0.394523  0.394523  0.394523  1
  Br  Br3  1  0.389867  0.389867  0.853387  1
  Br  Br4  1  0.389867  0.853387  0.389867  1
  Br  Br5  1  0.853387  0.389867  0.389867  1
