# generated using pymatgen
data_La5Y3(SiI6)2
_symmetry_space_group_name_H-M   'P 1'
_cell_length_a   4.36944200
_cell_length_b   14.38815697
_cell_length_c   15.25507671
_cell_angle_alpha   89.44498689
_cell_angle_beta   90.00000000
_cell_angle_gamma   90.00000000
_symmetry_Int_Tables_number   1
_chemical_formula_structural   La5Y3(SiI6)2
_chemical_formula_sum   'La5 Y3 Si2 I12'
_cell_volume   959.01448265
_cell_formula_units_Z   1
loop_
 _symmetry_equiv_pos_site_id
 _symmetry_equiv_pos_as_xyz
  1  'x, y, z'
loop_
 _atom_site_type_symbol
 _atom_site_label
 _atom_site_symmetry_multiplicity
 _atom_site_fract_x
 _atom_site_fract_y
 _atom_site_fract_z
 _atom_site_occupancy
  La  La0  1  0.500000  0.116357  0.340745  1
  La  La1  1  0.500000  0.878938  0.656446  1
  La  La2  1  0.500000  0.617837  0.156677  1
  La  La3  1  0.500000  0.384205  0.845459  1
  La  La4  1  0.000000  0.112240  0.575437  1
  Y  Y5  1  0.000000  0.889865  0.426489  1
  Y  Y6  1  0.000000  0.607215  0.928803  1
  Y  Y7  1  0.000000  0.393277  0.072110  1
  Si  Si8  1  0.500000  0.996459  0.497824  1
  Si  Si9  1  0.500000  0.500774  0.001215  1
  I  I10  1  0.500000  0.255030  0.158425  1
  I  I11  1  0.500000  0.744154  0.841236  1
  I  I12  1  0.500000  0.753096  0.340112  1
  I  I13  1  0.500000  0.257953  0.662478  1
  I  I14  1  0.000000  0.263174  0.413600  1
  I  I15  1  0.000000  0.737472  0.576676  1
  I  I16  1  0.000000  0.760537  0.076067  1
  I  I17  1  0.000000  0.240087  0.924202  1
  I  I18  1  0.000000  0.990301  0.240733  1
  I  I19  1  0.000000  0.999638  0.764391  1
  I  I20  1  0.000000  0.490597  0.257495  1
  I  I21  1  0.000000  0.510794  0.743378  1
