# generated using pymatgen
data_Sm2Tm(MgHg)3
_symmetry_space_group_name_H-M   'P 1'
_cell_length_a   7.83828000
_cell_length_b   7.75664922
_cell_length_c   4.31783600
_cell_angle_alpha   90.00000000
_cell_angle_beta   90.00000000
_cell_angle_gamma   120.34875376
_symmetry_Int_Tables_number   1
_chemical_formula_structural   Sm2Tm(MgHg)3
_chemical_formula_sum   'Sm2 Tm1 Mg3 Hg3'
_cell_volume   226.54512316
_cell_formula_units_Z   1
loop_
 _symmetry_equiv_pos_site_id
 _symmetry_equiv_pos_as_xyz
  1  'x, y, z'
loop_
 _atom_site_type_symbol
 _atom_site_label
 _atom_site_symmetry_multiplicity
 _atom_site_fract_x
 _atom_site_fract_y
 _atom_site_fract_z
 _atom_site_occupancy
  Sm  Sm0  1  0.999473  0.412912  0.000000  1
  Sm  Sm1  1  0.586562  0.587088  0.000000  1
  Tm  Tm2  1  0.410817  0.000000  0.000000  1
  Mg  Mg3  1  0.751000  0.000000  0.499999  1
  Mg  Mg4  1  0.248720  0.246889  0.499999  1
  Mg  Mg5  1  0.001830  0.753110  0.499999  1
  Hg  Hg6  1  0.003596  0.000000  0.000000  1
  Hg  Hg7  1  0.662795  0.327588  0.499999  1
  Hg  Hg8  1  0.335208  0.672412  0.499999  1
