# generated using pymatgen
data_Cs2CrAgS4
_symmetry_space_group_name_H-M   'P 1'
_cell_length_a   14.23248762
_cell_length_b   12.68395600
_cell_length_c   7.71403154
_cell_angle_alpha   84.77367586
_cell_angle_beta   62.55982348
_cell_angle_gamma   32.66650626
_symmetry_Int_Tables_number   1
_chemical_formula_structural   Cs2CrAgS4
_chemical_formula_sum   'Cs4 Cr2 Ag2 S8'
_cell_volume   523.55308492
_cell_formula_units_Z   2
loop_
 _symmetry_equiv_pos_site_id
 _symmetry_equiv_pos_as_xyz
  1  'x, y, z'
loop_
 _atom_site_type_symbol
 _atom_site_label
 _atom_site_symmetry_multiplicity
 _atom_site_fract_x
 _atom_site_fract_y
 _atom_site_fract_z
 _atom_site_occupancy
  Cs  Cs0  1  0.678675  0.678675  0.321325  1
  Cs  Cs1  1  0.321325  0.321325  0.678675  1
  Cs  Cs2  1  0.928675  0.928675  0.571325  1
  Cs  Cs3  1  0.571325  0.571325  0.928675  1
  Cr  Cr4  1  0.750000  0.750000  0.750000  1
  Cr  Cr5  1  0.500000  0.500000  0.500000  1
  Ag  Ag6  1  0.000000  0.000000  0.000000  1
  Ag  Ag7  1  0.250000  0.250000  0.250000  1
  S  S8  1  0.408802  0.988868  0.911921  1
  S  S9  1  0.690410  0.911921  0.988868  1
  S  S10  1  0.911921  0.690410  0.408802  1
  S  S11  1  0.988868  0.408802  0.690410  1
  S  S12  1  0.261132  0.841198  0.559590  1
  S  S13  1  0.559590  0.338079  0.261132  1
  S  S14  1  0.338079  0.559590  0.841198  1
  S  S15  1  0.841198  0.261132  0.338079  1
