# generated using pymatgen
data_Ho6InFeSi
_symmetry_space_group_name_H-M   'P 1'
_cell_length_a   8.44516287
_cell_length_b   8.44516352
_cell_length_c   8.44516343
_cell_angle_alpha   113.19210804
_cell_angle_beta   110.34642452
_cell_angle_gamma   104.98043722
_symmetry_Int_Tables_number   1
_chemical_formula_structural   Ho6InFeSi
_chemical_formula_sum   'Ho12 In2 Fe2 Si2'
_cell_volume   461.23851113
_cell_formula_units_Z   2
loop_
 _symmetry_equiv_pos_site_id
 _symmetry_equiv_pos_as_xyz
  1  'x, y, z'
loop_
 _atom_site_type_symbol
 _atom_site_label
 _atom_site_symmetry_multiplicity
 _atom_site_fract_x
 _atom_site_fract_y
 _atom_site_fract_z
 _atom_site_occupancy
  Ho  Ho0  1  0.443803  0.240380  0.203425  1
  Ho  Ho1  1  0.556197  0.759620  0.796575  1
  Ho  Ho2  1  0.036955  0.240380  0.796575  1
  Ho  Ho3  1  0.963045  0.759620  0.203425  1
  Ho  Ho4  1  0.187533  0.289073  0.476606  1
  Ho  Ho5  1  0.812467  0.710927  0.523394  1
  Ho  Ho6  1  0.187533  0.710927  0.898461  1
  Ho  Ho7  1  0.812467  0.289073  0.101539  1
  Ho  Ho8  1  0.304633  0.615038  0.310404  1
  Ho  Ho9  1  0.695367  0.384962  0.689596  1
  Ho  Ho10  1  0.304633  0.994229  0.689596  1
  Ho  Ho11  1  0.695367  0.005771  0.310404  1
  In  In12  1  0.500000  0.500000  0.000000  1
  In  In13  1  0.000000  0.000000  0.000000  1
  Fe  Fe14  1  0.104915  0.604915  0.500000  1
  Fe  Fe15  1  0.895085  0.395085  0.500000  1
  Si  Si16  1  0.364004  0.000000  0.364004  1
  Si  Si17  1  0.635996  0.000000  0.635996  1
