# generated using pymatgen
data_La13Th(IrAu)3
_symmetry_space_group_name_H-M   'P 1'
_cell_length_a   6.62598707
_cell_length_b   10.41803477
_cell_length_c   10.41649208
_cell_angle_alpha   120.00428747
_cell_angle_beta   89.98939423
_cell_angle_gamma   90.01479933
_symmetry_Int_Tables_number   1
_chemical_formula_structural   La13Th(IrAu)3
_chemical_formula_sum   'La13 Th1 Ir3 Au3'
_cell_volume   622.68689580
_cell_formula_units_Z   1
loop_
 _symmetry_equiv_pos_site_id
 _symmetry_equiv_pos_as_xyz
  1  'x, y, z'
loop_
 _atom_site_type_symbol
 _atom_site_label
 _atom_site_symmetry_multiplicity
 _atom_site_fract_x
 _atom_site_fract_y
 _atom_site_fract_z
 _atom_site_occupancy
  La  La0  1  0.936303  0.666648  0.333325  1
  La  La1  1  0.266472  0.132841  0.867128  1
  La  La2  1  0.266462  0.734282  0.867131  1
  La  La3  1  0.266504  0.132835  0.265688  1
  La  La4  1  0.742158  0.875281  0.124689  1
  La  La5  1  0.742170  0.249471  0.124735  1
  La  La6  1  0.742196  0.875247  0.750492  1
  La  La7  1  0.449528  0.531895  0.468158  1
  La  La8  1  0.449359  0.936279  0.468118  1
  La  La9  1  0.449398  0.531918  0.063764  1
  La  La10  1  0.938891  0.457617  0.542378  1
  La  La11  1  0.938846  0.084888  0.542438  1
  La  La12  1  0.938892  0.457579  0.915184  1
  Th  Th13  1  0.482025  0.333362  0.666646  1
  Ir  Ir14  1  0.677771  0.191549  0.808423  1
  Ir  Ir15  1  0.677700  0.616819  0.808467  1
  Ir  Ir16  1  0.677770  0.191535  0.383175  1
  Au  Au17  1  0.186509  0.810134  0.189847  1
  Au  Au18  1  0.186475  0.379752  0.189941  1
  Au  Au19  1  0.186565  0.810069  0.620274  1
