# generated using pymatgen
data_Dy8Ga(Si5Mo4)3
_symmetry_space_group_name_H-M   'P 1'
_cell_length_a   6.78244720
_cell_length_b   6.94840553
_cell_length_c   12.97981494
_cell_angle_alpha   90.13439528
_cell_angle_beta   89.96532946
_cell_angle_gamma   90.06528552
_symmetry_Int_Tables_number   1
_chemical_formula_structural   Dy8Ga(Si5Mo4)3
_chemical_formula_sum   'Dy8 Ga1 Si15 Mo12'
_cell_volume   611.70006105
_cell_formula_units_Z   1
loop_
 _symmetry_equiv_pos_site_id
 _symmetry_equiv_pos_as_xyz
  1  'x, y, z'
loop_
 _atom_site_type_symbol
 _atom_site_label
 _atom_site_symmetry_multiplicity
 _atom_site_fract_x
 _atom_site_fract_y
 _atom_site_fract_z
 _atom_site_occupancy
  Dy  Dy0  1  0.996720  0.167793  0.094425  1
  Dy  Dy1  1  0.003238  0.832777  0.906257  1
  Dy  Dy2  1  0.502297  0.667141  0.905998  1
  Dy  Dy3  1  0.004409  0.832820  0.593935  1
  Dy  Dy4  1  0.496406  0.333026  0.094212  1
  Dy  Dy5  1  0.995499  0.166721  0.404953  1
  Dy  Dy6  1  0.498278  0.333276  0.404704  1
  Dy  Dy7  1  0.506962  0.667636  0.594846  1
  Ga  Ga8  1  0.165149  0.456115  0.545693  1
  Si  Si9  1  0.035248  0.136104  0.749044  1
  Si  Si10  1  0.963687  0.866398  0.248356  1
  Si  Si11  1  0.464698  0.636160  0.249428  1
  Si  Si12  1  0.532882  0.364845  0.750737  1
  Si  Si13  1  0.303624  0.868552  0.750590  1
  Si  Si14  1  0.695764  0.129010  0.249640  1
  Si  Si15  1  0.195863  0.372194  0.250177  1
  Si  Si16  1  0.805760  0.629124  0.750204  1
  Si  Si17  1  0.840454  0.544403  0.452611  1
  Si  Si18  1  0.340415  0.957139  0.453324  1
  Si  Si19  1  0.839921  0.543264  0.046741  1
  Si  Si20  1  0.660581  0.042592  0.546741  1
  Si  Si21  1  0.159491  0.455928  0.953989  1
  Si  Si22  1  0.659176  0.042279  0.953025  1
  Si  Si23  1  0.339649  0.957090  0.047254  1
  Mo  Mo24  1  0.165421  0.497846  0.753276  1
  Mo  Mo25  1  0.833619  0.501391  0.249437  1
  Mo  Mo26  1  0.332449  0.001715  0.249422  1
  Mo  Mo27  1  0.668413  0.999016  0.750687  1
  Mo  Mo28  1  0.335296  0.157611  0.628044  1
  Mo  Mo29  1  0.669606  0.836089  0.374113  1
  Mo  Mo30  1  0.167827  0.670205  0.370078  1
  Mo  Mo31  1  0.668289  0.835798  0.125419  1
  Mo  Mo32  1  0.823782  0.335887  0.627154  1
  Mo  Mo33  1  0.330448  0.163077  0.875943  1
  Mo  Mo34  1  0.828870  0.335586  0.875232  1
  Mo  Mo35  1  0.169811  0.663392  0.124315  1
