# generated using pymatgen
data_Li5In6Pd12Pt
_symmetry_space_group_name_H-M   'P 1'
_cell_length_a   4.25447500
_cell_length_b   7.20572600
_cell_length_c   12.64517500
_cell_angle_alpha   90.00000000
_cell_angle_beta   90.00007804
_cell_angle_gamma   90.00000000
_symmetry_Int_Tables_number   1
_chemical_formula_structural   Li5In6Pd12Pt
_chemical_formula_sum   'Li5 In6 Pd12 Pt1'
_cell_volume   387.65783322
_cell_formula_units_Z   1
loop_
 _symmetry_equiv_pos_site_id
 _symmetry_equiv_pos_as_xyz
  1  'x, y, z'
loop_
 _atom_site_type_symbol
 _atom_site_label
 _atom_site_symmetry_multiplicity
 _atom_site_fract_x
 _atom_site_fract_y
 _atom_site_fract_z
 _atom_site_occupancy
  Li  Li0  1  0.500001  0.000000  0.167609  1
  Li  Li1  1  0.999999  0.500000  0.332354  1
  Li  Li2  1  0.500000  0.000000  0.500000  1
  Li  Li3  1  0.000001  0.500000  0.667646  1
  Li  Li4  1  0.499999  0.000000  0.832391  1
  In  In5  1  0.000000  0.000000  0.000000  1
  In  In6  1  0.499997  0.500000  0.161144  1
  In  In7  1  0.000001  0.000000  0.333038  1
  In  In8  1  0.500000  0.500000  0.500000  1
  In  In9  1  0.999999  0.000000  0.666961  1
  In  In10  1  0.500003  0.500000  0.838856  1
  Pd  Pd11  1  0.499999  0.234254  0.000000  1
  Pd  Pd12  1  0.499999  0.765746  0.000000  1
  Pd  Pd13  1  0.999999  0.249170  0.169982  1
  Pd  Pd14  1  0.999999  0.750829  0.169982  1
  Pd  Pd15  1  0.499999  0.252084  0.333054  1
  Pd  Pd16  1  0.499999  0.747916  0.333054  1
  Pd  Pd17  1  0.000000  0.249600  0.500000  1
  Pd  Pd18  1  0.000000  0.750401  0.500000  1
  Pd  Pd19  1  0.500001  0.252084  0.666947  1
  Pd  Pd20  1  0.500001  0.747916  0.666947  1
  Pd  Pd21  1  0.000001  0.249170  0.830018  1
  Pd  Pd22  1  0.000001  0.750829  0.830018  1
  Pt  Pt23  1  0.000000  0.500000  0.000000  1
