# generated using pymatgen
data_Co3(NiAs)8
_symmetry_space_group_name_H-M   'P 1'
_cell_length_a   6.83563964
_cell_length_b   6.83563887
_cell_length_c   11.23167884
_cell_angle_alpha   81.24821565
_cell_angle_beta   81.24821666
_cell_angle_gamma   90.06562464
_symmetry_Int_Tables_number   1
_chemical_formula_structural   Co3(NiAs)8
_chemical_formula_sum   'Co6 Ni16 As16'
_cell_volume   512.50258456
_cell_formula_units_Z   2
loop_
 _symmetry_equiv_pos_site_id
 _symmetry_equiv_pos_as_xyz
  1  'x, y, z'
loop_
 _atom_site_type_symbol
 _atom_site_label
 _atom_site_symmetry_multiplicity
 _atom_site_fract_x
 _atom_site_fract_y
 _atom_site_fract_z
 _atom_site_occupancy
  Co  Co0  1  0.467183  0.147813  0.905988  1
  Co  Co1  1  0.852187  0.532817  0.594012  1
  Co  Co2  1  0.530345  0.848967  0.094179  1
  Co  Co3  1  0.151033  0.469655  0.405821  1
  Co  Co4  1  0.081538  0.648566  0.908008  1
  Co  Co5  1  0.351434  0.918462  0.591992  1
  Ni  Ni6  1  0.914155  0.349056  0.092587  1
  Ni  Ni7  1  0.650944  0.085845  0.407413  1
  Ni  Ni8  1  0.461918  0.648784  0.905371  1
  Ni  Ni9  1  0.351216  0.538082  0.594629  1
  Ni  Ni10  1  0.539185  0.352795  0.093502  1
  Ni  Ni11  1  0.647205  0.460815  0.406498  1
  Ni  Ni12  1  0.798840  0.686754  0.786387  1
  Ni  Ni13  1  0.313246  0.201160  0.713613  1
  Ni  Ni14  1  0.198030  0.317759  0.212722  1
  Ni  Ni15  1  0.682241  0.801970  0.287278  1
  Ni  Ni16  1  0.073616  0.145165  0.906027  1
  Ni  Ni17  1  0.854835  0.926384  0.593973  1
  Ni  Ni18  1  0.147840  0.074859  0.405164  1
  Ni  Ni19  1  0.925141  0.852160  0.094836  1
  Ni  Ni20  1  0.817611  0.182389  0.750000  1
  Ni  Ni21  1  0.184430  0.815570  0.250000  1
  As  As22  1  0.751788  0.629023  0.000599  1
  As  As23  1  0.370977  0.248212  0.499401  1
  As  As24  1  0.249987  0.374063  0.996661  1
  As  As25  1  0.625937  0.750013  0.503339  1
  As  As26  1  0.877920  0.254737  0.506260  1
  As  As27  1  0.745263  0.122080  0.993740  1
  As  As28  1  0.126818  0.748300  0.494376  1
  As  As29  1  0.251701  0.873182  0.005624  1
  As  As30  1  0.075685  0.924315  0.750000  1
  As  As31  1  0.931463  0.068537  0.250000  1
  As  As32  1  0.562310  0.437690  0.750000  1
  As  As33  1  0.438856  0.561144  0.250000  1
  As  As34  1  0.550490  0.937197  0.749618  1
  As  As35  1  0.062803  0.449510  0.750382  1
  As  As36  1  0.447009  0.063179  0.246342  1
  As  As37  1  0.936821  0.552991  0.253658  1
