# generated using pymatgen
data_SrEu3(Re2Si)8
_symmetry_space_group_name_H-M   'P 1'
_cell_length_a   4.18276300
_cell_length_b   7.38175542
_cell_length_c   15.57268100
_cell_angle_alpha   89.72275484
_cell_angle_beta   90.00000000
_cell_angle_gamma   90.00000000
_symmetry_Int_Tables_number   1
_chemical_formula_structural   SrEu3(Re2Si)8
_chemical_formula_sum   'Sr1 Eu3 Re16 Si8'
_cell_volume   480.81854754
_cell_formula_units_Z   1
loop_
 _symmetry_equiv_pos_site_id
 _symmetry_equiv_pos_as_xyz
  1  'x, y, z'
loop_
 _atom_site_type_symbol
 _atom_site_label
 _atom_site_symmetry_multiplicity
 _atom_site_fract_x
 _atom_site_fract_y
 _atom_site_fract_z
 _atom_site_occupancy
  Sr  Sr0  1  0.500000  0.925070  0.618247  1
  Eu  Eu1  1  0.000000  0.575393  0.118550  1
  Eu  Eu2  1  0.000000  0.424303  0.882444  1
  Eu  Eu3  1  0.500000  0.075954  0.381445  1
  Re  Re4  1  0.000000  0.136954  0.051572  1
  Re  Re5  1  0.000000  0.863208  0.949010  1
  Re  Re6  1  0.500000  0.635267  0.445846  1
  Re  Re7  1  0.500000  0.367947  0.551927  1
  Re  Re8  1  0.000000  0.729886  0.319135  1
  Re  Re9  1  0.000000  0.271655  0.680744  1
  Re  Re10  1  0.500000  0.229078  0.179136  1
  Re  Re11  1  0.500000  0.768864  0.821732  1
  Re  Re12  1  0.000000  0.433382  0.416997  1
  Re  Re13  1  0.000000  0.565716  0.581528  1
  Re  Re14  1  0.500000  0.932716  0.081881  1
  Re  Re15  1  0.500000  0.066919  0.918623  1
  Re  Re16  1  0.000000  0.988653  0.205890  1
  Re  Re17  1  0.000000  0.011694  0.794782  1
  Re  Re18  1  0.500000  0.486612  0.292658  1
  Re  Re19  1  0.500000  0.510628  0.707526  1
  Si  Si20  1  0.000000  0.824692  0.473425  1
  Si  Si21  1  0.000000  0.178135  0.524274  1
  Si  Si22  1  0.500000  0.326767  0.024372  1
  Si  Si23  1  0.500000  0.672880  0.976432  1
  Si  Si24  1  0.000000  0.288297  0.273733  1
  Si  Si25  1  0.000000  0.709052  0.726967  1
  Si  Si26  1  0.500000  0.788446  0.225557  1
  Si  Si27  1  0.500000  0.211826  0.775569  1
