# generated using pymatgen
data_SmTm19(Bi3Sb)3
_symmetry_space_group_name_H-M   'P 1'
_cell_length_a   8.11390419
_cell_length_b   9.39681700
_cell_length_c   11.84425500
_cell_angle_alpha   90.00000000
_cell_angle_beta   90.05821445
_cell_angle_gamma   90.00000000
_symmetry_Int_Tables_number   1
_chemical_formula_structural   SmTm19(Bi3Sb)3
_chemical_formula_sum   'Sm1 Tm19 Bi9 Sb3'
_cell_volume   903.06324989
_cell_formula_units_Z   1
loop_
 _symmetry_equiv_pos_site_id
 _symmetry_equiv_pos_as_xyz
  1  'x, y, z'
loop_
 _atom_site_type_symbol
 _atom_site_label
 _atom_site_symmetry_multiplicity
 _atom_site_fract_x
 _atom_site_fract_y
 _atom_site_fract_z
 _atom_site_occupancy
  Sm  Sm0  1  0.811719  0.250000  0.278539  1
  Tm  Tm1  1  0.352756  0.750000  0.213787  1
  Tm  Tm2  1  0.853441  0.750000  0.285225  1
  Tm  Tm3  1  0.646630  0.250000  0.785456  1
  Tm  Tm4  1  0.148012  0.250000  0.718135  1
  Tm  Tm5  1  0.689064  0.564348  0.057535  1
  Tm  Tm6  1  0.189993  0.932319  0.442081  1
  Tm  Tm7  1  0.310985  0.063863  0.942316  1
  Tm  Tm8  1  0.808459  0.438312  0.559870  1
  Tm  Tm9  1  0.310985  0.436137  0.942316  1
  Tm  Tm10  1  0.808459  0.061688  0.559870  1
  Tm  Tm11  1  0.689064  0.935652  0.057535  1
  Tm  Tm12  1  0.189993  0.567681  0.442081  1
  Tm  Tm13  1  0.476547  0.250000  0.489186  1
  Tm  Tm14  1  0.974352  0.250000  0.010697  1
  Tm  Tm15  1  0.527498  0.750000  0.512426  1
  Tm  Tm16  1  0.026856  0.750000  0.988520  1
  Tm  Tm17  1  0.317839  0.250000  0.215063  1
  Tm  Tm18  1  0.684016  0.750000  0.783268  1
  Tm  Tm19  1  0.184442  0.750000  0.716799  1
  Bi  Bi20  1  0.096751  0.250000  0.458731  1
  Bi  Bi21  1  0.562927  0.993489  0.325804  1
  Bi  Bi22  1  0.067730  0.504979  0.173827  1
  Bi  Bi23  1  0.433900  0.496112  0.675165  1
  Bi  Bi24  1  0.933921  0.003480  0.825649  1
  Bi  Bi25  1  0.433900  0.003888  0.675165  1
  Bi  Bi26  1  0.933921  0.496520  0.825649  1
  Bi  Bi27  1  0.562927  0.506511  0.325804  1
  Bi  Bi28  1  0.067730  0.995021  0.173827  1
  Sb  Sb29  1  0.405116  0.750000  0.957923  1
  Sb  Sb30  1  0.905792  0.750000  0.541655  1
  Sb  Sb31  1  0.594275  0.250000  0.040096  1
