# generated using pymatgen
data_Nd16MgIn(AgRh2)2
_symmetry_space_group_name_H-M   'P 1'
_cell_length_a   9.90287113
_cell_length_b   9.92698132
_cell_length_c   9.92698017
_cell_angle_alpha   60.01346496
_cell_angle_beta   60.04391865
_cell_angle_gamma   60.04391606
_symmetry_Int_Tables_number   1
_chemical_formula_structural   Nd16MgIn(AgRh2)2
_chemical_formula_sum   'Nd16 Mg1 In1 Ag2 Rh4'
_cell_volume   690.57792607
_cell_formula_units_Z   1
loop_
 _symmetry_equiv_pos_site_id
 _symmetry_equiv_pos_as_xyz
  1  'x, y, z'
loop_
 _atom_site_type_symbol
 _atom_site_label
 _atom_site_symmetry_multiplicity
 _atom_site_fract_x
 _atom_site_fract_y
 _atom_site_fract_z
 _atom_site_occupancy
  Nd  Nd0  1  0.599037  0.597909  0.597909  1
  Nd  Nd1  1  0.598768  0.599017  0.202383  1
  Nd  Nd2  1  0.598768  0.202383  0.599017  1
  Nd  Nd3  1  0.194776  0.601028  0.601028  1
  Nd  Nd4  1  0.058644  0.439912  0.439912  1
  Nd  Nd5  1  0.441943  0.058364  0.058364  1
  Nd  Nd6  1  0.437021  0.061390  0.438244  1
  Nd  Nd7  1  0.056457  0.443693  0.057324  1
  Nd  Nd8  1  0.437021  0.438244  0.061390  1
  Nd  Nd9  1  0.056457  0.057324  0.443693  1
  Nd  Nd10  1  0.190684  0.813418  0.813418  1
  Nd  Nd11  1  0.811198  0.188963  0.188963  1
  Nd  Nd12  1  0.811359  0.193755  0.814148  1
  Nd  Nd13  1  0.186567  0.813440  0.188496  1
  Nd  Nd14  1  0.811359  0.814148  0.193755  1
  Nd  Nd15  1  0.186567  0.188496  0.813440  1
  Mg  Mg16  1  0.532858  0.819854  0.819854  1
  In  In17  1  0.832357  0.829777  0.829777  1
  Ag  Ag18  1  0.830966  0.834151  0.502179  1
  Ag  Ag19  1  0.830966  0.502179  0.834151  1
  Rh  Rh20  1  0.389543  0.392851  0.392851  1
  Rh  Rh21  1  0.392019  0.393754  0.822937  1
  Rh  Rh22  1  0.392019  0.822937  0.393754  1
  Rh  Rh23  1  0.822642  0.393013  0.393013  1
