# generated using pymatgen
data_LaTb4Yb5Si8
_symmetry_space_group_name_H-M   'P 1'
_cell_length_a   7.44229600
_cell_length_b   7.86093345
_cell_length_c   15.11807700
_cell_angle_alpha   90.25268456
_cell_angle_beta   90.00000000
_cell_angle_gamma   90.00000000
_symmetry_Int_Tables_number   1
_chemical_formula_structural   LaTb4Yb5Si8
_chemical_formula_sum   'La2 Tb8 Yb10 Si16'
_cell_volume   884.45020714
_cell_formula_units_Z   2
loop_
 _symmetry_equiv_pos_site_id
 _symmetry_equiv_pos_as_xyz
  1  'x, y, z'
loop_
 _atom_site_type_symbol
 _atom_site_label
 _atom_site_symmetry_multiplicity
 _atom_site_fract_x
 _atom_site_fract_y
 _atom_site_fract_z
 _atom_site_occupancy
  La  La0  1  0.971487  0.817925  0.403167  1
  La  La1  1  0.471487  0.682075  0.096833  1
  Tb  Tb2  1  0.315054  0.178870  0.121073  1
  Tb  Tb3  1  0.815054  0.321130  0.378927  1
  Tb  Tb4  1  0.185388  0.677995  0.877886  1
  Tb  Tb5  1  0.685388  0.822005  0.622114  1
  Tb  Tb6  1  0.314622  0.179754  0.378685  1
  Tb  Tb7  1  0.814622  0.320246  0.121315  1
  Tb  Tb8  1  0.186957  0.676345  0.622575  1
  Tb  Tb9  1  0.686957  0.823655  0.877425  1
  Yb  Yb10  1  0.528250  0.315150  0.597068  1
  Yb  Yb11  1  0.028250  0.184850  0.902932  1
  Yb  Yb12  1  0.029359  0.184315  0.597120  1
  Yb  Yb13  1  0.529359  0.315685  0.902880  1
  Yb  Yb14  1  0.471181  0.682217  0.403009  1
  Yb  Yb15  1  0.971181  0.817783  0.096991  1
  Yb  Yb16  1  0.353543  0.021306  0.749841  1
  Yb  Yb17  1  0.853543  0.478694  0.750159  1
  Yb  Yb18  1  0.145707  0.516111  0.250181  1
  Yb  Yb19  1  0.645707  0.983889  0.249819  1
  Si  Si20  1  0.856842  0.531986  0.537905  1
  Si  Si21  1  0.356842  0.968014  0.962095  1
  Si  Si22  1  0.641547  0.029742  0.461721  1
  Si  Si23  1  0.141547  0.470258  0.038279  1
  Si  Si24  1  0.141428  0.469757  0.461865  1
  Si  Si25  1  0.641428  0.030243  0.038135  1
  Si  Si26  1  0.355519  0.966375  0.537579  1
  Si  Si27  1  0.855519  0.533625  0.962421  1
  Si  Si28  1  0.978897  0.887269  0.750077  1
  Si  Si29  1  0.478897  0.612731  0.749923  1
  Si  Si30  1  0.523012  0.387011  0.250076  1
  Si  Si31  1  0.023012  0.112989  0.249924  1
  Si  Si32  1  0.249791  0.393265  0.750236  1
  Si  Si33  1  0.749791  0.106735  0.749764  1
  Si  Si34  1  0.251416  0.891142  0.248520  1
  Si  Si35  1  0.751416  0.608858  0.251480  1
