# generated using pymatgen
data_Tb5Nd5(SiHg)4
_symmetry_space_group_name_H-M   'P 1'
_cell_length_a   9.22557815
_cell_length_b   8.74780798
_cell_length_c   7.69574505
_cell_angle_alpha   89.95045844
_cell_angle_beta   90.09584226
_cell_angle_gamma   129.39197871
_symmetry_Int_Tables_number   1
_chemical_formula_structural   Tb5Nd5(SiHg)4
_chemical_formula_sum   'Tb5 Nd5 Si4 Hg4'
_cell_volume   479.97940195
_cell_formula_units_Z   1
loop_
 _symmetry_equiv_pos_site_id
 _symmetry_equiv_pos_as_xyz
  1  'x, y, z'
loop_
 _atom_site_type_symbol
 _atom_site_label
 _atom_site_symmetry_multiplicity
 _atom_site_fract_x
 _atom_site_fract_y
 _atom_site_fract_z
 _atom_site_occupancy
  Tb  Tb0  1  0.214609  0.457050  0.822252  1
  Tb  Tb1  1  0.712794  0.953317  0.677524  1
  Tb  Tb2  1  0.283724  0.042461  0.324433  1
  Tb  Tb3  1  0.999799  0.000419  0.000881  1
  Tb  Tb4  1  0.498086  0.500081  0.499305  1
  Nd  Nd5  1  0.068030  0.338654  0.321595  1
  Nd  Nd6  1  0.931536  0.662822  0.677447  1
  Nd  Nd7  1  0.431079  0.164205  0.820510  1
  Nd  Nd8  1  0.792224  0.543338  0.179970  1
  Nd  Nd9  1  0.568071  0.838161  0.180019  1
  Si  Si10  1  0.379806  0.384260  0.118590  1
  Si  Si11  1  0.616131  0.613973  0.880990  1
  Si  Si12  1  0.116940  0.115873  0.618982  1
  Si  Si13  1  0.883859  0.889404  0.382815  1
  Hg  Hg14  1  0.816573  0.251517  0.968463  1
  Hg  Hg15  1  0.193090  0.751597  0.020651  1
  Hg  Hg16  1  0.678602  0.236804  0.477360  1
  Hg  Hg17  1  0.315048  0.756066  0.528211  1
