# generated using pymatgen
data_Lu20GaBi11
_symmetry_space_group_name_H-M   'P 1'
_cell_length_a   8.07391925
_cell_length_b   9.37556700
_cell_length_c   11.74203847
_cell_angle_alpha   90.00000000
_cell_angle_beta   89.69616589
_cell_angle_gamma   90.00000000
_symmetry_Int_Tables_number   1
_chemical_formula_structural   Lu20GaBi11
_chemical_formula_sum   'Lu20 Ga1 Bi11'
_cell_volume   888.83129151
_cell_formula_units_Z   1
loop_
 _symmetry_equiv_pos_site_id
 _symmetry_equiv_pos_as_xyz
  1  'x, y, z'
loop_
 _atom_site_type_symbol
 _atom_site_label
 _atom_site_symmetry_multiplicity
 _atom_site_fract_x
 _atom_site_fract_y
 _atom_site_fract_z
 _atom_site_occupancy
  Lu  Lu0  1  0.036654  0.250000  0.509306  1
  Lu  Lu1  1  0.980456  0.750000  0.490586  1
  Lu  Lu2  1  0.477413  0.750000  0.010877  1
  Lu  Lu3  1  0.525586  0.250000  0.989474  1
  Lu  Lu4  1  0.353429  0.250000  0.293919  1
  Lu  Lu5  1  0.651989  0.750000  0.717973  1
  Lu  Lu6  1  0.148412  0.750000  0.781026  1
  Lu  Lu7  1  0.851178  0.250000  0.216067  1
  Lu  Lu8  1  0.197097  0.250000  0.776691  1
  Lu  Lu9  1  0.808027  0.750000  0.216439  1
  Lu  Lu10  1  0.311328  0.750000  0.283341  1
  Lu  Lu11  1  0.673445  0.250000  0.708828  1
  Lu  Lu12  1  0.192793  0.068231  0.060098  1
  Lu  Lu13  1  0.808069  0.932608  0.941795  1
  Lu  Lu14  1  0.309042  0.948938  0.558067  1
  Lu  Lu15  1  0.808069  0.567392  0.941795  1
  Lu  Lu16  1  0.683352  0.073601  0.445766  1
  Lu  Lu17  1  0.192793  0.431769  0.060098  1
  Lu  Lu18  1  0.683352  0.426399  0.445766  1
  Lu  Lu19  1  0.309042  0.551062  0.558067  1
  Ga  Ga20  1  0.404260  0.250000  0.539651  1
  Bi  Bi21  1  0.596769  0.750000  0.458092  1
  Bi  Bi22  1  0.098331  0.750000  0.043423  1
  Bi  Bi23  1  0.906122  0.250000  0.952410  1
  Bi  Bi24  1  0.059988  0.001929  0.322990  1
  Bi  Bi25  1  0.936848  0.999114  0.676218  1
  Bi  Bi26  1  0.437896  0.995612  0.824373  1
  Bi  Bi27  1  0.936848  0.500886  0.676218  1
  Bi  Bi28  1  0.561764  0.004416  0.176641  1
  Bi  Bi29  1  0.059988  0.498071  0.322990  1
  Bi  Bi30  1  0.561764  0.495584  0.176641  1
  Bi  Bi31  1  0.437896  0.504388  0.824373  1
