# generated using pymatgen
data_Er2Ni(B2O5)2
_symmetry_space_group_name_H-M   'P 1'
_cell_length_a   4.52737705
_cell_length_b   7.23869000
_cell_length_c   9.38727641
_cell_angle_alpha   90.00011021
_cell_angle_beta   91.22008273
_cell_angle_gamma   89.99972503
_symmetry_Int_Tables_number   1
_chemical_formula_structural   Er2Ni(B2O5)2
_chemical_formula_sum   'Er4 Ni2 B8 O20'
_cell_volume   307.57269322
_cell_formula_units_Z   2
loop_
 _symmetry_equiv_pos_site_id
 _symmetry_equiv_pos_as_xyz
  1  'x, y, z'
loop_
 _atom_site_type_symbol
 _atom_site_label
 _atom_site_symmetry_multiplicity
 _atom_site_fract_x
 _atom_site_fract_y
 _atom_site_fract_z
 _atom_site_occupancy
  Er  Er0  1  0.003267  0.100690  0.664566  1
  Er  Er1  1  0.996725  0.600687  0.835439  1
  Er  Er2  1  0.996734  0.899312  0.335434  1
  Er  Er3  1  0.003276  0.399313  0.164562  1
  Ni  Ni4  1  0.000000  0.000000  0.000000  1
  Ni  Ni5  1  0.000001  0.500001  0.500001  1
  B  B6  1  0.463601  0.095661  0.161461  1
  B  B7  1  0.536394  0.595657  0.338540  1
  B  B8  1  0.536399  0.904340  0.838539  1
  B  B9  1  0.463607  0.404342  0.661460  1
  B  B10  1  0.471997  0.765629  0.584673  1
  B  B11  1  0.527996  0.265632  0.915323  1
  B  B12  1  0.528004  0.234371  0.415328  1
  B  B13  1  0.472005  0.734368  0.084677  1
  O  O14  1  0.249687  0.892900  0.538670  1
  O  O15  1  0.750315  0.392898  0.961331  1
  O  O16  1  0.750314  0.107101  0.461331  1
  O  O17  1  0.249686  0.607102  0.038669  1
  O  O18  1  0.325234  0.169415  0.295543  1
  O  O19  1  0.674765  0.669415  0.204455  1
  O  O20  1  0.674764  0.830585  0.704458  1
  O  O21  1  0.325236  0.330585  0.795545  1
  O  O22  1  0.331845  0.207350  0.037883  1
  O  O23  1  0.668155  0.707349  0.462117  1
  O  O24  1  0.668156  0.792651  0.962118  1
  O  O25  1  0.331845  0.292651  0.537883  1
  O  O26  1  0.320996  0.906683  0.143092  1
  O  O27  1  0.679004  0.406682  0.356906  1
  O  O28  1  0.679005  0.093316  0.856908  1
  O  O29  1  0.320997  0.593319  0.643094  1
  O  O30  1  0.777508  0.096013  0.167267  1
  O  O31  1  0.222497  0.596012  0.332732  1
  O  O32  1  0.222492  0.903985  0.832734  1
  O  O33  1  0.777504  0.403987  0.667268  1
