# generated using pymatgen
data_Ti4Be2B4Ir7Ru3
_symmetry_space_group_name_H-M   'P 1'
_cell_length_a   9.15575499
_cell_length_b   9.11993001
_cell_length_c   2.92420600
_cell_angle_alpha   90.00000000
_cell_angle_beta   90.00000000
_cell_angle_gamma   90.05367319
_symmetry_Int_Tables_number   1
_chemical_formula_structural   Ti4Be2B4Ir7Ru3
_chemical_formula_sum   'Ti4 Be2 B4 Ir7 Ru3'
_cell_volume   244.17063985
_cell_formula_units_Z   1
loop_
 _symmetry_equiv_pos_site_id
 _symmetry_equiv_pos_as_xyz
  1  'x, y, z'
loop_
 _atom_site_type_symbol
 _atom_site_label
 _atom_site_symmetry_multiplicity
 _atom_site_fract_x
 _atom_site_fract_y
 _atom_site_fract_z
 _atom_site_occupancy
  Ti  Ti0  1  0.327781  0.174913  0.000000  1
  Ti  Ti1  1  0.824944  0.321775  0.000000  1
  Ti  Ti2  1  0.173877  0.672924  0.000000  1
  Ti  Ti3  1  0.675387  0.830973  0.000000  1
  Be  Be4  1  0.998334  0.000045  0.000000  1
  Be  Be5  1  0.500611  0.499216  0.000000  1
  B  B6  1  0.630423  0.125598  0.000000  1
  B  B7  1  0.127173  0.373089  0.000000  1
  B  B8  1  0.872685  0.626324  0.000000  1
  B  B9  1  0.373310  0.873638  0.000000  1
  Ir  Ir10  1  0.069653  0.205743  0.499999  1
  Ir  Ir11  1  0.569197  0.293085  0.499999  1
  Ir  Ir12  1  0.292695  0.430961  0.499999  1
  Ir  Ir13  1  0.707154  0.570784  0.499999  1
  Ir  Ir14  1  0.430330  0.707363  0.499999  1
  Ir  Ir15  1  0.930638  0.793571  0.499999  1
  Ir  Ir16  1  0.205759  0.930421  0.499999  1
  Ru  Ru17  1  0.498858  0.000948  0.499999  1
  Ru  Ru18  1  0.792228  0.070243  0.499999  1
  Ru  Ru19  1  0.998962  0.498385  0.499999  1
