# generated using pymatgen
data_HoRe2BC
_symmetry_space_group_name_H-M   'P 1'
_cell_length_a   5.77673955
_cell_length_b   5.77673899
_cell_length_c   7.23478600
_cell_angle_alpha   90.00000000
_cell_angle_beta   90.00000000
_cell_angle_gamma   145.31425984
_symmetry_Int_Tables_number   1
_chemical_formula_structural   HoRe2BC
_chemical_formula_sum   'Ho2 Re4 B2 C2'
_cell_volume   137.39174671
_cell_formula_units_Z   2
loop_
 _symmetry_equiv_pos_site_id
 _symmetry_equiv_pos_as_xyz
  1  'x, y, z'
loop_
 _atom_site_type_symbol
 _atom_site_label
 _atom_site_symmetry_multiplicity
 _atom_site_fract_x
 _atom_site_fract_y
 _atom_site_fract_z
 _atom_site_occupancy
  Ho  Ho0  1  0.544192  0.455808  0.250000  1
  Ho  Ho1  1  0.455808  0.544192  0.750000  1
  Re  Re2  1  0.827214  0.172786  0.066217  1
  Re  Re3  1  0.172786  0.827214  0.933783  1
  Re  Re4  1  0.172786  0.827214  0.566217  1
  Re  Re5  1  0.827214  0.172786  0.433783  1
  B  B6  1  0.261074  0.738926  0.250000  1
  B  B7  1  0.738926  0.261074  0.750000  1
  C  C8  1  0.000000  0.000000  0.000000  1
  C  C9  1  0.000000  0.000000  0.500000  1
