# generated using pymatgen
data_Er4Al4IrPdPt2
_symmetry_space_group_name_H-M   'P 1'
_cell_length_a   4.39218200
_cell_length_b   6.77766067
_cell_length_c   7.80364954
_cell_angle_alpha   89.94668941
_cell_angle_beta   90.00000000
_cell_angle_gamma   90.00000000
_symmetry_Int_Tables_number   1
_chemical_formula_structural   Er4Al4IrPdPt2
_chemical_formula_sum   'Er4 Al4 Ir1 Pd1 Pt2'
_cell_volume   232.30455129
_cell_formula_units_Z   1
loop_
 _symmetry_equiv_pos_site_id
 _symmetry_equiv_pos_as_xyz
  1  'x, y, z'
loop_
 _atom_site_type_symbol
 _atom_site_label
 _atom_site_symmetry_multiplicity
 _atom_site_fract_x
 _atom_site_fract_y
 _atom_site_fract_z
 _atom_site_occupancy
  Er  Er0  1  0.250000  0.025446  0.322580  1
  Er  Er1  1  0.250000  0.538023  0.181233  1
  Er  Er2  1  0.750000  0.965199  0.676941  1
  Er  Er3  1  0.750000  0.469075  0.820523  1
  Al  Al4  1  0.250000  0.141926  0.939999  1
  Al  Al5  1  0.250000  0.642613  0.559305  1
  Al  Al6  1  0.750000  0.855305  0.061327  1
  Al  Al7  1  0.750000  0.362798  0.440481  1
  Ir  Ir8  1  0.750000  0.733754  0.377704  1
  Pd  Pd9  1  0.750000  0.230322  0.120919  1
  Pt  Pt10  1  0.250000  0.267456  0.621917  1
  Pt  Pt11  1  0.250000  0.768081  0.877070  1
