# generated using pymatgen
data_HfZrCBr2
_symmetry_space_group_name_H-M   'P 1'
_cell_length_a   3.50087000
_cell_length_b   3.50087056
_cell_length_c   10.43115100
_cell_angle_alpha   90.00000000
_cell_angle_beta   90.00000000
_cell_angle_gamma   119.99999472
_symmetry_Int_Tables_number   1
_chemical_formula_structural   HfZrCBr2
_chemical_formula_sum   'Hf1 Zr1 C1 Br2'
_cell_volume   110.71715678
_cell_formula_units_Z   1
loop_
 _symmetry_equiv_pos_site_id
 _symmetry_equiv_pos_as_xyz
  1  'x, y, z'
loop_
 _atom_site_type_symbol
 _atom_site_label
 _atom_site_symmetry_multiplicity
 _atom_site_fract_x
 _atom_site_fract_y
 _atom_site_fract_z
 _atom_site_occupancy
  Hf  Hf0  1  0.666668  0.333334  0.611062  1
  Zr  Zr1  1  0.333334  0.666668  0.387594  1
  C  C2  1  0.000000  0.000000  0.505641  1
  Br  Br3  1  0.666668  0.333334  0.199152  1
  Br  Br4  1  0.333334  0.666668  0.796550  1
