# generated using pymatgen
data_La5Nd11Cd4IrPt3
_symmetry_space_group_name_H-M   'P 1'
_cell_length_a   10.04602814
_cell_length_b   10.04160898
_cell_length_c   10.04160831
_cell_angle_alpha   60.08603619
_cell_angle_beta   60.33436662
_cell_angle_gamma   60.33437238
_symmetry_Int_Tables_number   1
_chemical_formula_structural   La5Nd11Cd4IrPt3
_chemical_formula_sum   'La5 Nd11 Cd4 Ir1 Pt3'
_cell_volume   720.35557104
_cell_formula_units_Z   1
loop_
 _symmetry_equiv_pos_site_id
 _symmetry_equiv_pos_as_xyz
  1  'x, y, z'
loop_
 _atom_site_type_symbol
 _atom_site_label
 _atom_site_symmetry_multiplicity
 _atom_site_fract_x
 _atom_site_fract_y
 _atom_site_fract_z
 _atom_site_occupancy
  La  La0  1  0.350080  0.347772  0.347772  1
  La  La1  1  0.353291  0.348253  0.950489  1
  La  La2  1  0.353291  0.950489  0.348253  1
  La  La3  1  0.945553  0.352353  0.352353  1
  La  La4  1  0.807302  0.188963  0.188963  1
  Nd  Nd5  1  0.191233  0.809217  0.809217  1
  Nd  Nd6  1  0.192713  0.808913  0.190025  1
  Nd  Nd7  1  0.807208  0.188941  0.812261  1
  Nd  Nd8  1  0.192713  0.190025  0.808913  1
  Nd  Nd9  1  0.807208  0.812261  0.188941  1
  Nd  Nd10  1  0.938265  0.564506  0.564506  1
  Nd  Nd11  1  0.565012  0.935627  0.935627  1
  Nd  Nd12  1  0.565326  0.936542  0.563681  1
  Nd  Nd13  1  0.937259  0.564076  0.933972  1
  Nd  Nd14  1  0.565326  0.563681  0.936542  1
  Nd  Nd15  1  0.937259  0.933972  0.564076  1
  Cd  Cd16  1  0.580207  0.580635  0.580635  1
  Cd  Cd17  1  0.580003  0.581752  0.257701  1
  Cd  Cd18  1  0.580003  0.257701  0.581752  1
  Cd  Cd19  1  0.258319  0.580552  0.580552  1
  Ir  Ir20  1  0.571850  0.143808  0.143808  1
  Pt  Pt21  1  0.139629  0.143849  0.143849  1
  Pt  Pt22  1  0.140477  0.143045  0.573067  1
  Pt  Pt23  1  0.140477  0.573067  0.143045  1
