# generated using pymatgen
data_TcTe8BrCl
_symmetry_space_group_name_H-M   'P 1'
_cell_length_a   8.75081325
_cell_length_b   8.75081382
_cell_length_c   10.81500714
_cell_angle_alpha   77.89819239
_cell_angle_beta   77.89819939
_cell_angle_gamma   115.29330736
_symmetry_Int_Tables_number   1
_chemical_formula_structural   TcTe8BrCl
_chemical_formula_sum   'Tc2 Te16 Br2 Cl2'
_cell_volume   688.92853905
_cell_formula_units_Z   2
loop_
 _symmetry_equiv_pos_site_id
 _symmetry_equiv_pos_as_xyz
  1  'x, y, z'
loop_
 _atom_site_type_symbol
 _atom_site_label
 _atom_site_symmetry_multiplicity
 _atom_site_fract_x
 _atom_site_fract_y
 _atom_site_fract_z
 _atom_site_occupancy
  Tc  Tc0  1  0.000000  0.000000  0.000000  1
  Tc  Tc1  1  0.000000  0.000000  0.500000  1
  Te  Te2  1  0.782696  0.084677  0.147107  1
  Te  Te3  1  0.915323  0.217304  0.352893  1
  Te  Te4  1  0.217304  0.915323  0.852893  1
  Te  Te5  1  0.084677  0.782696  0.647107  1
  Te  Te6  1  0.978714  0.757731  0.209481  1
  Te  Te7  1  0.242269  0.021286  0.290519  1
  Te  Te8  1  0.021286  0.242269  0.790519  1
  Te  Te9  1  0.757731  0.978714  0.709481  1
  Te  Te10  1  0.748770  0.713697  0.468973  1
  Te  Te11  1  0.286303  0.251230  0.031027  1
  Te  Te12  1  0.251230  0.286303  0.531027  1
  Te  Te13  1  0.713697  0.748770  0.968973  1
  Te  Te14  1  0.506918  0.792881  0.370495  1
  Te  Te15  1  0.207119  0.493082  0.129505  1
  Te  Te16  1  0.493082  0.207119  0.629505  1
  Te  Te17  1  0.792881  0.506918  0.870495  1
  Br  Br18  1  0.593193  0.406807  0.250000  1
  Br  Br19  1  0.406807  0.593193  0.750000  1
  Cl  Cl20  1  0.000000  0.500000  0.500000  1
  Cl  Cl21  1  0.500000  0.000000  0.000000  1
