# generated using pymatgen
data_Ho2Lu14InNi4Ag3
_symmetry_space_group_name_H-M   'P 1'
_cell_length_a   9.26752418
_cell_length_b   9.26752478
_cell_length_c   9.26288047
_cell_angle_alpha   60.20921440
_cell_angle_beta   60.20921293
_cell_angle_gamma   60.28678519
_symmetry_Int_Tables_number   1
_chemical_formula_structural   Ho2Lu14InNi4Ag3
_chemical_formula_sum   'Ho2 Lu14 In1 Ni4 Ag3'
_cell_volume   565.53966530
_cell_formula_units_Z   1
loop_
 _symmetry_equiv_pos_site_id
 _symmetry_equiv_pos_as_xyz
  1  'x, y, z'
loop_
 _atom_site_type_symbol
 _atom_site_label
 _atom_site_symmetry_multiplicity
 _atom_site_fract_x
 _atom_site_fract_y
 _atom_site_fract_z
 _atom_site_occupancy
  Ho  Ho0  1  0.349974  0.349974  0.350191  1
  Ho  Ho1  1  0.349309  0.349309  0.950986  1
  Lu  Lu2  1  0.349681  0.950376  0.350216  1
  Lu  Lu3  1  0.950376  0.349681  0.350216  1
  Lu  Lu4  1  0.811707  0.188747  0.188216  1
  Lu  Lu5  1  0.189752  0.811146  0.810623  1
  Lu  Lu6  1  0.188747  0.811707  0.188216  1
  Lu  Lu7  1  0.811146  0.189752  0.810623  1
  Lu  Lu8  1  0.187965  0.187965  0.811991  1
  Lu  Lu9  1  0.810348  0.810348  0.190049  1
  Lu  Lu10  1  0.939387  0.565149  0.564501  1
  Lu  Lu11  1  0.564934  0.936168  0.936273  1
  Lu  Lu12  1  0.565149  0.939387  0.564501  1
  Lu  Lu13  1  0.936168  0.564934  0.936273  1
  Lu  Lu14  1  0.565578  0.565578  0.938632  1
  Lu  Lu15  1  0.936962  0.936962  0.563558  1
  In  In16  1  0.580669  0.580669  0.578990  1
  Ni  Ni17  1  0.140652  0.140652  0.146569  1
  Ni  Ni18  1  0.140833  0.140833  0.572927  1
  Ni  Ni19  1  0.140074  0.574011  0.141608  1
  Ni  Ni20  1  0.574011  0.140074  0.141608  1
  Ag  Ag21  1  0.583507  0.583507  0.249005  1
  Ag  Ag22  1  0.583790  0.249276  0.582115  1
  Ag  Ag23  1  0.249276  0.583790  0.582115  1
