# generated using pymatgen
data_Dy10In5PbO2
_symmetry_space_group_name_H-M   'P 1'
_cell_length_a   9.12908426
_cell_length_b   9.12908469
_cell_length_c   9.12908400
_cell_angle_alpha   127.34712967
_cell_angle_beta   127.34712384
_cell_angle_gamma   77.68506594
_symmetry_Int_Tables_number   1
_chemical_formula_structural   Dy10In5PbO2
_chemical_formula_sum   'Dy10 In5 Pb1 O2'
_cell_volume   466.19276158
_cell_formula_units_Z   1
loop_
 _symmetry_equiv_pos_site_id
 _symmetry_equiv_pos_as_xyz
  1  'x, y, z'
loop_
 _atom_site_type_symbol
 _atom_site_label
 _atom_site_symmetry_multiplicity
 _atom_site_fract_x
 _atom_site_fract_y
 _atom_site_fract_z
 _atom_site_occupancy
  Dy  Dy0  1  0.998284  0.191866  0.496507  1
  Dy  Dy1  1  0.804641  0.308134  0.806418  1
  Dy  Dy2  1  0.501777  0.998284  0.806418  1
  Dy  Dy3  1  0.501716  0.998223  0.193582  1
  Dy  Dy4  1  0.998223  0.804641  0.496507  1
  Dy  Dy5  1  0.503237  0.503237  0.000000  1
  Dy  Dy6  1  0.191866  0.695359  0.193582  1
  Dy  Dy7  1  0.695359  0.501777  0.503493  1
  Dy  Dy8  1  0.308134  0.501716  0.503493  1
  Dy  Dy9  1  0.996763  0.996763  0.000000  1
  In  In10  1  0.865605  0.365605  0.231209  1
  In  In11  1  0.134395  0.634395  0.768791  1
  In  In12  1  0.365605  0.134395  0.500000  1
  In  In13  1  0.750000  0.750000  0.000000  1
  In  In14  1  0.634395  0.865605  0.500000  1
  Pb  Pb15  1  0.250000  0.250000  0.000000  1
  O  O16  1  0.750000  0.250000  0.500000  1
  O  O17  1  0.250000  0.750000  0.500000  1
