# generated using pymatgen
data_TbHo7(TmGa5)4
_symmetry_space_group_name_H-M   'P 1'
_cell_length_a   6.07294311
_cell_length_b   9.59888506
_cell_length_c   11.46555816
_cell_angle_alpha   90.00478129
_cell_angle_beta   90.01862594
_cell_angle_gamma   90.01158489
_symmetry_Int_Tables_number   1
_chemical_formula_structural   TbHo7(TmGa5)4
_chemical_formula_sum   'Tb1 Ho7 Tm4 Ga20'
_cell_volume   668.36726714
_cell_formula_units_Z   1
loop_
 _symmetry_equiv_pos_site_id
 _symmetry_equiv_pos_as_xyz
  1  'x, y, z'
loop_
 _atom_site_type_symbol
 _atom_site_label
 _atom_site_symmetry_multiplicity
 _atom_site_fract_x
 _atom_site_fract_y
 _atom_site_fract_z
 _atom_site_occupancy
  Tb  Tb0  1  0.609245  0.509656  0.851484  1
  Ho  Ho1  1  0.890851  0.509626  0.351399  1
  Ho  Ho2  1  0.609172  0.990373  0.851406  1
  Ho  Ho3  1  0.109161  0.009654  0.648580  1
  Ho  Ho4  1  0.390742  0.490343  0.148794  1
  Ho  Ho5  1  0.109201  0.490342  0.648437  1
  Ho  Ho6  1  0.390797  0.009621  0.148626  1
  Ho  Ho7  1  0.890836  0.990317  0.351394  1
  Tm  Tm8  1  0.848374  0.750091  0.074735  1
  Tm  Tm9  1  0.651739  0.750047  0.574536  1
  Tm  Tm10  1  0.151472  0.249967  0.925420  1
  Tm  Tm11  1  0.348318  0.249992  0.425333  1
  Ga  Ga12  1  0.875474  0.052826  0.089870  1
  Ga  Ga13  1  0.624566  0.447088  0.589593  1
  Ga  Ga14  1  0.124207  0.552932  0.910217  1
  Ga  Ga15  1  0.375453  0.947179  0.410129  1
  Ga  Ga16  1  0.124533  0.947192  0.910128  1
  Ga  Ga17  1  0.375477  0.552827  0.410132  1
  Ga  Ga18  1  0.875550  0.447115  0.089973  1
  Ga  Ga19  1  0.624567  0.052820  0.589889  1
  Ga  Ga20  1  0.171675  0.750001  0.251614  1
  Ga  Ga21  1  0.328138  0.750226  0.751515  1
  Ga  Ga22  1  0.828554  0.249733  0.748212  1
  Ga  Ga23  1  0.671668  0.249986  0.248423  1
  Ga  Ga24  1  0.373502  0.750123  0.004482  1
  Ga  Ga25  1  0.126294  0.749998  0.504438  1
  Ga  Ga26  1  0.626385  0.249667  0.995854  1
  Ga  Ga27  1  0.873682  0.249977  0.495531  1
  Ga  Ga28  1  0.601898  0.749995  0.299055  1
  Ga  Ga29  1  0.898525  0.750342  0.798981  1
  Ga  Ga30  1  0.398054  0.249932  0.700886  1
  Ga  Ga31  1  0.101891  0.250011  0.200934  1
