# generated using pymatgen
data_Zr7Sc3Sb7Au
_symmetry_space_group_name_H-M   'P 1'
_cell_length_a   8.79630400
_cell_length_b   8.82627464
_cell_length_c   5.92699634
_cell_angle_alpha   90.06767288
_cell_angle_beta   89.99758336
_cell_angle_gamma   120.26111436
_symmetry_Int_Tables_number   1
_chemical_formula_structural   Zr7Sc3Sb7Au
_chemical_formula_sum   'Zr7 Sc3 Sb7 Au1'
_cell_volume   397.46037980
_cell_formula_units_Z   1
loop_
 _symmetry_equiv_pos_site_id
 _symmetry_equiv_pos_as_xyz
  1  'x, y, z'
loop_
 _atom_site_type_symbol
 _atom_site_label
 _atom_site_symmetry_multiplicity
 _atom_site_fract_x
 _atom_site_fract_y
 _atom_site_fract_z
 _atom_site_occupancy
  Zr  Zr0  1  0.999662  0.280621  0.250347  1
  Zr  Zr1  1  0.331979  0.667088  0.499556  1
  Zr  Zr2  1  0.667197  0.332858  0.499597  1
  Zr  Zr3  1  0.999484  0.719238  0.750165  1
  Zr  Zr4  1  0.332983  0.666587  0.999990  1
  Zr  Zr5  1  0.280406  0.000197  0.250938  1
  Zr  Zr6  1  0.667517  0.333154  0.999770  1
  Sc  Sc7  1  0.278872  0.279439  0.748032  1
  Sc  Sc8  1  0.720721  0.720793  0.251764  1
  Sc  Sc9  1  0.720259  0.999924  0.748345  1
  Sb  Sb10  1  0.615123  0.615586  0.747463  1
  Sb  Sb11  1  0.385182  0.999765  0.747852  1
  Sb  Sb12  1  0.999119  0.000182  0.998815  1
  Sb  Sb13  1  0.617115  0.999389  0.252597  1
  Sb  Sb14  1  0.384930  0.384988  0.252815  1
  Sb  Sb15  1  0.000138  0.383675  0.748243  1
  Sb  Sb16  1  0.999723  0.616267  0.251994  1
  Au  Au17  1  0.999589  0.000251  0.501718  1
