# generated using pymatgen
data_Tb5Re2NO11
_symmetry_space_group_name_H-M   'P 1'
_cell_length_a   6.83124708
_cell_length_b   6.83124715
_cell_length_c   7.66107709
_cell_angle_alpha   73.58053149
_cell_angle_beta   73.58053236
_cell_angle_gamma   49.67842754
_symmetry_Int_Tables_number   1
_chemical_formula_structural   Tb5Re2NO11
_chemical_formula_sum   'Tb5 Re2 N1 O11'
_cell_volume   259.01537195
_cell_formula_units_Z   1
loop_
 _symmetry_equiv_pos_site_id
 _symmetry_equiv_pos_as_xyz
  1  'x, y, z'
loop_
 _atom_site_type_symbol
 _atom_site_label
 _atom_site_symmetry_multiplicity
 _atom_site_fract_x
 _atom_site_fract_y
 _atom_site_fract_z
 _atom_site_occupancy
  Tb  Tb0  1  0.693657  0.693657  0.640245  1
  Tb  Tb1  1  0.305780  0.305780  0.359726  1
  Tb  Tb2  1  0.684611  0.684611  0.177419  1
  Tb  Tb3  1  0.316527  0.316527  0.819595  1
  Tb  Tb4  1  0.999685  0.999685  0.507432  1
  Re  Re5  1  0.788616  0.210801  0.008686  1
  Re  Re6  1  0.210801  0.788616  0.008686  1
  N  N7  1  0.000842  0.000842  0.203870  1
  O  O8  1  0.999155  0.999155  0.798987  1
  O  O9  1  0.582881  0.089022  0.075640  1
  O  O10  1  0.414589  0.911122  0.909900  1
  O  O11  1  0.911122  0.414589  0.909900  1
  O  O12  1  0.089022  0.582881  0.075640  1
  O  O13  1  0.498804  0.498804  0.181322  1
  O  O14  1  0.500775  0.500775  0.829557  1
  O  O15  1  0.409521  0.903002  0.422643  1
  O  O16  1  0.592446  0.098164  0.574054  1
  O  O17  1  0.098164  0.592446  0.574054  1
  O  O18  1  0.903002  0.409521  0.422643  1
