# generated using pymatgen
data_Ta3NbSi2(B2Ru5)2
_symmetry_space_group_name_H-M   'P 1'
_cell_length_a   9.27280820
_cell_length_b   9.27280820
_cell_length_c   2.96208500
_cell_angle_alpha   90.00000000
_cell_angle_beta   90.00000000
_cell_angle_gamma   90.02366520
_symmetry_Int_Tables_number   1
_chemical_formula_structural   Ta3NbSi2(B2Ru5)2
_chemical_formula_sum   'Ta3 Nb1 Si2 B4 Ru10'
_cell_volume   254.69477368
_cell_formula_units_Z   1
loop_
 _symmetry_equiv_pos_site_id
 _symmetry_equiv_pos_as_xyz
  1  'x, y, z'
loop_
 _atom_site_type_symbol
 _atom_site_label
 _atom_site_symmetry_multiplicity
 _atom_site_fract_x
 _atom_site_fract_y
 _atom_site_fract_z
 _atom_site_occupancy
  Ta  Ta0  1  0.177655  0.322345  0.000000  1
  Ta  Ta1  1  0.322681  0.822882  0.000000  1
  Ta  Ta2  1  0.677118  0.177319  0.000000  1
  Nb  Nb3  1  0.822625  0.677375  0.000000  1
  Si  Si4  1  0.500116  0.500134  0.000000  1
  Si  Si5  1  0.999866  0.999884  0.000000  1
  B  B6  1  0.624968  0.875032  0.000000  1
  B  B7  1  0.375046  0.124954  0.000000  1
  B  B8  1  0.124919  0.624762  0.000000  1
  B  B9  1  0.875238  0.375081  0.000000  1
  Ru  Ru10  1  0.566009  0.711531  0.500000  1
  Ru  Ru11  1  0.433052  0.288584  0.500000  1
  Ru  Ru12  1  0.067392  0.788743  0.500000  1
  Ru  Ru13  1  0.933223  0.211450  0.500000  1
  Ru  Ru14  1  0.288550  0.566777  0.500000  1
  Ru  Ru15  1  0.711257  0.432608  0.500000  1
  Ru  Ru16  1  0.211416  0.066948  0.500000  1
  Ru  Ru17  1  0.788469  0.933991  0.500000  1
  Ru  Ru18  1  0.499978  0.000022  0.500000  1
  Ru  Ru19  1  0.000424  0.499576  0.500000  1
