# generated using pymatgen
data_Tc3NiP4
_symmetry_space_group_name_H-M   'P 1'
_cell_length_a   3.12699500
_cell_length_b   5.58977303
_cell_length_c   6.16156577
_cell_angle_alpha   90.19400060
_cell_angle_beta   90.00000000
_cell_angle_gamma   90.00000000
_symmetry_Int_Tables_number   1
_chemical_formula_structural   Tc3NiP4
_chemical_formula_sum   'Tc3 Ni1 P4'
_cell_volume   107.69857569
_cell_formula_units_Z   1
loop_
 _symmetry_equiv_pos_site_id
 _symmetry_equiv_pos_as_xyz
  1  'x, y, z'
loop_
 _atom_site_type_symbol
 _atom_site_label
 _atom_site_symmetry_multiplicity
 _atom_site_fract_x
 _atom_site_fract_y
 _atom_site_fract_z
 _atom_site_occupancy
  Tc  Tc0  1  0.000000  0.003514  0.794974  1
  Tc  Tc1  1  0.500000  0.493392  0.305239  1
  Tc  Tc2  1  0.500000  0.994237  0.189640  1
  Ni  Ni3  1  0.000000  0.502129  0.713614  1
  P  P4  1  0.000000  0.693606  0.065546  1
  P  P5  1  0.000000  0.195253  0.441085  1
  P  P6  1  0.500000  0.311768  0.930752  1
  P  P7  1  0.500000  0.806102  0.559150  1
