# generated using pymatgen
data_Rb2NaCrH6
_symmetry_space_group_name_H-M   'P 1'
_cell_length_a   5.95497471
_cell_length_b   5.95497460
_cell_length_c   5.95497400
_cell_angle_alpha   59.99999220
_cell_angle_beta   59.99999281
_cell_angle_gamma   59.99999460
_symmetry_Int_Tables_number   1
_chemical_formula_structural   Rb2NaCrH6
_chemical_formula_sum   'Rb2 Na1 Cr1 H6'
_cell_volume   149.32228913
_cell_formula_units_Z   1
loop_
 _symmetry_equiv_pos_site_id
 _symmetry_equiv_pos_as_xyz
  1  'x, y, z'
loop_
 _atom_site_type_symbol
 _atom_site_label
 _atom_site_symmetry_multiplicity
 _atom_site_fract_x
 _atom_site_fract_y
 _atom_site_fract_z
 _atom_site_occupancy
  Rb  Rb0  1  0.250000  0.250000  0.250000  1
  Rb  Rb1  1  0.750000  0.750000  0.750000  1
  Na  Na2  1  0.500000  0.500000  0.500000  1
  Cr  Cr3  1  0.000000  0.000000  0.000000  1
  H  H4  1  0.210071  0.789929  0.789929  1
  H  H5  1  0.210071  0.789929  0.210071  1
  H  H6  1  0.789929  0.210071  0.789929  1
  H  H7  1  0.789929  0.789929  0.210071  1
  H  H8  1  0.210071  0.210071  0.789929  1
  H  H9  1  0.789929  0.210071  0.210071  1
