# generated using pymatgen
data_Ti11NbSn9Hg
_symmetry_space_group_name_H-M   'P 1'
_cell_length_a   9.33234995
_cell_length_b   9.30296696
_cell_length_c   5.72480553
_cell_angle_alpha   89.99999928
_cell_angle_beta   90.28965021
_cell_angle_gamma   119.89589513
_symmetry_Int_Tables_number   1
_chemical_formula_structural   Ti11NbSn9Hg
_chemical_formula_sum   'Ti11 Nb1 Sn9 Hg1'
_cell_volume   430.87481816
_cell_formula_units_Z   1
loop_
 _symmetry_equiv_pos_site_id
 _symmetry_equiv_pos_as_xyz
  1  'x, y, z'
loop_
 _atom_site_type_symbol
 _atom_site_label
 _atom_site_symmetry_multiplicity
 _atom_site_fract_x
 _atom_site_fract_y
 _atom_site_fract_z
 _atom_site_occupancy
  Ti  Ti0  1  0.843694  0.685792  0.758648  1
  Ti  Ti1  1  0.156306  0.842098  0.241352  1
  Ti  Ti2  1  0.684574  0.842287  0.244927  1
  Ti  Ti3  1  0.315426  0.157713  0.755073  1
  Ti  Ti4  1  0.843694  0.157902  0.758648  1
  Ti  Ti5  1  0.156306  0.314208  0.241352  1
  Ti  Ti6  1  0.500000  0.000000  0.500000  1
  Ti  Ti7  1  0.500000  0.500000  0.000000  1
  Ti  Ti8  1  0.000000  0.500000  0.500000  1
  Ti  Ti9  1  0.500000  0.000000  0.000000  1
  Ti  Ti10  1  0.500000  0.500000  0.500000  1
  Nb  Nb11  1  0.000000  0.500000  0.000000  1
  Sn  Sn12  1  0.203382  0.402277  0.743075  1
  Sn  Sn13  1  0.796618  0.198895  0.256925  1
  Sn  Sn14  1  0.403923  0.201962  0.252298  1
  Sn  Sn15  1  0.596077  0.798038  0.747702  1
  Sn  Sn16  1  0.203382  0.801105  0.743075  1
  Sn  Sn17  1  0.796618  0.597723  0.256925  1
  Sn  Sn18  1  0.665190  0.332595  0.752275  1
  Sn  Sn19  1  0.334810  0.667405  0.247725  1
  Sn  Sn20  1  0.000000  0.000000  0.000000  1
  Hg  Hg21  1  0.000000  0.000000  0.500000  1
