# generated using pymatgen
data_CsNb8CuS16
_symmetry_space_group_name_H-M   'P 1'
_cell_length_a   6.73213400
_cell_length_b   6.73213344
_cell_length_c   14.88278000
_cell_angle_alpha   90.00000000
_cell_angle_beta   90.00000000
_cell_angle_gamma   119.99999291
_symmetry_Int_Tables_number   1
_chemical_formula_structural   CsNb8CuS16
_chemical_formula_sum   'Cs1 Nb8 Cu1 S16'
_cell_volume   584.14436612
_cell_formula_units_Z   1
loop_
 _symmetry_equiv_pos_site_id
 _symmetry_equiv_pos_as_xyz
  1  'x, y, z'
loop_
 _atom_site_type_symbol
 _atom_site_label
 _atom_site_symmetry_multiplicity
 _atom_site_fract_x
 _atom_site_fract_y
 _atom_site_fract_z
 _atom_site_occupancy
  Cs  Cs0  1  0.000000  0.000000  0.500000  1
  Nb  Nb1  1  0.505717  0.011433  0.797299  1
  Nb  Nb2  1  0.494283  0.505717  0.202701  1
  Nb  Nb3  1  0.011433  0.505717  0.202701  1
  Nb  Nb4  1  0.988567  0.494283  0.797299  1
  Nb  Nb5  1  0.505717  0.494283  0.797299  1
  Nb  Nb6  1  0.494283  0.988567  0.202701  1
  Nb  Nb7  1  0.000000  0.000000  0.795872  1
  Nb  Nb8  1  0.000000  0.000000  0.204128  1
  Cu  Cu9  1  0.000000  0.000000  0.000000  1
  S  S10  1  0.831492  0.168508  0.099782  1
  S  S11  1  0.831492  0.662984  0.099782  1
  S  S12  1  0.337016  0.168508  0.099782  1
  S  S13  1  0.663391  0.831695  0.693120  1
  S  S14  1  0.168508  0.337016  0.900218  1
  S  S15  1  0.168305  0.831695  0.693120  1
  S  S16  1  0.168305  0.336609  0.693120  1
  S  S17  1  0.831695  0.168305  0.306880  1
  S  S18  1  0.336609  0.168305  0.306880  1
  S  S19  1  0.662984  0.831492  0.900218  1
  S  S20  1  0.333333  0.666667  0.095391  1
  S  S21  1  0.666667  0.333333  0.688263  1
  S  S22  1  0.666667  0.333333  0.904609  1
  S  S23  1  0.333333  0.666667  0.311737  1
  S  S24  1  0.831695  0.663391  0.306880  1
  S  S25  1  0.168508  0.831492  0.900218  1
