# generated using pymatgen
data_TbLu2Sc3CoTe2
_symmetry_space_group_name_H-M   'P 1'
_cell_length_a   3.90109000
_cell_length_b   7.90093755
_cell_length_c   7.90093778
_cell_angle_alpha   118.82156402
_cell_angle_beta   90.00000000
_cell_angle_gamma   90.00000000
_symmetry_Int_Tables_number   1
_chemical_formula_structural   TbLu2Sc3CoTe2
_chemical_formula_sum   'Tb1 Lu2 Sc3 Co1 Te2'
_cell_volume   213.35826159
_cell_formula_units_Z   1
loop_
 _symmetry_equiv_pos_site_id
 _symmetry_equiv_pos_as_xyz
  1  'x, y, z'
loop_
 _atom_site_type_symbol
 _atom_site_label
 _atom_site_symmetry_multiplicity
 _atom_site_fract_x
 _atom_site_fract_y
 _atom_site_fract_z
 _atom_site_occupancy
  Tb  Tb0  1  0.000000  0.397285  0.397285  1
  Lu  Lu1  1  0.000000  0.000516  0.619064  1
  Lu  Lu2  1  0.000000  0.619064  0.000516  1
  Sc  Sc3  1  0.500000  0.768856  0.768856  1
  Sc  Sc4  1  0.500000  0.004866  0.229916  1
  Sc  Sc5  1  0.500000  0.229916  0.004866  1
  Co  Co6  1  0.000000  0.972457  0.972457  1
  Te  Te7  1  0.500000  0.672692  0.334348  1
  Te  Te8  1  0.500000  0.334348  0.672692  1
