# generated using pymatgen
data_DyPaPd6
_symmetry_space_group_name_H-M   'P 1'
_cell_length_a   5.79670300
_cell_length_b   5.79670134
_cell_length_c   4.86543400
_cell_angle_alpha   90.00000000
_cell_angle_beta   90.00000000
_cell_angle_gamma   119.99999238
_symmetry_Int_Tables_number   1
_chemical_formula_structural   DyPaPd6
_chemical_formula_sum   'Dy1 Pa1 Pd6'
_cell_volume   141.58401535
_cell_formula_units_Z   1
loop_
 _symmetry_equiv_pos_site_id
 _symmetry_equiv_pos_as_xyz
  1  'x, y, z'
loop_
 _atom_site_type_symbol
 _atom_site_label
 _atom_site_symmetry_multiplicity
 _atom_site_fract_x
 _atom_site_fract_y
 _atom_site_fract_z
 _atom_site_occupancy
  Dy  Dy0  1  0.666667  0.333333  0.250000  1
  Pa  Pa1  1  0.333333  0.666667  0.750000  1
  Pd  Pd2  1  0.837847  0.162153  0.750000  1
  Pd  Pd3  1  0.324306  0.162153  0.750000  1
  Pd  Pd4  1  0.837847  0.675694  0.750000  1
  Pd  Pd5  1  0.164123  0.835877  0.250000  1
  Pd  Pd6  1  0.671755  0.835877  0.250000  1
  Pd  Pd7  1  0.164123  0.328245  0.250000  1
