# generated using pymatgen
data_Ac11Th(Si7Br3)2
_symmetry_space_group_name_H-M   'P 1'
_cell_length_a   4.26152800
_cell_length_b   12.28731200
_cell_length_c   17.50477300
_cell_angle_alpha   90.00000000
_cell_angle_beta   90.00000000
_cell_angle_gamma   90.00000000
_symmetry_Int_Tables_number   1
_chemical_formula_structural   Ac11Th(Si7Br3)2
_chemical_formula_sum   'Ac11 Th1 Si14 Br6'
_cell_volume   916.59759961
_cell_formula_units_Z   1
loop_
 _symmetry_equiv_pos_site_id
 _symmetry_equiv_pos_as_xyz
  1  'x, y, z'
loop_
 _atom_site_type_symbol
 _atom_site_label
 _atom_site_symmetry_multiplicity
 _atom_site_fract_x
 _atom_site_fract_y
 _atom_site_fract_z
 _atom_site_occupancy
  Ac  Ac0  1  0.500000  0.343867  0.500000  1
  Ac  Ac1  1  0.000000  0.655971  0.000000  1
  Ac  Ac2  1  0.500000  0.360962  0.752018  1
  Ac  Ac3  1  0.000000  0.640857  0.741454  1
  Ac  Ac4  1  0.500000  0.360962  0.247982  1
  Ac  Ac5  1  0.000000  0.640857  0.258546  1
  Ac  Ac6  1  0.500000  0.066273  0.879684  1
  Ac  Ac7  1  0.000000  0.929859  0.618851  1
  Ac  Ac8  1  0.500000  0.066273  0.120316  1
  Ac  Ac9  1  0.000000  0.929859  0.381149  1
  Ac  Ac10  1  0.500000  0.359723  0.000000  1
  Th  Th11  1  0.000000  0.642848  0.500000  1
  Si  Si12  1  0.000000  0.156593  0.000000  1
  Si  Si13  1  0.500000  0.839677  0.500000  1
  Si  Si14  1  0.500000  0.562846  0.876179  1
  Si  Si15  1  0.000000  0.444373  0.618474  1
  Si  Si16  1  0.500000  0.562846  0.123821  1
  Si  Si17  1  0.000000  0.444373  0.381526  1
  Si  Si18  1  0.000000  0.257223  0.876975  1
  Si  Si19  1  0.500000  0.739158  0.619054  1
  Si  Si20  1  0.000000  0.257223  0.123025  1
  Si  Si21  1  0.500000  0.739158  0.380946  1
  Si  Si22  1  0.000000  0.457529  0.874880  1
  Si  Si23  1  0.500000  0.543956  0.618124  1
  Si  Si24  1  0.500000  0.543956  0.381876  1
  Si  Si25  1  0.000000  0.457529  0.125120  1
  Br  Br26  1  0.500000  0.107007  0.692633  1
  Br  Br27  1  0.000000  0.891608  0.805833  1
  Br  Br28  1  0.000000  0.135564  0.500000  1
  Br  Br29  1  0.500000  0.862452  0.000000  1
  Br  Br30  1  0.500000  0.107007  0.307367  1
  Br  Br31  1  0.000000  0.891608  0.194167  1
