# generated using pymatgen
data_Ti5GeSb3
_symmetry_space_group_name_H-M   'P 1'
_cell_length_a   8.25916100
_cell_length_b   8.25916191
_cell_length_c   5.52853800
_cell_angle_alpha   90.00000000
_cell_angle_beta   90.00000000
_cell_angle_gamma   120.00000037
_symmetry_Int_Tables_number   1
_chemical_formula_structural   Ti5GeSb3
_chemical_formula_sum   'Ti10 Ge2 Sb6'
_cell_volume   326.59748878
_cell_formula_units_Z   2
loop_
 _symmetry_equiv_pos_site_id
 _symmetry_equiv_pos_as_xyz
  1  'x, y, z'
loop_
 _atom_site_type_symbol
 _atom_site_label
 _atom_site_symmetry_multiplicity
 _atom_site_fract_x
 _atom_site_fract_y
 _atom_site_fract_z
 _atom_site_occupancy
  Ti  Ti0  1  0.666667  0.333333  0.500000  1
  Ti  Ti1  1  0.333333  0.666667  0.500000  1
  Ti  Ti2  1  0.333333  0.666667  0.000000  1
  Ti  Ti3  1  0.666667  0.333333  0.000000  1
  Ti  Ti4  1  0.733128  0.733128  0.250000  1
  Ti  Ti5  1  0.266872  0.000000  0.250000  1
  Ti  Ti6  1  0.000000  0.266872  0.250000  1
  Ti  Ti7  1  0.266872  0.266872  0.750000  1
  Ti  Ti8  1  0.733128  0.000000  0.750000  1
  Ti  Ti9  1  0.000000  0.733128  0.750000  1
  Ge  Ge10  1  0.000000  0.000000  0.000000  1
  Ge  Ge11  1  0.000000  0.000000  0.500000  1
  Sb  Sb12  1  0.392810  0.392810  0.250000  1
  Sb  Sb13  1  0.607190  0.000000  0.250000  1
  Sb  Sb14  1  0.000000  0.607190  0.250000  1
  Sb  Sb15  1  0.607190  0.607190  0.750000  1
  Sb  Sb16  1  0.392810  0.000000  0.750000  1
  Sb  Sb17  1  0.000000  0.392810  0.750000  1
