# generated using pymatgen
data_Zr12Zn4IrRh7N4
_symmetry_space_group_name_H-M   'P 1'
_cell_length_a   8.56866339
_cell_length_b   8.56579594
_cell_length_c   8.56866400
_cell_angle_alpha   59.98892337
_cell_angle_beta   59.99999766
_cell_angle_gamma   59.98892416
_symmetry_Int_Tables_number   1
_chemical_formula_structural   Zr12Zn4IrRh7N4
_chemical_formula_sum   'Zr12 Zn4 Ir1 Rh7 N4'
_cell_volume   444.63760035
_cell_formula_units_Z   1
loop_
 _symmetry_equiv_pos_site_id
 _symmetry_equiv_pos_as_xyz
  1  'x, y, z'
loop_
 _atom_site_type_symbol
 _atom_site_label
 _atom_site_symmetry_multiplicity
 _atom_site_fract_x
 _atom_site_fract_y
 _atom_site_fract_z
 _atom_site_occupancy
  Zr  Zr0  1  0.808456  0.192682  0.190406  1
  Zr  Zr1  1  0.191472  0.808688  0.191472  1
  Zr  Zr2  1  0.808368  0.808688  0.191472  1
  Zr  Zr3  1  0.191472  0.808688  0.808368  1
  Zr  Zr4  1  0.808456  0.192682  0.808456  1
  Zr  Zr5  1  0.190406  0.192682  0.808456  1
  Zr  Zr6  1  0.441553  0.058398  0.058496  1
  Zr  Zr7  1  0.058123  0.441333  0.058123  1
  Zr  Zr8  1  0.442420  0.441333  0.058123  1
  Zr  Zr9  1  0.058123  0.441333  0.442420  1
  Zr  Zr10  1  0.441553  0.058398  0.441553  1
  Zr  Zr11  1  0.058496  0.058398  0.441553  1
  Zn  Zn12  1  0.624709  0.625103  0.125479  1
  Zn  Zn13  1  0.624709  0.625103  0.624709  1
  Zn  Zn14  1  0.125479  0.625103  0.624709  1
  Zn  Zn15  1  0.625060  0.124820  0.625060  1
  Ir  Ir16  1  0.835251  0.494248  0.835251  1
  Rh  Rh17  1  0.414814  0.414793  0.755577  1
  Rh  Rh18  1  0.414814  0.414793  0.414814  1
  Rh  Rh19  1  0.755577  0.414793  0.414814  1
  Rh  Rh20  1  0.414838  0.755485  0.414838  1
  Rh  Rh21  1  0.835253  0.834647  0.494848  1
  Rh  Rh22  1  0.835253  0.834647  0.835253  1
  Rh  Rh23  1  0.494848  0.834647  0.835253  1
  N  N24  1  0.125281  0.124574  0.624863  1
  N  N25  1  0.125281  0.124574  0.125281  1
  N  N26  1  0.624863  0.124574  0.125281  1
  N  N27  1  0.125070  0.624790  0.125070  1
