# generated using pymatgen
data_Nd3Th5(AlRu)8
_symmetry_space_group_name_H-M   'P 1'
_cell_length_a   4.09310500
_cell_length_b   7.30450092
_cell_length_c   16.35631232
_cell_angle_alpha   90.36593460
_cell_angle_beta   90.00000000
_cell_angle_gamma   90.00000000
_symmetry_Int_Tables_number   1
_chemical_formula_structural   Nd3Th5(AlRu)8
_chemical_formula_sum   'Nd3 Th5 Al8 Ru8'
_cell_volume   489.01251141
_cell_formula_units_Z   1
loop_
 _symmetry_equiv_pos_site_id
 _symmetry_equiv_pos_as_xyz
  1  'x, y, z'
loop_
 _atom_site_type_symbol
 _atom_site_label
 _atom_site_symmetry_multiplicity
 _atom_site_fract_x
 _atom_site_fract_y
 _atom_site_fract_z
 _atom_site_occupancy
  Nd  Nd0  1  0.750000  0.962205  0.217347  1
  Nd  Nd1  1  0.250000  0.151797  0.559353  1
  Nd  Nd2  1  0.750000  0.824222  0.438074  1
  Th  Th3  1  0.750000  0.463689  0.282089  1
  Th  Th4  1  0.750000  0.342922  0.062145  1
  Th  Th5  1  0.250000  0.680387  0.938377  1
  Th  Th6  1  0.250000  0.043591  0.779627  1
  Th  Th7  1  0.250000  0.533124  0.719174  1
  Al  Al8  1  0.750000  0.482836  0.562302  1
  Al  Al9  1  0.750000  0.371301  0.851760  1
  Al  Al10  1  0.750000  0.017128  0.937620  1
  Al  Al11  1  0.750000  0.856264  0.648643  1
  Al  Al12  1  0.250000  0.487474  0.438415  1
  Al  Al13  1  0.250000  0.010784  0.063424  1
  Al  Al14  1  0.250000  0.646025  0.147966  1
  Al  Al15  1  0.250000  0.125098  0.347028  1
  Ru  Ru16  1  0.750000  0.761697  0.816659  1
  Ru  Ru17  1  0.250000  0.251711  0.937133  1
  Ru  Ru18  1  0.750000  0.257294  0.429342  1
  Ru  Ru19  1  0.250000  0.730810  0.314331  1
  Ru  Ru20  1  0.750000  0.773268  0.060432  1
  Ru  Ru21  1  0.750000  0.236617  0.692582  1
  Ru  Ru22  1  0.250000  0.280800  0.182494  1
  Ru  Ru23  1  0.250000  0.708957  0.573682  1
