# generated using pymatgen
data_Dy6Er10MgIn3Ni4
_symmetry_space_group_name_H-M   'P 1'
_cell_length_a   9.55395718
_cell_length_b   9.53136126
_cell_length_c   9.53136200
_cell_angle_alpha   59.99999744
_cell_angle_beta   60.07820303
_cell_angle_gamma   60.07819823
_symmetry_Int_Tables_number   1
_chemical_formula_structural   Dy6Er10MgIn3Ni4
_chemical_formula_sum   'Dy6 Er10 Mg1 In3 Ni4'
_cell_volume   614.45559939
_cell_formula_units_Z   1
loop_
 _symmetry_equiv_pos_site_id
 _symmetry_equiv_pos_as_xyz
  1  'x, y, z'
loop_
 _atom_site_type_symbol
 _atom_site_label
 _atom_site_symmetry_multiplicity
 _atom_site_fract_x
 _atom_site_fract_y
 _atom_site_fract_z
 _atom_site_occupancy
  Dy  Dy0  1  0.186336  0.814099  0.814099  1
  Dy  Dy1  1  0.813032  0.187131  0.187131  1
  Dy  Dy2  1  0.813032  0.187131  0.812706  1
  Dy  Dy3  1  0.186336  0.814099  0.185466  1
  Dy  Dy4  1  0.813032  0.812706  0.187131  1
  Dy  Dy5  1  0.186336  0.185466  0.814099  1
  Er  Er6  1  0.598009  0.596056  0.596056  1
  Er  Er7  1  0.598009  0.596056  0.209879  1
  Er  Er8  1  0.598009  0.209879  0.596056  1
  Er  Er9  1  0.206726  0.597758  0.597758  1
  Er  Er10  1  0.060498  0.438819  0.438819  1
  Er  Er11  1  0.434995  0.063921  0.063921  1
  Er  Er12  1  0.434995  0.063921  0.437162  1
  Er  Er13  1  0.060498  0.438819  0.061864  1
  Er  Er14  1  0.434995  0.437162  0.063921  1
  Er  Er15  1  0.060498  0.061864  0.438819  1
  Mg  Mg16  1  0.518008  0.827331  0.827331  1
  In  In17  1  0.831780  0.832444  0.832444  1
  In  In18  1  0.831780  0.832444  0.503332  1
  In  In19  1  0.831780  0.503332  0.832444  1
  Ni  Ni20  1  0.392089  0.391826  0.391826  1
  Ni  Ni21  1  0.392089  0.391826  0.824257  1
  Ni  Ni22  1  0.392089  0.824257  0.391826  1
  Ni  Ni23  1  0.825042  0.391653  0.391653  1
