# generated using pymatgen
data_YEr9Tl5In3Pd4
_symmetry_space_group_name_H-M   'P 1'
_cell_length_a   3.60592400
_cell_length_b   8.17582506
_cell_length_c   18.25767112
_cell_angle_alpha   89.99940638
_cell_angle_beta   90.00000000
_cell_angle_gamma   90.00000000
_symmetry_Int_Tables_number   1
_chemical_formula_structural   YEr9Tl5In3Pd4
_chemical_formula_sum   'Y1 Er9 Tl5 In3 Pd4'
_cell_volume   538.26177489
_cell_formula_units_Z   1
loop_
 _symmetry_equiv_pos_site_id
 _symmetry_equiv_pos_as_xyz
  1  'x, y, z'
loop_
 _atom_site_type_symbol
 _atom_site_label
 _atom_site_symmetry_multiplicity
 _atom_site_fract_x
 _atom_site_fract_y
 _atom_site_fract_z
 _atom_site_occupancy
  Y  Y0  1  0.000000  0.499084  0.499067  1
  Er  Er1  1  0.000000  0.999889  0.000233  1
  Er  Er2  1  0.000000  0.741258  0.281644  1
  Er  Er3  1  0.000000  0.259488  0.718395  1
  Er  Er4  1  0.000000  0.758932  0.782556  1
  Er  Er5  1  0.000000  0.240717  0.217749  1
  Er  Er6  1  0.000000  0.616352  0.085743  1
  Er  Er7  1  0.000000  0.383571  0.914882  1
  Er  Er8  1  0.000000  0.883770  0.586238  1
  Er  Er9  1  0.000000  0.116796  0.413783  1
  Tl  Tl10  1  0.500000  0.708149  0.934339  1
  Tl  Tl11  1  0.500000  0.291931  0.065922  1
  Tl  Tl12  1  0.500000  0.793657  0.433967  1
  Tl  Tl13  1  0.500000  0.204184  0.564942  1
  Tl  Tl14  1  0.500000  0.584388  0.649780  1
  In  In15  1  0.500000  0.415148  0.348627  1
  In  In16  1  0.500000  0.916453  0.150558  1
  In  In17  1  0.500000  0.083937  0.849676  1
  Pd  Pd18  1  0.500000  0.528065  0.197874  1
  Pd  Pd19  1  0.500000  0.470944  0.803987  1
  Pd  Pd20  1  0.500000  0.975281  0.698651  1
  Pd  Pd21  1  0.500000  0.028003  0.301386  1
