# generated using pymatgen
data_Lu4Al4Ir3Rh
_symmetry_space_group_name_H-M   'P 1'
_cell_length_a   4.20609600
_cell_length_b   6.73252688
_cell_length_c   7.85072855
_cell_angle_alpha   90.06533675
_cell_angle_beta   90.00000000
_cell_angle_gamma   90.00000000
_symmetry_Int_Tables_number   1
_chemical_formula_structural   Lu4Al4Ir3Rh
_chemical_formula_sum   'Lu4 Al4 Ir3 Rh1'
_cell_volume   222.31407324
_cell_formula_units_Z   1
loop_
 _symmetry_equiv_pos_site_id
 _symmetry_equiv_pos_as_xyz
  1  'x, y, z'
loop_
 _atom_site_type_symbol
 _atom_site_label
 _atom_site_symmetry_multiplicity
 _atom_site_fract_x
 _atom_site_fract_y
 _atom_site_fract_z
 _atom_site_occupancy
  Lu  Lu0  1  0.250000  0.966672  0.321510  1
  Lu  Lu1  1  0.750000  0.532684  0.822285  1
  Lu  Lu2  1  0.250000  0.465784  0.178467  1
  Lu  Lu3  1  0.750000  0.036077  0.678335  1
  Al  Al4  1  0.750000  0.639580  0.440239  1
  Al  Al5  1  0.750000  0.139833  0.059945  1
  Al  Al6  1  0.250000  0.360448  0.559856  1
  Al  Al7  1  0.250000  0.860068  0.941476  1
  Ir  Ir8  1  0.750000  0.764407  0.123344  1
  Ir  Ir9  1  0.750000  0.264483  0.376505  1
  Ir  Ir10  1  0.250000  0.234031  0.875517  1
  Rh  Rh11  1  0.250000  0.735933  0.622519  1
