# generated using pymatgen
data_Ta(Nb2N3)2
_symmetry_space_group_name_H-M   'P 1'
_cell_length_a   5.25306300
_cell_length_b   5.25306325
_cell_length_c   10.46801700
_cell_angle_alpha   90.00000000
_cell_angle_beta   90.00000000
_cell_angle_gamma   120.00000475
_symmetry_Int_Tables_number   1
_chemical_formula_structural   Ta(Nb2N3)2
_chemical_formula_sum   'Ta2 Nb8 N12'
_cell_volume   250.16138292
_cell_formula_units_Z   2
loop_
 _symmetry_equiv_pos_site_id
 _symmetry_equiv_pos_as_xyz
  1  'x, y, z'
loop_
 _atom_site_type_symbol
 _atom_site_label
 _atom_site_symmetry_multiplicity
 _atom_site_fract_x
 _atom_site_fract_y
 _atom_site_fract_z
 _atom_site_occupancy
  Ta  Ta0  1  0.333333  0.666667  0.500000  1
  Ta  Ta1  1  0.666667  0.333333  0.500000  1
  Nb  Nb2  1  0.675652  0.675652  0.749669  1
  Nb  Nb3  1  0.324348  0.000000  0.749669  1
  Nb  Nb4  1  0.000000  0.324348  0.749669  1
  Nb  Nb5  1  0.324348  0.324348  0.250331  1
  Nb  Nb6  1  0.675652  0.000000  0.250331  1
  Nb  Nb7  1  0.000000  0.675652  0.250331  1
  Nb  Nb8  1  0.666667  0.333333  0.000000  1
  Nb  Nb9  1  0.333333  0.666667  0.000000  1
  N  N10  1  0.657960  0.657960  0.381145  1
  N  N11  1  0.342040  0.000000  0.381145  1
  N  N12  1  0.000000  0.342040  0.381145  1
  N  N13  1  0.342040  0.342040  0.618855  1
  N  N14  1  0.657960  0.000000  0.618855  1
  N  N15  1  0.000000  0.657960  0.618855  1
  N  N16  1  0.339092  0.339092  0.876087  1
  N  N17  1  0.660908  0.000000  0.876087  1
  N  N18  1  0.000000  0.660908  0.876087  1
  N  N19  1  0.660908  0.660908  0.123913  1
  N  N20  1  0.339092  0.000000  0.123913  1
  N  N21  1  0.000000  0.339092  0.123913  1
