# generated using pymatgen
data_Na6MnCoS4(O4F)4
_symmetry_space_group_name_H-M   'P 1'
_cell_length_a   6.78824600
_cell_length_b   9.19340400
_cell_length_c   13.91790100
_cell_angle_alpha   90.00000000
_cell_angle_beta   90.00000000
_cell_angle_gamma   90.00000000
_symmetry_Int_Tables_number   1
_chemical_formula_structural   Na6MnCoS4(O4F)4
_chemical_formula_sum   'Na12 Mn2 Co2 S8 O32 F8'
_cell_volume   868.57567150
_cell_formula_units_Z   2
loop_
 _symmetry_equiv_pos_site_id
 _symmetry_equiv_pos_as_xyz
  1  'x, y, z'
loop_
 _atom_site_type_symbol
 _atom_site_label
 _atom_site_symmetry_multiplicity
 _atom_site_fract_x
 _atom_site_fract_y
 _atom_site_fract_z
 _atom_site_occupancy
  Na  Na0  1  0.524900  0.666157  0.904131  1
  Na  Na1  1  0.024900  0.833843  0.595869  1
  Na  Na2  1  0.475100  0.166157  0.595869  1
  Na  Na3  1  0.975100  0.333843  0.904131  1
  Na  Na4  1  0.472086  0.335980  0.096744  1
  Na  Na5  1  0.972086  0.164020  0.403256  1
  Na  Na6  1  0.527914  0.835980  0.403256  1
  Na  Na7  1  0.027914  0.664020  0.096744  1
  Na  Na8  1  0.750000  0.000000  0.053895  1
  Na  Na9  1  0.250000  0.500000  0.446105  1
  Na  Na10  1  0.250000  0.000000  0.944618  1
  Na  Na11  1  0.750000  0.500000  0.555382  1
  Mn  Mn12  1  0.250000  0.000000  0.196550  1
  Mn  Mn13  1  0.750000  0.500000  0.303450  1
  Co  Co14  1  0.750000  0.000000  0.806564  1
  Co  Co15  1  0.250000  0.500000  0.693436  1
  S  S16  1  0.009510  0.697088  0.854573  1
  S  S17  1  0.509510  0.802912  0.645427  1
  S  S18  1  0.990490  0.197088  0.645427  1
  S  S19  1  0.490490  0.302912  0.854573  1
  S  S20  1  0.986051  0.309464  0.144174  1
  S  S21  1  0.486051  0.190536  0.355826  1
  S  S22  1  0.013949  0.809464  0.355826  1
  S  S23  1  0.513949  0.690536  0.144174  1
  O  O24  1  0.443354  0.435475  0.793217  1
  O  O25  1  0.943354  0.064525  0.706783  1
  O  O26  1  0.556646  0.935475  0.706783  1
  O  O27  1  0.056646  0.564525  0.793217  1
  O  O28  1  0.561090  0.552138  0.201647  1
  O  O29  1  0.061090  0.947862  0.298353  1
  O  O30  1  0.438910  0.052138  0.298353  1
  O  O31  1  0.938910  0.447862  0.201647  1
  O  O32  1  0.191513  0.762316  0.891809  1
  O  O33  1  0.691513  0.737684  0.608191  1
  O  O34  1  0.808487  0.262316  0.608191  1
  O  O35  1  0.308487  0.237684  0.891809  1
  O  O36  1  0.804270  0.243722  0.107175  1
  O  O37  1  0.304270  0.256278  0.392825  1
  O  O38  1  0.195730  0.743722  0.392825  1
  O  O39  1  0.695730  0.756278  0.107175  1
  O  O40  1  0.880687  0.643665  0.932437  1
  O  O41  1  0.380687  0.856335  0.567563  1
  O  O42  1  0.119313  0.143665  0.567563  1
  O  O43  1  0.619313  0.356335  0.932437  1
  O  O44  1  0.115812  0.361005  0.065853  1
  O  O45  1  0.615812  0.138995  0.434147  1
  O  O46  1  0.884188  0.861005  0.434147  1
  O  O47  1  0.384188  0.638995  0.065853  1
  O  O48  1  0.401061  0.696677  0.708794  1
  O  O49  1  0.901061  0.803323  0.791206  1
  O  O50  1  0.598939  0.196677  0.791206  1
  O  O51  1  0.098939  0.303323  0.708794  1
  O  O52  1  0.592300  0.291086  0.290321  1
  O  O53  1  0.092300  0.208914  0.209679  1
  O  O54  1  0.407700  0.791086  0.209679  1
  O  O55  1  0.907700  0.708914  0.290321  1
  F  F56  1  0.581157  0.925271  0.905843  1
  F  F57  1  0.081157  0.574729  0.594157  1
  F  F58  1  0.418843  0.425271  0.594157  1
  F  F59  1  0.918843  0.074729  0.905843  1
  F  F60  1  0.416247  0.074230  0.097243  1
  F  F61  1  0.916247  0.425770  0.402757  1
  F  F62  1  0.583753  0.574230  0.402757  1
  F  F63  1  0.083753  0.925770  0.097243  1
