# generated using pymatgen
data_Zr4ReOs7
_symmetry_space_group_name_H-M   'P 1'
_cell_length_a   5.23048976
_cell_length_b   5.23049105
_cell_length_c   8.64208000
_cell_angle_alpha   90.00000000
_cell_angle_beta   90.00000000
_cell_angle_gamma   119.35537443
_symmetry_Int_Tables_number   1
_chemical_formula_structural   Zr4ReOs7
_chemical_formula_sum   'Zr4 Re1 Os7'
_cell_volume   206.07166376
_cell_formula_units_Z   1
loop_
 _symmetry_equiv_pos_site_id
 _symmetry_equiv_pos_as_xyz
  1  'x, y, z'
loop_
 _atom_site_type_symbol
 _atom_site_label
 _atom_site_symmetry_multiplicity
 _atom_site_fract_x
 _atom_site_fract_y
 _atom_site_fract_z
 _atom_site_occupancy
  Zr  Zr0  1  0.332203  0.667797  0.434909  1
  Zr  Zr1  1  0.666820  0.333180  0.566703  1
  Zr  Zr2  1  0.666820  0.333180  0.933297  1
  Zr  Zr3  1  0.332203  0.667797  0.065091  1
  Re  Re4  1  0.830415  0.169585  0.250000  1
  Os  Os5  1  0.997204  0.002796  0.501212  1
  Os  Os6  1  0.997204  0.002796  0.998788  1
  Os  Os7  1  0.828954  0.653260  0.250000  1
  Os  Os8  1  0.346740  0.171046  0.250000  1
  Os  Os9  1  0.172620  0.827380  0.750000  1
  Os  Os10  1  0.173107  0.344289  0.750000  1
  Os  Os11  1  0.655711  0.826893  0.750000  1
