# generated using pymatgen
data_TbHo15In4PdRh3
_symmetry_space_group_name_H-M   'P 1'
_cell_length_a   9.63557125
_cell_length_b   9.63946025
_cell_length_c   9.63256200
_cell_angle_alpha   60.02366991
_cell_angle_beta   60.01033049
_cell_angle_gamma   60.01842950
_symmetry_Int_Tables_number   1
_chemical_formula_structural   TbHo15In4PdRh3
_chemical_formula_sum   'Tb1 Ho15 In4 Pd1 Rh3'
_cell_volume   632.89114414
_cell_formula_units_Z   1
loop_
 _symmetry_equiv_pos_site_id
 _symmetry_equiv_pos_as_xyz
  1  'x, y, z'
loop_
 _atom_site_type_symbol
 _atom_site_label
 _atom_site_symmetry_multiplicity
 _atom_site_fract_x
 _atom_site_fract_y
 _atom_site_fract_z
 _atom_site_occupancy
  Tb  Tb0  1  0.187684  0.186813  0.812751  1
  Ho  Ho1  1  0.602696  0.596667  0.197982  1
  Ho  Ho2  1  0.439725  0.064996  0.439063  1
  Ho  Ho3  1  0.439136  0.439134  0.060865  1
  Ho  Ho4  1  0.811903  0.187188  0.812360  1
  Ho  Ho5  1  0.187804  0.810063  0.188303  1
  Ho  Ho6  1  0.439725  0.064996  0.056216  1
  Ho  Ho7  1  0.187804  0.810063  0.813830  1
  Ho  Ho8  1  0.060876  0.439368  0.061052  1
  Ho  Ho9  1  0.813800  0.810540  0.187830  1
  Ho  Ho10  1  0.198043  0.596763  0.602597  1
  Ho  Ho11  1  0.060876  0.439368  0.438703  1
  Ho  Ho12  1  0.056071  0.064958  0.439485  1
  Ho  Ho13  1  0.811903  0.187188  0.188549  1
  Ho  Ho14  1  0.599390  0.202218  0.599196  1
  Ho  Ho15  1  0.602696  0.596667  0.602656  1
  In  In16  1  0.833050  0.833376  0.832969  1
  In  In17  1  0.833050  0.833376  0.500605  1
  In  In18  1  0.501408  0.832913  0.832839  1
  In  In19  1  0.832691  0.500972  0.833168  1
  Pd  Pd20  1  0.393094  0.820631  0.393137  1
  Rh  Rh21  1  0.392400  0.393987  0.391659  1
  Rh  Rh22  1  0.821773  0.393774  0.392226  1
  Rh  Rh23  1  0.392400  0.393987  0.821954  1
