# generated using pymatgen
data_La6SbTe7
_symmetry_space_group_name_H-M   'P 1'
_cell_length_a   8.39067951
_cell_length_b   8.39068003
_cell_length_c   8.39067995
_cell_angle_alpha   109.44390615
_cell_angle_beta   109.44390522
_cell_angle_gamma   109.44391210
_symmetry_Int_Tables_number   1
_chemical_formula_structural   La6SbTe7
_chemical_formula_sum   'La6 Sb1 Te7'
_cell_volume   455.20597483
_cell_formula_units_Z   1
loop_
 _symmetry_equiv_pos_site_id
 _symmetry_equiv_pos_as_xyz
  1  'x, y, z'
loop_
 _atom_site_type_symbol
 _atom_site_label
 _atom_site_symmetry_multiplicity
 _atom_site_fract_x
 _atom_site_fract_y
 _atom_site_fract_z
 _atom_site_occupancy
  La  La0  1  0.872104  0.120325  0.749613  1
  La  La1  1  0.378636  0.254230  0.625430  1
  La  La2  1  0.120325  0.749613  0.872104  1
  La  La3  1  0.749613  0.872104  0.120325  1
  La  La4  1  0.254230  0.625430  0.378636  1
  La  La5  1  0.625430  0.378636  0.254230  1
  Sb  Sb6  1  0.654839  0.654839  0.654839  1
  Te  Te7  1  0.499713  0.999778  0.346596  1
  Te  Te8  1  0.999778  0.346596  0.499713  1
  Te  Te9  1  0.346596  0.499713  0.999778  1
  Te  Te10  1  0.999584  0.846596  0.499395  1
  Te  Te11  1  0.846596  0.499395  0.999584  1
  Te  Te12  1  0.153160  0.153160  0.153160  1
  Te  Te13  1  0.499395  0.999584  0.846596  1
