# generated using pymatgen
data_LaPr2(BiRh)3
_symmetry_space_group_name_H-M   'P 1'
_cell_length_a   7.82181586
_cell_length_b   7.84079865
_cell_length_c   4.16796800
_cell_angle_alpha   90.00000000
_cell_angle_beta   90.00000000
_cell_angle_gamma   120.08030804
_symmetry_Int_Tables_number   1
_chemical_formula_structural   LaPr2(BiRh)3
_chemical_formula_sum   'La1 Pr2 Bi3 Rh3'
_cell_volume   221.19274613
_cell_formula_units_Z   1
loop_
 _symmetry_equiv_pos_site_id
 _symmetry_equiv_pos_as_xyz
  1  'x, y, z'
loop_
 _atom_site_type_symbol
 _atom_site_label
 _atom_site_symmetry_multiplicity
 _atom_site_fract_x
 _atom_site_fract_y
 _atom_site_fract_z
 _atom_site_occupancy
  La  La0  1  0.000000  0.592545  0.500000  1
  Pr  Pr1  1  0.404986  0.403616  0.500000  1
  Pr  Pr2  1  0.595014  0.998630  0.500000  1
  Bi  Bi3  1  0.738921  0.740941  0.000000  1
  Bi  Bi4  1  0.000000  0.257115  0.000000  1
  Bi  Bi5  1  0.261079  0.002020  0.000000  1
  Rh  Rh6  1  0.329866  0.667299  0.000000  1
  Rh  Rh7  1  0.000000  0.000401  0.500000  1
  Rh  Rh8  1  0.670134  0.337432  0.000000  1
