# generated using pymatgen
data_Er8Ti8Re3Si16Os
_symmetry_space_group_name_H-M   'P 1'
_cell_length_a   6.90991803
_cell_length_b   6.90991845
_cell_length_c   12.71041926
_cell_angle_alpha   90.06467629
_cell_angle_beta   89.93532454
_cell_angle_gamma   89.82901927
_symmetry_Int_Tables_number   1
_chemical_formula_structural   Er8Ti8Re3Si16Os
_chemical_formula_sum   'Er8 Ti8 Re3 Si16 Os1'
_cell_volume   606.88053053
_cell_formula_units_Z   1
loop_
 _symmetry_equiv_pos_site_id
 _symmetry_equiv_pos_as_xyz
  1  'x, y, z'
loop_
 _atom_site_type_symbol
 _atom_site_label
 _atom_site_symmetry_multiplicity
 _atom_site_fract_x
 _atom_site_fract_y
 _atom_site_fract_z
 _atom_site_occupancy
  Er  Er0  1  0.340751  0.001024  0.469677  1
  Er  Er1  1  0.499005  0.840566  0.719650  1
  Er  Er2  1  0.500919  0.159202  0.219496  1
  Er  Er3  1  0.840566  0.499005  0.280350  1
  Er  Er4  1  0.159202  0.500919  0.780504  1
  Er  Er5  1  0.659258  0.998537  0.970210  1
  Er  Er6  1  0.001024  0.340751  0.530323  1
  Er  Er7  1  0.998537  0.659258  0.029790  1
  Ti  Ti8  1  0.150894  0.001711  0.876624  1
  Ti  Ti9  1  0.495381  0.655454  0.128135  1
  Ti  Ti10  1  0.504062  0.348181  0.627657  1
  Ti  Ti11  1  0.655454  0.495381  0.871865  1
  Ti  Ti12  1  0.348181  0.504062  0.372343  1
  Ti  Ti13  1  0.848356  0.995164  0.376792  1
  Ti  Ti14  1  0.001711  0.150894  0.123376  1
  Ti  Ti15  1  0.995164  0.848356  0.623208  1
  Re  Re16  1  0.170861  0.829741  0.249355  1
  Re  Re17  1  0.829741  0.170861  0.750645  1
  Re  Re18  1  0.669484  0.669484  0.500000  1
  Si  Si19  1  0.199791  0.130152  0.683411  1
  Si  Si20  1  0.372227  0.699033  0.933189  1
  Si  Si21  1  0.629890  0.299832  0.433573  1
  Si  Si22  1  0.699033  0.372227  0.066811  1
  Si  Si23  1  0.299832  0.629890  0.566427  1
  Si  Si24  1  0.799215  0.870064  0.182829  1
  Si  Si25  1  0.130152  0.199791  0.316589  1
  Si  Si26  1  0.870064  0.799215  0.817171  1
  Si  Si27  1  0.289888  0.953513  0.066770  1
  Si  Si28  1  0.547098  0.792328  0.317749  1
  Si  Si29  1  0.451335  0.208434  0.818556  1
  Si  Si30  1  0.792328  0.547098  0.682251  1
  Si  Si31  1  0.208434  0.451335  0.181444  1
  Si  Si32  1  0.708356  0.046994  0.567302  1
  Si  Si33  1  0.953513  0.289888  0.933230  1
  Si  Si34  1  0.046994  0.708356  0.432698  1
  Os  Os35  1  0.333302  0.333302  0.000000  1
