# generated using pymatgen
data_CaHo2(Bi2Rh)4
_symmetry_space_group_name_H-M   'P 1'
_cell_length_a   4.12737700
_cell_length_b   10.88922700
_cell_length_c   17.07549500
_cell_angle_alpha   90.00000000
_cell_angle_beta   90.00000000
_cell_angle_gamma   90.00000000
_symmetry_Int_Tables_number   1
_chemical_formula_structural   CaHo2(Bi2Rh)4
_chemical_formula_sum   'Ca2 Ho4 Bi16 Rh8'
_cell_volume   767.44010928
_cell_formula_units_Z   2
loop_
 _symmetry_equiv_pos_site_id
 _symmetry_equiv_pos_as_xyz
  1  'x, y, z'
loop_
 _atom_site_type_symbol
 _atom_site_label
 _atom_site_symmetry_multiplicity
 _atom_site_fract_x
 _atom_site_fract_y
 _atom_site_fract_z
 _atom_site_occupancy
  Ca  Ca0  1  0.500000  0.000000  0.500000  1
  Ca  Ca1  1  0.500000  0.500000  0.000000  1
  Ho  Ho2  1  0.500000  0.864426  0.193226  1
  Ho  Ho3  1  0.500000  0.135574  0.806774  1
  Ho  Ho4  1  0.500000  0.364426  0.306774  1
  Ho  Ho5  1  0.500000  0.635574  0.693226  1
  Bi  Bi6  1  0.000000  0.111221  0.213623  1
  Bi  Bi7  1  0.000000  0.888779  0.786377  1
  Bi  Bi8  1  0.000000  0.611221  0.286377  1
  Bi  Bi9  1  0.000000  0.388779  0.713623  1
  Bi  Bi10  1  0.000000  0.393926  0.145519  1
  Bi  Bi11  1  0.000000  0.606074  0.854481  1
  Bi  Bi12  1  0.000000  0.893926  0.354481  1
  Bi  Bi13  1  0.000000  0.106074  0.645519  1
  Bi  Bi14  1  0.500000  0.128447  0.036669  1
  Bi  Bi15  1  0.500000  0.871553  0.963331  1
  Bi  Bi16  1  0.500000  0.628447  0.463331  1
  Bi  Bi17  1  0.500000  0.371553  0.536669  1
  Bi  Bi18  1  0.000000  0.692169  0.087554  1
  Bi  Bi19  1  0.000000  0.307831  0.912446  1
  Bi  Bi20  1  0.000000  0.192169  0.412446  1
  Bi  Bi21  1  0.000000  0.807831  0.587554  1
  Rh  Rh22  1  0.000000  0.949032  0.082395  1
  Rh  Rh23  1  0.000000  0.050968  0.917605  1
  Rh  Rh24  1  0.000000  0.449032  0.417605  1
  Rh  Rh25  1  0.000000  0.550968  0.582395  1
  Rh  Rh26  1  0.500000  0.575416  0.178903  1
  Rh  Rh27  1  0.500000  0.424584  0.821097  1
  Rh  Rh28  1  0.500000  0.075416  0.321097  1
  Rh  Rh29  1  0.500000  0.924584  0.678903  1
