# generated using pymatgen
data_Ho3Mg3HgPb2
_symmetry_space_group_name_H-M   'P 1'
_cell_length_a   7.59883300
_cell_length_b   7.59883375
_cell_length_c   4.57722400
_cell_angle_alpha   90.00000000
_cell_angle_beta   90.00000000
_cell_angle_gamma   120.00000107
_symmetry_Int_Tables_number   1
_chemical_formula_structural   Ho3Mg3HgPb2
_chemical_formula_sum   'Ho3 Mg3 Hg1 Pb2'
_cell_volume   228.88990389
_cell_formula_units_Z   1
loop_
 _symmetry_equiv_pos_site_id
 _symmetry_equiv_pos_as_xyz
  1  'x, y, z'
loop_
 _atom_site_type_symbol
 _atom_site_label
 _atom_site_symmetry_multiplicity
 _atom_site_fract_x
 _atom_site_fract_y
 _atom_site_fract_z
 _atom_site_occupancy
  Ho  Ho0  1  0.588436  0.000000  0.000000  1
  Ho  Ho1  1  0.000000  0.588436  0.000000  1
  Ho  Ho2  1  0.411564  0.411564  0.000000  1
  Mg  Mg3  1  0.236043  0.000000  0.500000  1
  Mg  Mg4  1  0.000000  0.236043  0.500000  1
  Mg  Mg5  1  0.763957  0.763957  0.500000  1
  Hg  Hg6  1  0.000000  0.000000  0.000000  1
  Pb  Pb7  1  0.333333  0.666667  0.500000  1
  Pb  Pb8  1  0.666667  0.333333  0.500000  1
