# generated using pymatgen
data_Nd2Ir5Rh
_symmetry_space_group_name_H-M   'P 1'
_cell_length_a   5.37662600
_cell_length_b   5.37663205
_cell_length_c   17.65537000
_cell_angle_alpha   90.00000000
_cell_angle_beta   90.00000000
_cell_angle_gamma   119.99987092
_symmetry_Int_Tables_number   1
_chemical_formula_structural   Nd2Ir5Rh
_chemical_formula_sum   'Nd6 Ir15 Rh3'
_cell_volume   442.00599981
_cell_formula_units_Z   3
loop_
 _symmetry_equiv_pos_site_id
 _symmetry_equiv_pos_as_xyz
  1  'x, y, z'
loop_
 _atom_site_type_symbol
 _atom_site_label
 _atom_site_symmetry_multiplicity
 _atom_site_fract_x
 _atom_site_fract_y
 _atom_site_fract_z
 _atom_site_occupancy
  Nd  Nd0  1  0.333334  0.666666  0.541267  1
  Nd  Nd1  1  0.666666  0.333330  0.041344  1
  Nd  Nd2  1  0.666666  0.333330  0.458656  1
  Nd  Nd3  1  0.333334  0.666666  0.958733  1
  Nd  Nd4  1  0.333331  0.666663  0.750000  1
  Nd  Nd5  1  0.666668  0.333330  0.250000  1
  Ir  Ir6  1  0.166788  0.333572  0.128104  1
  Ir  Ir7  1  0.833148  0.666299  0.627417  1
  Ir  Ir8  1  0.666428  0.833214  0.128105  1
  Ir  Ir9  1  0.166785  0.833215  0.128103  1
  Ir  Ir10  1  0.833148  0.166853  0.627416  1
  Ir  Ir11  1  0.333702  0.166852  0.627417  1
  Ir  Ir12  1  0.833148  0.666299  0.872583  1
  Ir  Ir13  1  0.833148  0.166853  0.872584  1
  Ir  Ir14  1  0.333702  0.166852  0.872583  1
  Ir  Ir15  1  0.666428  0.833214  0.371895  1
  Ir  Ir16  1  0.166785  0.833215  0.371897  1
  Ir  Ir17  1  0.166788  0.333572  0.371896  1
  Ir  Ir18  1  0.000019  0.999993  0.250000  1
  Ir  Ir19  1  0.999999  0.000006  0.000074  1
  Ir  Ir20  1  0.999999  0.000006  0.499926  1
  Rh  Rh21  1  0.999988  0.000019  0.750000  1
  Rh  Rh22  1  0.333329  0.666665  0.250000  1
  Rh  Rh23  1  0.666672  0.333319  0.750000  1
