# generated using pymatgen
data_Rb10Mg3Si3Se14
_symmetry_space_group_name_H-M   'P 1'
_cell_length_a   11.03942784
_cell_length_b   11.03942212
_cell_length_c   9.17416500
_cell_angle_alpha   76.43430083
_cell_angle_beta   76.43446817
_cell_angle_gamma   70.21092909
_symmetry_Int_Tables_number   1
_chemical_formula_structural   Rb10Mg3Si3Se14
_chemical_formula_sum   'Rb10 Mg3 Si3 Se14'
_cell_volume   1007.85209328
_cell_formula_units_Z   1
loop_
 _symmetry_equiv_pos_site_id
 _symmetry_equiv_pos_as_xyz
  1  'x, y, z'
loop_
 _atom_site_type_symbol
 _atom_site_label
 _atom_site_symmetry_multiplicity
 _atom_site_fract_x
 _atom_site_fract_y
 _atom_site_fract_z
 _atom_site_occupancy
  Rb  Rb0  1  0.021927  0.432134  0.731484  1
  Rb  Rb1  1  0.432134  0.021926  0.731484  1
  Rb  Rb2  1  0.977820  0.563416  0.272779  1
  Rb  Rb3  1  0.563416  0.977821  0.272779  1
  Rb  Rb4  1  0.289822  0.712888  0.006511  1
  Rb  Rb5  1  0.712888  0.289822  0.006511  1
  Rb  Rb6  1  0.851371  0.160774  0.489027  1
  Rb  Rb7  1  0.160774  0.851371  0.489027  1
  Rb  Rb8  1  0.428802  0.428799  0.703195  1
  Rb  Rb9  1  0.571742  0.571745  0.303806  1
  Mg  Mg10  1  0.211877  0.211876  0.184704  1
  Mg  Mg11  1  0.784663  0.784664  0.814877  1
  Mg  Mg12  1  0.073243  0.073243  0.055811  1
  Si  Si13  1  0.929380  0.929380  0.930094  1
  Si  Si14  1  0.348859  0.348859  0.342893  1
  Si  Si15  1  0.649808  0.649808  0.665627  1
  Se  Se16  1  0.980783  0.303027  0.121393  1
  Se  Se17  1  0.303027  0.980783  0.121393  1
  Se  Se18  1  0.014776  0.717817  0.878099  1
  Se  Se19  1  0.717817  0.014776  0.878099  1
  Se  Se20  1  0.218555  0.218555  0.466620  1
  Se  Se21  1  0.779948  0.779948  0.539389  1
  Se  Se22  1  0.054948  0.054948  0.781099  1
  Se  Se23  1  0.924431  0.924431  0.182018  1
  Se  Se24  1  0.362275  0.362276  0.083305  1
  Se  Se25  1  0.637980  0.637979  0.925348  1
  Se  Se26  1  0.254009  0.551919  0.406449  1
  Se  Se27  1  0.551919  0.254009  0.406449  1
  Se  Se28  1  0.744353  0.446649  0.604866  1
  Se  Se29  1  0.446649  0.744353  0.604866  1
