# generated using pymatgen
data_La5Tb2DySb20
_symmetry_space_group_name_H-M   'P 1'
_cell_length_a   4.31577900
_cell_length_b   13.57204838
_cell_length_c   15.18862018
_cell_angle_alpha   78.49729095
_cell_angle_beta   90.00000000
_cell_angle_gamma   90.00000000
_symmetry_Int_Tables_number   1
_chemical_formula_structural   La5Tb2DySb20
_chemical_formula_sum   'La5 Tb2 Dy1 Sb20'
_cell_volume   871.78912459
_cell_formula_units_Z   1
loop_
 _symmetry_equiv_pos_site_id
 _symmetry_equiv_pos_as_xyz
  1  'x, y, z'
loop_
 _atom_site_type_symbol
 _atom_site_label
 _atom_site_symmetry_multiplicity
 _atom_site_fract_x
 _atom_site_fract_y
 _atom_site_fract_z
 _atom_site_occupancy
  La  La0  1  0.750000  0.331794  0.143180  1
  La  La1  1  0.250000  0.948971  0.366048  1
  La  La2  1  0.250000  0.667292  0.858045  1
  La  La3  1  0.250000  0.665745  0.577257  1
  La  La4  1  0.750000  0.054047  0.633132  1
  Tb  Tb5  1  0.750000  0.334910  0.421597  1
  Tb  Tb6  1  0.750000  0.598800  0.229607  1
  Dy  Dy7  1  0.250000  0.398013  0.769461  1
  Sb  Sb8  1  0.750000  0.857721  0.816789  1
  Sb  Sb9  1  0.250000  0.863540  0.675152  1
  Sb  Sb10  1  0.250000  0.154769  0.474580  1
  Sb  Sb11  1  0.750000  0.287631  0.930314  1
  Sb  Sb12  1  0.250000  0.151176  0.778183  1
  Sb  Sb13  1  0.750000  0.572523  0.440562  1
  Sb  Sb14  1  0.750000  0.140567  0.327481  1
  Sb  Sb15  1  0.250000  0.700971  0.351917  1
  Sb  Sb16  1  0.750000  0.296911  0.643603  1
  Sb  Sb17  1  0.750000  0.848918  0.222499  1
  Sb  Sb18  1  0.250000  0.419525  0.970560  1
  Sb  Sb19  1  0.250000  0.423753  0.555972  1
  Sb  Sb20  1  0.750000  0.571216  0.737849  1
  Sb  Sb21  1  0.250000  0.423209  0.267747  1
  Sb  Sb22  1  0.750000  0.854081  0.524656  1
  Sb  Sb23  1  0.750000  0.039511  0.885693  1
  Sb  Sb24  1  0.250000  0.711066  0.069364  1
  Sb  Sb25  1  0.250000  0.961278  0.115495  1
  Sb  Sb26  1  0.250000  0.143196  0.184334  1
  Sb  Sb27  1  0.750000  0.578864  0.028920  1
