# generated using pymatgen
data_Tb20Ir7Pd2Au3
_symmetry_space_group_name_H-M   'P 1'
_cell_length_a   11.18266016
_cell_length_b   11.18265954
_cell_length_c   6.34572605
_cell_angle_alpha   89.94494338
_cell_angle_beta   89.94494231
_cell_angle_gamma   90.76192938
_symmetry_Int_Tables_number   1
_chemical_formula_structural   Tb20Ir7Pd2Au3
_chemical_formula_sum   'Tb20 Ir7 Pd2 Au3'
_cell_volume   793.47407283
_cell_formula_units_Z   1
loop_
 _symmetry_equiv_pos_site_id
 _symmetry_equiv_pos_as_xyz
  1  'x, y, z'
loop_
 _atom_site_type_symbol
 _atom_site_label
 _atom_site_symmetry_multiplicity
 _atom_site_fract_x
 _atom_site_fract_y
 _atom_site_fract_z
 _atom_site_occupancy
  Tb  Tb0  1  0.295476  0.078195  0.355983  1
  Tb  Tb1  1  0.295176  0.903578  0.871905  1
  Tb  Tb2  1  0.700477  0.092064  0.864748  1
  Tb  Tb3  1  0.696065  0.912718  0.361804  1
  Tb  Tb4  1  0.575496  0.791796  0.866803  1
  Tb  Tb5  1  0.585440  0.209485  0.376984  1
  Tb  Tb6  1  0.404173  0.790869  0.377231  1
  Tb  Tb7  1  0.420343  0.206446  0.864551  1
  Tb  Tb8  1  0.208204  0.424504  0.633197  1
  Tb  Tb9  1  0.209131  0.595827  0.122769  1
  Tb  Tb10  1  0.790515  0.414560  0.123016  1
  Tb  Tb11  1  0.793554  0.579657  0.635449  1
  Tb  Tb12  1  0.921805  0.704524  0.144017  1
  Tb  Tb13  1  0.907936  0.299523  0.635252  1
  Tb  Tb14  1  0.096422  0.704824  0.628095  1
  Tb  Tb15  1  0.087282  0.303935  0.138196  1
  Tb  Tb16  1  0.002857  0.992805  0.500476  1
  Tb  Tb17  1  0.007195  0.997143  0.999524  1
  Tb  Tb18  1  0.498867  0.498139  0.000951  1
  Tb  Tb19  1  0.501861  0.501133  0.499049  1
  Ir  Ir20  1  0.151349  0.848651  0.250000  1
  Ir  Ir21  1  0.651160  0.348840  0.750000  1
  Ir  Ir22  1  0.349834  0.650166  0.750000  1
  Ir  Ir23  1  0.499823  0.999741  0.112178  1
  Ir  Ir24  1  0.499104  0.999781  0.612341  1
  Ir  Ir25  1  0.000219  0.500896  0.887659  1
  Ir  Ir26  1  0.000259  0.500177  0.387822  1
  Pd  Pd27  1  0.659393  0.656310  0.246976  1
  Pd  Pd28  1  0.343690  0.340607  0.253024  1
  Au  Au29  1  0.847602  0.152398  0.250000  1
  Au  Au30  1  0.840536  0.841245  0.753072  1
  Au  Au31  1  0.158755  0.159464  0.746928  1
