# generated using pymatgen
data_Tb7ErSi12Pd3Au
_symmetry_space_group_name_H-M   'P 1'
_cell_length_a   8.18516800
_cell_length_b   8.17673388
_cell_length_c   8.17136300
_cell_angle_alpha   89.99739847
_cell_angle_beta   90.00150625
_cell_angle_gamma   120.03378194
_symmetry_Int_Tables_number   1
_chemical_formula_structural   Tb7ErSi12Pd3Au
_chemical_formula_sum   'Tb7 Er1 Si12 Pd3 Au1'
_cell_volume   473.46148689
_cell_formula_units_Z   1
loop_
 _symmetry_equiv_pos_site_id
 _symmetry_equiv_pos_as_xyz
  1  'x, y, z'
loop_
 _atom_site_type_symbol
 _atom_site_label
 _atom_site_symmetry_multiplicity
 _atom_site_fract_x
 _atom_site_fract_y
 _atom_site_fract_z
 _atom_site_occupancy
  Tb  Tb0  1  0.500813  0.001627  0.747789  1
  Tb  Tb1  1  0.997476  0.498744  0.252207  1
  Tb  Tb2  1  0.998453  0.499240  0.747914  1
  Tb  Tb3  1  0.501268  0.498745  0.252208  1
  Tb  Tb4  1  0.500783  0.499239  0.747912  1
  Tb  Tb5  1  0.999979  0.999962  0.251398  1
  Tb  Tb6  1  0.999994  0.999990  0.748038  1
  Er  Er7  1  0.501412  0.002800  0.252583  1
  Si  Si8  1  0.162231  0.324465  0.999592  1
  Si  Si9  1  0.832824  0.665648  0.999934  1
  Si  Si10  1  0.676050  0.837928  0.999975  1
  Si  Si11  1  0.834240  0.668478  0.500708  1
  Si  Si12  1  0.333733  0.166803  0.000546  1
  Si  Si13  1  0.166000  0.332002  0.499216  1
  Si  Si14  1  0.161876  0.837928  0.999976  1
  Si  Si15  1  0.331112  0.165514  0.500161  1
  Si  Si16  1  0.833070  0.166805  0.000546  1
  Si  Si17  1  0.668406  0.834250  0.498578  1
  Si  Si18  1  0.834403  0.165517  0.500162  1
  Si  Si19  1  0.165844  0.834248  0.498576  1
  Pd  Pd20  1  0.666041  0.332094  0.001597  1
  Pd  Pd21  1  0.666081  0.332170  0.499415  1
  Pd  Pd22  1  0.333920  0.667831  0.498382  1
  Au  Au23  1  0.333988  0.667977  0.002587  1
