# generated using pymatgen
data_Lu8Ta(B8Ru)3
_symmetry_space_group_name_H-M   'P 1'
_cell_length_a   3.59175200
_cell_length_b   9.09272435
_cell_length_c   11.46097226
_cell_angle_alpha   89.85432134
_cell_angle_beta   90.00000000
_cell_angle_gamma   90.00000000
_symmetry_Int_Tables_number   1
_chemical_formula_structural   Lu8Ta(B8Ru)3
_chemical_formula_sum   'Lu8 Ta1 B24 Ru3'
_cell_volume   374.30051550
_cell_formula_units_Z   1
loop_
 _symmetry_equiv_pos_site_id
 _symmetry_equiv_pos_as_xyz
  1  'x, y, z'
loop_
 _atom_site_type_symbol
 _atom_site_label
 _atom_site_symmetry_multiplicity
 _atom_site_fract_x
 _atom_site_fract_y
 _atom_site_fract_z
 _atom_site_occupancy
  Lu  Lu0  1  0.000000  0.319544  0.413876  1
  Lu  Lu1  1  0.000000  0.678870  0.587105  1
  Lu  Lu2  1  0.000000  0.821760  0.086192  1
  Lu  Lu3  1  0.000000  0.178160  0.914703  1
  Lu  Lu4  1  0.000000  0.948985  0.373361  1
  Lu  Lu5  1  0.000000  0.058263  0.629474  1
  Lu  Lu6  1  0.000000  0.441447  0.124354  1
  Lu  Lu7  1  0.000000  0.556276  0.870172  1
  Ta  Ta8  1  0.000000  0.638292  0.321115  1
  B  B9  1  0.500000  0.548628  0.438399  1
  B  B10  1  0.500000  0.445419  0.568360  1
  B  B11  1  0.500000  0.053133  0.066074  1
  B  B12  1  0.500000  0.946169  0.933763  1
  B  B13  1  0.500000  0.753969  0.424664  1
  B  B14  1  0.500000  0.251402  0.580628  1
  B  B15  1  0.500000  0.248887  0.079361  1
  B  B16  1  0.500000  0.750560  0.919498  1
  B  B17  1  0.500000  0.798492  0.263028  1
  B  B18  1  0.500000  0.207630  0.735489  1
  B  B19  1  0.500000  0.290790  0.233010  1
  B  B20  1  0.500000  0.708293  0.764835  1
  B  B21  1  0.500000  0.630869  0.180308  1
  B  B22  1  0.500000  0.368211  0.815772  1
  B  B23  1  0.500000  0.131373  0.314212  1
  B  B24  1  0.500000  0.869715  0.684933  1
  B  B25  1  0.500000  0.982959  0.212212  1
  B  B26  1  0.500000  0.018172  0.788211  1
  B  B27  1  0.500000  0.473662  0.286042  1
  B  B28  1  0.500000  0.517346  0.713153  1
  B  B29  1  0.500000  0.603678  0.026233  1
  B  B30  1  0.500000  0.394620  0.969629  1
  B  B31  1  0.500000  0.106565  0.471751  1
  B  B32  1  0.500000  0.898134  0.531006  1
  Ru  Ru33  1  0.000000  0.359655  0.681504  1
  Ru  Ru34  1  0.000000  0.138044  0.177126  1
  Ru  Ru35  1  0.000000  0.862030  0.820449  1
