# generated using pymatgen
data_Ca5Nd3Zn3Si12Pd
_symmetry_space_group_name_H-M   'P 1'
_cell_length_a   8.17314200
_cell_length_b   8.21134781
_cell_length_c   8.61840374
_cell_angle_alpha   89.92060359
_cell_angle_beta   90.00000000
_cell_angle_gamma   119.84619736
_symmetry_Int_Tables_number   1
_chemical_formula_structural   Ca5Nd3Zn3Si12Pd
_chemical_formula_sum   'Ca5 Nd3 Zn3 Si12 Pd1'
_cell_volume   501.68532545
_cell_formula_units_Z   1
loop_
 _symmetry_equiv_pos_site_id
 _symmetry_equiv_pos_as_xyz
  1  'x, y, z'
loop_
 _atom_site_type_symbol
 _atom_site_label
 _atom_site_symmetry_multiplicity
 _atom_site_fract_x
 _atom_site_fract_y
 _atom_site_fract_z
 _atom_site_occupancy
  Ca  Ca0  1  0.500929  0.499316  0.746411  1
  Ca  Ca1  1  0.501195  0.498547  0.253621  1
  Ca  Ca2  1  0.998387  0.499316  0.746411  1
  Ca  Ca3  1  0.997351  0.498547  0.253621  1
  Ca  Ca4  1  0.500774  0.001548  0.746525  1
  Nd  Nd5  1  0.500085  0.000170  0.252002  1
  Nd  Nd6  1  0.000072  0.000145  0.748538  1
  Nd  Nd7  1  0.000072  0.000144  0.252084  1
  Zn  Zn8  1  0.667410  0.334820  0.999417  1
  Zn  Zn9  1  0.332271  0.664542  0.005174  1
  Zn  Zn10  1  0.332732  0.665464  0.495830  1
  Si  Si11  1  0.832909  0.164997  0.000615  1
  Si  Si12  1  0.166901  0.835115  0.998325  1
  Si  Si13  1  0.332088  0.164997  0.000615  1
  Si  Si14  1  0.164073  0.837932  0.501104  1
  Si  Si15  1  0.668215  0.835115  0.998325  1
  Si  Si16  1  0.832007  0.167590  0.499967  1
  Si  Si17  1  0.834888  0.669775  0.001138  1
  Si  Si18  1  0.673858  0.837932  0.501104  1
  Si  Si19  1  0.164937  0.329874  0.998188  1
  Si  Si20  1  0.335583  0.167590  0.499967  1
  Si  Si21  1  0.162742  0.325485  0.499865  1
  Si  Si22  1  0.832791  0.665582  0.500687  1
  Pd  Pd23  1  0.667728  0.335456  0.500464  1
