# generated using pymatgen
data_Eu3U(B4Ru)4
_symmetry_space_group_name_H-M   'P 1'
_cell_length_a   6.02513628
_cell_length_b   11.64646929
_cell_length_c   3.57846500
_cell_angle_alpha   90.00000000
_cell_angle_beta   90.00000000
_cell_angle_gamma   90.09902409
_symmetry_Int_Tables_number   1
_chemical_formula_structural   Eu3U(B4Ru)4
_chemical_formula_sum   'Eu3 U1 B16 Ru4'
_cell_volume   251.10611308
_cell_formula_units_Z   1
loop_
 _symmetry_equiv_pos_site_id
 _symmetry_equiv_pos_as_xyz
  1  'x, y, z'
loop_
 _atom_site_type_symbol
 _atom_site_label
 _atom_site_symmetry_multiplicity
 _atom_site_fract_x
 _atom_site_fract_y
 _atom_site_fract_z
 _atom_site_occupancy
  Eu  Eu0  1  0.370905  0.650823  0.000000  1
  Eu  Eu1  1  0.127020  0.148739  0.000000  1
  Eu  Eu2  1  0.872174  0.849817  0.000000  1
  U  U3  1  0.628419  0.349053  0.000000  1
  B  B4  1  0.784832  0.187292  0.500000  1
  B  B5  1  0.215503  0.815805  0.500000  1
  B  B6  1  0.290272  0.315499  0.500000  1
  B  B7  1  0.716686  0.684768  0.500000  1
  B  B8  1  0.860633  0.031992  0.500000  1
  B  B9  1  0.138056  0.969342  0.500000  1
  B  B10  1  0.365781  0.467112  0.500000  1
  B  B11  1  0.636141  0.529638  0.500000  1
  B  B12  1  0.886210  0.452782  0.500000  1
  B  B13  1  0.111061  0.546021  0.500000  1
  B  B14  1  0.388024  0.046575  0.500000  1
  B  B15  1  0.611620  0.954407  0.500000  1
  B  B16  1  0.971697  0.309501  0.500000  1
  B  B17  1  0.024028  0.689899  0.500000  1
  B  B18  1  0.476722  0.192777  0.500000  1
  B  B19  1  0.524994  0.809705  0.500000  1
  Ru  Ru20  1  0.635612  0.095108  0.000000  1
  Ru  Ru21  1  0.364191  0.910854  0.000000  1
  Ru  Ru22  1  0.139660  0.406380  0.000000  1
  Ru  Ru23  1  0.859760  0.586112  0.000000  1
