# generated using pymatgen
data_Cs3Pr(VS4)2
_symmetry_space_group_name_H-M   'P 1'
_cell_length_a   10.29266905
_cell_length_b   7.11620900
_cell_length_c   12.11923680
_cell_angle_alpha   90.00000000
_cell_angle_beta   89.40104344
_cell_angle_gamma   90.00000000
_symmetry_Int_Tables_number   1
_chemical_formula_structural   Cs3Pr(VS4)2
_chemical_formula_sum   'Cs6 Pr2 V4 S16'
_cell_volume   887.62238098
_cell_formula_units_Z   2
loop_
 _symmetry_equiv_pos_site_id
 _symmetry_equiv_pos_as_xyz
  1  'x, y, z'
loop_
 _atom_site_type_symbol
 _atom_site_label
 _atom_site_symmetry_multiplicity
 _atom_site_fract_x
 _atom_site_fract_y
 _atom_site_fract_z
 _atom_site_occupancy
  Cs  Cs0  1  0.363826  0.805991  0.081328  1
  Cs  Cs1  1  0.401140  0.306856  0.342996  1
  Cs  Cs2  1  0.843378  0.307034  0.435844  1
  Cs  Cs3  1  0.156622  0.807034  0.564157  1
  Cs  Cs4  1  0.598860  0.806856  0.657004  1
  Cs  Cs5  1  0.636175  0.305991  0.918672  1
  Pr  Pr6  1  0.892112  0.782931  0.147057  1
  Pr  Pr7  1  0.107888  0.282931  0.852943  1
  V  V8  1  0.086274  0.334429  0.151075  1
  V  V9  1  0.637916  0.806648  0.308491  1
  V  V10  1  0.362084  0.306647  0.691509  1
  V  V11  1  0.913726  0.834429  0.848925  1
  S  S12  1  0.933904  0.399105  0.036604  1
  S  S13  1  0.263457  0.307626  0.055315  1
  S  S14  1  0.668655  0.042238  0.198506  1
  S  S15  1  0.657805  0.560845  0.202926  1
  S  S16  1  0.053806  0.080122  0.244843  1
  S  S17  1  0.095380  0.571615  0.261232  1
  S  S18  1  0.454669  0.813541  0.391744  1
  S  S19  1  0.807694  0.803298  0.411412  1
  S  S20  1  0.192307  0.303297  0.588588  1
  S  S21  1  0.545330  0.313540  0.608256  1
  S  S22  1  0.904620  0.071614  0.738768  1
  S  S23  1  0.946194  0.580122  0.755157  1
  S  S24  1  0.342195  0.060846  0.797074  1
  S  S25  1  0.331345  0.542236  0.801494  1
  S  S26  1  0.736542  0.807627  0.944685  1
  S  S27  1  0.066096  0.899105  0.963395  1
