# generated using pymatgen
data_Y2Si14Ir5Pt
_symmetry_space_group_name_H-M   'P 1'
_cell_length_a   8.03796880
_cell_length_b   8.03796793
_cell_length_c   8.04863980
_cell_angle_alpha   57.00091384
_cell_angle_beta   57.00090900
_cell_angle_gamma   56.86319271
_symmetry_Int_Tables_number   1
_chemical_formula_structural   Y2Si14Ir5Pt
_chemical_formula_sum   'Y2 Si14 Ir5 Pt1'
_cell_volume   341.88145931
_cell_formula_units_Z   1
loop_
 _symmetry_equiv_pos_site_id
 _symmetry_equiv_pos_as_xyz
  1  'x, y, z'
loop_
 _atom_site_type_symbol
 _atom_site_label
 _atom_site_symmetry_multiplicity
 _atom_site_fract_x
 _atom_site_fract_y
 _atom_site_fract_z
 _atom_site_occupancy
  Y  Y0  1  0.998818  0.000555  0.002052  1
  Y  Y1  1  0.499445  0.501182  0.497948  1
  Si  Si2  1  0.746405  0.753595  0.750000  1
  Si  Si3  1  0.250538  0.249462  0.250000  1
  Si  Si4  1  0.851863  0.066680  0.671732  1
  Si  Si5  1  0.672577  0.851945  0.064923  1
  Si  Si6  1  0.062328  0.677070  0.853557  1
  Si  Si7  1  0.648055  0.827423  0.435077  1
  Si  Si8  1  0.433320  0.648137  0.828268  1
  Si  Si9  1  0.822930  0.437672  0.646443  1
  Si  Si10  1  0.177571  0.564160  0.343609  1
  Si  Si11  1  0.570030  0.350909  0.169419  1
  Si  Si12  1  0.354536  0.169988  0.564389  1
  Si  Si13  1  0.935840  0.322429  0.156391  1
  Si  Si14  1  0.330012  0.145464  0.935611  1
  Si  Si15  1  0.149091  0.929970  0.330581  1
  Ir  Ir16  1  0.249412  0.930594  0.570283  1
  Ir  Ir17  1  0.569406  0.250588  0.929717  1
  Ir  Ir18  1  0.929319  0.570681  0.250000  1
  Ir  Ir19  1  0.431772  0.750406  0.067770  1
  Ir  Ir20  1  0.749594  0.068228  0.432230  1
  Pt  Pt21  1  0.067136  0.432864  0.750000  1
