# generated using pymatgen
data_Er3U(SiPt2)4
_symmetry_space_group_name_H-M   'P 1'
_cell_length_a   5.49559388
_cell_length_b   6.94136300
_cell_length_c   7.36466754
_cell_angle_alpha   90.00000000
_cell_angle_beta   89.50693248
_cell_angle_gamma   90.00000000
_symmetry_Int_Tables_number   1
_chemical_formula_structural   Er3U(SiPt2)4
_chemical_formula_sum   'Er3 U1 Si4 Pt8'
_cell_volume   280.92892195
_cell_formula_units_Z   1
loop_
 _symmetry_equiv_pos_site_id
 _symmetry_equiv_pos_as_xyz
  1  'x, y, z'
loop_
 _atom_site_type_symbol
 _atom_site_label
 _atom_site_symmetry_multiplicity
 _atom_site_fract_x
 _atom_site_fract_y
 _atom_site_fract_z
 _atom_site_occupancy
  Er  Er0  1  0.140032  0.750000  0.469581  1
  Er  Er1  1  0.364660  0.750000  0.969945  1
  Er  Er2  1  0.632320  0.250000  0.028983  1
  U  U3  1  0.865550  0.250000  0.527685  1
  Si  Si4  1  0.136933  0.250000  0.882956  1
  Si  Si5  1  0.352462  0.250000  0.383472  1
  Si  Si6  1  0.639312  0.750000  0.617822  1
  Si  Si7  1  0.860979  0.750000  0.116081  1
  Pt  Pt8  1  0.087622  0.049999  0.180204  1
  Pt  Pt9  1  0.087622  0.450001  0.180204  1
  Pt  Pt10  1  0.412111  0.050161  0.685994  1
  Pt  Pt11  1  0.412111  0.449839  0.685994  1
  Pt  Pt12  1  0.596757  0.547357  0.321028  1
  Pt  Pt13  1  0.596757  0.952643  0.321028  1
  Pt  Pt14  1  0.907387  0.548324  0.814511  1
  Pt  Pt15  1  0.907387  0.951676  0.814511  1
