# generated using pymatgen
data_SrTb4Dy2CoI12
_symmetry_space_group_name_H-M   'P 1'
_cell_length_a   9.75406138
_cell_length_b   9.82405299
_cell_length_c   9.81705296
_cell_angle_alpha   106.21896202
_cell_angle_beta   106.39142626
_cell_angle_gamma   106.19789681
_symmetry_Int_Tables_number   1
_chemical_formula_structural   SrTb4Dy2CoI12
_chemical_formula_sum   'Sr1 Tb4 Dy2 Co1 I12'
_cell_volume   798.53195153
_cell_formula_units_Z   1
loop_
 _symmetry_equiv_pos_site_id
 _symmetry_equiv_pos_as_xyz
  1  'x, y, z'
loop_
 _atom_site_type_symbol
 _atom_site_label
 _atom_site_symmetry_multiplicity
 _atom_site_fract_x
 _atom_site_fract_y
 _atom_site_fract_z
 _atom_site_occupancy
  Sr  Sr0  1  0.499975  0.500070  0.500010  1
  Tb  Tb1  1  0.278312  0.018657  0.088144  1
  Tb  Tb2  1  0.981089  0.906820  0.706069  1
  Tb  Tb3  1  0.907228  0.706582  0.980157  1
  Tb  Tb4  1  0.721814  0.981604  0.912321  1
  Dy  Dy5  1  0.019028  0.093249  0.292419  1
  Dy  Dy6  1  0.092303  0.291869  0.019899  1
  Co  Co7  1  0.000063  0.999976  0.000025  1
  I  I8  1  0.133705  0.447395  0.366685  1
  I  I9  1  0.447540  0.366557  0.135406  1
  I  I10  1  0.367391  0.135170  0.446716  1
  I  I11  1  0.865734  0.551539  0.632425  1
  I  I12  1  0.551340  0.633533  0.864162  1
  I  I13  1  0.631577  0.864926  0.553374  1
  I  I14  1  0.678536  0.073131  0.222402  1
  I  I15  1  0.073775  0.224158  0.678014  1
  I  I16  1  0.225516  0.678879  0.074402  1
  I  I17  1  0.322708  0.927252  0.778527  1
  I  I18  1  0.926790  0.777751  0.322911  1
  I  I19  1  0.775573  0.320882  0.925928  1
