# generated using pymatgen
data_AlGa2Pt3Rh2
_symmetry_space_group_name_H-M   'P 1'
_cell_length_a   5.44943703
_cell_length_b   5.44943614
_cell_length_c   3.99140500
_cell_angle_alpha   90.00000000
_cell_angle_beta   90.00000000
_cell_angle_gamma   96.19049020
_symmetry_Int_Tables_number   1
_chemical_formula_structural   AlGa2Pt3Rh2
_chemical_formula_sum   'Al1 Ga2 Pt3 Rh2'
_cell_volume   117.83903178
_cell_formula_units_Z   1
loop_
 _symmetry_equiv_pos_site_id
 _symmetry_equiv_pos_as_xyz
  1  'x, y, z'
loop_
 _atom_site_type_symbol
 _atom_site_label
 _atom_site_symmetry_multiplicity
 _atom_site_fract_x
 _atom_site_fract_y
 _atom_site_fract_z
 _atom_site_occupancy
  Al  Al0  1  0.718449  0.281551  0.500000  1
  Ga  Ga1  1  0.997862  0.002138  0.000000  1
  Ga  Ga2  1  0.281866  0.718134  0.500000  1
  Pt  Pt3  1  0.500812  0.499188  0.000000  1
  Pt  Pt4  1  0.997821  0.497193  0.000000  1
  Pt  Pt5  1  0.502807  0.002179  0.000000  1
  Rh  Rh6  1  0.210370  0.209985  0.500000  1
  Rh  Rh7  1  0.790015  0.789630  0.500000  1
