# generated using pymatgen
data_Cu2SBr
_symmetry_space_group_name_H-M   'P 1'
_cell_length_a   3.76368717
_cell_length_b   3.76637182
_cell_length_c   6.87180019
_cell_angle_alpha   90.17926652
_cell_angle_beta   57.02878346
_cell_angle_gamma   89.90073584
_symmetry_Int_Tables_number   1
_chemical_formula_structural   Cu2SBr
_chemical_formula_sum   'Cu2 S1 Br1'
_cell_volume   81.72115128
_cell_formula_units_Z   1
loop_
 _symmetry_equiv_pos_site_id
 _symmetry_equiv_pos_as_xyz
  1  'x, y, z'
loop_
 _atom_site_type_symbol
 _atom_site_label
 _atom_site_symmetry_multiplicity
 _atom_site_fract_x
 _atom_site_fract_y
 _atom_site_fract_z
 _atom_site_occupancy
  Cu  Cu0  1  0.274547  0.157100  0.435079  1
  Cu  Cu1  1  0.378485  0.674857  0.841020  1
  S  S2  1  0.574288  0.171770  0.637786  1
  Br  Br3  1  0.579620  0.662044  0.137998  1
