# generated using pymatgen
data_Np2Si3Ni3GeIr
_symmetry_space_group_name_H-M   'P 1'
_cell_length_a   4.02329800
_cell_length_b   4.02329800
_cell_length_c   9.62850100
_cell_angle_alpha   90.00000000
_cell_angle_beta   90.00000000
_cell_angle_gamma   90.00000000
_symmetry_Int_Tables_number   1
_chemical_formula_structural   Np2Si3Ni3GeIr
_chemical_formula_sum   'Np2 Si3 Ni3 Ge1 Ir1'
_cell_volume   155.85584085
_cell_formula_units_Z   1
loop_
 _symmetry_equiv_pos_site_id
 _symmetry_equiv_pos_as_xyz
  1  'x, y, z'
loop_
 _atom_site_type_symbol
 _atom_site_label
 _atom_site_symmetry_multiplicity
 _atom_site_fract_x
 _atom_site_fract_y
 _atom_site_fract_z
 _atom_site_occupancy
  Np  Np0  1  0.000000  0.500000  0.254533  1
  Np  Np1  1  0.500000  0.000000  0.745467  1
  Si  Si2  1  0.500000  0.500000  0.500000  1
  Si  Si3  1  0.000000  0.500000  0.861743  1
  Si  Si4  1  0.500000  0.000000  0.138257  1
  Ni  Ni5  1  0.500000  0.500000  0.000000  1
  Ni  Ni6  1  0.000000  0.500000  0.625363  1
  Ni  Ni7  1  0.500000  0.000000  0.374637  1
  Ge  Ge8  1  0.000000  0.000000  0.500000  1
  Ir  Ir9  1  0.000000  0.000000  0.000000  1
