# generated using pymatgen
data_Tb2Er3Ru2
_symmetry_space_group_name_H-M   'P 1'
_cell_length_a   6.31528728
_cell_length_b   7.27284563
_cell_length_c   8.43046672
_cell_angle_alpha   96.72742261
_cell_angle_beta   111.99658717
_cell_angle_gamma   90.00000032
_symmetry_Int_Tables_number   1
_chemical_formula_structural   Tb2Er3Ru2
_chemical_formula_sum   'Tb4 Er6 Ru4'
_cell_volume   356.14858208
_cell_formula_units_Z   2
loop_
 _symmetry_equiv_pos_site_id
 _symmetry_equiv_pos_as_xyz
  1  'x, y, z'
loop_
 _atom_site_type_symbol
 _atom_site_label
 _atom_site_symmetry_multiplicity
 _atom_site_fract_x
 _atom_site_fract_y
 _atom_site_fract_z
 _atom_site_occupancy
  Tb  Tb0  1  0.790275  0.584108  0.812963  1
  Tb  Tb1  1  0.977312  0.915892  0.187037  1
  Tb  Tb2  1  0.209725  0.415892  0.187037  1
  Tb  Tb3  1  0.022688  0.084108  0.812963  1
  Er  Er4  1  0.205617  0.685030  0.565277  1
  Er  Er5  1  0.640339  0.814970  0.434723  1
  Er  Er6  1  0.794383  0.314970  0.434723  1
  Er  Er7  1  0.359661  0.185030  0.565277  1
  Er  Er8  1  0.418837  0.750000  0.000000  1
  Er  Er9  1  0.581163  0.250000  0.000000  1
  Ru  Ru10  1  0.601286  0.923981  0.779402  1
  Ru  Ru11  1  0.821884  0.576019  0.220598  1
  Ru  Ru12  1  0.398714  0.076019  0.220598  1
  Ru  Ru13  1  0.178116  0.423981  0.779402  1
