# generated using pymatgen
data_Pr5NdAl24(Ir3Os)2
_symmetry_space_group_name_H-M   'P 1'
_cell_length_a   8.93710903
_cell_length_b   8.93710914
_cell_length_c   9.64330600
_cell_angle_alpha   90.00005296
_cell_angle_beta   89.99995059
_cell_angle_gamma   120.00923855
_symmetry_Int_Tables_number   1
_chemical_formula_structural   Pr5NdAl24(Ir3Os)2
_chemical_formula_sum   'Pr5 Nd1 Al24 Ir6 Os2'
_cell_volume   666.97608103
_cell_formula_units_Z   1
loop_
 _symmetry_equiv_pos_site_id
 _symmetry_equiv_pos_as_xyz
  1  'x, y, z'
loop_
 _atom_site_type_symbol
 _atom_site_label
 _atom_site_symmetry_multiplicity
 _atom_site_fract_x
 _atom_site_fract_y
 _atom_site_fract_z
 _atom_site_occupancy
  Pr  Pr0  1  0.190744  0.381474  0.250000  1
  Pr  Pr1  1  0.809238  0.618431  0.750000  1
  Pr  Pr2  1  0.618526  0.809256  0.250000  1
  Pr  Pr3  1  0.381569  0.190762  0.750000  1
  Pr  Pr4  1  0.190731  0.809269  0.250000  1
  Nd  Nd5  1  0.809238  0.190762  0.750000  1
  Al  Al6  1  0.333334  0.666666  0.013227  1
  Al  Al7  1  0.666724  0.333276  0.986658  1
  Al  Al8  1  0.666724  0.333276  0.513342  1
  Al  Al9  1  0.333335  0.666665  0.486773  1
  Al  Al10  1  0.163111  0.326396  0.575186  1
  Al  Al11  1  0.836784  0.673568  0.424863  1
  Al  Al12  1  0.673604  0.836889  0.575186  1
  Al  Al13  1  0.836784  0.673567  0.075138  1
  Al  Al14  1  0.326432  0.163216  0.424863  1
  Al  Al15  1  0.163111  0.326397  0.924813  1
  Al  Al16  1  0.163211  0.836789  0.575148  1
  Al  Al17  1  0.326433  0.163216  0.075138  1
  Al  Al18  1  0.836780  0.163220  0.424967  1
  Al  Al19  1  0.673603  0.836889  0.924813  1
  Al  Al20  1  0.836779  0.163221  0.075034  1
  Al  Al21  1  0.163212  0.836788  0.924851  1
  Al  Al22  1  0.563091  0.126181  0.250001  1
  Al  Al23  1  0.437085  0.873971  0.749999  1
  Al  Al24  1  0.873819  0.436909  0.250001  1
  Al  Al25  1  0.126029  0.562915  0.749999  1
  Al  Al26  1  0.563089  0.436911  0.250001  1
  Al  Al27  1  0.436907  0.563093  0.749999  1
  Al  Al28  1  0.000002  0.999998  0.250003  1
  Al  Al29  1  0.999910  0.000090  0.749997  1
  Ir  Ir30  1  0.500092  0.000050  0.999931  1
  Ir  Ir31  1  0.999950  0.499908  0.999931  1
  Ir  Ir32  1  0.500092  0.000050  0.500069  1
  Ir  Ir33  1  0.500010  0.499990  0.999990  1
  Ir  Ir34  1  0.999950  0.499908  0.500069  1
  Ir  Ir35  1  0.500010  0.499990  0.500010  1
  Os  Os36  1  0.999979  0.000021  0.999969  1
  Os  Os37  1  0.999979  0.000021  0.500031  1
