# generated using pymatgen
data_CaErTa2(B6Os)2
_symmetry_space_group_name_H-M   'P 1'
_cell_length_a   3.49901200
_cell_length_b   8.96250767
_cell_length_c   11.28253919
_cell_angle_alpha   90.00711785
_cell_angle_beta   90.00000000
_cell_angle_gamma   90.00000000
_symmetry_Int_Tables_number   1
_chemical_formula_structural   CaErTa2(B6Os)2
_chemical_formula_sum   'Ca2 Er2 Ta4 B24 Os4'
_cell_volume   353.81954504
_cell_formula_units_Z   2
loop_
 _symmetry_equiv_pos_site_id
 _symmetry_equiv_pos_as_xyz
  1  'x, y, z'
loop_
 _atom_site_type_symbol
 _atom_site_label
 _atom_site_symmetry_multiplicity
 _atom_site_fract_x
 _atom_site_fract_y
 _atom_site_fract_z
 _atom_site_occupancy
  Ca  Ca0  1  0.000000  0.323933  0.413963  1
  Ca  Ca1  1  0.000000  0.676067  0.586037  1
  Er  Er2  1  0.000000  0.823683  0.086051  1
  Er  Er3  1  0.000000  0.176317  0.913949  1
  Ta  Ta4  1  0.000000  0.947062  0.376921  1
  Ta  Ta5  1  0.000000  0.052938  0.623079  1
  Ta  Ta6  1  0.000000  0.448426  0.121606  1
  Ta  Ta7  1  0.000000  0.551574  0.878394  1
  B  B8  1  0.500000  0.555574  0.433035  1
  B  B9  1  0.500000  0.444426  0.566965  1
  B  B10  1  0.500000  0.055505  0.065615  1
  B  B11  1  0.500000  0.944495  0.934385  1
  B  B12  1  0.500000  0.754128  0.418391  1
  B  B13  1  0.500000  0.245872  0.581609  1
  B  B14  1  0.500000  0.254597  0.081024  1
  B  B15  1  0.500000  0.745403  0.918976  1
  B  B16  1  0.500000  0.798876  0.261984  1
  B  B17  1  0.500000  0.201124  0.738015  1
  B  B18  1  0.500000  0.298612  0.236976  1
  B  B19  1  0.500000  0.701388  0.763025  1
  B  B20  1  0.500000  0.630593  0.180532  1
  B  B21  1  0.500000  0.369407  0.819468  1
  B  B22  1  0.500000  0.130779  0.318757  1
  B  B23  1  0.500000  0.869221  0.681243  1
  B  B24  1  0.500000  0.982396  0.213366  1
  B  B25  1  0.500000  0.017604  0.786634  1
  B  B26  1  0.500000  0.482415  0.286421  1
  B  B27  1  0.500000  0.517585  0.713579  1
  B  B28  1  0.500000  0.600866  0.026813  1
  B  B29  1  0.500000  0.399134  0.973187  1
  B  B30  1  0.500000  0.099851  0.473476  1
  B  B31  1  0.500000  0.900149  0.526524  1
  Os  Os32  1  0.000000  0.645913  0.316639  1
  Os  Os33  1  0.000000  0.354087  0.683361  1
  Os  Os34  1  0.000000  0.144451  0.181638  1
  Os  Os35  1  0.000000  0.855549  0.818362  1
