# generated using pymatgen
data_La5Nd(PtI3)2
_symmetry_space_group_name_H-M   'P 1'
_cell_length_a   11.02412495
_cell_length_b   11.02412523
_cell_length_c   11.04810232
_cell_angle_alpha   109.72237492
_cell_angle_beta   109.47710714
_cell_angle_gamma   109.12606438
_symmetry_Int_Tables_number   1
_chemical_formula_structural   La5Nd(PtI3)2
_chemical_formula_sum   'La10 Nd2 Pt4 I12'
_cell_volume   1034.70496173
_cell_formula_units_Z   2
loop_
 _symmetry_equiv_pos_site_id
 _symmetry_equiv_pos_as_xyz
  1  'x, y, z'
loop_
 _atom_site_type_symbol
 _atom_site_label
 _atom_site_symmetry_multiplicity
 _atom_site_fract_x
 _atom_site_fract_y
 _atom_site_fract_z
 _atom_site_occupancy
  La  La0  1  0.746424  0.019234  0.476649  1
  La  La1  1  0.232495  0.463646  0.482175  1
  La  La2  1  0.267756  0.743691  0.226503  1
  La  La3  1  0.042587  0.269776  0.023351  1
  La  La4  1  0.017188  0.041254  0.273497  1
  La  La5  1  0.481472  0.750320  0.017825  1
  La  La6  1  0.478927  0.231606  0.460346  1
  La  La7  1  0.015434  0.477296  0.742658  1
  La  La8  1  0.271259  0.018580  0.039654  1
  La  La9  1  0.234638  0.272776  0.757342  1
  Nd  Nd10  1  0.461405  0.479307  0.230882  1
  Nd  Nd11  1  0.748425  0.230524  0.269118  1
  Pt  Pt12  1  0.251239  0.250312  0.251454  1
  Pt  Pt13  1  0.498857  0.999784  0.248546  1
  Pt  Pt14  1  0.001316  0.251736  0.500900  1
  Pt  Pt15  1  0.250836  0.500416  0.999100  1
  I  I16  1  0.249312  0.759642  0.739364  1
  I  I17  1  0.520278  0.509949  0.760636  1
  I  I18  1  0.982309  0.741128  0.991127  1
  I  I19  1  0.741366  0.250344  0.759026  1
  I  I20  1  0.991318  0.982340  0.740974  1
  I  I21  1  0.250001  0.991182  0.508873  1
  I  I22  1  0.755882  0.516561  0.502786  1
  I  I23  1  0.513775  0.253096  0.997214  1
  I  I24  1  0.755869  0.737741  0.249743  1
  I  I25  1  0.740682  0.994703  0.983753  1
  I  I26  1  0.987998  0.506126  0.250257  1
  I  I27  1  0.510950  0.756930  0.516247  1
