# generated using pymatgen
data_Pr4CrFe2CoO12
_symmetry_space_group_name_H-M   'P 1'
_cell_length_a   5.49122007
_cell_length_b   5.60901576
_cell_length_c   7.81580928
_cell_angle_alpha   90.21260799
_cell_angle_beta   90.10896117
_cell_angle_gamma   90.08407119
_symmetry_Int_Tables_number   1
_chemical_formula_structural   Pr4CrFe2CoO12
_chemical_formula_sum   'Pr4 Cr1 Fe2 Co1 O12'
_cell_volume   240.72722819
_cell_formula_units_Z   1
loop_
 _symmetry_equiv_pos_site_id
 _symmetry_equiv_pos_as_xyz
  1  'x, y, z'
loop_
 _atom_site_type_symbol
 _atom_site_label
 _atom_site_symmetry_multiplicity
 _atom_site_fract_x
 _atom_site_fract_y
 _atom_site_fract_z
 _atom_site_occupancy
  Pr  Pr0  1  0.009720  0.949892  0.747466  1
  Pr  Pr1  1  0.513051  0.546891  0.252255  1
  Pr  Pr2  1  0.486949  0.453109  0.747745  1
  Pr  Pr3  1  0.990280  0.050108  0.252534  1
  Cr  Cr4  1  0.500000  0.000000  0.000000  1
  Fe  Fe5  1  0.500000  0.000000  0.500000  1
  Fe  Fe6  1  0.000000  0.500000  0.000000  1
  Co  Co7  1  0.000000  0.500000  0.500000  1
  O  O8  1  0.716348  0.292036  0.456730  1
  O  O9  1  0.206722  0.215583  0.543027  1
  O  O10  1  0.792027  0.791128  0.042963  1
  O  O11  1  0.291617  0.708915  0.956235  1
  O  O12  1  0.283652  0.707964  0.543270  1
  O  O13  1  0.793278  0.784417  0.456973  1
  O  O14  1  0.207973  0.208872  0.957037  1
  O  O15  1  0.708383  0.291085  0.043765  1
  O  O16  1  0.082557  0.480946  0.255253  1
  O  O17  1  0.578841  0.018826  0.749124  1
  O  O18  1  0.421159  0.981174  0.250876  1
  O  O19  1  0.917443  0.519054  0.744747  1
