# generated using pymatgen
data_Tm5ReRuC7
_symmetry_space_group_name_H-M   'P 1'
_cell_length_a   8.14870432
_cell_length_b   8.14870470
_cell_length_c   3.41575800
_cell_angle_alpha   90.00000000
_cell_angle_beta   90.00000000
_cell_angle_gamma   121.78812925
_symmetry_Int_Tables_number   1
_chemical_formula_structural   Tm5ReRuC7
_chemical_formula_sum   'Tm5 Re1 Ru1 C7'
_cell_volume   192.78982313
_cell_formula_units_Z   1
loop_
 _symmetry_equiv_pos_site_id
 _symmetry_equiv_pos_as_xyz
  1  'x, y, z'
loop_
 _atom_site_type_symbol
 _atom_site_label
 _atom_site_symmetry_multiplicity
 _atom_site_fract_x
 _atom_site_fract_y
 _atom_site_fract_z
 _atom_site_occupancy
  Tm  Tm0  1  0.500783  0.499217  0.000000  1
  Tm  Tm1  1  0.076710  0.336659  0.500000  1
  Tm  Tm2  1  0.920525  0.659998  0.500000  1
  Tm  Tm3  1  0.663341  0.923290  0.500000  1
  Tm  Tm4  1  0.340002  0.079475  0.500000  1
  Re  Re5  1  0.284928  0.715072  0.000000  1
  Ru  Ru6  1  0.712985  0.287015  0.000000  1
  C  C7  1  0.626575  0.373425  0.500000  1
  C  C8  1  0.376010  0.623990  0.500000  1
  C  C9  1  0.999347  0.000653  0.000000  1
  C  C10  1  0.171226  0.171245  0.000000  1
  C  C11  1  0.828755  0.828774  0.000000  1
  C  C12  1  0.001305  0.502491  0.000000  1
  C  C13  1  0.497509  0.998695  0.000000  1
