# generated using pymatgen
data_CaYbHo2(NiB4)4
_symmetry_space_group_name_H-M   'P 1'
_cell_length_a   6.83166288
_cell_length_b   6.83166243
_cell_length_c   6.83166344
_cell_angle_alpha   112.87773385
_cell_angle_beta   112.87773297
_cell_angle_gamma   102.85404165
_symmetry_Int_Tables_number   1
_chemical_formula_structural   CaYbHo2(NiB4)4
_chemical_formula_sum   'Ca1 Yb1 Ho2 Ni4 B16'
_cell_volume   243.03058578
_cell_formula_units_Z   1
loop_
 _symmetry_equiv_pos_site_id
 _symmetry_equiv_pos_as_xyz
  1  'x, y, z'
loop_
 _atom_site_type_symbol
 _atom_site_label
 _atom_site_symmetry_multiplicity
 _atom_site_fract_x
 _atom_site_fract_y
 _atom_site_fract_z
 _atom_site_occupancy
  Ca  Ca0  1  0.798035  0.798035  0.000000  1
  Yb  Yb1  1  0.205306  0.205306  0.000000  1
  Ho  Ho2  1  0.749553  0.249553  0.500000  1
  Ho  Ho3  1  0.249553  0.749553  0.500000  1
  Ni  Ni4  1  0.271255  0.498714  0.772541  1
  Ni  Ni5  1  0.726173  0.498714  0.227459  1
  Ni  Ni6  1  0.498714  0.726173  0.227459  1
  Ni  Ni7  1  0.498714  0.271255  0.772541  1
  B  B8  1  0.276828  0.112552  0.388804  1
  B  B9  1  0.723748  0.888024  0.611196  1
  B  B10  1  0.276828  0.888024  0.164277  1
  B  B11  1  0.723748  0.112552  0.835723  1
  B  B12  1  0.112552  0.723748  0.835723  1
  B  B13  1  0.888024  0.276828  0.164277  1
  B  B14  1  0.112552  0.276828  0.388804  1
  B  B15  1  0.888024  0.723748  0.611196  1
  B  B16  1  0.113467  0.113467  0.530658  1
  B  B17  1  0.582808  0.582808  0.469342  1
  B  B18  1  0.113467  0.582808  0.000000  1
  B  B19  1  0.582808  0.113467  0.000000  1
  B  B20  1  0.887290  0.887290  0.470658  1
  B  B21  1  0.416633  0.416633  0.529342  1
  B  B22  1  0.887290  0.416633  0.000000  1
  B  B23  1  0.416633  0.887290  0.000000  1
