# generated using pymatgen
data_Er2ScTi2(Co2Si5)2
_symmetry_space_group_name_H-M   'P 1'
_cell_length_a   11.97514100
_cell_length_b   11.97514100
_cell_length_c   3.91836200
_cell_angle_alpha   90.00000000
_cell_angle_beta   90.00000000
_cell_angle_gamma   90.00000000
_symmetry_Int_Tables_number   1
_chemical_formula_structural   Er2ScTi2(Co2Si5)2
_chemical_formula_sum   'Er4 Sc2 Ti4 Co8 Si20'
_cell_volume   561.90879197
_cell_formula_units_Z   2
loop_
 _symmetry_equiv_pos_site_id
 _symmetry_equiv_pos_as_xyz
  1  'x, y, z'
loop_
 _atom_site_type_symbol
 _atom_site_label
 _atom_site_symmetry_multiplicity
 _atom_site_fract_x
 _atom_site_fract_y
 _atom_site_fract_z
 _atom_site_occupancy
  Er  Er0  1  0.885553  0.385553  0.500000  1
  Er  Er1  1  0.385553  0.114447  0.500000  1
  Er  Er2  1  0.614447  0.885553  0.500000  1
  Er  Er3  1  0.114447  0.614447  0.500000  1
  Sc  Sc4  1  0.000000  0.000000  0.000000  1
  Sc  Sc5  1  0.500000  0.500000  0.000000  1
  Ti  Ti6  1  0.674631  0.174631  0.500000  1
  Ti  Ti7  1  0.174631  0.325369  0.500000  1
  Ti  Ti8  1  0.825369  0.674631  0.500000  1
  Ti  Ti9  1  0.325369  0.825369  0.500000  1
  Co  Co10  1  0.522600  0.254893  0.000000  1
  Co  Co11  1  0.254893  0.477400  0.000000  1
  Co  Co12  1  0.745107  0.522600  0.000000  1
  Co  Co13  1  0.477400  0.745107  0.000000  1
  Co  Co14  1  0.977400  0.754893  0.000000  1
  Co  Co15  1  0.022600  0.245107  0.000000  1
  Co  Co16  1  0.754893  0.022600  0.000000  1
  Co  Co17  1  0.245107  0.977400  0.000000  1
  Si  Si18  1  0.570965  0.070965  0.000000  1
  Si  Si19  1  0.070965  0.429035  0.000000  1
  Si  Si20  1  0.929035  0.570965  0.000000  1
  Si  Si21  1  0.429035  0.929035  0.000000  1
  Si  Si22  1  0.194516  0.160682  0.000000  1
  Si  Si23  1  0.160682  0.805484  0.000000  1
  Si  Si24  1  0.839318  0.194516  0.000000  1
  Si  Si25  1  0.805484  0.839318  0.000000  1
  Si  Si26  1  0.305484  0.660682  0.000000  1
  Si  Si27  1  0.694516  0.339318  0.000000  1
  Si  Si28  1  0.660682  0.694516  0.000000  1
  Si  Si29  1  0.339318  0.305484  0.000000  1
  Si  Si30  1  0.013625  0.162498  0.500000  1
  Si  Si31  1  0.162498  0.986375  0.500000  1
  Si  Si32  1  0.837502  0.013625  0.500000  1
  Si  Si33  1  0.986375  0.837502  0.500000  1
  Si  Si34  1  0.486375  0.662498  0.500000  1
  Si  Si35  1  0.513625  0.337502  0.500000  1
  Si  Si36  1  0.662498  0.513625  0.500000  1
  Si  Si37  1  0.337502  0.486375  0.500000  1
