# generated using pymatgen
data_CaCe2(GaRh2)3
_symmetry_space_group_name_H-M   'P 1'
_cell_length_a   5.57646000
_cell_length_b   5.57646085
_cell_length_c   15.51697700
_cell_angle_alpha   90.00000000
_cell_angle_beta   90.00000000
_cell_angle_gamma   119.99999498
_symmetry_Int_Tables_number   1
_chemical_formula_structural   CaCe2(GaRh2)3
_chemical_formula_sum   'Ca2 Ce4 Ga6 Rh12'
_cell_volume   417.88330288
_cell_formula_units_Z   2
loop_
 _symmetry_equiv_pos_site_id
 _symmetry_equiv_pos_as_xyz
  1  'x, y, z'
loop_
 _atom_site_type_symbol
 _atom_site_label
 _atom_site_symmetry_multiplicity
 _atom_site_fract_x
 _atom_site_fract_y
 _atom_site_fract_z
 _atom_site_occupancy
  Ca  Ca0  1  0.333336  0.666671  0.750000  1
  Ca  Ca1  1  0.666664  0.333329  0.250000  1
  Ce  Ce2  1  0.333349  0.666687  0.542012  1
  Ce  Ce3  1  0.666651  0.333313  0.457988  1
  Ce  Ce4  1  0.666651  0.333313  0.042012  1
  Ce  Ce5  1  0.333349  0.666687  0.957988  1
  Ga  Ga6  1  0.999990  0.999972  0.250000  1
  Ga  Ga7  1  0.000010  0.000028  0.750000  1
  Ga  Ga8  1  0.333368  0.666705  0.250000  1
  Ga  Ga9  1  0.666632  0.333295  0.750000  1
  Ga  Ga10  1  0.000000  0.000000  0.000000  1
  Ga  Ga11  1  0.000000  0.000000  0.500000  1
  Rh  Rh12  1  0.168608  0.337219  0.123992  1
  Rh  Rh13  1  0.831392  0.662781  0.876008  1
  Rh  Rh14  1  0.662837  0.831420  0.123985  1
  Rh  Rh15  1  0.831392  0.662781  0.623992  1
  Rh  Rh16  1  0.337163  0.168580  0.876015  1
  Rh  Rh17  1  0.168608  0.337219  0.376008  1
  Rh  Rh18  1  0.168589  0.831407  0.123981  1
  Rh  Rh19  1  0.337163  0.168580  0.623985  1
  Rh  Rh20  1  0.831411  0.168593  0.876019  1
  Rh  Rh21  1  0.662837  0.831420  0.376015  1
  Rh  Rh22  1  0.831411  0.168593  0.623981  1
  Rh  Rh23  1  0.168589  0.831407  0.376019  1
