# generated using pymatgen
data_Cs8Zr6CBr20
_symmetry_space_group_name_H-M   'P 1'
_cell_length_a   12.44204521
_cell_length_b   12.44204590
_cell_length_c   12.44204500
_cell_angle_alpha   59.99999973
_cell_angle_beta   59.99999790
_cell_angle_gamma   60.00000043
_symmetry_Int_Tables_number   1
_chemical_formula_structural   Cs8Zr6CBr20
_chemical_formula_sum   'Cs8 Zr6 C1 Br20'
_cell_volume   1361.94740870
_cell_formula_units_Z   1
loop_
 _symmetry_equiv_pos_site_id
 _symmetry_equiv_pos_as_xyz
  1  'x, y, z'
loop_
 _atom_site_type_symbol
 _atom_site_label
 _atom_site_symmetry_multiplicity
 _atom_site_fract_x
 _atom_site_fract_y
 _atom_site_fract_z
 _atom_site_occupancy
  Cs  Cs0  1  0.360586  0.360586  0.360586  1
  Cs  Cs1  1  0.639414  0.639414  0.639414  1
  Cs  Cs2  1  0.360586  0.360586  0.918243  1
  Cs  Cs3  1  0.360586  0.918243  0.360586  1
  Cs  Cs4  1  0.639414  0.639414  0.081757  1
  Cs  Cs5  1  0.639414  0.081757  0.639414  1
  Cs  Cs6  1  0.918243  0.360586  0.360586  1
  Cs  Cs7  1  0.081757  0.639414  0.639414  1
  Zr  Zr8  1  0.870232  0.129768  0.129768  1
  Zr  Zr9  1  0.129768  0.870232  0.870232  1
  Zr  Zr10  1  0.129768  0.870232  0.129768  1
  Zr  Zr11  1  0.870232  0.129768  0.870232  1
  Zr  Zr12  1  0.129768  0.129768  0.870232  1
  Zr  Zr13  1  0.870232  0.870232  0.129768  1
  C  C14  1  0.000000  0.000000  0.000000  1
  Br  Br15  1  0.308751  0.000000  0.000000  1
  Br  Br16  1  0.691249  0.000000  0.000000  1
  Br  Br17  1  0.000000  0.308751  0.691249  1
  Br  Br18  1  0.000000  0.691249  0.308751  1
  Br  Br19  1  0.000000  0.308751  0.000000  1
  Br  Br20  1  0.691249  0.000000  0.308751  1
  Br  Br21  1  0.000000  0.691249  0.000000  1
  Br  Br22  1  0.308751  0.000000  0.691249  1
  Br  Br23  1  0.000000  0.000000  0.308751  1
  Br  Br24  1  0.000000  0.000000  0.691249  1
  Br  Br25  1  0.691249  0.308751  0.000000  1
  Br  Br26  1  0.308751  0.691249  0.000000  1
  Br  Br27  1  0.701198  0.298802  0.298802  1
  Br  Br28  1  0.298802  0.701198  0.701198  1
  Br  Br29  1  0.298802  0.701198  0.298802  1
  Br  Br30  1  0.701198  0.298802  0.701198  1
  Br  Br31  1  0.298802  0.298802  0.701198  1
  Br  Br32  1  0.701198  0.701198  0.298802  1
  Br  Br33  1  0.250000  0.250000  0.250000  1
  Br  Br34  1  0.750000  0.750000  0.750000  1
