# generated using pymatgen
data_Tb6Fe7Co10MoP12
_symmetry_space_group_name_H-M   'P 1'
_cell_length_a   3.72873000
_cell_length_b   10.60770200
_cell_length_c   12.14734800
_cell_angle_alpha   90.00000000
_cell_angle_beta   90.00000000
_cell_angle_gamma   90.00000000
_symmetry_Int_Tables_number   1
_chemical_formula_structural   Tb6Fe7Co10MoP12
_chemical_formula_sum   'Tb6 Fe7 Co10 Mo1 P12'
_cell_volume   480.46717341
_cell_formula_units_Z   1
loop_
 _symmetry_equiv_pos_site_id
 _symmetry_equiv_pos_as_xyz
  1  'x, y, z'
loop_
 _atom_site_type_symbol
 _atom_site_label
 _atom_site_symmetry_multiplicity
 _atom_site_fract_x
 _atom_site_fract_y
 _atom_site_fract_z
 _atom_site_occupancy
  Tb  Tb0  1  0.000000  0.500000  0.525655  1
  Tb  Tb1  1  0.500000  0.000000  0.476832  1
  Tb  Tb2  1  0.500000  0.820260  0.203678  1
  Tb  Tb3  1  0.500000  0.179740  0.203678  1
  Tb  Tb4  1  0.000000  0.680499  0.795953  1
  Tb  Tb5  1  0.000000  0.319501  0.795953  1
  Fe  Fe6  1  0.000000  0.000000  0.844894  1
  Fe  Fe7  1  0.000000  0.500000  0.986331  1
  Fe  Fe8  1  0.500000  0.000000  0.009505  1
  Fe  Fe9  1  0.000000  0.167491  0.003909  1
  Fe  Fe10  1  0.000000  0.832509  0.003909  1
  Fe  Fe11  1  0.000000  0.202055  0.571403  1
  Fe  Fe12  1  0.000000  0.797945  0.571403  1
  Co  Co13  1  0.500000  0.500000  0.699579  1
  Co  Co14  1  0.000000  0.000000  0.299034  1
  Co  Co15  1  0.500000  0.331516  0.991039  1
  Co  Co16  1  0.500000  0.668484  0.991039  1
  Co  Co17  1  0.500000  0.295544  0.430959  1
  Co  Co18  1  0.500000  0.704456  0.430959  1
  Co  Co19  1  0.500000  0.881472  0.710977  1
  Co  Co20  1  0.500000  0.118528  0.710977  1
  Co  Co21  1  0.000000  0.621310  0.292823  1
  Co  Co22  1  0.000000  0.378690  0.292823  1
  Mo  Mo23  1  0.500000  0.500000  0.153519  1
  P  P24  1  0.500000  0.500000  0.883688  1
  P  P25  1  0.000000  0.000000  0.112750  1
  P  P26  1  0.500000  0.500000  0.348375  1
  P  P27  1  0.000000  0.000000  0.658353  1
  P  P28  1  0.500000  0.306115  0.616442  1
  P  P29  1  0.500000  0.693885  0.616442  1
  P  P30  1  0.000000  0.190797  0.386171  1
  P  P31  1  0.000000  0.809203  0.386171  1
  P  P32  1  0.500000  0.848042  0.894338  1
  P  P33  1  0.500000  0.151958  0.894338  1
  P  P34  1  0.000000  0.656525  0.103054  1
  P  P35  1  0.000000  0.343475  0.103054  1
