# generated using pymatgen
data_Nd5Tm3(LuSb)12
_symmetry_space_group_name_H-M   'P 1'
_cell_length_a   8.13152779
_cell_length_b   9.18627800
_cell_length_c   11.89365604
_cell_angle_alpha   90.00000000
_cell_angle_beta   90.17694053
_cell_angle_gamma   90.00000000
_symmetry_Int_Tables_number   1
_chemical_formula_structural   Nd5Tm3(LuSb)12
_chemical_formula_sum   'Nd5 Tm3 Lu12 Sb12'
_cell_volume   888.43372990
_cell_formula_units_Z   1
loop_
 _symmetry_equiv_pos_site_id
 _symmetry_equiv_pos_as_xyz
  1  'x, y, z'
loop_
 _atom_site_type_symbol
 _atom_site_label
 _atom_site_symmetry_multiplicity
 _atom_site_fract_x
 _atom_site_fract_y
 _atom_site_fract_z
 _atom_site_occupancy
  Nd  Nd0  1  0.174421  0.750000  0.225227  1
  Nd  Nd1  1  0.674413  0.250000  0.274674  1
  Nd  Nd2  1  0.826062  0.250000  0.774859  1
  Nd  Nd3  1  0.323621  0.750000  0.728103  1
  Nd  Nd4  1  0.662734  0.750000  0.290154  1
  Tm  Tm5  1  0.165569  0.250000  0.210588  1
  Tm  Tm6  1  0.335151  0.250000  0.710263  1
  Tm  Tm7  1  0.834278  0.750000  0.789415  1
  Lu  Lu8  1  0.810963  0.938348  0.063336  1
  Lu  Lu9  1  0.312386  0.062699  0.434216  1
  Lu  Lu10  1  0.189266  0.437680  0.934132  1
  Lu  Lu11  1  0.687606  0.562618  0.567383  1
  Lu  Lu12  1  0.189266  0.062320  0.934132  1
  Lu  Lu13  1  0.687606  0.937382  0.567383  1
  Lu  Lu14  1  0.810963  0.561652  0.063336  1
  Lu  Lu15  1  0.312386  0.437301  0.434216  1
  Lu  Lu16  1  0.526067  0.250000  0.995150  1
  Lu  Lu17  1  0.024367  0.750000  0.504856  1
  Lu  Lu18  1  0.473308  0.750000  0.001435  1
  Lu  Lu19  1  0.975284  0.250000  0.497486  1
  Sb  Sb20  1  0.943562  0.995395  0.330030  1
  Sb  Sb21  1  0.434859  0.010231  0.166499  1
  Sb  Sb22  1  0.062973  0.491476  0.670467  1
  Sb  Sb23  1  0.563257  0.507639  0.830031  1
  Sb  Sb24  1  0.062973  0.008524  0.670467  1
  Sb  Sb25  1  0.563257  0.992361  0.830031  1
  Sb  Sb26  1  0.943562  0.504605  0.330030  1
  Sb  Sb27  1  0.434859  0.489769  0.166499  1
  Sb  Sb28  1  0.906189  0.250000  0.032603  1
  Sb  Sb29  1  0.398589  0.750000  0.472770  1
  Sb  Sb30  1  0.094548  0.750000  0.967049  1
  Sb  Sb31  1  0.595651  0.250000  0.533183  1
