# generated using pymatgen
data_Nd5CoTe2
_symmetry_space_group_name_H-M   'P 1'
_cell_length_a   8.30642900
_cell_length_b   8.67054100
_cell_length_c   12.97578400
_cell_angle_alpha   90.00000000
_cell_angle_beta   90.00000000
_cell_angle_gamma   90.00000000
_symmetry_Int_Tables_number   1
_chemical_formula_structural   Nd5CoTe2
_chemical_formula_sum   'Nd20 Co4 Te8'
_cell_volume   934.53196552
_cell_formula_units_Z   4
loop_
 _symmetry_equiv_pos_site_id
 _symmetry_equiv_pos_as_xyz
  1  'x, y, z'
loop_
 _atom_site_type_symbol
 _atom_site_label
 _atom_site_symmetry_multiplicity
 _atom_site_fract_x
 _atom_site_fract_y
 _atom_site_fract_z
 _atom_site_occupancy
  Nd  Nd0  1  0.852422  0.750000  0.805703  1
  Nd  Nd1  1  0.147578  0.250000  0.194297  1
  Nd  Nd2  1  0.352422  0.250000  0.694297  1
  Nd  Nd3  1  0.647578  0.750000  0.305703  1
  Nd  Nd4  1  0.377080  0.750000  0.693362  1
  Nd  Nd5  1  0.622920  0.250000  0.306638  1
  Nd  Nd6  1  0.877080  0.250000  0.806638  1
  Nd  Nd7  1  0.122920  0.750000  0.193362  1
  Nd  Nd8  1  0.960686  0.750000  0.497603  1
  Nd  Nd9  1  0.039314  0.250000  0.502397  1
  Nd  Nd10  1  0.460686  0.250000  0.002397  1
  Nd  Nd11  1  0.539314  0.750000  0.997603  1
  Nd  Nd12  1  0.682669  0.033634  0.566171  1
  Nd  Nd13  1  0.317331  0.966366  0.433829  1
  Nd  Nd14  1  0.182669  0.966366  0.933829  1
  Nd  Nd15  1  0.317331  0.533634  0.433829  1
  Nd  Nd16  1  0.817331  0.033634  0.066171  1
  Nd  Nd17  1  0.682669  0.466366  0.566171  1
  Nd  Nd18  1  0.817331  0.466366  0.066171  1
  Nd  Nd19  1  0.182669  0.533634  0.933829  1
  Co  Co20  1  0.564034  0.750000  0.512024  1
  Co  Co21  1  0.435966  0.250000  0.487976  1
  Co  Co22  1  0.064034  0.250000  0.987976  1
  Co  Co23  1  0.935966  0.750000  0.012024  1
  Te  Te24  1  0.572058  0.489307  0.822710  1
  Te  Te25  1  0.427942  0.510693  0.177290  1
  Te  Te26  1  0.072058  0.510693  0.677290  1
  Te  Te27  1  0.427942  0.989307  0.177290  1
  Te  Te28  1  0.927942  0.489307  0.322710  1
  Te  Te29  1  0.572058  0.010693  0.822710  1
  Te  Te30  1  0.927942  0.010693  0.322710  1
  Te  Te31  1  0.072058  0.989307  0.677290  1
