# generated using pymatgen
data_Tb16Tl2InRh4Au
_symmetry_space_group_name_H-M   'P 1'
_cell_length_a   9.68069127
_cell_length_b   9.68929110
_cell_length_c   9.68929186
_cell_angle_alpha   59.91589964
_cell_angle_beta   59.88513035
_cell_angle_gamma   59.88513555
_symmetry_Int_Tables_number   1
_chemical_formula_structural   Tb16Tl2InRh4Au
_chemical_formula_sum   'Tb16 Tl2 In1 Rh4 Au1'
_cell_volume   641.12596762
_cell_formula_units_Z   1
loop_
 _symmetry_equiv_pos_site_id
 _symmetry_equiv_pos_as_xyz
  1  'x, y, z'
loop_
 _atom_site_type_symbol
 _atom_site_label
 _atom_site_symmetry_multiplicity
 _atom_site_fract_x
 _atom_site_fract_y
 _atom_site_fract_z
 _atom_site_occupancy
  Tb  Tb0  1  0.810216  0.809023  0.190931  1
  Tb  Tb1  1  0.810216  0.190931  0.809023  1
  Tb  Tb2  1  0.189784  0.189705  0.811689  1
  Tb  Tb3  1  0.648568  0.051852  0.648106  1
  Tb  Tb4  1  0.062051  0.062941  0.438330  1
  Tb  Tb5  1  0.437568  0.437499  0.069825  1
  Tb  Tb6  1  0.650904  0.650357  0.650357  1
  Tb  Tb7  1  0.812046  0.190084  0.190084  1
  Tb  Tb8  1  0.190743  0.809882  0.809882  1
  Tb  Tb9  1  0.051807  0.648301  0.648301  1
  Tb  Tb10  1  0.438661  0.062150  0.062150  1
  Tb  Tb11  1  0.437568  0.069825  0.437499  1
  Tb  Tb12  1  0.062051  0.438330  0.062941  1
  Tb  Tb13  1  0.648568  0.648106  0.051852  1
  Tb  Tb14  1  0.189784  0.811689  0.189705  1
  Tb  Tb15  1  0.069123  0.437285  0.437285  1
  Tl  Tl16  1  0.416300  0.414890  0.751238  1
  Tl  Tl17  1  0.416300  0.751238  0.414890  1
  In  In18  1  0.746707  0.416873  0.416873  1
  Rh  Rh19  1  0.857743  0.426876  0.857756  1
  Rh  Rh20  1  0.857053  0.857062  0.857062  1
  Rh  Rh21  1  0.857743  0.857756  0.426876  1
  Rh  Rh22  1  0.427028  0.857746  0.857746  1
  Au  Au23  1  0.411470  0.409598  0.409598  1
