# generated using pymatgen
data_SrIr4Pb3O13
_symmetry_space_group_name_H-M   'P 1'
_cell_length_a   7.33585200
_cell_length_b   7.33585222
_cell_length_c   7.37954348
_cell_angle_alpha   119.80433863
_cell_angle_beta   90.00000000
_cell_angle_gamma   119.99999903
_symmetry_Int_Tables_number   1
_chemical_formula_structural   SrIr4Pb3O13
_chemical_formula_sum   'Sr1 Ir4 Pb3 O13'
_cell_volume   281.63960046
_cell_formula_units_Z   1
loop_
 _symmetry_equiv_pos_site_id
 _symmetry_equiv_pos_as_xyz
  1  'x, y, z'
loop_
 _atom_site_type_symbol
 _atom_site_label
 _atom_site_symmetry_multiplicity
 _atom_site_fract_x
 _atom_site_fract_y
 _atom_site_fract_z
 _atom_site_occupancy
  Sr  Sr0  1  0.122844  0.245688  0.368532  1
  Ir  Ir1  1  0.624858  0.249717  0.374367  1
  Ir  Ir2  1  0.124650  0.749508  0.374367  1
  Ir  Ir3  1  0.624858  0.749508  0.374367  1
  Ir  Ir4  1  0.624391  0.248780  0.873171  1
  Pb  Pb5  1  0.122603  0.245204  0.874793  1
  Pb  Pb6  1  0.122603  0.752190  0.874793  1
  Pb  Pb7  1  0.629589  0.752190  0.874793  1
  O  O8  1  0.548350  0.096699  0.047360  1
  O  O9  1  0.548350  0.499011  0.047360  1
  O  O10  1  0.950660  0.499011  0.047361  1
  O  O11  1  0.299316  0.997093  0.296410  1
  O  O12  1  0.697777  0.997093  0.296410  1
  O  O13  1  0.299316  0.598632  0.296410  1
  O  O14  1  0.951941  0.504316  0.456254  1
  O  O15  1  0.951941  0.903879  0.456254  1
  O  O16  1  0.552375  0.504316  0.456255  1
  O  O17  1  0.300271  0.999454  0.698637  1
  O  O18  1  0.699183  0.999454  0.698637  1
  O  O19  1  0.699183  0.398366  0.698637  1
  O  O20  1  0.254945  0.509892  0.764837  1
