# generated using pymatgen
data_Dy3Er3Bi2Ru
_symmetry_space_group_name_H-M   'P 1'
_cell_length_a   8.32823800
_cell_length_b   8.32823741
_cell_length_c   4.19409000
_cell_angle_alpha   90.00000000
_cell_angle_beta   90.00000000
_cell_angle_gamma   120.00000233
_symmetry_Int_Tables_number   1
_chemical_formula_structural   Dy3Er3Bi2Ru
_chemical_formula_sum   'Dy3 Er3 Bi2 Ru1'
_cell_volume   251.92692865
_cell_formula_units_Z   1
loop_
 _symmetry_equiv_pos_site_id
 _symmetry_equiv_pos_as_xyz
  1  'x, y, z'
loop_
 _atom_site_type_symbol
 _atom_site_label
 _atom_site_symmetry_multiplicity
 _atom_site_fract_x
 _atom_site_fract_y
 _atom_site_fract_z
 _atom_site_occupancy
  Dy  Dy0  1  0.608997  0.000000  0.000000  1
  Dy  Dy1  1  0.000000  0.608997  0.000000  1
  Dy  Dy2  1  0.391003  0.391003  0.000000  1
  Er  Er3  1  0.232741  0.000000  0.500000  1
  Er  Er4  1  0.000000  0.232741  0.500000  1
  Er  Er5  1  0.767259  0.767259  0.500000  1
  Bi  Bi6  1  0.333333  0.666667  0.500000  1
  Bi  Bi7  1  0.666667  0.333333  0.500000  1
  Ru  Ru8  1  0.000000  0.000000  0.000000  1
