# generated using pymatgen
data_Ti4SiAs2PRh4
_symmetry_space_group_name_H-M   'P 1'
_cell_length_a   3.79853000
_cell_length_b   6.33009822
_cell_length_c   7.38041956
_cell_angle_alpha   89.25156049
_cell_angle_beta   90.00000000
_cell_angle_gamma   90.00000000
_symmetry_Int_Tables_number   1
_chemical_formula_structural   Ti4SiAs2PRh4
_chemical_formula_sum   'Ti4 Si1 As2 P1 Rh4'
_cell_volume   177.44754983
_cell_formula_units_Z   1
loop_
 _symmetry_equiv_pos_site_id
 _symmetry_equiv_pos_as_xyz
  1  'x, y, z'
loop_
 _atom_site_type_symbol
 _atom_site_label
 _atom_site_symmetry_multiplicity
 _atom_site_fract_x
 _atom_site_fract_y
 _atom_site_fract_z
 _atom_site_occupancy
  Ti  Ti0  1  0.750000  0.032979  0.685179  1
  Ti  Ti1  1  0.250000  0.967857  0.316703  1
  Ti  Ti2  1  0.250000  0.469372  0.173704  1
  Ti  Ti3  1  0.750000  0.525807  0.823763  1
  Si  Si4  1  0.750000  0.759875  0.119494  1
  As  As5  1  0.250000  0.748215  0.625539  1
  As  As6  1  0.750000  0.252308  0.374173  1
  P  P7  1  0.250000  0.242193  0.880538  1
  Rh  Rh8  1  0.750000  0.149230  0.052339  1
  Rh  Rh9  1  0.250000  0.855116  0.944837  1
  Rh  Rh10  1  0.250000  0.349949  0.575995  1
  Rh  Rh11  1  0.750000  0.647100  0.427738  1
