# generated using pymatgen
data_Pa5Co16(ReP4)3
_symmetry_space_group_name_H-M   'P 1'
_cell_length_a   12.04646600
_cell_length_b   12.04646586
_cell_length_c   3.75403400
_cell_angle_alpha   90.00000000
_cell_angle_beta   90.00000000
_cell_angle_gamma   119.99999489
_symmetry_Int_Tables_number   1
_chemical_formula_structural   Pa5Co16(ReP4)3
_chemical_formula_sum   'Pa5 Co16 Re3 P12'
_cell_volume   471.78938926
_cell_formula_units_Z   1
loop_
 _symmetry_equiv_pos_site_id
 _symmetry_equiv_pos_as_xyz
  1  'x, y, z'
loop_
 _atom_site_type_symbol
 _atom_site_label
 _atom_site_symmetry_multiplicity
 _atom_site_fract_x
 _atom_site_fract_y
 _atom_site_fract_z
 _atom_site_occupancy
  Pa  Pa0  1  0.666667  0.333333  0.000000  1
  Pa  Pa1  1  0.333333  0.666667  0.000000  1
  Pa  Pa2  1  0.184395  0.184395  0.500000  1
  Pa  Pa3  1  0.815605  0.000000  0.500000  1
  Pa  Pa4  1  0.000000  0.815605  0.500000  1
  Co  Co5  1  0.818527  0.193630  0.000000  1
  Co  Co6  1  0.806370  0.624898  0.000000  1
  Co  Co7  1  0.375102  0.181473  0.000000  1
  Co  Co8  1  0.193630  0.818527  0.000000  1
  Co  Co9  1  0.624898  0.806370  0.000000  1
  Co  Co10  1  0.181473  0.375102  0.000000  1
  Co  Co11  1  0.640016  0.126207  0.500000  1
  Co  Co12  1  0.873793  0.513810  0.500000  1
  Co  Co13  1  0.486190  0.359984  0.500000  1
  Co  Co14  1  0.126207  0.640016  0.500000  1
  Co  Co15  1  0.513810  0.873793  0.500000  1
  Co  Co16  1  0.359984  0.486190  0.500000  1
  Co  Co17  1  0.719699  0.719699  0.500000  1
  Co  Co18  1  0.280301  0.000000  0.500000  1
  Co  Co19  1  0.000000  0.280301  0.500000  1
  Co  Co20  1  0.000000  0.000000  0.000000  1
  Re  Re21  1  0.556914  0.556914  0.000000  1
  Re  Re22  1  0.443086  0.000000  0.000000  1
  Re  Re23  1  0.000000  0.443086  0.000000  1
  P  P24  1  0.366609  0.366609  0.000000  1
  P  P25  1  0.633391  0.000000  0.000000  1
  P  P26  1  0.000000  0.633391  0.000000  1
  P  P27  1  0.835985  0.312677  0.500000  1
  P  P28  1  0.687323  0.523308  0.500000  1
  P  P29  1  0.476692  0.164015  0.500000  1
  P  P30  1  0.312677  0.835985  0.500000  1
  P  P31  1  0.523308  0.687323  0.500000  1
  P  P32  1  0.164015  0.476692  0.500000  1
  P  P33  1  0.820045  0.820045  0.000000  1
  P  P34  1  0.179955  0.000000  0.000000  1
  P  P35  1  0.000000  0.179955  0.000000  1
