# generated using pymatgen
data_Na6CuAuSe26
_symmetry_space_group_name_H-M   'P 1'
_cell_length_a   4.55905960
_cell_length_b   13.83501349
_cell_length_c   14.90226509
_cell_angle_alpha   87.72506501
_cell_angle_beta   89.49249288
_cell_angle_gamma   90.43687717
_symmetry_Int_Tables_number   1
_chemical_formula_structural   Na6CuAuSe26
_chemical_formula_sum   'Na6 Cu1 Au1 Se26'
_cell_volume   939.14757802
_cell_formula_units_Z   1
loop_
 _symmetry_equiv_pos_site_id
 _symmetry_equiv_pos_as_xyz
  1  'x, y, z'
loop_
 _atom_site_type_symbol
 _atom_site_label
 _atom_site_symmetry_multiplicity
 _atom_site_fract_x
 _atom_site_fract_y
 _atom_site_fract_z
 _atom_site_occupancy
  Na  Na0  1  0.108381  0.181358  0.738574  1
  Na  Na1  1  0.123339  0.330963  0.263976  1
  Na  Na2  1  0.091199  0.249669  0.003053  1
  Na  Na3  1  0.908801  0.750331  0.996947  1
  Na  Na4  1  0.891619  0.818642  0.261426  1
  Na  Na5  1  0.876661  0.669037  0.736024  1
  Cu  Cu6  1  0.000000  0.500000  0.500000  1
  Au  Au7  1  0.000000  0.000000  0.500000  1
  Se  Se8  1  0.304245  0.562242  0.615033  1
  Se  Se9  1  0.625939  0.564696  0.272531  1
  Se  Se10  1  0.366794  0.062715  0.265740  1
  Se  Se11  1  0.374061  0.435304  0.727469  1
  Se  Se12  1  0.948078  0.519475  0.152832  1
  Se  Se13  1  0.952719  0.987999  0.850695  1
  Se  Se14  1  0.051922  0.480525  0.847168  1
  Se  Se15  1  0.047281  0.012001  0.149305  1
  Se  Se16  1  0.660334  0.416140  0.062771  1
  Se  Se17  1  0.633206  0.937285  0.734260  1
  Se  Se18  1  0.339666  0.583860  0.937229  1
  Se  Se19  1  0.346721  0.912850  0.058505  1
  Se  Se20  1  0.604939  0.266577  0.146763  1
  Se  Se21  1  0.590142  0.237087  0.859672  1
  Se  Se22  1  0.395061  0.733423  0.853237  1
  Se  Se23  1  0.409858  0.762913  0.140328  1
  Se  Se24  1  0.062527  0.649399  0.415571  1
  Se  Se25  1  0.072590  0.844364  0.592640  1
  Se  Se26  1  0.937473  0.350601  0.584429  1
  Se  Se27  1  0.927410  0.155636  0.407360  1
  Se  Se28  1  0.617843  0.251241  0.499709  1
  Se  Se29  1  0.382157  0.748759  0.500291  1
  Se  Se30  1  0.695755  0.437758  0.384967  1
  Se  Se31  1  0.685006  0.068078  0.624012  1
  Se  Se32  1  0.653279  0.087150  0.941495  1
  Se  Se33  1  0.314994  0.931922  0.375988  1
