# generated using pymatgen
data_Nd2Ho4NiCl10
_symmetry_space_group_name_H-M   'P 1'
_cell_length_a   7.09365532
_cell_length_b   8.87338264
_cell_length_c   9.09872923
_cell_angle_alpha   108.19240444
_cell_angle_beta   95.63701265
_cell_angle_gamma   106.86642032
_symmetry_Int_Tables_number   1
_chemical_formula_structural   Nd2Ho4NiCl10
_chemical_formula_sum   'Nd2 Ho4 Ni1 Cl10'
_cell_volume   509.33174098
_cell_formula_units_Z   1
loop_
 _symmetry_equiv_pos_site_id
 _symmetry_equiv_pos_as_xyz
  1  'x, y, z'
loop_
 _atom_site_type_symbol
 _atom_site_label
 _atom_site_symmetry_multiplicity
 _atom_site_fract_x
 _atom_site_fract_y
 _atom_site_fract_z
 _atom_site_occupancy
  Nd  Nd0  1  0.138362  0.054224  0.751117  1
  Nd  Nd1  1  0.861638  0.945776  0.248883  1
  Ho  Ho2  1  0.972684  0.301324  0.095982  1
  Ho  Ho3  1  0.027316  0.698676  0.904018  1
  Ho  Ho4  1  0.361272  0.139030  0.177540  1
  Ho  Ho5  1  0.638728  0.860970  0.822460  1
  Ni  Ni6  1  0.000000  0.000000  0.000000  1
  Cl  Cl7  1  0.557283  0.172817  0.925081  1
  Cl  Cl8  1  0.442717  0.827183  0.074919  1
  Cl  Cl9  1  0.347982  0.448631  0.264899  1
  Cl  Cl10  1  0.652018  0.551369  0.735101  1
  Cl  Cl11  1  0.257137  0.081726  0.440429  1
  Cl  Cl12  1  0.742863  0.918274  0.559571  1
  Cl  Cl13  1  0.777853  0.258119  0.332766  1
  Cl  Cl14  1  0.222147  0.741881  0.667234  1
  Cl  Cl15  1  0.080122  0.376520  0.839234  1
  Cl  Cl16  1  0.919878  0.623480  0.160766  1
