# generated using pymatgen
data_CeU(PO5)2
_symmetry_space_group_name_H-M   'P 1'
_cell_length_a   5.56122730
_cell_length_b   8.92387168
_cell_length_c   9.33831620
_cell_angle_alpha   101.87707644
_cell_angle_beta   103.34781268
_cell_angle_gamma   98.26009147
_symmetry_Int_Tables_number   1
_chemical_formula_structural   CeU(PO5)2
_chemical_formula_sum   'Ce2 U2 P4 O20'
_cell_volume   432.27983653
_cell_formula_units_Z   2
loop_
 _symmetry_equiv_pos_site_id
 _symmetry_equiv_pos_as_xyz
  1  'x, y, z'
loop_
 _atom_site_type_symbol
 _atom_site_label
 _atom_site_symmetry_multiplicity
 _atom_site_fract_x
 _atom_site_fract_y
 _atom_site_fract_z
 _atom_site_occupancy
  Ce  Ce0  1  0.353433  0.297395  0.048559  1
  Ce  Ce1  1  0.646567  0.702605  0.951441  1
  U  U2  1  0.337362  0.802759  0.553017  1
  U  U3  1  0.662638  0.197241  0.446983  1
  P  P4  1  0.090956  0.515408  0.762730  1
  P  P5  1  0.909044  0.484592  0.237270  1
  P  P6  1  0.280225  0.921335  0.179005  1
  P  P7  1  0.719775  0.078665  0.820995  1
  O  O8  1  0.003561  0.141018  0.893797  1
  O  O9  1  0.996439  0.858982  0.106203  1
  O  O10  1  0.975403  0.375224  0.627644  1
  O  O11  1  0.024597  0.624776  0.372356  1
  O  O12  1  0.726359  0.356469  0.273580  1
  O  O13  1  0.273641  0.643531  0.726420  1
  O  O14  1  0.427982  0.815554  0.095201  1
  O  O15  1  0.572018  0.184446  0.904799  1
  O  O16  1  0.432458  0.304408  0.495775  1
  O  O17  1  0.567542  0.695592  0.504225  1
  O  O18  1  0.883087  0.585742  0.821947  1
  O  O19  1  0.116913  0.414258  0.178053  1
  O  O20  1  0.276533  0.472080  0.894985  1
  O  O21  1  0.723467  0.527920  0.105015  1
  O  O22  1  0.883942  0.089672  0.386219  1
  O  O23  1  0.116058  0.910328  0.613781  1
  O  O24  1  0.356905  0.931202  0.351979  1
  O  O25  1  0.643095  0.068798  0.648021  1
  O  O26  1  0.363333  0.094507  0.173709  1
  O  O27  1  0.636667  0.905493  0.826291  1
