# generated using pymatgen
data_Tm4V4Co5P12Rh11
_symmetry_space_group_name_H-M   'P 1'
_cell_length_a   3.77394100
_cell_length_b   10.71616275
_cell_length_c   12.34198992
_cell_angle_alpha   90.11679929
_cell_angle_beta   90.00000000
_cell_angle_gamma   90.00000000
_symmetry_Int_Tables_number   1
_chemical_formula_structural   Tm4V4Co5P12Rh11
_chemical_formula_sum   'Tm4 V4 Co5 P12 Rh11'
_cell_volume   499.13576744
_cell_formula_units_Z   1
loop_
 _symmetry_equiv_pos_site_id
 _symmetry_equiv_pos_as_xyz
  1  'x, y, z'
loop_
 _atom_site_type_symbol
 _atom_site_label
 _atom_site_symmetry_multiplicity
 _atom_site_fract_x
 _atom_site_fract_y
 _atom_site_fract_z
 _atom_site_occupancy
  Tm  Tm0  1  0.250000  0.580213  0.709494  1
  Tm  Tm1  1  0.250000  0.917367  0.207113  1
  Tm  Tm2  1  0.750000  0.417061  0.292043  1
  Tm  Tm3  1  0.750000  0.085102  0.792472  1
  V  V4  1  0.250000  0.702258  0.985960  1
  V  V5  1  0.250000  0.796559  0.487543  1
  V  V6  1  0.750000  0.295138  0.011034  1
  V  V7  1  0.750000  0.205568  0.514874  1
  Co  Co8  1  0.750000  0.387515  0.805206  1
  Co  Co9  1  0.250000  0.464856  0.932901  1
  Co  Co10  1  0.250000  0.035206  0.438047  1
  Co  Co11  1  0.750000  0.533795  0.060098  1
  Co  Co12  1  0.750000  0.966213  0.563439  1
  P  P13  1  0.250000  0.420832  0.105705  1
  P  P14  1  0.250000  0.080840  0.609533  1
  P  P15  1  0.750000  0.571136  0.886324  1
  P  P16  1  0.750000  0.921530  0.391677  1
  P  P17  1  0.250000  0.272696  0.871519  1
  P  P18  1  0.250000  0.231349  0.373439  1
  P  P19  1  0.750000  0.729894  0.125995  1
  P  P20  1  0.750000  0.769606  0.627745  1
  P  P21  1  0.250000  0.598522  0.390830  1
  P  P22  1  0.250000  0.900825  0.890083  1
  P  P23  1  0.750000  0.400858  0.617593  1
  P  P24  1  0.750000  0.102699  0.108065  1
  Rh  Rh25  1  0.250000  0.404746  0.487152  1
  Rh  Rh26  1  0.250000  0.096466  0.983936  1
  Rh  Rh27  1  0.750000  0.594871  0.516371  1
  Rh  Rh28  1  0.750000  0.904432  0.013590  1
  Rh  Rh29  1  0.250000  0.229179  0.179925  1
  Rh  Rh30  1  0.250000  0.276425  0.683168  1
  Rh  Rh31  1  0.750000  0.768859  0.819495  1
  Rh  Rh32  1  0.750000  0.727451  0.320055  1
  Rh  Rh33  1  0.250000  0.891315  0.698128  1
  Rh  Rh34  1  0.250000  0.608753  0.196637  1
  Rh  Rh35  1  0.750000  0.109866  0.302814  1
