# generated using pymatgen
data_TbCoRe2C
_symmetry_space_group_name_H-M   'P 1'
_cell_length_a   5.67145602
_cell_length_b   5.67145782
_cell_length_c   7.48164400
_cell_angle_alpha   90.00000000
_cell_angle_beta   90.00000000
_cell_angle_gamma   140.29995885
_symmetry_Int_Tables_number   1
_chemical_formula_structural   TbCoRe2C
_chemical_formula_sum   'Tb2 Co2 Re4 C2'
_cell_volume   153.71976711
_cell_formula_units_Z   2
loop_
 _symmetry_equiv_pos_site_id
 _symmetry_equiv_pos_as_xyz
  1  'x, y, z'
loop_
 _atom_site_type_symbol
 _atom_site_label
 _atom_site_symmetry_multiplicity
 _atom_site_fract_x
 _atom_site_fract_y
 _atom_site_fract_z
 _atom_site_occupancy
  Tb  Tb0  1  0.534392  0.465608  0.250000  1
  Tb  Tb1  1  0.465608  0.534392  0.750000  1
  Co  Co2  1  0.259558  0.740442  0.250000  1
  Co  Co3  1  0.740442  0.259558  0.750000  1
  Re  Re4  1  0.822485  0.177515  0.065475  1
  Re  Re5  1  0.177515  0.822485  0.934525  1
  Re  Re6  1  0.177515  0.822485  0.565475  1
  Re  Re7  1  0.822485  0.177515  0.434525  1
  C  C8  1  0.000000  0.000000  0.000000  1
  C  C9  1  0.000000  0.000000  0.500000  1
