# generated using pymatgen
data_Li5Al6ZnPt12
_symmetry_space_group_name_H-M   'P 1'
_cell_length_a   4.09231000
_cell_length_b   6.63631800
_cell_length_c   12.28208800
_cell_angle_alpha   90.00008982
_cell_angle_beta   90.00002799
_cell_angle_gamma   90.00006254
_symmetry_Int_Tables_number   1
_chemical_formula_structural   Li5Al6ZnPt12
_chemical_formula_sum   'Li5 Al6 Zn1 Pt12'
_cell_volume   333.55535555
_cell_formula_units_Z   1
loop_
 _symmetry_equiv_pos_site_id
 _symmetry_equiv_pos_as_xyz
  1  'x, y, z'
loop_
 _atom_site_type_symbol
 _atom_site_label
 _atom_site_symmetry_multiplicity
 _atom_site_fract_x
 _atom_site_fract_y
 _atom_site_fract_z
 _atom_site_occupancy
  Li  Li0  1  0.499832  0.500001  0.167380  1
  Li  Li1  1  0.999852  0.000000  0.333912  1
  Li  Li2  1  0.499999  0.500001  0.500000  1
  Li  Li3  1  0.000148  0.000000  0.666089  1
  Li  Li4  1  0.500168  0.500001  0.832620  1
  Al  Al5  1  0.000000  0.500001  0.000000  1
  Al  Al6  1  0.499830  0.000000  0.170470  1
  Al  Al7  1  0.999863  0.500001  0.334576  1
  Al  Al8  1  0.499999  0.000000  0.500000  1
  Al  Al9  1  0.000137  0.500001  0.665424  1
  Al  Al10  1  0.500173  0.000000  0.829530  1
  Zn  Zn11  1  0.000000  0.000000  0.000000  1
  Pt  Pt12  1  0.499999  0.254314  0.000000  1
  Pt  Pt13  1  0.499999  0.745687  0.000000  1
  Pt  Pt14  1  0.999864  0.252041  0.167498  1
  Pt  Pt15  1  0.999866  0.747961  0.167498  1
  Pt  Pt16  1  0.499872  0.250429  0.333447  1
  Pt  Pt17  1  0.499875  0.749570  0.333447  1
  Pt  Pt18  1  0.000001  0.249743  0.500000  1
  Pt  Pt19  1  0.999999  0.750257  0.500000  1
  Pt  Pt20  1  0.500125  0.250430  0.666552  1
  Pt  Pt21  1  0.500128  0.749571  0.666552  1
  Pt  Pt22  1  0.000134  0.252040  0.832502  1
  Pt  Pt23  1  0.000136  0.747960  0.832502  1
