# generated using pymatgen
data_Nd8ZnSi7Br6
_symmetry_space_group_name_H-M   'P 1'
_cell_length_a   11.84368901
_cell_length_b   11.84368835
_cell_length_c   12.23662727
_cell_angle_alpha   83.12563703
_cell_angle_beta   83.12563768
_cell_angle_gamma   20.07972954
_symmetry_Int_Tables_number   1
_chemical_formula_structural   Nd8ZnSi7Br6
_chemical_formula_sum   'Nd8 Zn1 Si7 Br6'
_cell_volume   584.94069305
_cell_formula_units_Z   1
loop_
 _symmetry_equiv_pos_site_id
 _symmetry_equiv_pos_as_xyz
  1  'x, y, z'
loop_
 _atom_site_type_symbol
 _atom_site_label
 _atom_site_symmetry_multiplicity
 _atom_site_fract_x
 _atom_site_fract_y
 _atom_site_fract_z
 _atom_site_occupancy
  Nd  Nd0  1  0.498159  0.498159  0.161295  1
  Nd  Nd1  1  0.919821  0.919821  0.445487  1
  Nd  Nd2  1  0.350079  0.350079  0.032447  1
  Nd  Nd3  1  0.077798  0.077798  0.562984  1
  Nd  Nd4  1  0.650596  0.650596  0.968206  1
  Nd  Nd5  1  0.645856  0.645856  0.292343  1
  Nd  Nd6  1  0.355566  0.355566  0.704963  1
  Nd  Nd7  1  0.501315  0.501315  0.833331  1
  Zn  Zn8  1  0.527630  0.527630  0.409863  1
  Si  Si9  1  0.045021  0.045021  0.314774  1
  Si  Si10  1  0.052617  0.052617  0.980453  1
  Si  Si11  1  0.475752  0.475752  0.585399  1
  Si  Si12  1  0.896621  0.896621  0.862340  1
  Si  Si13  1  0.947302  0.947302  0.016632  1
  Si  Si14  1  0.954648  0.954648  0.682247  1
  Si  Si15  1  0.101486  0.101486  0.137804  1
  Br  Br16  1  0.244018  0.244018  0.875376  1
  Br  Br17  1  0.757019  0.757019  0.126242  1
  Br  Br18  1  0.798752  0.798752  0.575838  1
  Br  Br19  1  0.373264  0.373264  0.286235  1
  Br  Br20  1  0.198617  0.198617  0.426469  1
  Br  Br21  1  0.628061  0.628061  0.719271  1
