# generated using pymatgen
data_NaNd9Se10
_symmetry_space_group_name_H-M   'P 1'
_cell_length_a   7.30244157
_cell_length_b   8.46728954
_cell_length_c   9.51581706
_cell_angle_alpha   103.42771405
_cell_angle_beta   97.10609945
_cell_angle_gamma   106.61636439
_symmetry_Int_Tables_number   1
_chemical_formula_structural   NaNd9Se10
_chemical_formula_sum   'Na1 Nd9 Se10'
_cell_volume   536.86886973
_cell_formula_units_Z   1
loop_
 _symmetry_equiv_pos_site_id
 _symmetry_equiv_pos_as_xyz
  1  'x, y, z'
loop_
 _atom_site_type_symbol
 _atom_site_label
 _atom_site_symmetry_multiplicity
 _atom_site_fract_x
 _atom_site_fract_y
 _atom_site_fract_z
 _atom_site_occupancy
  Na  Na0  1  0.000000  0.500000  0.000000  1
  Nd  Nd1  1  0.799338  0.601069  0.599480  1
  Nd  Nd2  1  0.600999  0.200415  0.205093  1
  Nd  Nd3  1  0.399001  0.799585  0.794907  1
  Nd  Nd4  1  0.600279  0.703917  0.204770  1
  Nd  Nd5  1  0.200662  0.398931  0.400520  1
  Nd  Nd6  1  0.399721  0.296083  0.795230  1
  Nd  Nd7  1  0.000000  0.000000  0.000000  1
  Nd  Nd8  1  0.201955  0.902093  0.404429  1
  Nd  Nd9  1  0.798045  0.097907  0.595571  1
  Se  Se10  1  0.700869  0.648439  0.902788  1
  Se  Se11  1  0.501239  0.251592  0.500216  1
  Se  Se12  1  0.702280  0.153303  0.902704  1
  Se  Se13  1  0.297720  0.846697  0.097296  1
  Se  Se14  1  0.498761  0.748408  0.499784  1
  Se  Se15  1  0.097429  0.450065  0.703458  1
  Se  Se16  1  0.299131  0.351561  0.097212  1
  Se  Se17  1  0.903227  0.050023  0.298748  1
  Se  Se18  1  0.096773  0.949977  0.701252  1
  Se  Se19  1  0.902571  0.549935  0.296542  1
