# generated using pymatgen
data_NaLuCo3P7Ru9
_symmetry_space_group_name_H-M   'P 1'
_cell_length_a   9.32875600
_cell_length_b   9.32875541
_cell_length_c   3.80380100
_cell_angle_alpha   90.00000000
_cell_angle_beta   90.00000000
_cell_angle_gamma   120.00000824
_symmetry_Int_Tables_number   1
_chemical_formula_structural   NaLuCo3P7Ru9
_chemical_formula_sum   'Na1 Lu1 Co3 P7 Ru9'
_cell_volume   286.67896268
_cell_formula_units_Z   1
loop_
 _symmetry_equiv_pos_site_id
 _symmetry_equiv_pos_as_xyz
  1  'x, y, z'
loop_
 _atom_site_type_symbol
 _atom_site_label
 _atom_site_symmetry_multiplicity
 _atom_site_fract_x
 _atom_site_fract_y
 _atom_site_fract_z
 _atom_site_occupancy
  Na  Na0  1  0.333333  0.666667  0.000000  1
  Lu  Lu1  1  0.000000  0.000000  0.500000  1
  Co  Co2  1  0.934309  0.442921  0.000000  1
  Co  Co3  1  0.508612  0.065691  0.000000  1
  Co  Co4  1  0.557079  0.491388  0.000000  1
  P  P5  1  0.973709  0.225206  0.000000  1
  P  P6  1  0.251497  0.026291  0.000000  1
  P  P7  1  0.774794  0.748503  0.000000  1
  P  P8  1  0.063597  0.613752  0.500000  1
  P  P9  1  0.550154  0.936403  0.500000  1
  P  P10  1  0.386248  0.449846  0.500000  1
  P  P11  1  0.666667  0.333333  0.000000  1
  Ru  Ru12  1  0.730585  0.975339  0.000000  1
  Ru  Ru13  1  0.244754  0.269415  0.000000  1
  Ru  Ru14  1  0.024661  0.755246  0.000000  1
  Ru  Ru15  1  0.104833  0.383630  0.500000  1
  Ru  Ru16  1  0.278797  0.895167  0.500000  1
  Ru  Ru17  1  0.616370  0.721203  0.500000  1
  Ru  Ru18  1  0.750352  0.215885  0.500000  1
  Ru  Ru19  1  0.465532  0.249648  0.500000  1
  Ru  Ru20  1  0.784115  0.534468  0.500000  1
