# generated using pymatgen
data_SrAs2IrRu
_symmetry_space_group_name_H-M   'P 1'
_cell_length_a   6.63823530
_cell_length_b   6.63823568
_cell_length_c   6.63823551
_cell_angle_alpha   143.55588536
_cell_angle_beta   143.55588952
_cell_angle_gamma   52.49191727
_symmetry_Int_Tables_number   1
_chemical_formula_structural   SrAs2IrRu
_chemical_formula_sum   'Sr1 As2 Ir1 Ru1'
_cell_volume   102.61746754
_cell_formula_units_Z   1
loop_
 _symmetry_equiv_pos_site_id
 _symmetry_equiv_pos_as_xyz
  1  'x, y, z'
loop_
 _atom_site_type_symbol
 _atom_site_label
 _atom_site_symmetry_multiplicity
 _atom_site_fract_x
 _atom_site_fract_y
 _atom_site_fract_z
 _atom_site_occupancy
  Sr  Sr0  1  0.000000  0.000000  0.000000  1
  As  As1  1  0.638644  0.638644  0.000000  1
  As  As2  1  0.361356  0.361356  0.000000  1
  Ir  Ir3  1  0.250000  0.750000  0.500000  1
  Ru  Ru4  1  0.750000  0.250000  0.500000  1
