# generated using pymatgen
data_DyEr15(In3Pt)2
_symmetry_space_group_name_H-M   'P 1'
_cell_length_a   10.43457800
_cell_length_b   10.42995014
_cell_length_c   6.94972602
_cell_angle_alpha   90.00063542
_cell_angle_beta   90.00000000
_cell_angle_gamma   120.01467251
_symmetry_Int_Tables_number   1
_chemical_formula_structural   DyEr15(In3Pt)2
_chemical_formula_sum   'Dy1 Er15 In6 Pt2'
_cell_volume   654.92445554
_cell_formula_units_Z   1
loop_
 _symmetry_equiv_pos_site_id
 _symmetry_equiv_pos_as_xyz
  1  'x, y, z'
loop_
 _atom_site_type_symbol
 _atom_site_label
 _atom_site_symmetry_multiplicity
 _atom_site_fract_x
 _atom_site_fract_y
 _atom_site_fract_z
 _atom_site_occupancy
  Dy  Dy0  1  0.530882  0.061763  0.795555  1
  Er  Er1  1  0.937102  0.468563  0.795638  1
  Er  Er2  1  0.531461  0.468563  0.795638  1
  Er  Er3  1  0.468330  0.936661  0.295397  1
  Er  Er4  1  0.063030  0.531487  0.295695  1
  Er  Er5  1  0.468457  0.531487  0.295695  1
  Er  Er6  1  0.824977  0.649953  0.501681  1
  Er  Er7  1  0.350271  0.175431  0.501028  1
  Er  Er8  1  0.825161  0.175431  0.501028  1
  Er  Er9  1  0.175229  0.350458  0.001760  1
  Er  Er10  1  0.650041  0.824523  0.001989  1
  Er  Er11  1  0.174482  0.824523  0.001989  1
  Er  Er12  1  0.666947  0.333891  0.169649  1
  Er  Er13  1  0.333053  0.666106  0.669493  1
  Er  Er14  1  0.999995  0.999989  0.774521  1
  Er  Er15  1  0.000109  0.000217  0.274797  1
  In  In16  1  0.837279  0.674559  0.037817  1
  In  In17  1  0.325071  0.162784  0.038098  1
  In  In18  1  0.837712  0.162784  0.038098  1
  In  In19  1  0.162670  0.325341  0.537978  1
  In  In20  1  0.674553  0.837306  0.537683  1
  In  In21  1  0.162755  0.837306  0.537683  1
  Pt  Pt22  1  0.667029  0.334055  0.568341  1
  Pt  Pt23  1  0.333408  0.666816  0.068655  1
