# generated using pymatgen
data_Pr6ErTmO12
_symmetry_space_group_name_H-M   'P 1'
_cell_length_a   6.99284397
_cell_length_b   6.99284404
_cell_length_c   6.99284320
_cell_angle_alpha   92.02342363
_cell_angle_beta   92.02342141
_cell_angle_gamma   92.02340746
_symmetry_Int_Tables_number   1
_chemical_formula_structural   Pr6ErTmO12
_chemical_formula_sum   'Pr6 Er1 Tm1 O12'
_cell_volume   341.29398798
_cell_formula_units_Z   1
loop_
 _symmetry_equiv_pos_site_id
 _symmetry_equiv_pos_as_xyz
  1  'x, y, z'
loop_
 _atom_site_type_symbol
 _atom_site_label
 _atom_site_symmetry_multiplicity
 _atom_site_fract_x
 _atom_site_fract_y
 _atom_site_fract_z
 _atom_site_occupancy
  Pr  Pr0  1  0.746972  0.935401  0.442385  1
  Pr  Pr1  1  0.442385  0.746972  0.935401  1
  Pr  Pr2  1  0.064599  0.557615  0.253028  1
  Pr  Pr3  1  0.935401  0.442385  0.746972  1
  Pr  Pr4  1  0.557615  0.253028  0.064599  1
  Pr  Pr5  1  0.253028  0.064599  0.557615  1
  Er  Er6  1  0.000000  0.000000  0.000000  1
  Tm  Tm7  1  0.500000  0.500000  0.500000  1
  O  O8  1  0.065323  0.912211  0.306512  1
  O  O9  1  0.693488  0.934677  0.087789  1
  O  O10  1  0.465311  0.805618  0.594572  1
  O  O11  1  0.087789  0.693488  0.934677  1
  O  O12  1  0.805618  0.594572  0.465311  1
  O  O13  1  0.405428  0.534689  0.194382  1
  O  O14  1  0.594572  0.465311  0.805618  1
  O  O15  1  0.194382  0.405428  0.534689  1
  O  O16  1  0.912211  0.306512  0.065323  1
  O  O17  1  0.534689  0.194382  0.405428  1
  O  O18  1  0.306512  0.065323  0.912211  1
  O  O19  1  0.934677  0.087789  0.693488  1
