# generated using pymatgen
data_PrTiAlO5
_symmetry_space_group_name_H-M   'P 1'
_cell_length_a   5.75912800
_cell_length_b   7.65911200
_cell_length_c   8.65187600
_cell_angle_alpha   90.00000000
_cell_angle_beta   90.00000000
_cell_angle_gamma   90.00000000
_symmetry_Int_Tables_number   1
_chemical_formula_structural   PrTiAlO5
_chemical_formula_sum   'Pr4 Ti4 Al4 O20'
_cell_volume   381.63257513
_cell_formula_units_Z   4
loop_
 _symmetry_equiv_pos_site_id
 _symmetry_equiv_pos_as_xyz
  1  'x, y, z'
loop_
 _atom_site_type_symbol
 _atom_site_label
 _atom_site_symmetry_multiplicity
 _atom_site_fract_x
 _atom_site_fract_y
 _atom_site_fract_z
 _atom_site_occupancy
  Pr  Pr0  1  0.000000  0.358108  0.327721  1
  Pr  Pr1  1  0.000000  0.641892  0.672279  1
  Pr  Pr2  1  0.000000  0.858108  0.172279  1
  Pr  Pr3  1  0.000000  0.141892  0.827721  1
  Ti  Ti4  1  0.500000  0.124380  0.143101  1
  Ti  Ti5  1  0.500000  0.875620  0.856899  1
  Ti  Ti6  1  0.500000  0.624380  0.356899  1
  Ti  Ti7  1  0.500000  0.375620  0.643101  1
  Al  Al8  1  0.247011  0.500000  0.000000  1
  Al  Al9  1  0.752989  0.000000  0.500000  1
  Al  Al10  1  0.752989  0.500000  0.000000  1
  Al  Al11  1  0.247011  0.000000  0.500000  1
  O  O12  1  0.000000  0.345415  0.052064  1
  O  O13  1  0.000000  0.654585  0.947936  1
  O  O14  1  0.000000  0.845415  0.447936  1
  O  O15  1  0.000000  0.154585  0.552064  1
  O  O16  1  0.500000  0.346869  0.067566  1
  O  O17  1  0.500000  0.653131  0.932434  1
  O  O18  1  0.500000  0.846869  0.432434  1
  O  O19  1  0.500000  0.153131  0.567566  1
  O  O20  1  0.259726  0.100245  0.292362  1
  O  O21  1  0.259726  0.899755  0.707638  1
  O  O22  1  0.740274  0.600245  0.207638  1
  O  O23  1  0.740274  0.399755  0.792362  1
  O  O24  1  0.740274  0.899755  0.707638  1
  O  O25  1  0.740274  0.100245  0.292362  1
  O  O26  1  0.259726  0.399755  0.792362  1
  O  O27  1  0.259726  0.600245  0.207638  1
  O  O28  1  0.284625  0.000000  0.000000  1
  O  O29  1  0.715375  0.500000  0.500000  1
  O  O30  1  0.715375  0.000000  0.000000  1
  O  O31  1  0.284625  0.500000  0.500000  1
