# generated using pymatgen
data_SmLu2WO7
_symmetry_space_group_name_H-M   'P 1'
_cell_length_a   6.45730600
_cell_length_b   6.45730508
_cell_length_c   7.52561400
_cell_angle_alpha   90.00000000
_cell_angle_beta   90.00000000
_cell_angle_gamma   109.17484727
_symmetry_Int_Tables_number   1
_chemical_formula_structural   SmLu2WO7
_chemical_formula_sum   'Sm2 Lu4 W2 O14'
_cell_volume   296.38489719
_cell_formula_units_Z   2
loop_
 _symmetry_equiv_pos_site_id
 _symmetry_equiv_pos_as_xyz
  1  'x, y, z'
loop_
 _atom_site_type_symbol
 _atom_site_label
 _atom_site_symmetry_multiplicity
 _atom_site_fract_x
 _atom_site_fract_y
 _atom_site_fract_z
 _atom_site_occupancy
  Sm  Sm0  1  0.500000  0.500000  0.500000  1
  Sm  Sm1  1  0.500000  0.500000  0.000000  1
  Lu  Lu2  1  0.531269  0.003300  0.750000  1
  Lu  Lu3  1  0.003300  0.531269  0.250000  1
  Lu  Lu4  1  0.468731  0.996700  0.250000  1
  Lu  Lu5  1  0.996700  0.468731  0.750000  1
  W  W6  1  0.000000  0.000000  0.500000  1
  W  W7  1  0.000000  0.000000  0.000000  1
  O  O8  1  0.675785  0.927490  0.469580  1
  O  O9  1  0.927490  0.675785  0.530420  1
  O  O10  1  0.675785  0.927490  0.030420  1
  O  O11  1  0.927490  0.675785  0.969580  1
  O  O12  1  0.324215  0.072510  0.530420  1
  O  O13  1  0.072510  0.324215  0.469580  1
  O  O14  1  0.324215  0.072510  0.969580  1
  O  O15  1  0.072510  0.324215  0.030420  1
  O  O16  1  0.924459  0.075541  0.750000  1
  O  O17  1  0.075541  0.924459  0.250000  1
  O  O18  1  0.361092  0.638908  0.750000  1
  O  O19  1  0.638908  0.361092  0.250000  1
  O  O20  1  0.643816  0.356184  0.750000  1
  O  O21  1  0.356184  0.643816  0.250000  1
