# generated using pymatgen
data_Sc4P4Ir3Rh
_symmetry_space_group_name_H-M   'P 1'
_cell_length_a   3.90306300
_cell_length_b   6.45025781
_cell_length_c   7.32497803
_cell_angle_alpha   90.04792457
_cell_angle_beta   90.00000000
_cell_angle_gamma   90.00000000
_symmetry_Int_Tables_number   1
_chemical_formula_structural   Sc4P4Ir3Rh
_chemical_formula_sum   'Sc4 P4 Ir3 Rh1'
_cell_volume   184.41184362
_cell_formula_units_Z   1
loop_
 _symmetry_equiv_pos_site_id
 _symmetry_equiv_pos_as_xyz
  1  'x, y, z'
loop_
 _atom_site_type_symbol
 _atom_site_label
 _atom_site_symmetry_multiplicity
 _atom_site_fract_x
 _atom_site_fract_y
 _atom_site_fract_z
 _atom_site_occupancy
  Sc  Sc0  1  0.250000  0.025417  0.822580  1
  Sc  Sc1  1  0.250000  0.527014  0.678275  1
  Sc  Sc2  1  0.750000  0.974293  0.178365  1
  Sc  Sc3  1  0.750000  0.473163  0.321264  1
  P  P4  1  0.250000  0.770154  0.375965  1
  P  P5  1  0.250000  0.269786  0.122996  1
  P  P6  1  0.750000  0.229101  0.622989  1
  P  P7  1  0.750000  0.731702  0.878039  1
  Ir  Ir8  1  0.250000  0.154338  0.440519  1
  Ir  Ir9  1  0.250000  0.653829  0.060945  1
  Ir  Ir10  1  0.750000  0.843703  0.560120  1
  Rh  Rh11  1  0.750000  0.347499  0.937945  1
