# generated using pymatgen
data_Tb2Co3P4Ru3
_symmetry_space_group_name_H-M   'P 1'
_cell_length_a   3.83970000
_cell_length_b   10.67707963
_cell_length_c   12.52011128
_cell_angle_alpha   89.81600562
_cell_angle_beta   90.00000000
_cell_angle_gamma   90.00000000
_symmetry_Int_Tables_number   1
_chemical_formula_structural   Tb2Co3P4Ru3
_chemical_formula_sum   'Tb6 Co9 P12 Ru9'
_cell_volume   513.28163403
_cell_formula_units_Z   3
loop_
 _symmetry_equiv_pos_site_id
 _symmetry_equiv_pos_as_xyz
  1  'x, y, z'
loop_
 _atom_site_type_symbol
 _atom_site_label
 _atom_site_symmetry_multiplicity
 _atom_site_fract_x
 _atom_site_fract_y
 _atom_site_fract_z
 _atom_site_occupancy
  Tb  Tb0  1  0.000000  0.500507  0.524778  1
  Tb  Tb1  1  0.500000  0.000499  0.472317  1
  Tb  Tb2  1  0.500000  0.820259  0.200779  1
  Tb  Tb3  1  0.500000  0.181343  0.201098  1
  Tb  Tb4  1  0.000000  0.678708  0.800149  1
  Tb  Tb5  1  0.000000  0.321214  0.798985  1
  Co  Co6  1  0.000000  0.498634  0.986248  1
  Co  Co7  1  0.500000  0.000353  0.016337  1
  Co  Co8  1  0.000000  0.375487  0.279782  1
  Co  Co9  1  0.500000  0.331367  0.989728  1
  Co  Co10  1  0.500000  0.665793  0.991826  1
  Co  Co11  1  0.000000  0.168306  0.012431  1
  Co  Co12  1  0.000000  0.832584  0.010965  1
  Co  Co13  1  0.500000  0.500500  0.703312  1
  Co  Co14  1  0.000000  0.000912  0.296901  1
  P  P15  1  0.500000  0.315519  0.616493  1
  P  P16  1  0.500000  0.686685  0.618653  1
  P  P17  1  0.000000  0.189777  0.377927  1
  P  P18  1  0.000000  0.812797  0.380418  1
  P  P19  1  0.500000  0.499426  0.883036  1
  P  P20  1  0.000000  0.000080  0.118530  1
  P  P21  1  0.500000  0.845460  0.902289  1
  P  P22  1  0.500000  0.153910  0.900593  1
  P  P23  1  0.000000  0.653293  0.099966  1
  P  P24  1  0.000000  0.346032  0.103403  1
  P  P25  1  0.500000  0.499548  0.338030  1
  P  P26  1  0.000000  0.000855  0.662312  1
  Ru  Ru27  1  0.500000  0.301200  0.422406  1
  Ru  Ru28  1  0.500000  0.702455  0.427533  1
  Ru  Ru29  1  0.000000  0.204561  0.568722  1
  Ru  Ru30  1  0.000000  0.798774  0.572054  1
  Ru  Ru31  1  0.500000  0.875866  0.719772  1
  Ru  Ru32  1  0.500000  0.125355  0.717335  1
  Ru  Ru33  1  0.000000  0.618406  0.281630  1
  Ru  Ru34  1  0.500000  0.491946  0.149299  1
  Ru  Ru35  1  0.000000  0.001588  0.853964  1
