# generated using pymatgen
data_Yb6Al16Ir7
_symmetry_space_group_name_H-M   'P 1'
_cell_length_a   8.95285263
_cell_length_b   8.95285285
_cell_length_c   8.95285300
_cell_angle_alpha   60.00000313
_cell_angle_beta   60.00000234
_cell_angle_gamma   60.00000235
_symmetry_Int_Tables_number   1
_chemical_formula_structural   Yb6Al16Ir7
_chemical_formula_sum   'Yb6 Al16 Ir7'
_cell_volume   507.42208311
_cell_formula_units_Z   1
loop_
 _symmetry_equiv_pos_site_id
 _symmetry_equiv_pos_as_xyz
  1  'x, y, z'
loop_
 _atom_site_type_symbol
 _atom_site_label
 _atom_site_symmetry_multiplicity
 _atom_site_fract_x
 _atom_site_fract_y
 _atom_site_fract_z
 _atom_site_occupancy
  Yb  Yb0  1  0.207367  0.792633  0.792633  1
  Yb  Yb1  1  0.792633  0.207367  0.207367  1
  Yb  Yb2  1  0.792633  0.207367  0.792633  1
  Yb  Yb3  1  0.792633  0.792633  0.207367  1
  Yb  Yb4  1  0.207367  0.792633  0.207367  1
  Yb  Yb5  1  0.207367  0.207367  0.792633  1
  Al  Al6  1  0.825836  0.825836  0.825836  1
  Al  Al7  1  0.825836  0.825836  0.522493  1
  Al  Al8  1  0.522493  0.825836  0.825836  1
  Al  Al9  1  0.825836  0.522493  0.825836  1
  Al  Al10  1  0.174164  0.174164  0.174164  1
  Al  Al11  1  0.174164  0.174164  0.477507  1
  Al  Al12  1  0.174164  0.477507  0.174164  1
  Al  Al13  1  0.477507  0.174164  0.174164  1
  Al  Al14  1  0.618450  0.618450  0.618450  1
  Al  Al15  1  0.618450  0.618450  0.144650  1
  Al  Al16  1  0.144650  0.618450  0.618450  1
  Al  Al17  1  0.618450  0.144650  0.618450  1
  Al  Al18  1  0.381550  0.381550  0.381550  1
  Al  Al19  1  0.381550  0.381550  0.855350  1
  Al  Al20  1  0.381550  0.855350  0.381550  1
  Al  Al21  1  0.855350  0.381550  0.381550  1
  Ir  Ir22  1  0.500000  0.500000  0.500000  1
  Ir  Ir23  1  0.000000  0.500000  0.500000  1
  Ir  Ir24  1  0.500000  0.000000  0.000000  1
  Ir  Ir25  1  0.500000  0.000000  0.500000  1
  Ir  Ir26  1  0.500000  0.500000  0.000000  1
  Ir  Ir27  1  0.000000  0.500000  0.000000  1
  Ir  Ir28  1  0.000000  0.000000  0.500000  1
