# generated using pymatgen
data_Gd10BeSi16
_symmetry_space_group_name_H-M   'P 1'
_cell_length_a   6.62760023
_cell_length_b   8.28914411
_cell_length_c   11.00001900
_cell_angle_alpha   112.13428308
_cell_angle_beta   107.53293611
_cell_angle_gamma   89.99999655
_symmetry_Int_Tables_number   1
_chemical_formula_structural   Gd10BeSi16
_chemical_formula_sum   'Gd10 Be1 Si16'
_cell_volume   529.34337871
_cell_formula_units_Z   1
loop_
 _symmetry_equiv_pos_site_id
 _symmetry_equiv_pos_as_xyz
  1  'x, y, z'
loop_
 _atom_site_type_symbol
 _atom_site_label
 _atom_site_symmetry_multiplicity
 _atom_site_fract_x
 _atom_site_fract_y
 _atom_site_fract_z
 _atom_site_occupancy
  Gd  Gd0  1  0.239392  0.244715  0.000260  1
  Gd  Gd1  1  0.239203  0.755543  0.999756  1
  Gd  Gd2  1  0.832870  0.353359  0.201762  1
  Gd  Gd3  1  0.832768  0.848111  0.201210  1
  Gd  Gd4  1  0.435999  0.448043  0.398592  1
  Gd  Gd5  1  0.436517  0.950797  0.398857  1
  Gd  Gd6  1  0.037458  0.049573  0.601484  1
  Gd  Gd7  1  0.037854  0.551711  0.601289  1
  Gd  Gd8  1  0.631139  0.151294  0.798010  1
  Gd  Gd9  1  0.631541  0.647231  0.798892  1
  Be  Be10  1  0.569644  0.999428  0.000061  1
  Si  Si11  1  0.898700  0.000120  0.999923  1
  Si  Si12  1  0.606615  0.499264  0.999956  1
  Si  Si13  1  0.126390  0.583163  0.165341  1
  Si  Si14  1  0.498678  0.600599  0.201312  1
  Si  Si15  1  0.503816  0.098504  0.196262  1
  Si  Si16  1  0.161098  0.112754  0.225610  1
  Si  Si17  1  0.812139  0.199211  0.399531  1
  Si  Si18  1  0.101555  0.699394  0.397858  1
  Si  Si19  1  0.757692  0.713631  0.427945  1
  Si  Si20  1  0.329643  0.285902  0.572148  1
  Si  Si21  1  0.703527  0.301560  0.602138  1
  Si  Si22  1  0.412662  0.799974  0.600350  1
  Si  Si23  1  0.935542  0.887003  0.774240  1
  Si  Si24  1  0.307845  0.902154  0.803795  1
  Si  Si25  1  0.297359  0.400145  0.798858  1
  Si  Si26  1  0.960856  0.416815  0.834558  1
