# generated using pymatgen
data_TmLu7(Zr3Si4)4
_symmetry_space_group_name_H-M   'P 1'
_cell_length_a   7.28705703
_cell_length_b   7.28945934
_cell_length_c   13.39314600
_cell_angle_alpha   89.93767736
_cell_angle_beta   89.99473987
_cell_angle_gamma   89.99524679
_symmetry_Int_Tables_number   1
_chemical_formula_structural   TmLu7(Zr3Si4)4
_chemical_formula_sum   'Tm1 Lu7 Zr12 Si16'
_cell_volume   711.42615733
_cell_formula_units_Z   1
loop_
 _symmetry_equiv_pos_site_id
 _symmetry_equiv_pos_as_xyz
  1  'x, y, z'
loop_
 _atom_site_type_symbol
 _atom_site_label
 _atom_site_symmetry_multiplicity
 _atom_site_fract_x
 _atom_site_fract_y
 _atom_site_fract_z
 _atom_site_occupancy
  Tm  Tm0  1  0.994644  0.652022  0.036306  1
  Lu  Lu1  1  0.347871  0.004893  0.463843  1
  Lu  Lu2  1  0.495627  0.847766  0.713555  1
  Lu  Lu3  1  0.504344  0.152642  0.214041  1
  Lu  Lu4  1  0.847797  0.495812  0.286660  1
  Lu  Lu5  1  0.152447  0.504456  0.785950  1
  Lu  Lu6  1  0.651859  0.995675  0.963485  1
  Lu  Lu7  1  0.004706  0.348040  0.536107  1
  Zr  Zr8  1  0.323432  0.323208  0.000021  1
  Zr  Zr9  1  0.176767  0.823456  0.250171  1
  Zr  Zr10  1  0.823418  0.176466  0.749814  1
  Zr  Zr11  1  0.676741  0.676852  0.500053  1
  Zr  Zr12  1  0.144952  0.002036  0.874640  1
  Zr  Zr13  1  0.497531  0.644623  0.125128  1
  Zr  Zr14  1  0.502339  0.355292  0.624764  1
  Zr  Zr15  1  0.644562  0.496873  0.874680  1
  Zr  Zr16  1  0.355273  0.502485  0.375333  1
  Zr  Zr17  1  0.855130  0.997959  0.375037  1
  Zr  Zr18  1  0.002288  0.145304  0.125195  1
  Zr  Zr19  1  0.997820  0.855114  0.625113  1
  Si  Si20  1  0.204787  0.144455  0.682874  1
  Si  Si21  1  0.355966  0.704460  0.932988  1
  Si  Si22  1  0.644655  0.295636  0.433125  1
  Si  Si23  1  0.703953  0.354896  0.066610  1
  Si  Si24  1  0.295558  0.644709  0.566961  1
  Si  Si25  1  0.795054  0.856064  0.183607  1
  Si  Si26  1  0.144637  0.204793  0.317080  1
  Si  Si27  1  0.855525  0.795119  0.816889  1
  Si  Si28  1  0.297366  0.948355  0.062919  1
  Si  Si29  1  0.551531  0.797704  0.313098  1
  Si  Si30  1  0.448158  0.202265  0.812769  1
  Si  Si31  1  0.797658  0.551467  0.686884  1
  Si  Si32  1  0.202877  0.448047  0.187396  1
  Si  Si33  1  0.702770  0.051670  0.562963  1
  Si  Si34  1  0.948168  0.296481  0.936797  1
  Si  Si35  1  0.051788  0.702901  0.437142  1
