# generated using pymatgen
data_Na3RuO5
_symmetry_space_group_name_H-M   'P 1'
_cell_length_a   5.59183500
_cell_length_b   5.59166280
_cell_length_c   13.69759300
_cell_angle_alpha   90.00160596
_cell_angle_beta   89.99981573
_cell_angle_gamma   120.00456024
_symmetry_Int_Tables_number   1
_chemical_formula_structural   Na3RuO5
_chemical_formula_sum   'Na9 Ru3 O15'
_cell_volume   370.89438000
_cell_formula_units_Z   3
loop_
 _symmetry_equiv_pos_site_id
 _symmetry_equiv_pos_as_xyz
  1  'x, y, z'
loop_
 _atom_site_type_symbol
 _atom_site_label
 _atom_site_symmetry_multiplicity
 _atom_site_fract_x
 _atom_site_fract_y
 _atom_site_fract_z
 _atom_site_occupancy
  Na  Na0  1  0.618862  0.918647  0.581614  1
  Na  Na1  1  0.299853  0.381180  0.248298  1
  Na  Na2  1  0.081302  0.700133  0.914957  1
  Na  Na3  1  0.700203  0.081369  0.085054  1
  Na  Na4  1  0.381179  0.299880  0.751702  1
  Na  Na5  1  0.918666  0.618855  0.418373  1
  Na  Na6  1  0.000031  0.722165  0.166678  1
  Na  Na7  1  0.722150  0.000015  0.833321  1
  Na  Na8  1  0.277862  0.277855  0.499984  1
  Ru  Ru9  1  0.999941  0.619551  0.666666  1
  Ru  Ru10  1  0.619619  0.999941  0.333336  1
  Ru  Ru11  1  0.380468  0.380494  0.000000  1
  O  O12  1  0.164306  0.503880  0.063429  1
  O  O13  1  0.339442  0.835619  0.730053  1
  O  O14  1  0.496161  0.660472  0.396743  1
  O  O15  1  0.999965  0.301561  0.666658  1
  O  O16  1  0.301562  0.999974  0.333332  1
  O  O17  1  0.698391  0.698420  0.000003  1
  O  O18  1  0.660441  0.496121  0.603237  1
  O  O19  1  0.835634  0.339441  0.269948  1
  O  O20  1  0.503846  0.164382  0.936600  1
  O  O21  1  0.318071  0.156792  0.106493  1
  O  O22  1  0.838724  0.681918  0.773102  1
  O  O23  1  0.843265  0.161321  0.439831  1
  O  O24  1  0.161306  0.843242  0.560163  1
  O  O25  1  0.156810  0.318080  0.893552  1
  O  O26  1  0.681940  0.838693  0.226874  1
