# generated using pymatgen
data_La6Sn9Hg
_symmetry_space_group_name_H-M   'P 1'
_cell_length_a   6.72208656
_cell_length_b   6.72208654
_cell_length_c   10.60193862
_cell_angle_alpha   90.28748847
_cell_angle_beta   90.28748929
_cell_angle_gamma   102.13838372
_symmetry_Int_Tables_number   1
_chemical_formula_structural   La6Sn9Hg
_chemical_formula_sum   'La6 Sn9 Hg1'
_cell_volume   468.33838276
_cell_formula_units_Z   1
loop_
 _symmetry_equiv_pos_site_id
 _symmetry_equiv_pos_as_xyz
  1  'x, y, z'
loop_
 _atom_site_type_symbol
 _atom_site_label
 _atom_site_symmetry_multiplicity
 _atom_site_fract_x
 _atom_site_fract_y
 _atom_site_fract_z
 _atom_site_occupancy
  La  La0  1  0.629664  0.629664  0.250360  1
  La  La1  1  0.371410  0.371410  0.749970  1
  La  La2  1  0.202345  0.795281  0.500893  1
  La  La3  1  0.205534  0.798236  0.999845  1
  La  La4  1  0.795281  0.202345  0.500893  1
  La  La5  1  0.798236  0.205534  0.999845  1
  Sn  Sn6  1  0.024400  0.024400  0.251257  1
  Sn  Sn7  1  0.979073  0.979073  0.752145  1
  Sn  Sn8  1  0.689855  0.689855  0.954771  1
  Sn  Sn9  1  0.309641  0.309641  0.453049  1
  Sn  Sn10  1  0.688915  0.688915  0.548550  1
  Sn  Sn11  1  0.491587  0.076115  0.248833  1
  Sn  Sn12  1  0.923902  0.507492  0.751049  1
  Sn  Sn13  1  0.507492  0.923902  0.751049  1
  Sn  Sn14  1  0.076115  0.491587  0.248833  1
  Hg  Hg15  1  0.306549  0.306549  0.038660  1
