# generated using pymatgen
data_SmEu(Ga3Pd)2
_symmetry_space_group_name_H-M   'P 1'
_cell_length_a   6.13312033
_cell_length_b   6.13312031
_cell_length_c   5.86826300
_cell_angle_alpha   90.00000000
_cell_angle_beta   90.00000000
_cell_angle_gamma   116.70573790
_symmetry_Int_Tables_number   1
_chemical_formula_structural   SmEu(Ga3Pd)2
_chemical_formula_sum   'Sm1 Eu1 Ga6 Pd2'
_cell_volume   197.18900746
_cell_formula_units_Z   1
loop_
 _symmetry_equiv_pos_site_id
 _symmetry_equiv_pos_as_xyz
  1  'x, y, z'
loop_
 _atom_site_type_symbol
 _atom_site_label
 _atom_site_symmetry_multiplicity
 _atom_site_fract_x
 _atom_site_fract_y
 _atom_site_fract_z
 _atom_site_occupancy
  Sm  Sm0  1  0.229317  0.770683  0.750000  1
  Eu  Eu1  1  0.768045  0.231955  0.250000  1
  Ga  Ga2  1  0.666661  0.333339  0.750000  1
  Ga  Ga3  1  0.334099  0.665901  0.250000  1
  Ga  Ga4  1  0.715184  0.714978  0.998592  1
  Ga  Ga5  1  0.715184  0.714978  0.501408  1
  Ga  Ga6  1  0.285022  0.284816  0.998592  1
  Ga  Ga7  1  0.285022  0.284816  0.501408  1
  Pd  Pd8  1  0.904922  0.095078  0.750000  1
  Pd  Pd9  1  0.096543  0.903457  0.250000  1
