# generated using pymatgen
data_EuDy5SbO12
_symmetry_space_group_name_H-M   'P 1'
_cell_length_a   6.48857416
_cell_length_b   6.53347115
_cell_length_c   6.53450060
_cell_angle_alpha   99.01361268
_cell_angle_beta   99.04029592
_cell_angle_gamma   98.51564026
_symmetry_Int_Tables_number   1
_chemical_formula_structural   EuDy5SbO12
_chemical_formula_sum   'Eu1 Dy5 Sb1 O12'
_cell_volume   265.92821955
_cell_formula_units_Z   1
loop_
 _symmetry_equiv_pos_site_id
 _symmetry_equiv_pos_as_xyz
  1  'x, y, z'
loop_
 _atom_site_type_symbol
 _atom_site_label
 _atom_site_symmetry_multiplicity
 _atom_site_fract_x
 _atom_site_fract_y
 _atom_site_fract_z
 _atom_site_occupancy
  Eu  Eu0  1  0.858720  0.694166  0.400062  1
  Dy  Dy1  1  0.143052  0.303779  0.611632  1
  Dy  Dy2  1  0.391830  0.861833  0.700523  1
  Dy  Dy3  1  0.693877  0.390210  0.859250  1
  Dy  Dy4  1  0.301423  0.608785  0.134992  1
  Dy  Dy5  1  0.609071  0.140773  0.306284  1
  Sb  Sb6  1  0.999718  0.001171  0.002144  1
  O  O7  1  0.069808  0.303907  0.959423  1
  O  O8  1  0.048364  0.937686  0.697737  1
  O  O9  1  0.409318  0.563831  0.820265  1
  O  O10  1  0.175473  0.590544  0.434855  1
  O  O11  1  0.695903  0.042197  0.928992  1
  O  O12  1  0.436638  0.174571  0.587189  1
  O  O13  1  0.563301  0.818021  0.409835  1
  O  O14  1  0.305264  0.958697  0.069963  1
  O  O15  1  0.821323  0.406914  0.564190  1
  O  O16  1  0.586561  0.433147  0.176432  1
  O  O17  1  0.958457  0.073226  0.303692  1
  O  O18  1  0.931899  0.696541  0.032541  1
