# generated using pymatgen
data_Nd3Be2Rh5
_symmetry_space_group_name_H-M   'P 1'
_cell_length_a   9.99169300
_cell_length_b   9.99169300
_cell_length_c   3.49903700
_cell_angle_alpha   90.00000000
_cell_angle_beta   90.00000000
_cell_angle_gamma   90.00000000
_symmetry_Int_Tables_number   1
_chemical_formula_structural   Nd3Be2Rh5
_chemical_formula_sum   'Nd6 Be4 Rh10'
_cell_volume   349.32261145
_cell_formula_units_Z   2
loop_
 _symmetry_equiv_pos_site_id
 _symmetry_equiv_pos_as_xyz
  1  'x, y, z'
loop_
 _atom_site_type_symbol
 _atom_site_label
 _atom_site_symmetry_multiplicity
 _atom_site_fract_x
 _atom_site_fract_y
 _atom_site_fract_z
 _atom_site_occupancy
  Nd  Nd0  1  0.826642  0.326642  0.000000  1
  Nd  Nd1  1  0.326642  0.173358  0.000000  1
  Nd  Nd2  1  0.673358  0.826642  0.000000  1
  Nd  Nd3  1  0.173358  0.673358  0.000000  1
  Nd  Nd4  1  0.000000  0.000000  0.000000  1
  Nd  Nd5  1  0.500000  0.500000  0.000000  1
  Be  Be6  1  0.619840  0.119840  0.000000  1
  Be  Be7  1  0.119840  0.380160  0.000000  1
  Be  Be8  1  0.880160  0.619840  0.000000  1
  Be  Be9  1  0.380160  0.880160  0.000000  1
  Rh  Rh10  1  0.071741  0.226865  0.500000  1
  Rh  Rh11  1  0.226865  0.928259  0.500000  1
  Rh  Rh12  1  0.773135  0.071741  0.500000  1
  Rh  Rh13  1  0.928259  0.773135  0.500000  1
  Rh  Rh14  1  0.428259  0.726865  0.500000  1
  Rh  Rh15  1  0.571741  0.273135  0.500000  1
  Rh  Rh16  1  0.726865  0.571741  0.500000  1
  Rh  Rh17  1  0.273135  0.428259  0.500000  1
  Rh  Rh18  1  0.500000  0.000000  0.500000  1
  Rh  Rh19  1  0.000000  0.500000  0.500000  1
