# generated using pymatgen
data_Eu2Ni3P7Ru9
_symmetry_space_group_name_H-M   'P 1'
_cell_length_a   3.84381800
_cell_length_b   9.43251837
_cell_length_c   9.46790420
_cell_angle_alpha   119.99076683
_cell_angle_beta   90.00000000
_cell_angle_gamma   90.00000000
_symmetry_Int_Tables_number   1
_chemical_formula_structural   Eu2Ni3P7Ru9
_chemical_formula_sum   'Eu2 Ni3 P7 Ru9'
_cell_volume   297.31400101
_cell_formula_units_Z   1
loop_
 _symmetry_equiv_pos_site_id
 _symmetry_equiv_pos_as_xyz
  1  'x, y, z'
loop_
 _atom_site_type_symbol
 _atom_site_label
 _atom_site_symmetry_multiplicity
 _atom_site_fract_x
 _atom_site_fract_y
 _atom_site_fract_z
 _atom_site_occupancy
  Eu  Eu0  1  0.000000  0.666982  0.334103  1
  Eu  Eu1  1  0.500000  0.334200  0.666630  1
  Ni  Ni2  1  0.000000  0.890791  0.731418  1
  Ni  Ni3  1  0.000000  0.270151  0.159824  1
  Ni  Ni4  1  0.000000  0.840866  0.108672  1
  P  P5  1  0.000000  0.110768  0.699132  1
  P  P6  1  0.000000  0.299476  0.409978  1
  P  P7  1  0.000000  0.590295  0.889545  1
  P  P8  1  0.500000  0.709614  0.598304  1
  P  P9  1  0.500000  0.402170  0.111705  1
  P  P10  1  0.500000  0.888457  0.291025  1
  P  P11  1  0.000000  0.000962  0.999989  1
  Ru  Ru12  1  0.000000  0.365475  0.941481  1
  Ru  Ru13  1  0.000000  0.057055  0.422487  1
  Ru  Ru14  1  0.000000  0.576016  0.633637  1
  Ru  Ru15  1  0.500000  0.951989  0.571622  1
  Ru  Ru16  1  0.500000  0.429122  0.380509  1
  Ru  Ru17  1  0.500000  0.619578  0.049704  1
  Ru  Ru18  1  0.500000  0.121624  0.919923  1
  Ru  Ru19  1  0.500000  0.081335  0.203637  1
  Ru  Ru20  1  0.500000  0.793075  0.876673  1
