# generated using pymatgen
data_Th4Ga18OsRh5
_symmetry_space_group_name_H-M   'P 1'
_cell_length_a   7.71078290
_cell_length_b   7.71087264
_cell_length_c   9.53662965
_cell_angle_alpha   89.86268766
_cell_angle_beta   89.85113731
_cell_angle_gamma   119.63494101
_symmetry_Int_Tables_number   1
_chemical_formula_structural   Th4Ga18OsRh5
_chemical_formula_sum   'Th4 Ga18 Os1 Rh5'
_cell_volume   492.84238847
_cell_formula_units_Z   1
loop_
 _symmetry_equiv_pos_site_id
 _symmetry_equiv_pos_as_xyz
  1  'x, y, z'
loop_
 _atom_site_type_symbol
 _atom_site_label
 _atom_site_symmetry_multiplicity
 _atom_site_fract_x
 _atom_site_fract_y
 _atom_site_fract_z
 _atom_site_occupancy
  Th  Th0  1  0.997426  0.672967  0.248759  1
  Th  Th1  1  0.002574  0.327033  0.751241  1
  Th  Th2  1  0.672963  0.997429  0.248759  1
  Th  Th3  1  0.327037  0.002571  0.751241  1
  Ga  Ga4  1  0.133697  0.133689  0.250329  1
  Ga  Ga5  1  0.866303  0.866311  0.749671  1
  Ga  Ga6  1  0.005419  0.336612  0.078626  1
  Ga  Ga7  1  0.994581  0.663388  0.921374  1
  Ga  Ga8  1  0.995408  0.664148  0.578558  1
  Ga  Ga9  1  0.335797  0.004549  0.421427  1
  Ga  Ga10  1  0.004592  0.335852  0.421442  1
  Ga  Ga11  1  0.664203  0.995451  0.578573  1
  Ga  Ga12  1  0.663383  0.994573  0.921369  1
  Ga  Ga13  1  0.336617  0.005427  0.078631  1
  Ga  Ga14  1  0.337152  0.337167  0.560700  1
  Ga  Ga15  1  0.662848  0.662833  0.439300  1
  Ga  Ga16  1  0.664079  0.664082  0.058054  1
  Ga  Ga17  1  0.335921  0.335918  0.941946  1
  Ga  Ga18  1  0.340906  0.546635  0.249894  1
  Ga  Ga19  1  0.659094  0.453365  0.750106  1
  Ga  Ga20  1  0.546619  0.340902  0.249882  1
  Ga  Ga21  1  0.453381  0.659098  0.750118  1
  Os  Os22  1  0.000000  0.000000  0.000000  1
  Rh  Rh23  1  0.671899  0.328117  0.000002  1
  Rh  Rh24  1  0.328101  0.671883  0.999998  1
  Rh  Rh25  1  0.327852  0.672183  0.499997  1
  Rh  Rh26  1  0.672148  0.327817  0.500003  1
  Rh  Rh27  1  0.000000  0.000000  0.500000  1
