# generated using pymatgen
data_Y2ErZnSn3Ir2
_symmetry_space_group_name_H-M   'P 1'
_cell_length_a   7.46137197
_cell_length_b   7.48402492
_cell_length_c   4.03759200
_cell_angle_alpha   90.00000000
_cell_angle_beta   90.00000000
_cell_angle_gamma   119.84164797
_symmetry_Int_Tables_number   1
_chemical_formula_structural   Y2ErZnSn3Ir2
_chemical_formula_sum   'Y2 Er1 Zn1 Sn3 Ir2'
_cell_volume   195.56798288
_cell_formula_units_Z   1
loop_
 _symmetry_equiv_pos_site_id
 _symmetry_equiv_pos_as_xyz
  1  'x, y, z'
loop_
 _atom_site_type_symbol
 _atom_site_label
 _atom_site_symmetry_multiplicity
 _atom_site_fract_x
 _atom_site_fract_y
 _atom_site_fract_z
 _atom_site_occupancy
  Y  Y0  1  0.394037  0.409127  0.500000  1
  Y  Y1  1  0.590590  0.984965  0.500000  1
  Er  Er2  1  0.017860  0.608270  0.500000  1
  Zn  Zn3  1  0.667816  0.334406  0.000000  1
  Sn  Sn4  1  0.745132  0.742720  0.000000  1
  Sn  Sn5  1  0.256579  0.001164  0.000000  1
  Sn  Sn6  1  0.998524  0.255555  0.000000  1
  Ir  Ir7  1  0.329720  0.665684  0.000000  1
  Ir  Ir8  1  0.999744  0.998109  0.500000  1
