# generated using pymatgen
data_Rb2S8IO26
_symmetry_space_group_name_H-M   'P 1'
_cell_length_a   7.63378476
_cell_length_b   9.25391355
_cell_length_c   9.66136547
_cell_angle_alpha   103.66541089
_cell_angle_beta   88.31347666
_cell_angle_gamma   106.04633749
_symmetry_Int_Tables_number   1
_chemical_formula_structural   Rb2S8IO26
_chemical_formula_sum   'Rb2 S8 I1 O26'
_cell_volume   636.87258327
_cell_formula_units_Z   1
loop_
 _symmetry_equiv_pos_site_id
 _symmetry_equiv_pos_as_xyz
  1  'x, y, z'
loop_
 _atom_site_type_symbol
 _atom_site_label
 _atom_site_symmetry_multiplicity
 _atom_site_fract_x
 _atom_site_fract_y
 _atom_site_fract_z
 _atom_site_occupancy
  Rb  Rb0  1  0.129366  0.247208  0.871190  1
  Rb  Rb1  1  0.870634  0.752792  0.128810  1
  S  S2  1  0.677576  0.348127  0.712719  1
  S  S3  1  0.322424  0.651873  0.287281  1
  S  S4  1  0.865622  0.189562  0.481868  1
  S  S5  1  0.134378  0.810438  0.518132  1
  S  S6  1  0.371211  0.126069  0.208041  1
  S  S7  1  0.628789  0.873931  0.791959  1
  S  S8  1  0.787154  0.219866  0.193753  1
  S  S9  1  0.212846  0.780134  0.806247  1
  I  I10  1  0.500000  0.500000  0.500000  1
  O  O11  1  0.691586  0.191721  0.581413  1
  O  O12  1  0.308414  0.808279  0.418587  1
  O  O13  1  0.712602  0.475275  0.630891  1
  O  O14  1  0.287398  0.524725  0.369109  1
  O  O15  1  0.824501  0.383024  0.814820  1
  O  O16  1  0.175499  0.616976  0.185180  1
  O  O17  1  0.829157  0.288841  0.373268  1
  O  O18  1  0.170843  0.711159  0.626732  1
  O  O19  1  0.029215  0.280450  0.562566  1
  O  O20  1  0.970785  0.719550  0.437434  1
  O  O21  1  0.492217  0.297124  0.751218  1
  O  O22  1  0.507783  0.702876  0.248782  1
  O  O23  1  0.838268  0.031493  0.409267  1
  O  O24  1  0.161732  0.968507  0.590733  1
  O  O25  1  0.380102  0.189563  0.362032  1
  O  O26  1  0.619898  0.810437  0.637968  1
  O  O27  1  0.605524  0.093098  0.181746  1
  O  O28  1  0.394476  0.906902  0.818254  1
  O  O29  1  0.775465  0.356451  0.154837  1
  O  O30  1  0.224535  0.643549  0.845163  1
  O  O31  1  0.927267  0.147163  0.140988  1
  O  O32  1  0.072733  0.852837  0.859012  1
  O  O33  1  0.369512  0.229078  0.117869  1
  O  O34  1  0.630488  0.770922  0.882131  1
  O  O35  1  0.269570  0.965952  0.162275  1
  O  O36  1  0.730430  0.034048  0.837725  1
