# generated using pymatgen
data_Tm2SnB2Ir5
_symmetry_space_group_name_H-M   'P 1'
_cell_length_a   3.28134400
_cell_length_b   9.57300900
_cell_length_c   9.57300900
_cell_angle_alpha   90.00000000
_cell_angle_beta   90.00000000
_cell_angle_gamma   90.00000000
_symmetry_Int_Tables_number   1
_chemical_formula_structural   Tm2SnB2Ir5
_chemical_formula_sum   'Tm4 Sn2 B4 Ir10'
_cell_volume   300.71057183
_cell_formula_units_Z   2
loop_
 _symmetry_equiv_pos_site_id
 _symmetry_equiv_pos_as_xyz
  1  'x, y, z'
loop_
 _atom_site_type_symbol
 _atom_site_label
 _atom_site_symmetry_multiplicity
 _atom_site_fract_x
 _atom_site_fract_y
 _atom_site_fract_z
 _atom_site_occupancy
  Tm  Tm0  1  0.000000  0.176747  0.676747  1
  Tm  Tm1  1  0.000000  0.823253  0.323253  1
  Tm  Tm2  1  0.000000  0.323253  0.176747  1
  Tm  Tm3  1  0.000000  0.676747  0.823253  1
  Sn  Sn4  1  0.000000  0.000000  0.000000  1
  Sn  Sn5  1  0.000000  0.500000  0.500000  1
  B  B6  1  0.000000  0.619822  0.119822  1
  B  B7  1  0.000000  0.380178  0.880178  1
  B  B8  1  0.000000  0.880178  0.619822  1
  B  B9  1  0.000000  0.119822  0.380178  1
  Ir  Ir10  1  0.500000  0.069800  0.224761  1
  Ir  Ir11  1  0.500000  0.930200  0.775239  1
  Ir  Ir12  1  0.500000  0.775239  0.069800  1
  Ir  Ir13  1  0.500000  0.430200  0.724761  1
  Ir  Ir14  1  0.500000  0.224761  0.930200  1
  Ir  Ir15  1  0.500000  0.569800  0.275239  1
  Ir  Ir16  1  0.500000  0.724761  0.569800  1
  Ir  Ir17  1  0.500000  0.275239  0.430200  1
  Ir  Ir18  1  0.500000  0.000000  0.500000  1
  Ir  Ir19  1  0.500000  0.500000  0.000000  1
