# generated using pymatgen
data_Lu5GaBiPt
_symmetry_space_group_name_H-M   'P 1'
_cell_length_a   8.53149873
_cell_length_b   8.53149764
_cell_length_c   8.58559604
_cell_angle_alpha   125.21325909
_cell_angle_beta   125.21326029
_cell_angle_gamma   80.76086656
_symmetry_Int_Tables_number   1
_chemical_formula_structural   Lu5GaBiPt
_chemical_formula_sum   'Lu10 Ga2 Bi2 Pt2'
_cell_volume   403.06025040
_cell_formula_units_Z   2
loop_
 _symmetry_equiv_pos_site_id
 _symmetry_equiv_pos_as_xyz
  1  'x, y, z'
loop_
 _atom_site_type_symbol
 _atom_site_label
 _atom_site_symmetry_multiplicity
 _atom_site_fract_x
 _atom_site_fract_y
 _atom_site_fract_z
 _atom_site_occupancy
  Lu  Lu0  1  0.000000  0.000000  0.000000  1
  Lu  Lu1  1  0.500000  0.500000  0.000000  1
  Lu  Lu2  1  0.785536  0.285536  0.797069  1
  Lu  Lu3  1  0.214464  0.714464  0.202931  1
  Lu  Lu4  1  0.488466  0.988466  0.202931  1
  Lu  Lu5  1  0.300356  0.472546  0.500000  1
  Lu  Lu6  1  0.027454  0.199644  0.500000  1
  Lu  Lu7  1  0.511534  0.011534  0.797069  1
  Lu  Lu8  1  0.699644  0.527454  0.500000  1
  Lu  Lu9  1  0.972546  0.800356  0.500000  1
  Ga  Ga10  1  0.138975  0.638975  0.777950  1
  Ga  Ga11  1  0.861025  0.361025  0.222050  1
  Bi  Bi12  1  0.250000  0.250000  0.000000  1
  Bi  Bi13  1  0.750000  0.750000  0.000000  1
  Pt  Pt14  1  0.637521  0.862479  0.500000  1
  Pt  Pt15  1  0.362479  0.137521  0.500000  1
