# generated using pymatgen
data_ErLuGaB2Ir5
_symmetry_space_group_name_H-M   'P 1'
_cell_length_a   9.53749292
_cell_length_b   9.53749292
_cell_length_c   3.15121800
_cell_angle_alpha   90.00000000
_cell_angle_beta   90.00000000
_cell_angle_gamma   89.79062909
_symmetry_Int_Tables_number   1
_chemical_formula_structural   ErLuGaB2Ir5
_chemical_formula_sum   'Er2 Lu2 Ga2 B4 Ir10'
_cell_volume   286.64475929
_cell_formula_units_Z   2
loop_
 _symmetry_equiv_pos_site_id
 _symmetry_equiv_pos_as_xyz
  1  'x, y, z'
loop_
 _atom_site_type_symbol
 _atom_site_label
 _atom_site_symmetry_multiplicity
 _atom_site_fract_x
 _atom_site_fract_y
 _atom_site_fract_z
 _atom_site_occupancy
  Er  Er0  1  0.676336  0.176336  0.000000  1
  Er  Er1  1  0.323664  0.823664  0.000000  1
  Lu  Lu2  1  0.175835  0.324165  0.000000  1
  Lu  Lu3  1  0.824165  0.675835  0.000000  1
  Ga  Ga4  1  0.000000  0.000000  0.000000  1
  Ga  Ga5  1  0.500000  0.500000  0.000000  1
  B  B6  1  0.123075  0.623075  0.000000  1
  B  B7  1  0.876925  0.376925  0.000000  1
  B  B8  1  0.623738  0.876262  0.000000  1
  B  B9  1  0.376262  0.123738  0.000000  1
  Ir  Ir10  1  0.218062  0.070548  0.500000  1
  Ir  Ir11  1  0.781938  0.929452  0.500000  1
  Ir  Ir12  1  0.068204  0.780760  0.500000  1
  Ir  Ir13  1  0.719240  0.431796  0.500000  1
  Ir  Ir14  1  0.931796  0.219240  0.500000  1
  Ir  Ir15  1  0.280760  0.568204  0.500000  1
  Ir  Ir16  1  0.570548  0.718062  0.500000  1
  Ir  Ir17  1  0.429452  0.281938  0.500000  1
  Ir  Ir18  1  0.500000  0.000000  0.500000  1
  Ir  Ir19  1  0.000000  0.500000  0.500000  1
