# generated using pymatgen
data_Ta5Ti2Nb(Co4Si7)2
_symmetry_space_group_name_H-M   'P 1'
_cell_length_a   9.19690947
_cell_length_b   9.19728150
_cell_length_c   9.20046801
_cell_angle_alpha   94.22220590
_cell_angle_beta   94.19493195
_cell_angle_gamma   148.55314618
_symmetry_Int_Tables_number   1
_chemical_formula_structural   Ta5Ti2Nb(Co4Si7)2
_chemical_formula_sum   'Ta5 Ti2 Nb1 Co8 Si14'
_cell_volume   390.84022735
_cell_formula_units_Z   1
loop_
 _symmetry_equiv_pos_site_id
 _symmetry_equiv_pos_as_xyz
  1  'x, y, z'
loop_
 _atom_site_type_symbol
 _atom_site_label
 _atom_site_symmetry_multiplicity
 _atom_site_fract_x
 _atom_site_fract_y
 _atom_site_fract_z
 _atom_site_occupancy
  Ta  Ta0  1  0.866702  0.866599  0.733361  1
  Ta  Ta1  1  0.866410  0.133251  0.999663  1
  Ta  Ta2  1  0.133098  0.866154  0.999268  1
  Ta  Ta3  1  0.499719  0.689857  0.189604  1
  Ta  Ta4  1  0.499995  0.310371  0.810330  1
  Ti  Ti5  1  0.309130  0.499956  0.809062  1
  Ti  Ti6  1  0.691007  0.499826  0.190828  1
  Nb  Nb7  1  0.133133  0.133261  0.266338  1
  Co  Co8  1  0.399507  0.899799  0.798316  1
  Co  Co9  1  0.101365  0.601080  0.201633  1
  Co  Co10  1  0.101615  0.899745  0.500688  1
  Co  Co11  1  0.399638  0.601444  0.500061  1
  Co  Co12  1  0.600937  0.399080  0.500695  1
  Co  Co13  1  0.898606  0.100428  0.500061  1
  Co  Co14  1  0.898543  0.398843  0.798350  1
  Co  Co15  1  0.600514  0.100236  0.201611  1
  Si  Si16  1  0.291737  0.293048  0.585082  1
  Si  Si17  1  0.708314  0.706839  0.414840  1
  Si  Si18  1  0.707900  0.293284  0.001302  1
  Si  Si19  1  0.291944  0.706600  0.998440  1
  Si  Si20  1  0.000202  0.297435  0.297653  1
  Si  Si21  1  0.000107  0.702491  0.702344  1
  Si  Si22  1  0.703748  0.999983  0.703780  1
  Si  Si23  1  0.295967  0.000142  0.296288  1
  Si  Si24  1  0.500006  0.906152  0.406226  1
  Si  Si25  1  0.499895  0.093764  0.593826  1
  Si  Si26  1  0.094488  0.500088  0.594484  1
  Si  Si27  1  0.905585  0.500175  0.405609  1
  Si  Si28  1  0.749707  0.749651  0.000127  1
  Si  Si29  1  0.250480  0.250418  0.000131  1
