# generated using pymatgen
data_Y2Ni6As3P
_symmetry_space_group_name_H-M   'P 1'
_cell_length_a   3.87347200
_cell_length_b   10.75224646
_cell_length_c   12.62202003
_cell_angle_alpha   90.09177614
_cell_angle_beta   90.00000000
_cell_angle_gamma   90.00000000
_symmetry_Int_Tables_number   1
_chemical_formula_structural   Y2Ni6As3P
_chemical_formula_sum   'Y6 Ni18 As9 P3'
_cell_volume   525.68785014
_cell_formula_units_Z   3
loop_
 _symmetry_equiv_pos_site_id
 _symmetry_equiv_pos_as_xyz
  1  'x, y, z'
loop_
 _atom_site_type_symbol
 _atom_site_label
 _atom_site_symmetry_multiplicity
 _atom_site_fract_x
 _atom_site_fract_y
 _atom_site_fract_z
 _atom_site_occupancy
  Y  Y0  1  0.000000  0.495139  0.526224  1
  Y  Y1  1  0.500000  0.001293  0.476432  1
  Y  Y2  1  0.500000  0.818523  0.204007  1
  Y  Y3  1  0.500000  0.182276  0.204573  1
  Y  Y4  1  0.000000  0.680515  0.795211  1
  Y  Y5  1  0.000000  0.317717  0.793052  1
  Ni  Ni6  1  0.500000  0.499811  0.154911  1
  Ni  Ni7  1  0.000000  0.000070  0.845635  1
  Ni  Ni8  1  0.500000  0.493169  0.703776  1
  Ni  Ni9  1  0.000000  0.000238  0.293127  1
  Ni  Ni10  1  0.000000  0.499471  0.972615  1
  Ni  Ni11  1  0.500000  0.000489  0.025617  1
  Ni  Ni12  1  0.500000  0.338572  0.991585  1
  Ni  Ni13  1  0.500000  0.660508  0.991265  1
  Ni  Ni14  1  0.000000  0.161910  0.007130  1
  Ni  Ni15  1  0.000000  0.838082  0.007615  1
  Ni  Ni16  1  0.500000  0.300513  0.437088  1
  Ni  Ni17  1  0.500000  0.697272  0.427892  1
  Ni  Ni18  1  0.000000  0.207815  0.574683  1
  Ni  Ni19  1  0.000000  0.802362  0.573657  1
  Ni  Ni20  1  0.500000  0.881353  0.707444  1
  Ni  Ni21  1  0.500000  0.127411  0.702683  1
  Ni  Ni22  1  0.000000  0.619080  0.292218  1
  Ni  Ni23  1  0.000000  0.379094  0.292420  1
  As  As24  1  0.500000  0.497795  0.346346  1
  As  As25  1  0.000000  0.003039  0.655208  1
  As  As26  1  0.500000  0.682340  0.615423  1
  As  As27  1  0.000000  0.185105  0.385394  1
  As  As28  1  0.000000  0.815502  0.385083  1
  As  As29  1  0.500000  0.848597  0.892097  1
  As  As30  1  0.500000  0.150937  0.890855  1
  As  As31  1  0.000000  0.650436  0.107267  1
  As  As32  1  0.000000  0.349492  0.107353  1
  P  P33  1  0.500000  0.498890  0.875803  1
  P  P34  1  0.000000  0.000426  0.121981  1
  P  P35  1  0.500000  0.314756  0.616331  1
