# generated using pymatgen
data_Li8Ho8Sn3Sb5
_symmetry_space_group_name_H-M   'P 1'
_cell_length_a   9.39050079
_cell_length_b   9.38724081
_cell_length_c   7.07897077
_cell_angle_alpha   89.99607745
_cell_angle_beta   89.91611960
_cell_angle_gamma   119.97878541
_symmetry_Int_Tables_number   1
_chemical_formula_structural   Li8Ho8Sn3Sb5
_chemical_formula_sum   'Li8 Ho8 Sn3 Sb5'
_cell_volume   540.52976378
_cell_formula_units_Z   1
loop_
 _symmetry_equiv_pos_site_id
 _symmetry_equiv_pos_as_xyz
  1  'x, y, z'
loop_
 _atom_site_type_symbol
 _atom_site_label
 _atom_site_symmetry_multiplicity
 _atom_site_fract_x
 _atom_site_fract_y
 _atom_site_fract_z
 _atom_site_occupancy
  Li  Li0  1  0.169203  0.335775  0.279064  1
  Li  Li1  1  0.169204  0.833418  0.279054  1
  Li  Li2  1  0.663408  0.831693  0.281256  1
  Li  Li3  1  0.830905  0.663805  0.781362  1
  Li  Li4  1  0.830913  0.167118  0.781373  1
  Li  Li5  1  0.336622  0.168301  0.780766  1
  Li  Li6  1  0.334124  0.667069  0.683293  1
  Li  Li7  1  0.665276  0.332640  0.184848  1
  Ho  Ho8  1  0.509868  0.022950  0.491765  1
  Ho  Ho9  1  0.509913  0.486949  0.491791  1
  Ho  Ho10  1  0.979860  0.489934  0.492056  1
  Ho  Ho11  1  0.488196  0.978950  0.993398  1
  Ho  Ho12  1  0.488250  0.509280  0.993385  1
  Ho  Ho13  1  0.020469  0.510250  0.993335  1
  Ho  Ho14  1  0.002962  0.001474  0.501130  1
  Ho  Ho15  1  0.002683  0.001332  0.003175  1
  Sn  Sn16  1  0.332208  0.166106  0.233659  1
  Sn  Sn17  1  0.332172  0.666104  0.259279  1
  Sn  Sn18  1  0.667496  0.333748  0.759458  1
  Sb  Sb19  1  0.165215  0.332190  0.735745  1
  Sb  Sb20  1  0.165203  0.833039  0.735761  1
  Sb  Sb21  1  0.667692  0.833793  0.735468  1
  Sb  Sb22  1  0.834069  0.667675  0.235774  1
  Sb  Sb23  1  0.834089  0.166410  0.235775  1
