# generated using pymatgen
data_Tb6CrP12Rh17
_symmetry_space_group_name_H-M   'P 1'
_cell_length_a   3.92932700
_cell_length_b   11.22843600
_cell_length_c   12.78934500
_cell_angle_alpha   90.00000000
_cell_angle_beta   90.00000000
_cell_angle_gamma   90.00000000
_symmetry_Int_Tables_number   1
_chemical_formula_structural   Tb6CrP12Rh17
_chemical_formula_sum   'Tb6 Cr1 P12 Rh17'
_cell_volume   564.26841761
_cell_formula_units_Z   1
loop_
 _symmetry_equiv_pos_site_id
 _symmetry_equiv_pos_as_xyz
  1  'x, y, z'
loop_
 _atom_site_type_symbol
 _atom_site_label
 _atom_site_symmetry_multiplicity
 _atom_site_fract_x
 _atom_site_fract_y
 _atom_site_fract_z
 _atom_site_occupancy
  Tb  Tb0  1  0.000000  0.500000  0.519306  1
  Tb  Tb1  1  0.500000  0.000000  0.479471  1
  Tb  Tb2  1  0.500000  0.815201  0.205343  1
  Tb  Tb3  1  0.500000  0.184799  0.205343  1
  Tb  Tb4  1  0.000000  0.683555  0.796802  1
  Tb  Tb5  1  0.000000  0.316445  0.796802  1
  Cr  Cr6  1  0.500000  0.500000  0.162173  1
  P  P7  1  0.500000  0.500000  0.878845  1
  P  P8  1  0.000000  0.000000  0.121164  1
  P  P9  1  0.500000  0.500000  0.345209  1
  P  P10  1  0.000000  0.000000  0.649244  1
  P  P11  1  0.500000  0.315659  0.618262  1
  P  P12  1  0.500000  0.684341  0.618262  1
  P  P13  1  0.000000  0.185997  0.381861  1
  P  P14  1  0.000000  0.814003  0.381861  1
  P  P15  1  0.500000  0.847143  0.891730  1
  P  P16  1  0.500000  0.152857  0.891730  1
  P  P17  1  0.000000  0.653174  0.108669  1
  P  P18  1  0.000000  0.346826  0.108669  1
  Rh  Rh19  1  0.000000  0.000000  0.831380  1
  Rh  Rh20  1  0.500000  0.500000  0.700576  1
  Rh  Rh21  1  0.000000  0.000000  0.299097  1
  Rh  Rh22  1  0.000000  0.500000  0.984987  1
  Rh  Rh23  1  0.500000  0.000000  0.020259  1
  Rh  Rh24  1  0.500000  0.333597  0.993664  1
  Rh  Rh25  1  0.500000  0.666403  0.993664  1
  Rh  Rh26  1  0.000000  0.166310  0.007853  1
  Rh  Rh27  1  0.000000  0.833690  0.007853  1
  Rh  Rh28  1  0.500000  0.292598  0.431303  1
  Rh  Rh29  1  0.500000  0.707402  0.431303  1
  Rh  Rh30  1  0.000000  0.205307  0.569679  1
  Rh  Rh31  1  0.000000  0.794693  0.569679  1
  Rh  Rh32  1  0.500000  0.873200  0.710422  1
  Rh  Rh33  1  0.500000  0.126800  0.710422  1
  Rh  Rh34  1  0.000000  0.624939  0.288557  1
  Rh  Rh35  1  0.000000  0.375061  0.288557  1
