# generated using pymatgen
data_HoMg(NiPt)2
_symmetry_space_group_name_H-M   'P 1'
_cell_length_a   4.98006742
_cell_length_b   5.14150303
_cell_length_c   5.14150317
_cell_angle_alpha   63.30905396
_cell_angle_beta   61.03333370
_cell_angle_gamma   61.03333254
_symmetry_Int_Tables_number   1
_chemical_formula_structural   HoMg(NiPt)2
_chemical_formula_sum   'Ho1 Mg1 Ni2 Pt2'
_cell_volume   96.72810226
_cell_formula_units_Z   1
loop_
 _symmetry_equiv_pos_site_id
 _symmetry_equiv_pos_as_xyz
  1  'x, y, z'
loop_
 _atom_site_type_symbol
 _atom_site_label
 _atom_site_symmetry_multiplicity
 _atom_site_fract_x
 _atom_site_fract_y
 _atom_site_fract_z
 _atom_site_occupancy
  Ho  Ho0  1  0.247423  0.252577  0.252577  1
  Mg  Mg1  1  0.007622  0.992378  0.992378  1
  Ni  Ni2  1  0.122215  0.627181  0.627181  1
  Ni  Ni3  1  0.623423  0.627181  0.627181  1
  Pt  Pt4  1  0.624659  0.627275  0.123409  1
  Pt  Pt5  1  0.624659  0.123409  0.627275  1
