# generated using pymatgen
data_Dy2Al16Pt9
_symmetry_space_group_name_H-M   'P 1'
_cell_length_a   11.14944196
_cell_length_b   11.14944234
_cell_length_c   11.14944279
_cell_angle_alpha   158.59989986
_cell_angle_beta   115.11107569
_cell_angle_gamma   69.18022411
_symmetry_Int_Tables_number   1
_chemical_formula_structural   Dy2Al16Pt9
_chemical_formula_sum   'Dy2 Al16 Pt9'
_cell_volume   454.60454408
_cell_formula_units_Z   1
loop_
 _symmetry_equiv_pos_site_id
 _symmetry_equiv_pos_as_xyz
  1  'x, y, z'
loop_
 _atom_site_type_symbol
 _atom_site_label
 _atom_site_symmetry_multiplicity
 _atom_site_fract_x
 _atom_site_fract_y
 _atom_site_fract_z
 _atom_site_occupancy
  Dy  Dy0  1  0.228299  0.228299  0.000000  1
  Dy  Dy1  1  0.771701  0.771701  0.000000  1
  Al  Al2  1  0.271624  0.391355  0.880269  1
  Al  Al3  1  0.091884  0.920248  0.171636  1
  Al  Al4  1  0.513013  0.204294  0.308721  1
  Al  Al5  1  0.251388  0.079752  0.171636  1
  Al  Al6  1  0.912809  0.412809  0.500000  1
  Al  Al7  1  0.728376  0.608645  0.119731  1
  Al  Al8  1  0.895573  0.204294  0.691279  1
  Al  Al9  1  0.486987  0.795706  0.691279  1
  Al  Al10  1  0.386033  0.000000  0.386033  1
  Al  Al11  1  0.613967  0.000000  0.613967  1
  Al  Al12  1  0.488914  0.608645  0.880269  1
  Al  Al13  1  0.104427  0.795706  0.308721  1
  Al  Al14  1  0.908116  0.079752  0.828364  1
  Al  Al15  1  0.748612  0.920248  0.828364  1
  Al  Al16  1  0.511086  0.391355  0.119731  1
  Al  Al17  1  0.087191  0.587191  0.500000  1
  Pt  Pt18  1  0.748125  0.500000  0.248125  1
  Pt  Pt19  1  0.022657  0.339116  0.683541  1
  Pt  Pt20  1  0.626588  0.126588  0.500000  1
  Pt  Pt21  1  0.251875  0.500000  0.751875  1
  Pt  Pt22  1  0.373412  0.873412  0.500000  1
  Pt  Pt23  1  0.000000  0.000000  0.000000  1
  Pt  Pt24  1  0.655574  0.339116  0.316459  1
  Pt  Pt25  1  0.344426  0.660884  0.683541  1
  Pt  Pt26  1  0.977343  0.660884  0.316459  1
