# generated using pymatgen
data_CePa(PtRh)3
_symmetry_space_group_name_H-M   'P 1'
_cell_length_a   4.12121300
_cell_length_b   4.20828000
_cell_length_c   8.07001900
_cell_angle_alpha   90.00000000
_cell_angle_beta   90.00000000
_cell_angle_gamma   90.00000000
_symmetry_Int_Tables_number   1
_chemical_formula_structural   CePa(PtRh)3
_chemical_formula_sum   'Ce1 Pa1 Pt3 Rh3'
_cell_volume   139.96010075
_cell_formula_units_Z   1
loop_
 _symmetry_equiv_pos_site_id
 _symmetry_equiv_pos_as_xyz
  1  'x, y, z'
loop_
 _atom_site_type_symbol
 _atom_site_label
 _atom_site_symmetry_multiplicity
 _atom_site_fract_x
 _atom_site_fract_y
 _atom_site_fract_z
 _atom_site_occupancy
  Ce  Ce0  1  0.000000  0.000000  0.754841  1
  Pa  Pa1  1  0.000000  0.000000  0.244055  1
  Pt  Pt2  1  0.500000  0.500000  0.249549  1
  Pt  Pt3  1  0.500000  0.500000  0.750739  1
  Pt  Pt4  1  0.000000  0.500000  0.496464  1
  Rh  Rh5  1  0.000000  0.500000  0.004889  1
  Rh  Rh6  1  0.500000  0.000000  0.493732  1
  Rh  Rh7  1  0.500000  0.000000  0.005730  1
