# generated using pymatgen
data_Sc3In3SnPdRu
_symmetry_space_group_name_H-M   'P 1'
_cell_length_a   7.90322200
_cell_length_b   7.90322371
_cell_length_c   3.48348900
_cell_angle_alpha   90.00000000
_cell_angle_beta   90.00000000
_cell_angle_gamma   119.99999284
_symmetry_Int_Tables_number   1
_chemical_formula_structural   Sc3In3SnPdRu
_chemical_formula_sum   'Sc3 In3 Sn1 Pd1 Ru1'
_cell_volume   188.43152515
_cell_formula_units_Z   1
loop_
 _symmetry_equiv_pos_site_id
 _symmetry_equiv_pos_as_xyz
  1  'x, y, z'
loop_
 _atom_site_type_symbol
 _atom_site_label
 _atom_site_symmetry_multiplicity
 _atom_site_fract_x
 _atom_site_fract_y
 _atom_site_fract_z
 _atom_site_occupancy
  Sc  Sc0  1  0.044198  0.620361  0.000000  1
  Sc  Sc1  1  0.379639  0.423836  0.000000  1
  Sc  Sc2  1  0.576164  0.955802  0.000000  1
  In  In3  1  0.729785  0.739396  0.500000  1
  In  In4  1  0.009611  0.270215  0.500000  1
  In  In5  1  0.260604  0.990389  0.500000  1
  Sn  Sn6  1  0.666667  0.333333  0.500000  1
  Pd  Pd7  1  0.000000  0.000000  0.000000  1
  Ru  Ru8  1  0.333333  0.666667  0.500000  1
