# generated using pymatgen
data_Nd2Y14Cd4OsPd3
_symmetry_space_group_name_H-M   'P 1'
_cell_length_a   9.80123554
_cell_length_b   9.80123710
_cell_length_c   9.79216411
_cell_angle_alpha   59.38854352
_cell_angle_beta   59.38859468
_cell_angle_gamma   59.51094944
_symmetry_Int_Tables_number   1
_chemical_formula_structural   Nd2Y14Cd4OsPd3
_chemical_formula_sum   'Nd2 Y14 Cd4 Os1 Pd3'
_cell_volume   656.52086029
_cell_formula_units_Z   1
loop_
 _symmetry_equiv_pos_site_id
 _symmetry_equiv_pos_as_xyz
  1  'x, y, z'
loop_
 _atom_site_type_symbol
 _atom_site_label
 _atom_site_symmetry_multiplicity
 _atom_site_fract_x
 _atom_site_fract_y
 _atom_site_fract_z
 _atom_site_occupancy
  Nd  Nd0  1  0.353758  0.353759  0.355125  1
  Nd  Nd1  1  0.350576  0.350575  0.943480  1
  Y  Y2  1  0.351012  0.943008  0.350839  1
  Y  Y3  1  0.943008  0.351013  0.350837  1
  Y  Y4  1  0.817700  0.187580  0.187926  1
  Y  Y5  1  0.187332  0.811231  0.810756  1
  Y  Y6  1  0.187579  0.817701  0.187927  1
  Y  Y7  1  0.811231  0.187332  0.810756  1
  Y  Y8  1  0.186533  0.186533  0.817905  1
  Y  Y9  1  0.810052  0.810051  0.188201  1
  Y  Y10  1  0.934344  0.566422  0.566004  1
  Y  Y11  1  0.560060  0.936084  0.936221  1
  Y  Y12  1  0.566421  0.934344  0.566004  1
  Y  Y13  1  0.936084  0.560060  0.936220  1
  Y  Y14  1  0.566693  0.566694  0.933233  1
  Y  Y15  1  0.937542  0.937541  0.558036  1
  Cd  Cd16  1  0.582114  0.582114  0.578157  1
  Cd  Cd17  1  0.583300  0.583301  0.252601  1
  Cd  Cd18  1  0.584044  0.252630  0.580843  1
  Cd  Cd19  1  0.252631  0.584044  0.580842  1
  Os  Os20  1  0.141866  0.141867  0.147301  1
  Pd  Pd21  1  0.142802  0.142802  0.570024  1
  Pd  Pd22  1  0.140654  0.572661  0.145380  1
  Pd  Pd23  1  0.572661  0.140653  0.145381  1
