# generated using pymatgen
data_Y3Er13(ZnIn3)2
_symmetry_space_group_name_H-M   'P 1'
_cell_length_a   10.58470400
_cell_length_b   10.58470448
_cell_length_c   6.76866600
_cell_angle_alpha   90.00002707
_cell_angle_beta   89.99996752
_cell_angle_gamma   119.99996724
_symmetry_Int_Tables_number   1
_chemical_formula_structural   Y3Er13(ZnIn3)2
_chemical_formula_sum   'Y3 Er13 Zn2 In6'
_cell_volume   656.73674224
_cell_formula_units_Z   1
loop_
 _symmetry_equiv_pos_site_id
 _symmetry_equiv_pos_as_xyz
  1  'x, y, z'
loop_
 _atom_site_type_symbol
 _atom_site_label
 _atom_site_symmetry_multiplicity
 _atom_site_fract_x
 _atom_site_fract_y
 _atom_site_fract_z
 _atom_site_occupancy
  Y  Y0  1  0.666667  0.333333  0.628387  1
  Y  Y1  1  0.000000  0.000000  0.496434  1
  Y  Y2  1  0.000000  0.000000  0.996113  1
  Er  Er3  1  0.478448  0.521552  0.477484  1
  Er  Er4  1  0.043104  0.521552  0.477484  1
  Er  Er5  1  0.478448  0.956896  0.477484  1
  Er  Er6  1  0.520517  0.479483  0.978403  1
  Er  Er7  1  0.958966  0.479483  0.978403  1
  Er  Er8  1  0.520517  0.041034  0.978403  1
  Er  Er9  1  0.826460  0.173540  0.261658  1
  Er  Er10  1  0.347080  0.173540  0.261658  1
  Er  Er11  1  0.826460  0.652921  0.261658  1
  Er  Er12  1  0.173783  0.826217  0.761997  1
  Er  Er13  1  0.652434  0.826217  0.761997  1
  Er  Er14  1  0.173783  0.347566  0.761997  1
  Er  Er15  1  0.333333  0.666667  0.127747  1
  Zn  Zn16  1  0.333333  0.666667  0.695898  1
  Zn  Zn17  1  0.666667  0.333333  0.191373  1
  In  In18  1  0.164460  0.835540  0.244792  1
  In  In19  1  0.671080  0.835540  0.244792  1
  In  In20  1  0.164460  0.328920  0.244791  1
  In  In21  1  0.836187  0.163813  0.745200  1
  In  In22  1  0.327625  0.163813  0.745200  1
  In  In23  1  0.836187  0.672375  0.745200  1
