# generated using pymatgen
data_Dy2Er3Mn2Co17P12
_symmetry_space_group_name_H-M   'P 1'
_cell_length_a   12.02678127
_cell_length_b   12.01355809
_cell_length_c   3.66310100
_cell_angle_alpha   90.00000000
_cell_angle_beta   90.00000000
_cell_angle_gamma   119.96362909
_symmetry_Int_Tables_number   1
_chemical_formula_structural   Dy2Er3Mn2Co17P12
_chemical_formula_sum   'Dy2 Er3 Mn2 Co17 P12'
_cell_volume   458.52143311
_cell_formula_units_Z   1
loop_
 _symmetry_equiv_pos_site_id
 _symmetry_equiv_pos_as_xyz
  1  'x, y, z'
loop_
 _atom_site_type_symbol
 _atom_site_label
 _atom_site_symmetry_multiplicity
 _atom_site_fract_x
 _atom_site_fract_y
 _atom_site_fract_z
 _atom_site_occupancy
  Dy  Dy0  1  0.666559  0.333346  0.000000  1
  Dy  Dy1  1  0.333441  0.666788  0.000000  1
  Er  Er2  1  0.186299  0.185595  0.500000  1
  Er  Er3  1  0.813701  0.999296  0.500000  1
  Er  Er4  1  0.000000  0.811891  0.500000  1
  Mn  Mn5  1  0.556675  0.556890  0.000000  1
  Mn  Mn6  1  0.443325  0.000215  0.000000  1
  Co  Co7  1  0.000000  0.448003  0.000000  1
  Co  Co8  1  0.823358  0.200243  0.000000  1
  Co  Co9  1  0.801899  0.622747  0.000000  1
  Co  Co10  1  0.375668  0.177880  0.000000  1
  Co  Co11  1  0.198101  0.820848  0.000000  1
  Co  Co12  1  0.624332  0.802212  0.000000  1
  Co  Co13  1  0.176642  0.376885  0.000000  1
  Co  Co14  1  0.643424  0.125775  0.500000  1
  Co  Co15  1  0.875411  0.516533  0.500000  1
  Co  Co16  1  0.482606  0.357222  0.500000  1
  Co  Co17  1  0.124589  0.641122  0.500000  1
  Co  Co18  1  0.517394  0.874615  0.500000  1
  Co  Co19  1  0.356576  0.482351  0.500000  1
  Co  Co20  1  0.717436  0.716961  0.500000  1
  Co  Co21  1  0.282564  0.999525  0.500000  1
  Co  Co22  1  0.000000  0.284298  0.500000  1
  Co  Co23  1  0.000000  0.000926  0.000000  1
  P  P24  1  0.363614  0.364369  0.000000  1
  P  P25  1  0.636386  0.000755  0.000000  1
  P  P26  1  0.000000  0.632751  0.000000  1
  P  P27  1  0.835064  0.314709  0.500000  1
  P  P28  1  0.686023  0.520012  0.500000  1
  P  P29  1  0.479244  0.165516  0.500000  1
  P  P30  1  0.313977  0.833989  0.500000  1
  P  P31  1  0.520756  0.686272  0.500000  1
  P  P32  1  0.164936  0.479645  0.500000  1
  P  P33  1  0.820824  0.820018  0.000000  1
  P  P34  1  0.179176  0.999194  0.000000  1
  P  P35  1  0.000000  0.180598  0.000000  1
