# generated using pymatgen
data_Zr5(Re7Tc)3
_symmetry_space_group_name_H-M   'P 1'
_cell_length_a   8.49695078
_cell_length_b   8.48769548
_cell_length_c   8.48769463
_cell_angle_alpha   109.44912283
_cell_angle_beta   109.49330863
_cell_angle_gamma   109.49331241
_symmetry_Int_Tables_number   1
_chemical_formula_structural   Zr5(Re7Tc)3
_chemical_formula_sum   'Zr5 Re21 Tc3'
_cell_volume   471.08825029
_cell_formula_units_Z   1
loop_
 _symmetry_equiv_pos_site_id
 _symmetry_equiv_pos_as_xyz
  1  'x, y, z'
loop_
 _atom_site_type_symbol
 _atom_site_label
 _atom_site_symmetry_multiplicity
 _atom_site_fract_x
 _atom_site_fract_y
 _atom_site_fract_z
 _atom_site_occupancy
  Zr  Zr0  1  0.999357  0.000000  0.000000  1
  Zr  Zr1  1  0.626011  0.000000  0.000000  1
  Zr  Zr2  1  0.999776  0.628108  0.000000  1
  Zr  Zr3  1  0.999776  0.000000  0.628108  1
  Zr  Zr4  1  0.371668  0.371892  0.371892  1
  Re  Re5  1  0.675664  0.395476  0.000000  1
  Re  Re6  1  0.001177  0.396678  0.676523  1
  Re  Re7  1  0.324653  0.720155  0.323477  1
  Re  Re8  1  0.324653  0.323477  0.720155  1
  Re  Re9  1  0.001177  0.676523  0.396678  1
  Re  Re10  1  0.675664  0.000000  0.395476  1
  Re  Re11  1  0.604498  0.603322  0.279845  1
  Re  Re12  1  0.280188  0.604524  0.604524  1
  Re  Re13  1  0.604498  0.279845  0.603322  1
  Re  Re14  1  0.375355  0.195054  0.000000  1
  Re  Re15  1  0.180301  0.804946  0.804946  1
  Re  Re16  1  0.375355  0.000000  0.195054  1
  Re  Re17  1  0.194506  0.377713  0.000000  1
  Re  Re18  1  0.000486  0.376501  0.194213  1
  Re  Re19  1  0.806274  0.182288  0.805787  1
  Re  Re20  1  0.806274  0.805787  0.182288  1
  Re  Re21  1  0.000486  0.194213  0.376501  1
  Re  Re22  1  0.194506  0.000000  0.377713  1
  Re  Re23  1  0.623986  0.623499  0.817712  1
  Re  Re24  1  0.816793  0.622287  0.622287  1
  Re  Re25  1  0.623986  0.817712  0.623499  1
  Tc  Tc26  1  0.396886  0.677729  0.000000  1
  Tc  Tc27  1  0.719158  0.322271  0.322271  1
  Tc  Tc28  1  0.396886  0.000000  0.677729  1
