# generated using pymatgen
data_CeNp(TaN2)2
_symmetry_space_group_name_H-M   'P 1'
_cell_length_a   3.28061300
_cell_length_b   5.71922368
_cell_length_c   11.03438139
_cell_angle_alpha   89.94320265
_cell_angle_beta   90.00000000
_cell_angle_gamma   90.00000000
_symmetry_Int_Tables_number   1
_chemical_formula_structural   CeNp(TaN2)2
_chemical_formula_sum   'Ce2 Np2 Ta4 N8'
_cell_volume   207.03313643
_cell_formula_units_Z   2
loop_
 _symmetry_equiv_pos_site_id
 _symmetry_equiv_pos_as_xyz
  1  'x, y, z'
loop_
 _atom_site_type_symbol
 _atom_site_label
 _atom_site_symmetry_multiplicity
 _atom_site_fract_x
 _atom_site_fract_y
 _atom_site_fract_z
 _atom_site_occupancy
  Ce  Ce0  1  0.250000  0.579217  0.859193  1
  Ce  Ce1  1  0.750000  0.420783  0.140807  1
  Np  Np2  1  0.750000  0.920614  0.362508  1
  Np  Np3  1  0.250000  0.079386  0.637492  1
  Ta  Ta4  1  0.250000  0.922590  0.106802  1
  Ta  Ta5  1  0.750000  0.077410  0.893198  1
  Ta  Ta6  1  0.750000  0.578533  0.604452  1
  Ta  Ta7  1  0.250000  0.421467  0.395548  1
  N  N8  1  0.250000  0.667161  0.249248  1
  N  N9  1  0.750000  0.332839  0.750752  1
  N  N10  1  0.750000  0.840963  0.742241  1
  N  N11  1  0.250000  0.159037  0.257759  1
  N  N12  1  0.250000  0.749850  0.507111  1
  N  N13  1  0.750000  0.250150  0.492889  1
  N  N14  1  0.750000  0.761515  0.008931  1
  N  N15  1  0.250000  0.238485  0.991069  1
