# generated using pymatgen
data_Nd3Ho5(AgRh)2
_symmetry_space_group_name_H-M   'P 1'
_cell_length_a   9.63192361
_cell_length_b   9.63192240
_cell_length_c   9.63192300
_cell_angle_alpha   60.00000136
_cell_angle_beta   60.00000553
_cell_angle_gamma   60.00000546
_symmetry_Int_Tables_number   1
_chemical_formula_structural   Nd3Ho5(AgRh)2
_chemical_formula_sum   'Nd6 Ho10 Ag4 Rh4'
_cell_volume   631.86463554
_cell_formula_units_Z   2
loop_
 _symmetry_equiv_pos_site_id
 _symmetry_equiv_pos_as_xyz
  1  'x, y, z'
loop_
 _atom_site_type_symbol
 _atom_site_label
 _atom_site_symmetry_multiplicity
 _atom_site_fract_x
 _atom_site_fract_y
 _atom_site_fract_z
 _atom_site_occupancy
  Nd  Nd0  1  0.188978  0.811022  0.811022  1
  Nd  Nd1  1  0.811022  0.188978  0.188978  1
  Nd  Nd2  1  0.811022  0.188978  0.811022  1
  Nd  Nd3  1  0.188978  0.811022  0.188978  1
  Nd  Nd4  1  0.811022  0.811022  0.188978  1
  Nd  Nd5  1  0.188978  0.188978  0.811022  1
  Ho  Ho6  1  0.601371  0.601371  0.601371  1
  Ho  Ho7  1  0.601371  0.601371  0.195887  1
  Ho  Ho8  1  0.601371  0.195887  0.601371  1
  Ho  Ho9  1  0.195887  0.601371  0.601371  1
  Ho  Ho10  1  0.064109  0.435891  0.435891  1
  Ho  Ho11  1  0.435891  0.064109  0.064109  1
  Ho  Ho12  1  0.435891  0.064109  0.435891  1
  Ho  Ho13  1  0.064109  0.435891  0.064109  1
  Ho  Ho14  1  0.435891  0.435891  0.064109  1
  Ho  Ho15  1  0.064109  0.064109  0.435891  1
  Ag  Ag16  1  0.829969  0.829969  0.829969  1
  Ag  Ag17  1  0.829969  0.829969  0.510093  1
  Ag  Ag18  1  0.829969  0.510093  0.829969  1
  Ag  Ag19  1  0.510093  0.829969  0.829969  1
  Rh  Rh20  1  0.393006  0.393006  0.393006  1
  Rh  Rh21  1  0.393006  0.393006  0.820980  1
  Rh  Rh22  1  0.393006  0.820980  0.393006  1
  Rh  Rh23  1  0.820980  0.393006  0.393006  1
