# generated using pymatgen
data_Tb3Y3Tm14(Cd3Os)2
_symmetry_space_group_name_H-M   'P 1'
_cell_length_a   9.50163900
_cell_length_b   9.50163760
_cell_length_c   9.77510400
_cell_angle_alpha   90.00000000
_cell_angle_beta   90.00000000
_cell_angle_gamma   119.99999443
_symmetry_Int_Tables_number   1
_chemical_formula_structural   Tb3Y3Tm14(Cd3Os)2
_chemical_formula_sum   'Tb3 Y3 Tm14 Cd6 Os2'
_cell_volume   764.27390378
_cell_formula_units_Z   1
loop_
 _symmetry_equiv_pos_site_id
 _symmetry_equiv_pos_as_xyz
  1  'x, y, z'
loop_
 _atom_site_type_symbol
 _atom_site_label
 _atom_site_symmetry_multiplicity
 _atom_site_fract_x
 _atom_site_fract_y
 _atom_site_fract_z
 _atom_site_occupancy
  Tb  Tb0  1  0.538641  0.461359  0.250000  1
  Tb  Tb1  1  0.538641  0.077284  0.250000  1
  Tb  Tb2  1  0.922716  0.461359  0.250000  1
  Y  Y3  1  0.461402  0.538598  0.750000  1
  Y  Y4  1  0.461402  0.922802  0.750000  1
  Y  Y5  1  0.077198  0.538598  0.750000  1
  Tm  Tm6  1  0.000000  0.000000  0.500345  1
  Tm  Tm7  1  0.000000  0.000000  0.999655  1
  Tm  Tm8  1  0.209787  0.790213  0.440749  1
  Tm  Tm9  1  0.209787  0.419574  0.440749  1
  Tm  Tm10  1  0.580426  0.790213  0.440749  1
  Tm  Tm11  1  0.790089  0.209911  0.559469  1
  Tm  Tm12  1  0.790089  0.580177  0.559469  1
  Tm  Tm13  1  0.419823  0.209911  0.559469  1
  Tm  Tm14  1  0.790089  0.209911  0.940531  1
  Tm  Tm15  1  0.790089  0.580177  0.940531  1
  Tm  Tm16  1  0.419823  0.209911  0.940531  1
  Tm  Tm17  1  0.209787  0.790213  0.059251  1
  Tm  Tm18  1  0.209787  0.419574  0.059251  1
  Tm  Tm19  1  0.580426  0.790213  0.059251  1
  Cd  Cd20  1  0.886718  0.113282  0.250000  1
  Cd  Cd21  1  0.886718  0.773439  0.250000  1
  Cd  Cd22  1  0.226561  0.113282  0.250000  1
  Cd  Cd23  1  0.113491  0.886509  0.750000  1
  Cd  Cd24  1  0.113491  0.226981  0.750000  1
  Cd  Cd25  1  0.773019  0.886509  0.750000  1
  Os  Os26  1  0.333333  0.666667  0.250000  1
  Os  Os27  1  0.666667  0.333333  0.750000  1
