# generated using pymatgen
data_CaSm3Pd3RuO14
_symmetry_space_group_name_H-M   'P 1'
_cell_length_a   7.29172956
_cell_length_b   7.32916881
_cell_length_c   7.29173024
_cell_angle_alpha   60.67529420
_cell_angle_beta   60.59530982
_cell_angle_gamma   60.67529226
_symmetry_Int_Tables_number   1
_chemical_formula_structural   CaSm3Pd3RuO14
_chemical_formula_sum   'Ca1 Sm3 Pd3 Ru1 O14'
_cell_volume   279.58528978
_cell_formula_units_Z   1
loop_
 _symmetry_equiv_pos_site_id
 _symmetry_equiv_pos_as_xyz
  1  'x, y, z'
loop_
 _atom_site_type_symbol
 _atom_site_label
 _atom_site_symmetry_multiplicity
 _atom_site_fract_x
 _atom_site_fract_y
 _atom_site_fract_z
 _atom_site_occupancy
  Ca  Ca0  1  0.625000  0.625000  0.625000  1
  Sm  Sm1  1  0.125000  0.625000  0.625000  1
  Sm  Sm2  1  0.625000  0.625000  0.125000  1
  Sm  Sm3  1  0.625000  0.125000  0.625000  1
  Pd  Pd4  1  0.125000  0.125000  0.125000  1
  Pd  Pd5  1  0.625000  0.125000  0.125000  1
  Pd  Pd6  1  0.125000  0.125000  0.625000  1
  Ru  Ru7  1  0.125000  0.625000  0.125000  1
  O  O8  1  0.498838  0.501457  0.498838  1
  O  O9  1  0.751162  0.748543  0.751162  1
  O  O10  1  0.039915  0.033287  0.462326  1
  O  O11  1  0.804415  0.793567  0.197400  1
  O  O12  1  0.461430  0.037305  0.461430  1
  O  O13  1  0.462326  0.033287  0.039915  1
  O  O14  1  0.052600  0.456433  0.445585  1
  O  O15  1  0.044123  0.458251  0.044123  1
  O  O16  1  0.445585  0.456433  0.052600  1
  O  O17  1  0.197400  0.793567  0.804415  1
  O  O18  1  0.787674  0.216713  0.210085  1
  O  O19  1  0.210085  0.216713  0.787674  1
  O  O20  1  0.205877  0.791749  0.205877  1
  O  O21  1  0.788570  0.212695  0.788570  1
