# generated using pymatgen
data_Y3Sc5Pt4
_symmetry_space_group_name_H-M   'P 1'
_cell_length_a   4.61043800
_cell_length_b   6.91948377
_cell_length_c   8.35971930
_cell_angle_alpha   89.37459076
_cell_angle_beta   90.00000000
_cell_angle_gamma   90.00000000
_symmetry_Int_Tables_number   1
_chemical_formula_structural   Y3Sc5Pt4
_chemical_formula_sum   'Y3 Sc5 Pt4'
_cell_volume   266.67463109
_cell_formula_units_Z   1
loop_
 _symmetry_equiv_pos_site_id
 _symmetry_equiv_pos_as_xyz
  1  'x, y, z'
loop_
 _atom_site_type_symbol
 _atom_site_label
 _atom_site_symmetry_multiplicity
 _atom_site_fract_x
 _atom_site_fract_y
 _atom_site_fract_z
 _atom_site_occupancy
  Y  Y0  1  0.250000  0.484147  0.179690  1
  Y  Y1  1  0.750000  0.014387  0.674570  1
  Y  Y2  1  0.750000  0.513325  0.822514  1
  Sc  Sc3  1  0.250000  0.859691  0.930614  1
  Sc  Sc4  1  0.250000  0.356890  0.569735  1
  Sc  Sc5  1  0.750000  0.136560  0.082052  1
  Sc  Sc6  1  0.750000  0.648967  0.423335  1
  Sc  Sc7  1  0.250000  0.986384  0.329601  1
  Pt  Pt8  1  0.250000  0.244245  0.902175  1
  Pt  Pt9  1  0.250000  0.747913  0.590432  1
  Pt  Pt10  1  0.750000  0.754281  0.096399  1
  Pt  Pt11  1  0.750000  0.253211  0.398883  1
