# generated using pymatgen
data_Yb6Ni12B3Pd2C
_symmetry_space_group_name_H-M   'P 1'
_cell_length_a   5.04892600
_cell_length_b   5.04892585
_cell_length_c   14.32747000
_cell_angle_alpha   90.00000000
_cell_angle_beta   90.00000000
_cell_angle_gamma   120.00000101
_symmetry_Int_Tables_number   1
_chemical_formula_structural   Yb6Ni12B3Pd2C
_chemical_formula_sum   'Yb6 Ni12 B3 Pd2 C1'
_cell_volume   316.29922860
_cell_formula_units_Z   1
loop_
 _symmetry_equiv_pos_site_id
 _symmetry_equiv_pos_as_xyz
  1  'x, y, z'
loop_
 _atom_site_type_symbol
 _atom_site_label
 _atom_site_symmetry_multiplicity
 _atom_site_fract_x
 _atom_site_fract_y
 _atom_site_fract_z
 _atom_site_occupancy
  Yb  Yb0  1  0.666667  0.333333  0.537109  1
  Yb  Yb1  1  0.333333  0.666667  0.463797  1
  Yb  Yb2  1  0.333333  0.666667  0.036203  1
  Yb  Yb3  1  0.666667  0.333333  0.750000  1
  Yb  Yb4  1  0.666667  0.333333  0.962891  1
  Yb  Yb5  1  0.333333  0.666667  0.250000  1
  Ni  Ni6  1  0.166747  0.333495  0.653639  1
  Ni  Ni7  1  0.337387  0.168693  0.342795  1
  Ni  Ni8  1  0.337387  0.168693  0.157205  1
  Ni  Ni9  1  0.166747  0.833253  0.846361  1
  Ni  Ni10  1  0.831307  0.662613  0.342795  1
  Ni  Ni11  1  0.831307  0.168693  0.157205  1
  Ni  Ni12  1  0.666505  0.833253  0.653639  1
  Ni  Ni13  1  0.666505  0.833253  0.846361  1
  Ni  Ni14  1  0.166747  0.833253  0.653639  1
  Ni  Ni15  1  0.831307  0.662613  0.157205  1
  Ni  Ni16  1  0.166747  0.333495  0.846361  1
  Ni  Ni17  1  0.831307  0.168693  0.342795  1
  B  B18  1  0.000000  0.000000  0.750000  1
  B  B19  1  0.333333  0.666667  0.750000  1
  B  B20  1  0.000000  0.000000  0.250000  1
  Pd  Pd21  1  0.000000  0.000000  0.002285  1
  Pd  Pd22  1  0.000000  0.000000  0.497715  1
  C  C23  1  0.666667  0.333333  0.250000  1
