# generated using pymatgen
data_Lu4ZnNi
_symmetry_space_group_name_H-M   'P 1'
_cell_length_a   9.21664327
_cell_length_b   9.21664294
_cell_length_c   9.21664300
_cell_angle_alpha   59.99999621
_cell_angle_beta   59.99999738
_cell_angle_gamma   59.99999500
_symmetry_Int_Tables_number   1
_chemical_formula_structural   Lu4ZnNi
_chemical_formula_sum   'Lu16 Zn4 Ni4'
_cell_volume   553.60916596
_cell_formula_units_Z   4
loop_
 _symmetry_equiv_pos_site_id
 _symmetry_equiv_pos_as_xyz
  1  'x, y, z'
loop_
 _atom_site_type_symbol
 _atom_site_label
 _atom_site_symmetry_multiplicity
 _atom_site_fract_x
 _atom_site_fract_y
 _atom_site_fract_z
 _atom_site_occupancy
  Lu  Lu0  1  0.353672  0.353672  0.353672  1
  Lu  Lu1  1  0.353672  0.353672  0.938983  1
  Lu  Lu2  1  0.353672  0.938983  0.353672  1
  Lu  Lu3  1  0.938983  0.353672  0.353672  1
  Lu  Lu4  1  0.809667  0.190333  0.190333  1
  Lu  Lu5  1  0.190333  0.809667  0.809667  1
  Lu  Lu6  1  0.190333  0.809667  0.190333  1
  Lu  Lu7  1  0.809667  0.190333  0.809667  1
  Lu  Lu8  1  0.190333  0.190333  0.809667  1
  Lu  Lu9  1  0.809667  0.809667  0.190333  1
  Lu  Lu10  1  0.935689  0.564311  0.564311  1
  Lu  Lu11  1  0.564311  0.935689  0.935689  1
  Lu  Lu12  1  0.564311  0.935689  0.564311  1
  Lu  Lu13  1  0.935689  0.564311  0.935689  1
  Lu  Lu14  1  0.564311  0.564311  0.935689  1
  Lu  Lu15  1  0.935689  0.935689  0.564311  1
  Zn  Zn16  1  0.579064  0.579064  0.579064  1
  Zn  Zn17  1  0.579064  0.579064  0.262808  1
  Zn  Zn18  1  0.579064  0.262808  0.579064  1
  Zn  Zn19  1  0.262808  0.579064  0.579064  1
  Ni  Ni20  1  0.143977  0.143977  0.143977  1
  Ni  Ni21  1  0.143977  0.143977  0.568070  1
  Ni  Ni22  1  0.143977  0.568070  0.143977  1
  Ni  Ni23  1  0.568070  0.143977  0.143977  1
