# generated using pymatgen
data_La7HoSc12Si15Pb
_symmetry_space_group_name_H-M   'P 1'
_cell_length_a   7.33229550
_cell_length_b   7.61254836
_cell_length_c   14.38274941
_cell_angle_alpha   89.74871435
_cell_angle_beta   89.65854314
_cell_angle_gamma   90.34035514
_symmetry_Int_Tables_number   1
_chemical_formula_structural   La7HoSc12Si15Pb
_chemical_formula_sum   'La7 Ho1 Sc12 Si15 Pb1'
_cell_volume   802.77218838
_cell_formula_units_Z   1
loop_
 _symmetry_equiv_pos_site_id
 _symmetry_equiv_pos_as_xyz
  1  'x, y, z'
loop_
 _atom_site_type_symbol
 _atom_site_label
 _atom_site_symmetry_multiplicity
 _atom_site_fract_x
 _atom_site_fract_y
 _atom_site_fract_z
 _atom_site_occupancy
  La  La0  1  0.011716  0.172147  0.097536  1
  La  La1  1  0.987760  0.829109  0.901352  1
  La  La2  1  0.490156  0.669891  0.903674  1
  La  La3  1  0.989605  0.835570  0.599096  1
  La  La4  1  0.509446  0.329441  0.097349  1
  La  La5  1  0.007879  0.163863  0.400285  1
  La  La6  1  0.513669  0.322700  0.398648  1
  Ho  Ho7  1  0.505442  0.685734  0.604435  1
  Sc  Sc8  1  0.160886  0.499865  0.756737  1
  Sc  Sc9  1  0.838850  0.504683  0.248977  1
  Sc  Sc10  1  0.340998  0.993534  0.249452  1
  Sc  Sc11  1  0.661749  0.004131  0.750448  1
  Sc  Sc12  1  0.343400  0.159944  0.632078  1
  Sc  Sc13  1  0.662122  0.822984  0.373511  1
  Sc  Sc14  1  0.166788  0.681443  0.369940  1
  Sc  Sc15  1  0.670140  0.824809  0.124204  1
  Sc  Sc16  1  0.817569  0.327036  0.625162  1
  Sc  Sc17  1  0.330004  0.173893  0.872833  1
  Sc  Sc18  1  0.828971  0.325860  0.874184  1
  Sc  Sc19  1  0.167443  0.675252  0.124722  1
  Si  Si20  1  0.031430  0.134120  0.749895  1
  Si  Si21  1  0.963166  0.872038  0.247731  1
  Si  Si22  1  0.463903  0.627700  0.248931  1
  Si  Si23  1  0.531741  0.378576  0.749714  1
  Si  Si24  1  0.294101  0.874669  0.750293  1
  Si  Si25  1  0.708765  0.111958  0.248000  1
  Si  Si26  1  0.207208  0.385862  0.249828  1
  Si  Si27  1  0.790381  0.617980  0.748144  1
  Si  Si28  1  0.833014  0.543335  0.458550  1
  Si  Si29  1  0.348504  0.956001  0.463214  1
  Si  Si30  1  0.848686  0.536919  0.039753  1
  Si  Si31  1  0.650318  0.033458  0.540525  1
  Si  Si32  1  0.149070  0.463348  0.959608  1
  Si  Si33  1  0.648884  0.038056  0.959849  1
  Si  Si34  1  0.349965  0.963476  0.038782  1
  Pb  Pb35  1  0.176271  0.460611  0.542561  1
