# generated using pymatgen
data_Th2ReSi5Ir2
_symmetry_space_group_name_H-M   'P 1'
_cell_length_a   8.28120315
_cell_length_b   8.28120248
_cell_length_c   8.28120324
_cell_angle_alpha   137.77444505
_cell_angle_beta   105.61227112
_cell_angle_gamma   89.44816803
_symmetry_Int_Tables_number   1
_chemical_formula_structural   Th2ReSi5Ir2
_chemical_formula_sum   'Th4 Re2 Si10 Ir4'
_cell_volume   351.44910407
_cell_formula_units_Z   2
loop_
 _symmetry_equiv_pos_site_id
 _symmetry_equiv_pos_as_xyz
  1  'x, y, z'
loop_
 _atom_site_type_symbol
 _atom_site_label
 _atom_site_symmetry_multiplicity
 _atom_site_fract_x
 _atom_site_fract_y
 _atom_site_fract_z
 _atom_site_occupancy
  Th  Th0  1  0.861907  0.627087  0.234820  1
  Th  Th1  1  0.138094  0.372913  0.765180  1
  Th  Th2  1  0.392267  0.127087  0.265180  1
  Th  Th3  1  0.607733  0.872913  0.734820  1
  Re  Re4  1  0.000000  0.750000  0.750000  1
  Re  Re5  1  0.000000  0.250000  0.250000  1
  Si  Si6  1  0.500000  0.750000  0.250000  1
  Si  Si7  1  0.500000  0.250000  0.750000  1
  Si  Si8  1  0.226112  0.976112  0.750000  1
  Si  Si9  1  0.773888  0.523888  0.750000  1
  Si  Si10  1  0.773888  0.023888  0.250000  1
  Si  Si11  1  0.226112  0.476112  0.250000  1
  Si  Si12  1  0.043004  0.892246  0.150759  1
  Si  Si13  1  0.956996  0.107754  0.849241  1
  Si  Si14  1  0.741487  0.392246  0.349241  1
  Si  Si15  1  0.258513  0.607754  0.650759  1
  Ir  Ir16  1  0.246833  0.859717  0.387114  1
  Ir  Ir17  1  0.753167  0.140283  0.612886  1
  Ir  Ir18  1  0.472602  0.359717  0.112886  1
  Ir  Ir19  1  0.527398  0.640283  0.887114  1
