# generated using pymatgen
data_BaPH5
_symmetry_space_group_name_H-M   'P 1'
_cell_length_a   4.30571800
_cell_length_b   4.82310576
_cell_length_c   11.84950679
_cell_angle_alpha   91.36035480
_cell_angle_beta   90.00000000
_cell_angle_gamma   90.00000000
_symmetry_Int_Tables_number   1
_chemical_formula_structural   BaPH5
_chemical_formula_sum   'Ba2 P2 H10'
_cell_volume   246.00856147
_cell_formula_units_Z   2
loop_
 _symmetry_equiv_pos_site_id
 _symmetry_equiv_pos_as_xyz
  1  'x, y, z'
loop_
 _atom_site_type_symbol
 _atom_site_label
 _atom_site_symmetry_multiplicity
 _atom_site_fract_x
 _atom_site_fract_y
 _atom_site_fract_z
 _atom_site_occupancy
  Ba  Ba0  1  0.267145  0.756574  0.622627  1
  Ba  Ba1  1  0.767145  0.243426  0.377373  1
  P  P2  1  0.770505  0.262656  0.724839  1
  P  P3  1  0.270505  0.737344  0.275161  1
  H  H4  1  0.438110  0.259916  0.737109  1
  H  H5  1  0.938110  0.740084  0.262891  1
  H  H6  1  0.622407  0.841865  0.990363  1
  H  H7  1  0.122407  0.158135  0.009637  1
  H  H8  1  0.658358  0.726461  0.948696  1
  H  H9  1  0.158358  0.273539  0.051304  1
  H  H10  1  0.814112  0.258824  0.844131  1
  H  H11  1  0.314112  0.741176  0.155869  1
  H  H12  1  0.280872  0.248196  0.510777  1
  H  H13  1  0.780872  0.751804  0.489223  1
