# generated using pymatgen
data_HoEr15(HgPt)4
_symmetry_space_group_name_H-M   'P 1'
_cell_length_a   9.56985005
_cell_length_b   9.56985008
_cell_length_c   9.56984902
_cell_angle_alpha   60.00576216
_cell_angle_beta   60.00576272
_cell_angle_gamma   60.00575712
_symmetry_Int_Tables_number   1
_chemical_formula_structural   HoEr15(HgPt)4
_chemical_formula_sum   'Ho1 Er15 Hg4 Pt4'
_cell_volume   619.80784960
_cell_formula_units_Z   1
loop_
 _symmetry_equiv_pos_site_id
 _symmetry_equiv_pos_as_xyz
  1  'x, y, z'
loop_
 _atom_site_type_symbol
 _atom_site_label
 _atom_site_symmetry_multiplicity
 _atom_site_fract_x
 _atom_site_fract_y
 _atom_site_fract_z
 _atom_site_occupancy
  Ho  Ho0  1  0.355202  0.355202  0.355202  1
  Er  Er1  1  0.355124  0.355124  0.934590  1
  Er  Er2  1  0.355124  0.934590  0.355124  1
  Er  Er3  1  0.934590  0.355124  0.355124  1
  Er  Er4  1  0.811024  0.189090  0.189090  1
  Er  Er5  1  0.189174  0.810816  0.810816  1
  Er  Er6  1  0.189090  0.811024  0.189090  1
  Er  Er7  1  0.810816  0.189174  0.810816  1
  Er  Er8  1  0.189090  0.189090  0.811024  1
  Er  Er9  1  0.810816  0.810816  0.189174  1
  Er  Er10  1  0.935575  0.564425  0.564425  1
  Er  Er11  1  0.564309  0.935682  0.935682  1
  Er  Er12  1  0.564425  0.935575  0.564425  1
  Er  Er13  1  0.935682  0.564309  0.935682  1
  Er  Er14  1  0.564425  0.564425  0.935575  1
  Er  Er15  1  0.935682  0.935682  0.564309  1
  Hg  Hg16  1  0.586664  0.586664  0.586664  1
  Hg  Hg17  1  0.586825  0.586825  0.239943  1
  Hg  Hg18  1  0.586825  0.239943  0.586825  1
  Hg  Hg19  1  0.239943  0.586825  0.586825  1
  Pt  Pt20  1  0.144296  0.144296  0.144296  1
  Pt  Pt21  1  0.143916  0.143916  0.567466  1
  Pt  Pt22  1  0.143916  0.567466  0.143916  1
  Pt  Pt23  1  0.567466  0.143916  0.143916  1
