# generated using pymatgen
data_Rb12Na8Sn4BiSb11
_symmetry_space_group_name_H-M   'P 1'
_cell_length_a   11.70379637
_cell_length_b   11.71007981
_cell_length_c   17.09573985
_cell_angle_alpha   90.03570451
_cell_angle_beta   89.97446404
_cell_angle_gamma   143.30773474
_symmetry_Int_Tables_number   1
_chemical_formula_structural   Rb12Na8Sn4BiSb11
_chemical_formula_sum   'Rb12 Na8 Sn4 Bi1 Sb11'
_cell_volume   1399.98899840
_cell_formula_units_Z   1
loop_
 _symmetry_equiv_pos_site_id
 _symmetry_equiv_pos_as_xyz
  1  'x, y, z'
loop_
 _atom_site_type_symbol
 _atom_site_label
 _atom_site_symmetry_multiplicity
 _atom_site_fract_x
 _atom_site_fract_y
 _atom_site_fract_z
 _atom_site_occupancy
  Rb  Rb0  1  0.600604  0.933699  0.829127  1
  Rb  Rb1  1  0.266003  0.263631  0.325568  1
  Rb  Rb2  1  0.235016  0.234924  0.826073  1
  Rb  Rb3  1  0.735135  0.734873  0.674536  1
  Rb  Rb4  1  0.433616  0.100696  0.671469  1
  Rb  Rb5  1  0.897849  0.566988  0.328549  1
  Rb  Rb6  1  0.066053  0.399332  0.168439  1
  Rb  Rb7  1  0.399637  0.066187  0.171046  1
  Rb  Rb8  1  0.566831  0.899919  0.327966  1
  Rb  Rb9  1  0.100663  0.433863  0.671281  1
  Rb  Rb10  1  0.933851  0.600658  0.829006  1
  Rb  Rb11  1  0.764897  0.765155  0.174068  1
  Na  Na12  1  0.081781  0.918223  0.000029  1
  Na  Na13  1  0.581762  0.418064  0.500001  1
  Na  Na14  1  0.918213  0.081663  0.999958  1
  Na  Na15  1  0.754336  0.245484  0.999957  1
  Na  Na16  1  0.743481  0.253510  0.500867  1
  Na  Na17  1  0.245595  0.754517  0.999974  1
  Na  Na18  1  0.256087  0.748643  0.501076  1
  Na  Na19  1  0.420141  0.582578  0.500917  1
  Sn  Sn20  1  0.089339  0.910551  0.500013  1
  Sn  Sn21  1  0.411197  0.589507  0.999896  1
  Sn  Sn22  1  0.908537  0.086146  0.501121  1
  Sn  Sn23  1  0.588967  0.410427  0.999970  1
  Bi  Bi24  1  0.067032  0.389628  0.392896  1
  Sb  Sb25  1  0.885430  0.565143  0.103804  1
  Sb  Sb26  1  0.435076  0.114820  0.896219  1
  Sb  Sb27  1  0.614014  0.934248  0.604963  1
  Sb  Sb28  1  0.934591  0.614609  0.604358  1
  Sb  Sb29  1  0.114443  0.434764  0.896228  1
  Sb  Sb30  1  0.565199  0.885294  0.103607  1
  Sb  Sb31  1  0.385514  0.064708  0.396306  1
  Sb  Sb32  1  0.205893  0.205320  0.593229  1
  Sb  Sb33  1  0.706280  0.706287  0.907181  1
  Sb  Sb34  1  0.293925  0.293711  0.092824  1
  Sb  Sb35  1  0.793009  0.792231  0.407479  1
