# generated using pymatgen
data_AcP12Ru3Rh
_symmetry_space_group_name_H-M   'P 1'
_cell_length_a   7.06392797
_cell_length_b   7.06392804
_cell_length_c   7.06392762
_cell_angle_alpha   109.45938337
_cell_angle_beta   109.45938741
_cell_angle_gamma   109.45936375
_symmetry_Int_Tables_number   1
_chemical_formula_structural   AcP12Ru3Rh
_chemical_formula_sum   'Ac1 P12 Ru3 Rh1'
_cell_volume   271.46081651
_cell_formula_units_Z   1
loop_
 _symmetry_equiv_pos_site_id
 _symmetry_equiv_pos_as_xyz
  1  'x, y, z'
loop_
 _atom_site_type_symbol
 _atom_site_label
 _atom_site_symmetry_multiplicity
 _atom_site_fract_x
 _atom_site_fract_y
 _atom_site_fract_z
 _atom_site_occupancy
  Ac  Ac0  1  0.000000  0.000000  0.000000  1
  P  P1  1  0.357540  0.213057  0.855143  1
  P  P2  1  0.642460  0.786943  0.144857  1
  P  P3  1  0.643719  0.497813  0.858775  1
  P  P4  1  0.356281  0.502187  0.141225  1
  P  P5  1  0.213057  0.855143  0.357540  1
  P  P6  1  0.786943  0.144857  0.642460  1
  P  P7  1  0.497813  0.858775  0.643719  1
  P  P8  1  0.502187  0.141225  0.356281  1
  P  P9  1  0.855143  0.357540  0.213057  1
  P  P10  1  0.144857  0.642460  0.786943  1
  P  P11  1  0.858775  0.643719  0.497813  1
  P  P12  1  0.141225  0.356281  0.502187  1
  Ru  Ru13  1  0.000000  0.000000  0.500000  1
  Ru  Ru14  1  0.500000  0.000000  0.000000  1
  Ru  Ru15  1  0.000000  0.500000  0.000000  1
  Rh  Rh16  1  0.500000  0.500000  0.500000  1
