# generated using pymatgen
data_CaAcTcH6
_symmetry_space_group_name_H-M   'P 1'
_cell_length_a   5.35038223
_cell_length_b   5.35038335
_cell_length_c   5.35038200
_cell_angle_alpha   60.00000837
_cell_angle_beta   60.00000144
_cell_angle_gamma   60.00000075
_symmetry_Int_Tables_number   1
_chemical_formula_structural   CaAcTcH6
_chemical_formula_sum   'Ca1 Ac1 Tc1 H6'
_cell_volume   108.30276304
_cell_formula_units_Z   1
loop_
 _symmetry_equiv_pos_site_id
 _symmetry_equiv_pos_as_xyz
  1  'x, y, z'
loop_
 _atom_site_type_symbol
 _atom_site_label
 _atom_site_symmetry_multiplicity
 _atom_site_fract_x
 _atom_site_fract_y
 _atom_site_fract_z
 _atom_site_occupancy
  Ca  Ca0  1  0.750000  0.750000  0.750000  1
  Ac  Ac1  1  0.250000  0.250000  0.250000  1
  Tc  Tc2  1  0.000000  0.000000  0.000000  1
  H  H3  1  0.763646  0.763646  0.236354  1
  H  H4  1  0.236354  0.763646  0.236354  1
  H  H5  1  0.763646  0.236354  0.236354  1
  H  H6  1  0.236354  0.236354  0.763646  1
  H  H7  1  0.763646  0.236354  0.763646  1
  H  H8  1  0.236354  0.763646  0.763646  1
