# generated using pymatgen
data_PrTh2(AlRh)3
_symmetry_space_group_name_H-M   'P 1'
_cell_length_a   7.25889669
_cell_length_b   7.16544081
_cell_length_c   4.16071000
_cell_angle_alpha   90.00000000
_cell_angle_beta   90.00000000
_cell_angle_gamma   119.57500777
_symmetry_Int_Tables_number   1
_chemical_formula_structural   PrTh2(AlRh)3
_chemical_formula_sum   'Pr1 Th2 Al3 Rh3'
_cell_volume   188.21558821
_cell_formula_units_Z   1
loop_
 _symmetry_equiv_pos_site_id
 _symmetry_equiv_pos_as_xyz
  1  'x, y, z'
loop_
 _atom_site_type_symbol
 _atom_site_label
 _atom_site_symmetry_multiplicity
 _atom_site_fract_x
 _atom_site_fract_y
 _atom_site_fract_z
 _atom_site_occupancy
  Pr  Pr0  1  0.000000  0.420503  0.500000  1
  Th  Th1  1  0.579460  0.581944  0.500000  1
  Th  Th2  1  0.420540  0.002483  0.500000  1
  Al  Al3  1  0.000000  0.763719  0.000000  1
  Al  Al4  1  0.221176  0.227727  0.000000  1
  Al  Al5  1  0.778824  0.006551  0.000000  1
  Rh  Rh6  1  0.362902  0.689843  0.000000  1
  Rh  Rh7  1  0.637098  0.326940  0.000000  1
  Rh  Rh8  1  0.000000  0.980290  0.500000  1
