# generated using pymatgen
data_Dy4Co7P12Ir5Rh8
_symmetry_space_group_name_H-M   'P 1'
_cell_length_a   3.83717500
_cell_length_b   10.67171743
_cell_length_c   12.27129737
_cell_angle_alpha   89.90200189
_cell_angle_beta   90.00000000
_cell_angle_gamma   90.00000000
_symmetry_Int_Tables_number   1
_chemical_formula_structural   Dy4Co7P12Ir5Rh8
_chemical_formula_sum   'Dy4 Co7 P12 Ir5 Rh8'
_cell_volume   502.49965580
_cell_formula_units_Z   1
loop_
 _symmetry_equiv_pos_site_id
 _symmetry_equiv_pos_as_xyz
  1  'x, y, z'
loop_
 _atom_site_type_symbol
 _atom_site_label
 _atom_site_symmetry_multiplicity
 _atom_site_fract_x
 _atom_site_fract_y
 _atom_site_fract_z
 _atom_site_occupancy
  Dy  Dy0  1  0.250000  0.580453  0.710342  1
  Dy  Dy1  1  0.250000  0.916424  0.209013  1
  Dy  Dy2  1  0.750000  0.416833  0.290634  1
  Dy  Dy3  1  0.750000  0.085939  0.792007  1
  Co  Co4  1  0.250000  0.615950  0.197150  1
  Co  Co5  1  0.750000  0.117322  0.303008  1
  Co  Co6  1  0.750000  0.382613  0.804086  1
  Co  Co7  1  0.250000  0.462628  0.934146  1
  Co  Co8  1  0.250000  0.036354  0.430589  1
  Co  Co9  1  0.750000  0.535963  0.067883  1
  Co  Co10  1  0.750000  0.962962  0.563446  1
  P  P11  1  0.250000  0.431438  0.111323  1
  P  P12  1  0.250000  0.077664  0.604242  1
  P  P13  1  0.750000  0.565875  0.890613  1
  P  P14  1  0.750000  0.931076  0.387070  1
  P  P15  1  0.250000  0.274225  0.871570  1
  P  P16  1  0.250000  0.226287  0.370017  1
  P  P17  1  0.750000  0.725273  0.129186  1
  P  P18  1  0.750000  0.770049  0.627199  1
  P  P19  1  0.250000  0.598265  0.379125  1
  P  P20  1  0.250000  0.900872  0.888506  1
  P  P21  1  0.750000  0.400873  0.620097  1
  P  P22  1  0.750000  0.100648  0.120487  1
  Ir  Ir23  1  0.250000  0.226411  0.179646  1
  Ir  Ir24  1  0.250000  0.276114  0.680262  1
  Ir  Ir25  1  0.750000  0.767959  0.823185  1
  Ir  Ir26  1  0.750000  0.725388  0.319190  1
  Ir  Ir27  1  0.250000  0.886154  0.697747  1
  Rh  Rh28  1  0.250000  0.717742  0.991936  1
  Rh  Rh29  1  0.250000  0.782419  0.483486  1
  Rh  Rh30  1  0.750000  0.282445  0.011010  1
  Rh  Rh31  1  0.750000  0.218277  0.511167  1
  Rh  Rh32  1  0.250000  0.408898  0.476804  1
  Rh  Rh33  1  0.250000  0.092153  0.979451  1
  Rh  Rh34  1  0.750000  0.590273  0.521714  1
  Rh  Rh35  1  0.750000  0.909780  0.022662  1
