# generated using pymatgen
data_Tb2YTm5Au4
_symmetry_space_group_name_H-M   'P 1'
_cell_length_a   4.90022700
_cell_length_b   7.13728648
_cell_length_c   8.89724552
_cell_angle_alpha   89.74893908
_cell_angle_beta   90.00000000
_cell_angle_gamma   90.00000000
_symmetry_Int_Tables_number   1
_chemical_formula_structural   Tb2YTm5Au4
_chemical_formula_sum   'Tb2 Y1 Tm5 Au4'
_cell_volume   311.17215911
_cell_formula_units_Z   1
loop_
 _symmetry_equiv_pos_site_id
 _symmetry_equiv_pos_as_xyz
  1  'x, y, z'
loop_
 _atom_site_type_symbol
 _atom_site_label
 _atom_site_symmetry_multiplicity
 _atom_site_fract_x
 _atom_site_fract_y
 _atom_site_fract_z
 _atom_site_occupancy
  Tb  Tb0  1  0.250000  0.985594  0.322302  1
  Tb  Tb1  1  0.750000  0.014338  0.676970  1
  Y  Y2  1  0.750000  0.514595  0.822987  1
  Tm  Tm3  1  0.250000  0.851978  0.921628  1
  Tm  Tm4  1  0.250000  0.352463  0.578814  1
  Tm  Tm5  1  0.750000  0.148361  0.079686  1
  Tm  Tm6  1  0.750000  0.647426  0.419192  1
  Tm  Tm7  1  0.250000  0.485176  0.175898  1
  Au  Au8  1  0.250000  0.254511  0.901658  1
  Au  Au9  1  0.250000  0.753783  0.600752  1
  Au  Au10  1  0.750000  0.744867  0.101036  1
  Au  Au11  1  0.750000  0.246908  0.399076  1
