# generated using pymatgen
data_SmHo2(ErRh6)3
_symmetry_space_group_name_H-M   'P 1'
_cell_length_a   5.25966700
_cell_length_b   5.25966741
_cell_length_c   17.54642200
_cell_angle_alpha   90.00000000
_cell_angle_beta   90.00000000
_cell_angle_gamma   119.99999113
_symmetry_Int_Tables_number   1
_chemical_formula_structural   SmHo2(ErRh6)3
_chemical_formula_sum   'Sm1 Ho2 Er3 Rh18'
_cell_volume   420.37392768
_cell_formula_units_Z   1
loop_
 _symmetry_equiv_pos_site_id
 _symmetry_equiv_pos_as_xyz
  1  'x, y, z'
loop_
 _atom_site_type_symbol
 _atom_site_label
 _atom_site_symmetry_multiplicity
 _atom_site_fract_x
 _atom_site_fract_y
 _atom_site_fract_z
 _atom_site_occupancy
  Sm  Sm0  1  0.666667  0.333333  0.250025  1
  Ho  Ho1  1  0.333333  0.666667  0.541907  1
  Ho  Ho2  1  0.333333  0.666667  0.750031  1
  Er  Er3  1  0.333333  0.666667  0.957862  1
  Er  Er4  1  0.666667  0.333333  0.041580  1
  Er  Er5  1  0.666667  0.333333  0.458256  1
  Rh  Rh6  1  0.167145  0.832855  0.375196  1
  Rh  Rh7  1  0.167145  0.334288  0.375196  1
  Rh  Rh8  1  0.665712  0.832855  0.375196  1
  Rh  Rh9  1  0.832765  0.167235  0.625122  1
  Rh  Rh10  1  0.832765  0.665530  0.625122  1
  Rh  Rh11  1  0.334470  0.167235  0.625122  1
  Rh  Rh12  1  0.832721  0.167279  0.874634  1
  Rh  Rh13  1  0.832721  0.665441  0.874634  1
  Rh  Rh14  1  0.334559  0.167279  0.874634  1
  Rh  Rh15  1  0.167190  0.832810  0.125143  1
  Rh  Rh16  1  0.167190  0.334379  0.125143  1
  Rh  Rh17  1  0.665621  0.832810  0.125143  1
  Rh  Rh18  1  0.333333  0.666667  0.250359  1
  Rh  Rh19  1  0.666667  0.333333  0.749740  1
  Rh  Rh20  1  0.000000  0.000000  0.250332  1
  Rh  Rh21  1  0.000000  0.000000  0.749726  1
  Rh  Rh22  1  0.000000  0.000000  0.500042  1
  Rh  Rh23  1  0.000000  0.000000  0.999856  1
