# generated using pymatgen
data_Tb5TcMoC7
_symmetry_space_group_name_H-M   'P 1'
_cell_length_a   8.42058700
_cell_length_b   8.42058665
_cell_length_c   3.45466300
_cell_angle_alpha   90.00000000
_cell_angle_beta   90.00000000
_cell_angle_gamma   122.90088720
_symmetry_Int_Tables_number   1
_chemical_formula_structural   Tb5TcMoC7
_chemical_formula_sum   'Tb5 Tc1 Mo1 C7'
_cell_volume   205.66896365
_cell_formula_units_Z   1
loop_
 _symmetry_equiv_pos_site_id
 _symmetry_equiv_pos_as_xyz
  1  'x, y, z'
loop_
 _atom_site_type_symbol
 _atom_site_label
 _atom_site_symmetry_multiplicity
 _atom_site_fract_x
 _atom_site_fract_y
 _atom_site_fract_z
 _atom_site_occupancy
  Tb  Tb0  1  0.501245  0.498755  0.000000  1
  Tb  Tb1  1  0.072887  0.332710  0.500000  1
  Tb  Tb2  1  0.924749  0.665169  0.500000  1
  Tb  Tb3  1  0.667290  0.927113  0.500000  1
  Tb  Tb4  1  0.334831  0.075251  0.500000  1
  Tc  Tc5  1  0.712171  0.287829  0.000000  1
  Mo  Mo6  1  0.286825  0.713175  0.000000  1
  C  C7  1  0.628197  0.371803  0.500000  1
  C  C8  1  0.374668  0.625332  0.500000  1
  C  C9  1  0.999675  0.000325  0.000000  1
  C  C10  1  0.167769  0.168958  0.000000  1
  C  C11  1  0.831042  0.832231  0.000000  1
  C  C12  1  0.998938  0.500288  0.000000  1
  C  C13  1  0.499712  0.001062  0.000000  1
