# generated using pymatgen
data_Sc6Fe4Si5As
_symmetry_space_group_name_H-M   'P 1'
_cell_length_a   5.34146699
_cell_length_b   5.34146714
_cell_length_c   12.87172000
_cell_angle_alpha   90.00000000
_cell_angle_beta   90.00000000
_cell_angle_gamma   136.51451477
_symmetry_Int_Tables_number   1
_chemical_formula_structural   Sc6Fe4Si5As
_chemical_formula_sum   'Sc6 Fe4 Si5 As1'
_cell_volume   252.72833166
_cell_formula_units_Z   1
loop_
 _symmetry_equiv_pos_site_id
 _symmetry_equiv_pos_as_xyz
  1  'x, y, z'
loop_
 _atom_site_type_symbol
 _atom_site_label
 _atom_site_symmetry_multiplicity
 _atom_site_fract_x
 _atom_site_fract_y
 _atom_site_fract_z
 _atom_site_occupancy
  Sc  Sc0  1  0.639552  0.360448  0.750000  1
  Sc  Sc1  1  0.919178  0.080822  0.613168  1
  Sc  Sc2  1  0.919178  0.080822  0.886832  1
  Sc  Sc3  1  0.077735  0.922265  0.110427  1
  Sc  Sc4  1  0.360059  0.639941  0.250000  1
  Sc  Sc5  1  0.077735  0.922265  0.389573  1
  Fe  Fe6  1  0.789645  0.210355  0.081580  1
  Fe  Fe7  1  0.214180  0.785820  0.581181  1
  Fe  Fe8  1  0.789645  0.210355  0.418420  1
  Fe  Fe9  1  0.214180  0.785820  0.918819  1
  Si  Si10  1  0.384793  0.615207  0.459763  1
  Si  Si11  1  0.384793  0.615207  0.040237  1
  Si  Si12  1  0.617921  0.382079  0.540521  1
  Si  Si13  1  0.329352  0.670648  0.750000  1
  Si  Si14  1  0.617921  0.382079  0.959479  1
  As  As15  1  0.664132  0.335868  0.250000  1
