# generated using pymatgen
data_Dy3Ho12Er5Bi12
_symmetry_space_group_name_H-M   'P 1'
_cell_length_a   8.22025504
_cell_length_b   9.48799403
_cell_length_c   11.99739927
_cell_angle_alpha   89.99963634
_cell_angle_beta   89.99074400
_cell_angle_gamma   89.99029971
_symmetry_Int_Tables_number   1
_chemical_formula_structural   Dy3Ho12Er5Bi12
_chemical_formula_sum   'Dy3 Ho12 Er5 Bi12'
_cell_volume   935.72190291
_cell_formula_units_Z   1
loop_
 _symmetry_equiv_pos_site_id
 _symmetry_equiv_pos_as_xyz
  1  'x, y, z'
loop_
 _atom_site_type_symbol
 _atom_site_label
 _atom_site_symmetry_multiplicity
 _atom_site_fract_x
 _atom_site_fract_y
 _atom_site_fract_z
 _atom_site_occupancy
  Dy  Dy0  1  0.813295  0.249922  0.281795  1
  Dy  Dy1  1  0.686597  0.750059  0.781825  1
  Dy  Dy2  1  0.186546  0.749924  0.718197  1
  Ho  Ho3  1  0.353037  0.749937  0.216596  1
  Ho  Ho4  1  0.853040  0.749995  0.283281  1
  Ho  Ho5  1  0.646974  0.249920  0.783680  1
  Ho  Ho6  1  0.146928  0.249873  0.716340  1
  Ho  Ho7  1  0.692167  0.564466  0.059078  1
  Ho  Ho8  1  0.191969  0.935453  0.440865  1
  Ho  Ho9  1  0.308020  0.064270  0.941012  1
  Ho  Ho10  1  0.808176  0.435449  0.559024  1
  Ho  Ho11  1  0.308111  0.435713  0.941048  1
  Ho  Ho12  1  0.475837  0.249968  0.488113  1
  Ho  Ho13  1  0.975543  0.249926  0.012031  1
  Ho  Ho14  1  0.313022  0.249986  0.217992  1
  Er  Er15  1  0.808247  0.064773  0.558964  1
  Er  Er16  1  0.692132  0.935483  0.059005  1
  Er  Er17  1  0.191844  0.564716  0.440980  1
  Er  Er18  1  0.524160  0.749933  0.511593  1
  Er  Er19  1  0.024374  0.750119  0.988380  1
  Bi  Bi20  1  0.405645  0.750173  0.957967  1
  Bi  Bi21  1  0.905287  0.750345  0.542078  1
  Bi  Bi22  1  0.593997  0.249479  0.042619  1
  Bi  Bi23  1  0.094408  0.250326  0.457595  1
  Bi  Bi24  1  0.565592  0.995327  0.325872  1
  Bi  Bi25  1  0.066545  0.504716  0.174066  1
  Bi  Bi26  1  0.434195  0.495542  0.673782  1
  Bi  Bi27  1  0.934057  0.004523  0.826252  1
  Bi  Bi28  1  0.434283  0.004374  0.673816  1
  Bi  Bi29  1  0.934105  0.495457  0.826234  1
  Bi  Bi30  1  0.565494  0.504604  0.325901  1
  Bi  Bi31  1  0.066370  0.995248  0.174015  1
