# generated using pymatgen
data_K2NpF5
_symmetry_space_group_name_H-M   'P 1'
_cell_length_a   6.75204500
_cell_length_b   7.75833500
_cell_length_c   11.07772500
_cell_angle_alpha   90.00000000
_cell_angle_beta   90.00000000
_cell_angle_gamma   90.00000000
_symmetry_Int_Tables_number   1
_chemical_formula_structural   K2NpF5
_chemical_formula_sum   'K8 Np4 F20'
_cell_volume   580.30249263
_cell_formula_units_Z   4
loop_
 _symmetry_equiv_pos_site_id
 _symmetry_equiv_pos_as_xyz
  1  'x, y, z'
loop_
 _atom_site_type_symbol
 _atom_site_label
 _atom_site_symmetry_multiplicity
 _atom_site_fract_x
 _atom_site_fract_y
 _atom_site_fract_z
 _atom_site_occupancy
  K  K0  1  0.526158  0.497701  0.829010  1
  K  K1  1  0.473842  0.502299  0.170990  1
  K  K2  1  0.026158  0.502299  0.670990  1
  K  K3  1  0.473842  0.997701  0.170990  1
  K  K4  1  0.973842  0.497701  0.329010  1
  K  K5  1  0.526158  0.002299  0.829010  1
  K  K6  1  0.973842  0.002299  0.329010  1
  K  K7  1  0.026158  0.997701  0.670990  1
  Np  Np8  1  0.561025  0.750000  0.502996  1
  Np  Np9  1  0.438975  0.250000  0.497004  1
  Np  Np10  1  0.061025  0.250000  0.997004  1
  Np  Np11  1  0.938975  0.750000  0.002996  1
  F  F12  1  0.833451  0.750000  0.801874  1
  F  F13  1  0.166549  0.250000  0.198126  1
  F  F14  1  0.333451  0.250000  0.698126  1
  F  F15  1  0.666549  0.750000  0.301874  1
  F  F16  1  0.355342  0.750000  0.669191  1
  F  F17  1  0.644658  0.250000  0.330809  1
  F  F18  1  0.855342  0.250000  0.830809  1
  F  F19  1  0.144658  0.750000  0.169191  1
  F  F20  1  0.905695  0.750000  0.509198  1
  F  F21  1  0.094305  0.250000  0.490802  1
  F  F22  1  0.405695  0.250000  0.990802  1
  F  F23  1  0.594305  0.750000  0.009198  1
  F  F24  1  0.644205  0.028275  0.585089  1
  F  F25  1  0.355795  0.971725  0.414911  1
  F  F26  1  0.144205  0.971725  0.914911  1
  F  F27  1  0.355795  0.528275  0.414911  1
  F  F28  1  0.855795  0.028275  0.085089  1
  F  F29  1  0.644205  0.471725  0.585089  1
  F  F30  1  0.855795  0.471725  0.085089  1
  F  F31  1  0.144205  0.528275  0.914911  1
