# generated using pymatgen
data_Er(CuNi)2
_symmetry_space_group_name_H-M   'P 1'
_cell_length_a   4.90185190
_cell_length_b   4.90008199
_cell_length_c   10.38326387
_cell_angle_alpha   85.12222811
_cell_angle_beta   80.21221830
_cell_angle_gamma   59.98806417
_symmetry_Int_Tables_number   1
_chemical_formula_structural   Er(CuNi)2
_chemical_formula_sum   'Er3 Cu6 Ni6'
_cell_volume   212.81774371
_cell_formula_units_Z   3
loop_
 _symmetry_equiv_pos_site_id
 _symmetry_equiv_pos_as_xyz
  1  'x, y, z'
loop_
 _atom_site_type_symbol
 _atom_site_label
 _atom_site_symmetry_multiplicity
 _atom_site_fract_x
 _atom_site_fract_y
 _atom_site_fract_z
 _atom_site_occupancy
  Er  Er0  1  0.997473  0.000000  0.008315  1
  Er  Er1  1  0.875426  0.000000  0.341860  1
  Er  Er2  1  0.127706  0.000000  0.652257  1
  Cu  Cu3  1  0.067839  0.501630  0.806840  1
  Cu  Cu4  1  0.569469  0.498370  0.806840  1
  Cu  Cu5  1  0.192198  0.334857  0.403163  1
  Cu  Cu6  1  0.527055  0.665143  0.403163  1
  Cu  Cu7  1  0.808675  0.666104  0.592384  1
  Cu  Cu8  1  0.474779  0.333896  0.592384  1
  Ni  Ni9  1  0.338572  0.321280  0.001557  1
  Ni  Ni10  1  0.659852  0.678720  0.001557  1
  Ni  Ni11  1  0.429408  0.000000  0.198891  1
  Ni  Ni12  1  0.568711  0.000000  0.801302  1
  Ni  Ni13  1  0.931551  0.499734  0.194744  1
  Ni  Ni14  1  0.431286  0.500266  0.194744  1
