# generated using pymatgen
data_Th7Sc(AlRu)8
_symmetry_space_group_name_H-M   'P 1'
_cell_length_a   4.13633300
_cell_length_b   7.22128801
_cell_length_c   16.07441343
_cell_angle_alpha   89.75714007
_cell_angle_beta   90.00000000
_cell_angle_gamma   90.00000000
_symmetry_Int_Tables_number   1
_chemical_formula_structural   Th7Sc(AlRu)8
_chemical_formula_sum   'Th7 Sc1 Al8 Ru8'
_cell_volume   480.13282028
_cell_formula_units_Z   1
loop_
 _symmetry_equiv_pos_site_id
 _symmetry_equiv_pos_as_xyz
  1  'x, y, z'
loop_
 _atom_site_type_symbol
 _atom_site_label
 _atom_site_symmetry_multiplicity
 _atom_site_fract_x
 _atom_site_fract_y
 _atom_site_fract_z
 _atom_site_occupancy
  Th  Th0  1  0.750000  0.959851  0.217790  1
  Th  Th1  1  0.250000  0.167956  0.565019  1
  Th  Th2  1  0.750000  0.832179  0.440846  1
  Th  Th3  1  0.750000  0.459438  0.283000  1
  Th  Th4  1  0.750000  0.334221  0.059605  1
  Th  Th5  1  0.250000  0.664469  0.933615  1
  Th  Th6  1  0.250000  0.039681  0.779300  1
  Sc  Sc7  1  0.250000  0.544827  0.713878  1
  Al  Al8  1  0.750000  0.504621  0.569739  1
  Al  Al9  1  0.750000  0.372314  0.842096  1
  Al  Al10  1  0.750000  0.004105  0.935568  1
  Al  Al11  1  0.750000  0.852907  0.652287  1
  Al  Al12  1  0.250000  0.497299  0.440812  1
  Al  Al13  1  0.250000  0.994955  0.060116  1
  Al  Al14  1  0.250000  0.635305  0.148371  1
  Al  Al15  1  0.250000  0.136454  0.353410  1
  Ru  Ru16  1  0.750000  0.745642  0.815371  1
  Ru  Ru17  1  0.250000  0.239652  0.933242  1
  Ru  Ru18  1  0.750000  0.262339  0.438714  1
  Ru  Ru19  1  0.250000  0.756840  0.316239  1
  Ru  Ru20  1  0.750000  0.760122  0.062786  1
  Ru  Ru21  1  0.750000  0.244878  0.686966  1
  Ru  Ru22  1  0.250000  0.252869  0.183382  1
  Ru  Ru23  1  0.250000  0.737077  0.567848  1
