# generated using pymatgen
data_ZrMn3CrP2
_symmetry_space_group_name_H-M   'P 1'
_cell_length_a   6.92752277
_cell_length_b   6.87122691
_cell_length_c   3.70298500
_cell_angle_alpha   90.00000000
_cell_angle_beta   90.00000000
_cell_angle_gamma   90.65102116
_symmetry_Int_Tables_number   1
_chemical_formula_structural   ZrMn3CrP2
_chemical_formula_sum   'Zr2 Mn6 Cr2 P4'
_cell_volume   176.25285882
_cell_formula_units_Z   2
loop_
 _symmetry_equiv_pos_site_id
 _symmetry_equiv_pos_as_xyz
  1  'x, y, z'
loop_
 _atom_site_type_symbol
 _atom_site_label
 _atom_site_symmetry_multiplicity
 _atom_site_fract_x
 _atom_site_fract_y
 _atom_site_fract_z
 _atom_site_occupancy
  Zr  Zr0  1  0.500000  0.500000  0.000000  1
  Zr  Zr1  1  0.000000  0.000000  0.500000  1
  Mn  Mn2  1  0.087135  0.346312  0.000000  1
  Mn  Mn3  1  0.912865  0.653688  0.000000  1
  Mn  Mn4  1  0.155787  0.587608  0.500000  1
  Mn  Mn5  1  0.844213  0.412392  0.500000  1
  Mn  Mn6  1  0.343516  0.086744  0.000000  1
  Mn  Mn7  1  0.656484  0.913256  0.000000  1
  Cr  Cr8  1  0.584998  0.153349  0.500000  1
  Cr  Cr9  1  0.415002  0.846651  0.500000  1
  P  P10  1  0.717781  0.713874  0.500000  1
  P  P11  1  0.282219  0.286126  0.500000  1
  P  P12  1  0.211728  0.783655  0.000000  1
  P  P13  1  0.788272  0.216345  0.000000  1
