# generated using pymatgen
data_CsCr3Sb12Ru
_symmetry_space_group_name_H-M   'P 1'
_cell_length_a   8.35382855
_cell_length_b   8.28821390
_cell_length_c   8.28821427
_cell_angle_alpha   109.31030392
_cell_angle_beta   109.63166752
_cell_angle_gamma   109.63167054
_symmetry_Int_Tables_number   1
_chemical_formula_structural   CsCr3Sb12Ru
_chemical_formula_sum   'Cs1 Cr3 Sb12 Ru1'
_cell_volume   440.88137056
_cell_formula_units_Z   1
loop_
 _symmetry_equiv_pos_site_id
 _symmetry_equiv_pos_as_xyz
  1  'x, y, z'
loop_
 _atom_site_type_symbol
 _atom_site_label
 _atom_site_symmetry_multiplicity
 _atom_site_fract_x
 _atom_site_fract_y
 _atom_site_fract_z
 _atom_site_occupancy
  Cs  Cs0  1  0.000000  0.000000  0.000000  1
  Cr  Cr1  1  0.500000  0.500000  0.500000  1
  Cr  Cr2  1  0.000000  0.000000  0.500000  1
  Cr  Cr3  1  0.000000  0.500000  0.000000  1
  Sb  Sb4  1  0.162755  0.812522  0.662538  1
  Sb  Sb5  1  0.154424  0.502717  0.349740  1
  Sb  Sb6  1  0.499784  0.662538  0.850016  1
  Sb  Sb7  1  0.350232  0.850016  0.187478  1
  Sb  Sb8  1  0.804683  0.650260  0.152977  1
  Sb  Sb9  1  0.651706  0.847023  0.497283  1
  Sb  Sb10  1  0.195317  0.349740  0.847023  1
  Sb  Sb11  1  0.649768  0.149984  0.812522  1
  Sb  Sb12  1  0.348294  0.152977  0.502717  1
  Sb  Sb13  1  0.500216  0.337462  0.149984  1
  Sb  Sb14  1  0.845576  0.497283  0.650260  1
  Sb  Sb15  1  0.837245  0.187478  0.337462  1
  Ru  Ru16  1  0.500000  0.000000  0.000000  1
