# generated using pymatgen
data_YWN2
_symmetry_space_group_name_H-M   'P 1'
_cell_length_a   3.21938000
_cell_length_b   5.73782400
_cell_length_c   10.56338000
_cell_angle_alpha   90.00000000
_cell_angle_beta   90.00000000
_cell_angle_gamma   90.00000000
_symmetry_Int_Tables_number   1
_chemical_formula_structural   YWN2
_chemical_formula_sum   'Y4 W4 N8'
_cell_volume   195.12924651
_cell_formula_units_Z   4
loop_
 _symmetry_equiv_pos_site_id
 _symmetry_equiv_pos_as_xyz
  1  'x, y, z'
loop_
 _atom_site_type_symbol
 _atom_site_label
 _atom_site_symmetry_multiplicity
 _atom_site_fract_x
 _atom_site_fract_y
 _atom_site_fract_z
 _atom_site_occupancy
  Y  Y0  1  0.250000  0.080660  0.854707  1
  Y  Y1  1  0.250000  0.580660  0.645293  1
  Y  Y2  1  0.750000  0.919340  0.145293  1
  Y  Y3  1  0.750000  0.419340  0.354707  1
  W  W4  1  0.250000  0.433381  0.094924  1
  W  W5  1  0.250000  0.933381  0.405076  1
  W  W6  1  0.750000  0.566619  0.905076  1
  W  W7  1  0.750000  0.066619  0.594924  1
  N  N8  1  0.250000  0.163604  0.249083  1
  N  N9  1  0.250000  0.663604  0.250917  1
  N  N10  1  0.750000  0.836396  0.750917  1
  N  N11  1  0.750000  0.336396  0.749083  1
  N  N12  1  0.250000  0.760223  0.992713  1
  N  N13  1  0.250000  0.260223  0.507287  1
  N  N14  1  0.750000  0.239777  0.007287  1
  N  N15  1  0.750000  0.739777  0.492713  1
