# generated using pymatgen
data_CaY2(B3Ir4)2
_symmetry_space_group_name_H-M   'P 1'
_cell_length_a   9.96877705
_cell_length_b   9.12515788
_cell_length_c   5.60988033
_cell_angle_alpha   81.37000286
_cell_angle_beta   64.82461459
_cell_angle_gamma   33.80537482
_symmetry_Int_Tables_number   1
_chemical_formula_structural   CaY2(B3Ir4)2
_chemical_formula_sum   'Ca1 Y2 B6 Ir8'
_cell_volume   235.05244428
_cell_formula_units_Z   1
loop_
 _symmetry_equiv_pos_site_id
 _symmetry_equiv_pos_as_xyz
  1  'x, y, z'
loop_
 _atom_site_type_symbol
 _atom_site_label
 _atom_site_symmetry_multiplicity
 _atom_site_fract_x
 _atom_site_fract_y
 _atom_site_fract_z
 _atom_site_occupancy
  Ca  Ca0  1  0.681087  0.681087  0.318913  1
  Y  Y1  1  0.321141  0.321141  0.678859  1
  Y  Y2  1  0.503126  0.503126  0.496874  1
  B  B3  1  0.670908  0.980713  0.019287  1
  B  B4  1  0.980713  0.670908  0.329092  1
  B  B5  1  0.327189  0.018780  0.981220  1
  B  B6  1  0.018780  0.327189  0.672811  1
  B  B7  1  0.168364  0.831469  0.168531  1
  B  B8  1  0.831469  0.168364  0.831636  1
  Ir  Ir9  1  0.585623  0.585623  0.914377  1
  Ir  Ir10  1  0.912525  0.912525  0.087475  1
  Ir  Ir11  1  0.414510  0.414510  0.085490  1
  Ir  Ir12  1  0.085623  0.085623  0.414377  1
  Ir  Ir13  1  0.914510  0.914510  0.585490  1
  Ir  Ir14  1  0.249532  0.249532  0.250468  1
  Ir  Ir15  1  0.085367  0.085367  0.914633  1
  Ir  Ir16  1  0.749532  0.749532  0.750468  1
