# generated using pymatgen
data_ScNb11B12(Os3Ru)3
_symmetry_space_group_name_H-M   'P 1'
_cell_length_a   3.12610300
_cell_length_b   9.09051798
_cell_length_c   15.83823491
_cell_angle_alpha   89.88273302
_cell_angle_beta   90.00000000
_cell_angle_gamma   90.00000000
_symmetry_Int_Tables_number   1
_chemical_formula_structural   ScNb11B12(Os3Ru)3
_chemical_formula_sum   'Sc1 Nb11 B12 Os9 Ru3'
_cell_volume   450.08836258
_cell_formula_units_Z   1
loop_
 _symmetry_equiv_pos_site_id
 _symmetry_equiv_pos_as_xyz
  1  'x, y, z'
loop_
 _atom_site_type_symbol
 _atom_site_label
 _atom_site_symmetry_multiplicity
 _atom_site_fract_x
 _atom_site_fract_y
 _atom_site_fract_z
 _atom_site_occupancy
  Sc  Sc0  1  0.000000  0.809531  0.491323  1
  Nb  Nb1  1  0.000000  0.198432  0.505079  1
  Nb  Nb2  1  0.000000  0.299900  0.004949  1
  Nb  Nb3  1  0.000000  0.700436  0.996046  1
  Nb  Nb4  1  0.000000  0.513910  0.594698  1
  Nb  Nb5  1  0.000000  0.484987  0.405836  1
  Nb  Nb6  1  0.000000  0.015662  0.905329  1
  Nb  Nb7  1  0.000000  0.985320  0.094352  1
  Nb  Nb8  1  0.000000  0.687142  0.204265  1
  Nb  Nb9  1  0.000000  0.312149  0.797327  1
  Nb  Nb10  1  0.000000  0.186564  0.297167  1
  Nb  Nb11  1  0.000000  0.812091  0.703193  1
  B  B12  1  0.500000  0.600146  0.496893  1
  B  B13  1  0.500000  0.395101  0.503172  1
  B  B14  1  0.500000  0.104722  0.002045  1
  B  B15  1  0.500000  0.895707  0.997527  1
  B  B16  1  0.000000  0.608944  0.832912  1
  B  B17  1  0.000000  0.390953  0.167469  1
  B  B18  1  0.000000  0.105713  0.665713  1
  B  B19  1  0.000000  0.890319  0.332281  1
  B  B20  1  0.500000  0.712236  0.600308  1
  B  B21  1  0.500000  0.286490  0.401347  1
  B  B22  1  0.500000  0.216345  0.902171  1
  B  B23  1  0.500000  0.784369  0.098885  1
  Os  Os24  1  0.500000  0.781196  0.856148  1
  Os  Os25  1  0.500000  0.515479  0.094584  1
  Os  Os26  1  0.500000  0.484355  0.906063  1
  Os  Os27  1  0.500000  0.020433  0.403228  1
  Os  Os28  1  0.500000  0.983577  0.595342  1
  Os  Os29  1  0.500000  0.563346  0.734547  1
  Os  Os30  1  0.500000  0.435222  0.265106  1
  Os  Os31  1  0.500000  0.062551  0.765534  1
  Os  Os32  1  0.500000  0.937894  0.234664  1
  Ru  Ru33  1  0.500000  0.719016  0.355506  1
  Ru  Ru34  1  0.500000  0.280586  0.644605  1
  Ru  Ru35  1  0.500000  0.219175  0.144385  1
