# generated using pymatgen
data_Ta6Cr5ReSi6
_symmetry_space_group_name_H-M   'P 1'
_cell_length_a   7.44036045
_cell_length_b   7.44019228
_cell_length_c   7.44019111
_cell_angle_alpha   126.59144340
_cell_angle_beta   127.04810595
_cell_angle_gamma   78.54492266
_symmetry_Int_Tables_number   1
_chemical_formula_structural   Ta6Cr5ReSi6
_chemical_formula_sum   'Ta6 Cr5 Re1 Si6'
_cell_volume   255.52011998
_cell_formula_units_Z   1
loop_
 _symmetry_equiv_pos_site_id
 _symmetry_equiv_pos_as_xyz
  1  'x, y, z'
loop_
 _atom_site_type_symbol
 _atom_site_label
 _atom_site_symmetry_multiplicity
 _atom_site_fract_x
 _atom_site_fract_y
 _atom_site_fract_z
 _atom_site_occupancy
  Ta  Ta0  1  0.545951  0.091509  0.044146  1
  Ta  Ta1  1  0.454049  0.498195  0.545559  1
  Ta  Ta2  1  0.952858  0.498155  0.043948  1
  Ta  Ta3  1  0.047142  0.091090  0.545298  1
  Ta  Ta4  1  0.748414  0.896735  0.645028  1
  Ta  Ta5  1  0.251586  0.896614  0.148322  1
  Cr  Cr6  1  0.127042  0.751034  0.624404  1
  Cr  Cr7  1  0.872958  0.497361  0.623992  1
  Cr  Cr8  1  0.628172  0.753192  0.124616  1
  Cr  Cr9  1  0.371828  0.496444  0.125022  1
  Cr  Cr10  1  0.500000  0.241565  0.741565  1
  Re  Re11  1  0.000000  0.243659  0.243659  1
  Si  Si12  1  0.333469  0.830997  0.497751  1
  Si  Si13  1  0.666531  0.164280  0.497527  1
  Si  Si14  1  0.832481  0.827270  0.994598  1
  Si  Si15  1  0.167519  0.162116  0.994789  1
  Si  Si16  1  0.744105  0.501036  0.244850  1
  Si  Si17  1  0.255895  0.500744  0.756931  1
