# generated using pymatgen
data_Pr5InRhO12
_symmetry_space_group_name_H-M   'P 1'
_cell_length_a   7.18747222
_cell_length_b   7.18747218
_cell_length_c   7.68457330
_cell_angle_alpha   74.40914869
_cell_angle_beta   74.40914769
_cell_angle_gamma   51.33388582
_symmetry_Int_Tables_number   1
_chemical_formula_structural   Pr5InRhO12
_chemical_formula_sum   'Pr5 In1 Rh1 O12'
_cell_volume   295.86320697
_cell_formula_units_Z   1
loop_
 _symmetry_equiv_pos_site_id
 _symmetry_equiv_pos_as_xyz
  1  'x, y, z'
loop_
 _atom_site_type_symbol
 _atom_site_label
 _atom_site_symmetry_multiplicity
 _atom_site_fract_x
 _atom_site_fract_y
 _atom_site_fract_z
 _atom_site_occupancy
  Pr  Pr0  1  0.302872  0.304271  0.358781  1
  Pr  Pr1  1  0.695729  0.697128  0.641219  1
  Pr  Pr2  1  0.689148  0.697348  0.166932  1
  Pr  Pr3  1  0.302652  0.310852  0.833068  1
  Pr  Pr4  1  0.008998  0.991002  0.500000  1
  In  In5  1  0.760388  0.239612  0.000000  1
  Rh  Rh6  1  0.247173  0.752827  0.000000  1
  O  O7  1  0.094753  0.597286  0.574230  1
  O  O8  1  0.027856  0.970659  0.183100  1
  O  O9  1  0.402714  0.905247  0.425770  1
  O  O10  1  0.478104  0.522944  0.181878  1
  O  O11  1  0.101822  0.581128  0.080609  1
  O  O12  1  0.904433  0.403371  0.422648  1
  O  O13  1  0.029341  0.972144  0.816900  1
  O  O14  1  0.596629  0.095566  0.577352  1
  O  O15  1  0.477056  0.521896  0.818122  1
  O  O16  1  0.561415  0.099954  0.083337  1
  O  O17  1  0.418872  0.898178  0.919391  1
  O  O18  1  0.900046  0.438585  0.916663  1
