# generated using pymatgen
data_CsPrNd9(C2Br9)2
_symmetry_space_group_name_H-M   'P 1'
_cell_length_a   11.00757024
_cell_length_b   11.08876086
_cell_length_c   11.28074609
_cell_angle_alpha   112.87051166
_cell_angle_beta   87.93837894
_cell_angle_gamma   118.46692899
_symmetry_Int_Tables_number   1
_chemical_formula_structural   CsPrNd9(C2Br9)2
_chemical_formula_sum   'Cs1 Pr1 Nd9 C4 Br18'
_cell_volume   1096.18712430
_cell_formula_units_Z   1
loop_
 _symmetry_equiv_pos_site_id
 _symmetry_equiv_pos_as_xyz
  1  'x, y, z'
loop_
 _atom_site_type_symbol
 _atom_site_label
 _atom_site_symmetry_multiplicity
 _atom_site_fract_x
 _atom_site_fract_y
 _atom_site_fract_z
 _atom_site_occupancy
  Cs  Cs0  1  0.500019  0.999965  0.500071  1
  Pr  Pr1  1  0.883397  0.059040  0.998785  1
  Nd  Nd2  1  0.655367  0.714245  0.697911  1
  Nd  Nd3  1  0.282119  0.367882  0.014142  1
  Nd  Nd4  1  0.092538  0.413013  0.304732  1
  Nd  Nd5  1  0.962130  0.037768  0.334216  1
  Nd  Nd6  1  0.907792  0.586640  0.695114  1
  Nd  Nd7  1  0.115148  0.941382  0.001195  1
  Nd  Nd8  1  0.038206  0.962094  0.665767  1
  Nd  Nd9  1  0.345201  0.285753  0.302218  1
  Nd  Nd10  1  0.718201  0.631987  0.985874  1
  C  C11  1  0.157412  0.230355  0.128688  1
  C  C12  1  0.843607  0.769204  0.871341  1
  C  C13  1  0.918132  0.845618  0.794706  1
  C  C14  1  0.082850  0.153861  0.205278  1
  Br  Br15  1  0.451559  0.530605  0.831269  1
  Br  Br16  1  0.385077  0.037002  0.161831  1
  Br  Br17  1  0.773414  0.857205  0.501959  1
  Br  Br18  1  0.835387  0.315690  0.157129  1
  Br  Br19  1  0.548660  0.469523  0.168756  1
  Br  Br20  1  0.226736  0.142786  0.498137  1
  Br  Br21  1  0.312389  0.099162  0.833068  1
  Br  Br22  1  0.686763  0.899784  0.167894  1
  Br  Br23  1  0.978679  0.763460  0.171804  1
  Br  Br24  1  0.930046  0.300001  0.500401  1
  Br  Br25  1  0.022459  0.237433  0.827223  1
  Br  Br26  1  0.070078  0.699915  0.499513  1
  Br  Br27  1  0.263158  0.627839  0.190865  1
  Br  Br28  1  0.736797  0.371984  0.809083  1
  Br  Br29  1  0.637313  0.430287  0.498319  1
  Br  Br30  1  0.164624  0.687463  0.845105  1
  Br  Br31  1  0.612005  0.961378  0.835909  1
  Br  Br32  1  0.362739  0.569676  0.501697  1
