# generated using pymatgen
data_YTm2Sn3RuPt2
_symmetry_space_group_name_H-M   'P 1'
_cell_length_a   7.72199428
_cell_length_b   7.68912734
_cell_length_c   3.73011100
_cell_angle_alpha   90.00000000
_cell_angle_beta   90.00000000
_cell_angle_gamma   119.85929210
_symmetry_Int_Tables_number   1
_chemical_formula_structural   YTm2Sn3RuPt2
_chemical_formula_sum   'Y1 Tm2 Sn3 Ru1 Pt2'
_cell_volume   192.07592953
_cell_formula_units_Z   1
loop_
 _symmetry_equiv_pos_site_id
 _symmetry_equiv_pos_as_xyz
  1  'x, y, z'
loop_
 _atom_site_type_symbol
 _atom_site_label
 _atom_site_symmetry_multiplicity
 _atom_site_fract_x
 _atom_site_fract_y
 _atom_site_fract_z
 _atom_site_occupancy
  Y  Y0  1  0.000000  0.400540  0.000000  1
  Tm  Tm1  1  0.600682  0.599861  0.000000  1
  Tm  Tm2  1  0.399318  0.999179  0.000000  1
  Sn  Sn3  1  0.000000  0.737724  0.500000  1
  Sn  Sn4  1  0.262645  0.261370  0.500000  1
  Sn  Sn5  1  0.737355  0.998725  0.500000  1
  Ru  Ru6  1  0.000000  0.998668  0.000000  1
  Pt  Pt7  1  0.338525  0.671230  0.500000  1
  Pt  Pt8  1  0.661475  0.332703  0.500000  1
