# generated using pymatgen
data_Sr8TaTi2CoO16
_symmetry_space_group_name_H-M   'P 1'
_cell_length_a   5.54211091
_cell_length_b   8.87550143
_cell_length_c   8.87545986
_cell_angle_alpha   88.46604317
_cell_angle_beta   71.80131401
_cell_angle_gamma   108.19843324
_symmetry_Int_Tables_number   1
_chemical_formula_structural   Sr8TaTi2CoO16
_chemical_formula_sum   'Sr8 Ta1 Ti2 Co1 O16'
_cell_volume   390.23684880
_cell_formula_units_Z   1
loop_
 _symmetry_equiv_pos_site_id
 _symmetry_equiv_pos_as_xyz
  1  'x, y, z'
loop_
 _atom_site_type_symbol
 _atom_site_label
 _atom_site_symmetry_multiplicity
 _atom_site_fract_x
 _atom_site_fract_y
 _atom_site_fract_z
 _atom_site_occupancy
  Sr  Sr0  1  0.244556  0.391108  0.901635  1
  Sr  Sr1  1  0.994205  0.640771  0.652197  1
  Sr  Sr2  1  0.756844  0.903884  0.390572  1
  Sr  Sr3  1  0.508595  0.151602  0.134323  1
  Sr  Sr4  1  0.994223  0.347825  0.359194  1
  Sr  Sr5  1  0.756904  0.609495  0.096097  1
  Sr  Sr6  1  0.508466  0.865546  0.848512  1
  Sr  Sr7  1  0.244550  0.098350  0.608895  1
  Ta  Ta8  1  0.495765  0.495877  0.504092  1
  Ti  Ti9  1  0.256381  0.756213  0.243870  1
  Ti  Ti10  1  0.007648  0.007540  0.992480  1
  Co  Co11  1  0.748208  0.248405  0.751544  1
  O  O12  1  0.247671  0.591046  0.095487  1
  O  O13  1  0.999162  0.840130  0.842217  1
  O  O14  1  0.749407  0.090468  0.591281  1
  O  O15  1  0.498859  0.339427  0.341302  1
  O  O16  1  0.999348  0.158015  0.159680  1
  O  O17  1  0.749323  0.408628  0.909581  1
  O  O18  1  0.498899  0.658740  0.660472  1
  O  O19  1  0.247486  0.904293  0.409225  1
  O  O20  1  0.874091  0.125682  0.874213  1
  O  O21  1  0.625077  0.371346  0.628662  1
  O  O22  1  0.374034  0.623630  0.376268  1
  O  O23  1  0.125521  0.875763  0.124429  1
  O  O24  1  0.377270  0.125842  0.874049  1
  O  O25  1  0.117109  0.371564  0.628442  1
  O  O26  1  0.873615  0.623445  0.376487  1
  O  O27  1  0.626783  0.875365  0.124791  1
