# generated using pymatgen
data_TbAg(AuO2)4
_symmetry_space_group_name_H-M   'P 1'
_cell_length_a   6.65279922
_cell_length_b   6.65279837
_cell_length_c   6.65279900
_cell_angle_alpha   125.38589793
_cell_angle_beta   125.38588213
_cell_angle_gamma   80.89984228
_symmetry_Int_Tables_number   1
_chemical_formula_structural   TbAg(AuO2)4
_chemical_formula_sum   'Tb1 Ag1 Au4 O8'
_cell_volume   188.63042253
_cell_formula_units_Z   1
loop_
 _symmetry_equiv_pos_site_id
 _symmetry_equiv_pos_as_xyz
  1  'x, y, z'
loop_
 _atom_site_type_symbol
 _atom_site_label
 _atom_site_symmetry_multiplicity
 _atom_site_fract_x
 _atom_site_fract_y
 _atom_site_fract_z
 _atom_site_occupancy
  Tb  Tb0  1  0.000000  0.000000  0.000000  1
  Ag  Ag1  1  0.750000  0.250000  0.500000  1
  Au  Au2  1  0.374698  0.638830  0.762297  1
  Au  Au3  1  0.361170  0.123466  0.735868  1
  Au  Au4  1  0.876534  0.612402  0.237703  1
  Au  Au5  1  0.387598  0.625302  0.264132  1
  O  O6  1  0.058418  0.392855  0.057587  1
  O  O7  1  0.739409  0.276075  0.113426  1
  O  O8  1  0.162650  0.625982  0.886574  1
  O  O9  1  0.335265  0.000830  0.942413  1
  O  O10  1  0.723925  0.837350  0.463332  1
  O  O11  1  0.999170  0.941582  0.334436  1
  O  O12  1  0.374018  0.260591  0.536668  1
  O  O13  1  0.607145  0.664735  0.665564  1
