# generated using pymatgen
data_Li5Nd8Zn3Rh8
_symmetry_space_group_name_H-M   'P 1'
_cell_length_a   4.07901700
_cell_length_b   7.28287627
_cell_length_c   16.53837833
_cell_angle_alpha   89.89180504
_cell_angle_beta   90.00000000
_cell_angle_gamma   90.00000000
_symmetry_Int_Tables_number   1
_chemical_formula_structural   Li5Nd8Zn3Rh8
_chemical_formula_sum   'Li5 Nd8 Zn3 Rh8'
_cell_volume   491.30433369
_cell_formula_units_Z   1
loop_
 _symmetry_equiv_pos_site_id
 _symmetry_equiv_pos_as_xyz
  1  'x, y, z'
loop_
 _atom_site_type_symbol
 _atom_site_label
 _atom_site_symmetry_multiplicity
 _atom_site_fract_x
 _atom_site_fract_y
 _atom_site_fract_z
 _atom_site_occupancy
  Li  Li0  1  0.750000  0.006287  0.560907  1
  Li  Li1  1  0.250000  0.630456  0.350872  1
  Li  Li2  1  0.750000  0.371058  0.649159  1
  Li  Li3  1  0.250000  0.491841  0.062262  1
  Li  Li4  1  0.750000  0.508650  0.937513  1
  Nd  Nd5  1  0.250000  0.165400  0.939178  1
  Nd  Nd6  1  0.250000  0.663571  0.560618  1
  Nd  Nd7  1  0.750000  0.332721  0.438919  1
  Nd  Nd8  1  0.750000  0.954741  0.282616  1
  Nd  Nd9  1  0.750000  0.835554  0.060786  1
  Nd  Nd10  1  0.750000  0.452471  0.216249  1
  Nd  Nd11  1  0.250000  0.044487  0.718208  1
  Nd  Nd12  1  0.250000  0.547353  0.783632  1
  Zn  Zn13  1  0.250000  0.994614  0.438603  1
  Zn  Zn14  1  0.250000  0.127631  0.149862  1
  Zn  Zn15  1  0.750000  0.872791  0.850135  1
  Rh  Rh16  1  0.750000  0.756948  0.438414  1
  Rh  Rh17  1  0.250000  0.241080  0.311697  1
  Rh  Rh18  1  0.750000  0.245038  0.814999  1
  Rh  Rh19  1  0.750000  0.755209  0.690047  1
  Rh  Rh20  1  0.250000  0.247360  0.560248  1
  Rh  Rh21  1  0.250000  0.753665  0.185002  1
  Rh  Rh22  1  0.750000  0.244142  0.065163  1
  Rh  Rh23  1  0.250000  0.756932  0.934914  1
