# generated using pymatgen
data_Gd3Mg(GaPt)4
_symmetry_space_group_name_H-M   'P 1'
_cell_length_a   4.35316100
_cell_length_b   6.86696732
_cell_length_c   7.72888200
_cell_angle_alpha   87.42453171
_cell_angle_beta   90.00000000
_cell_angle_gamma   90.00000000
_symmetry_Int_Tables_number   1
_chemical_formula_structural   Gd3Mg(GaPt)4
_chemical_formula_sum   'Gd3 Mg1 Ga4 Pt4'
_cell_volume   230.80620739
_cell_formula_units_Z   1
loop_
 _symmetry_equiv_pos_site_id
 _symmetry_equiv_pos_as_xyz
  1  'x, y, z'
loop_
 _atom_site_type_symbol
 _atom_site_label
 _atom_site_symmetry_multiplicity
 _atom_site_fract_x
 _atom_site_fract_y
 _atom_site_fract_z
 _atom_site_occupancy
  Gd  Gd0  1  0.750000  0.522071  0.826493  1
  Gd  Gd1  1  0.750000  0.029893  0.684847  1
  Gd  Gd2  1  0.250000  0.974211  0.310238  1
  Mg  Mg3  1  0.250000  0.474971  0.180327  1
  Ga  Ga4  1  0.250000  0.841086  0.937913  1
  Ga  Ga5  1  0.750000  0.151573  0.065857  1
  Ga  Ga6  1  0.750000  0.648467  0.436341  1
  Ga  Ga7  1  0.250000  0.353964  0.556705  1
  Pt  Pt8  1  0.250000  0.727310  0.623415  1
  Pt  Pt9  1  0.750000  0.282498  0.371169  1
  Pt  Pt10  1  0.750000  0.766007  0.118894  1
  Pt  Pt11  1  0.250000  0.227948  0.887803  1
