# generated using pymatgen
data_Tb4HoIn4IrPt
_symmetry_space_group_name_H-M   'P 1'
_cell_length_a   3.64751600
_cell_length_b   8.14490311
_cell_length_c   18.32022509
_cell_angle_alpha   90.05988396
_cell_angle_beta   90.00000000
_cell_angle_gamma   90.00000000
_symmetry_Int_Tables_number   1
_chemical_formula_structural   Tb4HoIn4IrPt
_chemical_formula_sum   'Tb8 Ho2 In8 Ir2 Pt2'
_cell_volume   544.26912198
_cell_formula_units_Z   2
loop_
 _symmetry_equiv_pos_site_id
 _symmetry_equiv_pos_as_xyz
  1  'x, y, z'
loop_
 _atom_site_type_symbol
 _atom_site_label
 _atom_site_symmetry_multiplicity
 _atom_site_fract_x
 _atom_site_fract_y
 _atom_site_fract_z
 _atom_site_occupancy
  Tb  Tb0  1  0.000000  0.115120  0.412122  1
  Tb  Tb1  1  0.000000  0.884880  0.587878  1
  Tb  Tb2  1  0.000000  0.383044  0.913914  1
  Tb  Tb3  1  0.000000  0.616956  0.086086  1
  Tb  Tb4  1  0.000000  0.236301  0.221539  1
  Tb  Tb5  1  0.000000  0.763699  0.778461  1
  Tb  Tb6  1  0.000000  0.000000  0.000000  1
  Tb  Tb7  1  0.000000  0.500000  0.500000  1
  Ho  Ho8  1  0.000000  0.248439  0.720246  1
  Ho  Ho9  1  0.000000  0.751561  0.279754  1
  In  In10  1  0.500000  0.424570  0.350891  1
  In  In11  1  0.500000  0.575430  0.649109  1
  In  In12  1  0.500000  0.074458  0.850617  1
  In  In13  1  0.500000  0.925542  0.149383  1
  In  In14  1  0.500000  0.292578  0.066815  1
  In  In15  1  0.500000  0.707422  0.933185  1
  In  In16  1  0.500000  0.207028  0.567967  1
  In  In17  1  0.500000  0.792972  0.432033  1
  Ir  Ir18  1  0.500000  0.019795  0.303794  1
  Ir  Ir19  1  0.500000  0.980205  0.696206  1
  Pt  Pt20  1  0.500000  0.476823  0.802932  1
  Pt  Pt21  1  0.500000  0.523177  0.197068  1
