# generated using pymatgen
data_YbY19Cd6TcRu
_symmetry_space_group_name_H-M   'P 1'
_cell_length_a   9.66037900
_cell_length_b   9.66037871
_cell_length_c   9.88633100
_cell_angle_alpha   90.00000000
_cell_angle_beta   90.00000000
_cell_angle_gamma   120.00000442
_symmetry_Int_Tables_number   1
_chemical_formula_structural   YbY19Cd6TcRu
_chemical_formula_sum   'Yb1 Y19 Cd6 Tc1 Ru1'
_cell_volume   799.01342510
_cell_formula_units_Z   1
loop_
 _symmetry_equiv_pos_site_id
 _symmetry_equiv_pos_as_xyz
  1  'x, y, z'
loop_
 _atom_site_type_symbol
 _atom_site_label
 _atom_site_symmetry_multiplicity
 _atom_site_fract_x
 _atom_site_fract_y
 _atom_site_fract_z
 _atom_site_occupancy
  Yb  Yb0  1  0.000000  0.000000  0.500112  1
  Y  Y1  1  0.000000  0.000000  0.999756  1
  Y  Y2  1  0.210733  0.789267  0.440447  1
  Y  Y3  1  0.210733  0.421467  0.440447  1
  Y  Y4  1  0.578533  0.789267  0.440447  1
  Y  Y5  1  0.789165  0.210835  0.560189  1
  Y  Y6  1  0.789165  0.578329  0.560189  1
  Y  Y7  1  0.421671  0.210835  0.560189  1
  Y  Y8  1  0.789595  0.210405  0.940470  1
  Y  Y9  1  0.789595  0.579189  0.940470  1
  Y  Y10  1  0.420811  0.210405  0.940470  1
  Y  Y11  1  0.210209  0.789791  0.059030  1
  Y  Y12  1  0.210209  0.420419  0.059030  1
  Y  Y13  1  0.579581  0.789791  0.059030  1
  Y  Y14  1  0.540270  0.459730  0.250627  1
  Y  Y15  1  0.540270  0.080539  0.250627  1
  Y  Y16  1  0.919461  0.459730  0.250627  1
  Y  Y17  1  0.458640  0.541360  0.749445  1
  Y  Y18  1  0.458640  0.917282  0.749445  1
  Y  Y19  1  0.082718  0.541360  0.749445  1
  Cd  Cd20  1  0.885332  0.114668  0.250052  1
  Cd  Cd21  1  0.885332  0.770665  0.250052  1
  Cd  Cd22  1  0.229335  0.114668  0.250052  1
  Cd  Cd23  1  0.114483  0.885517  0.749919  1
  Cd  Cd24  1  0.114483  0.228965  0.749919  1
  Cd  Cd25  1  0.771035  0.885517  0.749919  1
  Tc  Tc26  1  0.333333  0.666667  0.250206  1
  Ru  Ru27  1  0.666667  0.333333  0.749390  1
