# generated using pymatgen
data_Ce7NdSi15Ru
_symmetry_space_group_name_H-M   'P 1'
_cell_length_a   8.15975700
_cell_length_b   8.17278960
_cell_length_c   8.30835100
_cell_angle_alpha   89.91524939
_cell_angle_beta   90.00000000
_cell_angle_gamma   119.94726800
_symmetry_Int_Tables_number   1
_chemical_formula_structural   Ce7NdSi15Ru
_chemical_formula_sum   'Ce7 Nd1 Si15 Ru1'
_cell_volume   480.09026709
_cell_formula_units_Z   1
loop_
 _symmetry_equiv_pos_site_id
 _symmetry_equiv_pos_as_xyz
  1  'x, y, z'
loop_
 _atom_site_type_symbol
 _atom_site_label
 _atom_site_symmetry_multiplicity
 _atom_site_fract_x
 _atom_site_fract_y
 _atom_site_fract_z
 _atom_site_occupancy
  Ce  Ce0  1  0.999500  0.998999  0.748980  1
  Ce  Ce1  1  0.000134  0.000268  0.251765  1
  Ce  Ce2  1  0.497805  0.501449  0.749792  1
  Ce  Ce3  1  0.498156  0.996313  0.750261  1
  Ce  Ce4  1  0.003641  0.501449  0.749792  1
  Ce  Ce5  1  0.498519  0.501416  0.250727  1
  Ce  Ce6  1  0.002898  0.501416  0.250727  1
  Nd  Nd7  1  0.500845  0.001689  0.252053  1
  Si  Si8  1  0.667698  0.335396  0.998957  1
  Si  Si9  1  0.667429  0.334858  0.503094  1
  Si  Si10  1  0.332922  0.665844  0.499780  1
  Si  Si11  1  0.834894  0.165020  0.997962  1
  Si  Si12  1  0.835397  0.670793  0.000771  1
  Si  Si13  1  0.330125  0.165020  0.997962  1
  Si  Si14  1  0.834000  0.168252  0.501494  1
  Si  Si15  1  0.832628  0.665257  0.499159  1
  Si  Si16  1  0.334251  0.168252  0.501494  1
  Si  Si17  1  0.165449  0.833161  0.501089  1
  Si  Si18  1  0.667711  0.833161  0.501089  1
  Si  Si19  1  0.166675  0.333351  0.499717  1
  Si  Si20  1  0.167983  0.831883  0.000400  1
  Si  Si21  1  0.663901  0.831883  0.000400  1
  Si  Si22  1  0.166174  0.332345  0.001568  1
  Ru  Ru23  1  0.331264  0.662527  0.990967  1
