# generated using pymatgen
data_Tm16In4Ir3Pt
_symmetry_space_group_name_H-M   'P 1'
_cell_length_a   9.54670516
_cell_length_b   9.54670456
_cell_length_c   9.54181900
_cell_angle_alpha   59.98307029
_cell_angle_beta   59.98306545
_cell_angle_gamma   60.00000889
_symmetry_Int_Tables_number   1
_chemical_formula_structural   Tm16In4Ir3Pt
_chemical_formula_sum   'Tm16 In4 Ir3 Pt1'
_cell_volume   614.76905986
_cell_formula_units_Z   1
loop_
 _symmetry_equiv_pos_site_id
 _symmetry_equiv_pos_as_xyz
  1  'x, y, z'
loop_
 _atom_site_type_symbol
 _atom_site_label
 _atom_site_symmetry_multiplicity
 _atom_site_fract_x
 _atom_site_fract_y
 _atom_site_fract_z
 _atom_site_occupancy
  Tm  Tm0  1  0.061028  0.061028  0.440307  1
  Tm  Tm1  1  0.437636  0.061028  0.440307  1
  Tm  Tm2  1  0.059918  0.439905  0.060272  1
  Tm  Tm3  1  0.049691  0.648468  0.653374  1
  Tm  Tm4  1  0.439905  0.439905  0.060272  1
  Tm  Tm5  1  0.648468  0.049691  0.653374  1
  Tm  Tm6  1  0.193644  0.809328  0.187700  1
  Tm  Tm7  1  0.189939  0.189939  0.810014  1
  Tm  Tm8  1  0.809328  0.809328  0.187700  1
  Tm  Tm9  1  0.439905  0.059918  0.060272  1
  Tm  Tm10  1  0.809328  0.193644  0.187700  1
  Tm  Tm11  1  0.061028  0.437636  0.440307  1
  Tm  Tm12  1  0.810108  0.189939  0.810014  1
  Tm  Tm13  1  0.189939  0.810108  0.810014  1
  Tm  Tm14  1  0.650934  0.650934  0.047199  1
  Tm  Tm15  1  0.648468  0.648468  0.653374  1
  In  In16  1  0.416017  0.416017  0.416211  1
  In  In17  1  0.751753  0.416017  0.416211  1
  In  In18  1  0.416017  0.751753  0.416211  1
  In  In19  1  0.416655  0.416655  0.750035  1
  Ir  Ir20  1  0.858473  0.858473  0.857823  1
  Ir  Ir21  1  0.425233  0.858473  0.857823  1
  Ir  Ir22  1  0.858473  0.425233  0.857823  1
  Pt  Pt23  1  0.858111  0.858111  0.425666  1
