# generated using pymatgen
data_Tb3(CeTl2)2
_symmetry_space_group_name_H-M   'P 1'
_cell_length_a   6.54526600
_cell_length_b   9.56957247
_cell_length_c   9.56957200
_cell_angle_alpha   119.99999837
_cell_angle_beta   90.00000000
_cell_angle_gamma   90.00000000
_symmetry_Int_Tables_number   1
_chemical_formula_structural   Tb3(CeTl2)2
_chemical_formula_sum   'Tb6 Ce4 Tl8'
_cell_volume   519.09039137
_cell_formula_units_Z   2
loop_
 _symmetry_equiv_pos_site_id
 _symmetry_equiv_pos_as_xyz
  1  'x, y, z'
loop_
 _atom_site_type_symbol
 _atom_site_label
 _atom_site_symmetry_multiplicity
 _atom_site_fract_x
 _atom_site_fract_y
 _atom_site_fract_z
 _atom_site_occupancy
  Tb  Tb0  1  0.750000  0.708910  0.708910  1
  Tb  Tb1  1  0.250000  0.291090  0.291090  1
  Tb  Tb2  1  0.750000  0.000000  0.291090  1
  Tb  Tb3  1  0.250000  0.000000  0.708910  1
  Tb  Tb4  1  0.750000  0.291090  0.000000  1
  Tb  Tb5  1  0.250000  0.708910  0.000000  1
  Ce  Ce6  1  0.000000  0.666667  0.333333  1
  Ce  Ce7  1  0.000000  0.333333  0.666667  1
  Ce  Ce8  1  0.500000  0.333333  0.666667  1
  Ce  Ce9  1  0.500000  0.666667  0.333333  1
  Tl  Tl10  1  0.000000  0.000000  0.000000  1
  Tl  Tl11  1  0.500000  0.000000  0.000000  1
  Tl  Tl12  1  0.750000  0.369493  0.369493  1
  Tl  Tl13  1  0.250000  0.630507  0.630507  1
  Tl  Tl14  1  0.750000  0.000000  0.630507  1
  Tl  Tl15  1  0.250000  0.000000  0.369493  1
  Tl  Tl16  1  0.750000  0.630507  0.000000  1
  Tl  Tl17  1  0.250000  0.369493  0.000000  1
