# generated using pymatgen
data_NdFe3CoAs12
_symmetry_space_group_name_H-M   'P 1'
_cell_length_a   7.22559431
_cell_length_b   7.22559424
_cell_length_c   7.22559463
_cell_angle_alpha   109.43271061
_cell_angle_beta   109.43270571
_cell_angle_gamma   109.43270549
_symmetry_Int_Tables_number   1
_chemical_formula_structural   NdFe3CoAs12
_chemical_formula_sum   'Nd1 Fe3 Co1 As12'
_cell_volume   290.81484595
_cell_formula_units_Z   1
loop_
 _symmetry_equiv_pos_site_id
 _symmetry_equiv_pos_as_xyz
  1  'x, y, z'
loop_
 _atom_site_type_symbol
 _atom_site_label
 _atom_site_symmetry_multiplicity
 _atom_site_fract_x
 _atom_site_fract_y
 _atom_site_fract_z
 _atom_site_occupancy
  Nd  Nd0  1  0.000000  0.000000  0.000000  1
  Fe  Fe1  1  0.500000  0.000000  0.000000  1
  Fe  Fe2  1  0.000000  0.500000  0.000000  1
  Fe  Fe3  1  0.000000  0.000000  0.500000  1
  Co  Co4  1  0.500000  0.500000  0.500000  1
  As  As5  1  0.846143  0.658180  0.501357  1
  As  As6  1  0.153857  0.341820  0.498643  1
  As  As7  1  0.156370  0.657779  0.813945  1
  As  As8  1  0.843630  0.342221  0.186055  1
  As  As9  1  0.658180  0.501357  0.846143  1
  As  As10  1  0.341820  0.498643  0.153857  1
  As  As11  1  0.657779  0.813945  0.156370  1
  As  As12  1  0.342221  0.186055  0.843630  1
  As  As13  1  0.501357  0.846143  0.658180  1
  As  As14  1  0.498643  0.153857  0.341820  1
  As  As15  1  0.186055  0.843630  0.342221  1
  As  As16  1  0.813945  0.156370  0.657779  1
