# generated using pymatgen
data_Sr3DyPb12
_symmetry_space_group_name_H-M   'P 1'
_cell_length_a   12.72073364
_cell_length_b   12.72073417
_cell_length_c   12.72073417
_cell_angle_alpha   31.64075503
_cell_angle_beta   31.64074836
_cell_angle_gamma   31.64075401
_symmetry_Int_Tables_number   1
_chemical_formula_structural   Sr3DyPb12
_chemical_formula_sum   'Sr3 Dy1 Pb12'
_cell_volume   503.02460895
_cell_formula_units_Z   1
loop_
 _symmetry_equiv_pos_site_id
 _symmetry_equiv_pos_as_xyz
  1  'x, y, z'
loop_
 _atom_site_type_symbol
 _atom_site_label
 _atom_site_symmetry_multiplicity
 _atom_site_fract_x
 _atom_site_fract_y
 _atom_site_fract_z
 _atom_site_occupancy
  Sr  Sr0  1  0.124908  0.124908  0.124908  1
  Sr  Sr1  1  0.705996  0.705996  0.705996  1
  Sr  Sr2  1  0.291813  0.291813  0.291813  1
  Dy  Dy3  1  0.876843  0.876843  0.876843  1
  Pb  Pb4  1  0.283985  0.792939  0.792939  1
  Pb  Pb5  1  0.792939  0.792939  0.283985  1
  Pb  Pb6  1  0.867396  0.379242  0.379242  1
  Pb  Pb7  1  0.379242  0.379242  0.867396  1
  Pb  Pb8  1  0.379242  0.867396  0.379242  1
  Pb  Pb9  1  0.625553  0.129969  0.625553  1
  Pb  Pb10  1  0.129969  0.625553  0.625553  1
  Pb  Pb11  1  0.625553  0.625553  0.129969  1
  Pb  Pb12  1  0.792939  0.283985  0.792939  1
  Pb  Pb13  1  0.206277  0.711072  0.206277  1
  Pb  Pb14  1  0.206277  0.206277  0.711072  1
  Pb  Pb15  1  0.711072  0.206277  0.206277  1
