# generated using pymatgen
data_Sr5P2Pb
_symmetry_space_group_name_H-M   'P 1'
_cell_length_a   9.65708634
_cell_length_b   9.65708596
_cell_length_c   9.65708623
_cell_angle_alpha   128.48695876
_cell_angle_beta   128.48696658
_cell_angle_gamma   75.83748542
_symmetry_Int_Tables_number   1
_chemical_formula_structural   Sr5P2Pb
_chemical_formula_sum   'Sr10 P4 Pb2'
_cell_volume   536.64357150
_cell_formula_units_Z   2
loop_
 _symmetry_equiv_pos_site_id
 _symmetry_equiv_pos_as_xyz
  1  'x, y, z'
loop_
 _atom_site_type_symbol
 _atom_site_label
 _atom_site_symmetry_multiplicity
 _atom_site_fract_x
 _atom_site_fract_y
 _atom_site_fract_z
 _atom_site_occupancy
  Sr  Sr0  1  0.785465  0.285465  0.815178  1
  Sr  Sr1  1  0.214535  0.714535  0.184822  1
  Sr  Sr2  1  0.470287  0.970287  0.184822  1
  Sr  Sr3  1  0.285465  0.470287  0.500000  1
  Sr  Sr4  1  0.029713  0.214535  0.500000  1
  Sr  Sr5  1  0.529713  0.029713  0.815178  1
  Sr  Sr6  1  0.714535  0.529713  0.500000  1
  Sr  Sr7  1  0.970287  0.785465  0.500000  1
  Sr  Sr8  1  0.000000  0.000000  0.000000  1
  Sr  Sr9  1  0.500000  0.500000  0.000000  1
  P  P10  1  0.154336  0.654336  0.808674  1
  P  P11  1  0.845664  0.345664  0.191326  1
  P  P12  1  0.654336  0.845664  0.500000  1
  P  P13  1  0.345664  0.154336  0.500000  1
  Pb  Pb14  1  0.250000  0.250000  0.000000  1
  Pb  Pb15  1  0.750000  0.750000  0.000000  1
