# generated using pymatgen
data_Np4ReB12Mo
_symmetry_space_group_name_H-M   'P 1'
_cell_length_a   3.65204800
_cell_length_b   9.27561740
_cell_length_c   11.32442857
_cell_angle_alpha   89.97830943
_cell_angle_beta   90.00000000
_cell_angle_gamma   90.00000000
_symmetry_Int_Tables_number   1
_chemical_formula_structural   Np4ReB12Mo
_chemical_formula_sum   'Np8 Re2 B24 Mo2'
_cell_volume   383.61499005
_cell_formula_units_Z   2
loop_
 _symmetry_equiv_pos_site_id
 _symmetry_equiv_pos_as_xyz
  1  'x, y, z'
loop_
 _atom_site_type_symbol
 _atom_site_label
 _atom_site_symmetry_multiplicity
 _atom_site_fract_x
 _atom_site_fract_y
 _atom_site_fract_z
 _atom_site_occupancy
  Np  Np0  1  0.000000  0.338444  0.407740  1
  Np  Np1  1  0.000000  0.661556  0.592260  1
  Np  Np2  1  0.000000  0.837933  0.093004  1
  Np  Np3  1  0.000000  0.162067  0.906996  1
  Np  Np4  1  0.000000  0.958229  0.400303  1
  Np  Np5  1  0.000000  0.041771  0.599697  1
  Np  Np6  1  0.000000  0.459516  0.100112  1
  Np  Np7  1  0.000000  0.540484  0.899888  1
  Re  Re8  1  0.000000  0.146000  0.180301  1
  Re  Re9  1  0.000000  0.854000  0.819699  1
  B  B10  1  0.500000  0.551538  0.432417  1
  B  B11  1  0.500000  0.448462  0.567583  1
  B  B12  1  0.500000  0.051922  0.068129  1
  B  B13  1  0.500000  0.948078  0.931871  1
  B  B14  1  0.500000  0.744674  0.424497  1
  B  B15  1  0.500000  0.255326  0.575503  1
  B  B16  1  0.500000  0.243831  0.076667  1
  B  B17  1  0.500000  0.756169  0.923333  1
  B  B18  1  0.500000  0.806514  0.273637  1
  B  B19  1  0.500000  0.193486  0.726363  1
  B  B20  1  0.500000  0.304995  0.225775  1
  B  B21  1  0.500000  0.695005  0.774225  1
  B  B22  1  0.500000  0.646322  0.186852  1
  B  B23  1  0.500000  0.353678  0.813148  1
  B  B24  1  0.500000  0.146069  0.311752  1
  B  B25  1  0.500000  0.853931  0.688248  1
  B  B26  1  0.500000  0.988889  0.220037  1
  B  B27  1  0.500000  0.011111  0.779963  1
  B  B28  1  0.500000  0.487293  0.279067  1
  B  B29  1  0.500000  0.512707  0.720933  1
  B  B30  1  0.500000  0.642238  0.038755  1
  B  B31  1  0.500000  0.357762  0.961245  1
  B  B32  1  0.500000  0.141818  0.460096  1
  B  B33  1  0.500000  0.858182  0.539904  1
  Mo  Mo34  1  0.000000  0.646730  0.319063  1
  Mo  Mo35  1  0.000000  0.353270  0.680937  1
