# generated using pymatgen
data_Zr10SnHgBi4
_symmetry_space_group_name_H-M   'P 1'
_cell_length_a   5.68093360
_cell_length_b   8.58386520
_cell_length_c   8.58386509
_cell_angle_alpha   96.28648735
_cell_angle_beta   109.32387803
_cell_angle_gamma   70.67612030
_symmetry_Int_Tables_number   1
_chemical_formula_structural   Zr10SnHgBi4
_chemical_formula_sum   'Zr10 Sn1 Hg1 Bi4'
_cell_volume   372.75154509
_cell_formula_units_Z   1
loop_
 _symmetry_equiv_pos_site_id
 _symmetry_equiv_pos_as_xyz
  1  'x, y, z'
loop_
 _atom_site_type_symbol
 _atom_site_label
 _atom_site_symmetry_multiplicity
 _atom_site_fract_x
 _atom_site_fract_y
 _atom_site_fract_z
 _atom_site_occupancy
  Zr  Zr0  1  0.421992  0.855438  0.703412  1
  Zr  Zr1  1  0.574017  0.144562  0.296588  1
  Zr  Zr2  1  0.925983  0.296588  0.144562  1
  Zr  Zr3  1  0.078008  0.703412  0.855438  1
  Zr  Zr4  1  0.718578  0.703412  0.144562  1
  Zr  Zr5  1  0.277429  0.296588  0.855438  1
  Zr  Zr6  1  0.781422  0.144562  0.703412  1
  Zr  Zr7  1  0.222571  0.855438  0.296588  1
  Zr  Zr8  1  0.250000  0.500000  0.500000  1
  Zr  Zr9  1  0.750000  0.500000  0.500000  1
  Sn  Sn10  1  0.250000  0.000000  0.000000  1
  Hg  Hg11  1  0.750000  0.000000  0.000000  1
  Bi  Bi12  1  0.335240  0.500000  0.170482  1
  Bi  Bi13  1  0.664760  0.500000  0.829518  1
  Bi  Bi14  1  0.835240  0.829518  0.500000  1
  Bi  Bi15  1  0.164760  0.170482  0.500000  1
