# generated using pymatgen
data_Y19ThSn16
_symmetry_space_group_name_H-M   'P 1'
_cell_length_a   8.08194710
_cell_length_b   8.19407965
_cell_length_c   15.53791621
_cell_angle_alpha   90.13409037
_cell_angle_beta   89.77158411
_cell_angle_gamma   89.88733210
_symmetry_Int_Tables_number   1
_chemical_formula_structural   Y19ThSn16
_chemical_formula_sum   'Y19 Th1 Sn16'
_cell_volume   1028.97179682
_cell_formula_units_Z   1
loop_
 _symmetry_equiv_pos_site_id
 _symmetry_equiv_pos_as_xyz
  1  'x, y, z'
loop_
 _atom_site_type_symbol
 _atom_site_label
 _atom_site_symmetry_multiplicity
 _atom_site_fract_x
 _atom_site_fract_y
 _atom_site_fract_z
 _atom_site_occupancy
  Y  Y0  1  0.367041  0.835718  0.877793  1
  Y  Y1  1  0.868132  0.664133  0.621487  1
  Y  Y2  1  0.631703  0.163185  0.377885  1
  Y  Y3  1  0.133021  0.336979  0.122635  1
  Y  Y4  1  0.633020  0.163223  0.122439  1
  Y  Y5  1  0.132148  0.337080  0.378049  1
  Y  Y6  1  0.368098  0.836526  0.621998  1
  Y  Y7  1  0.867135  0.663018  0.877932  1
  Y  Y8  1  0.522836  0.322133  0.901930  1
  Y  Y9  1  0.022842  0.179002  0.598899  1
  Y  Y10  1  0.478422  0.678525  0.401930  1
  Y  Y11  1  0.979185  0.821358  0.098478  1
  Y  Y12  1  0.479594  0.678465  0.098065  1
  Y  Y13  1  0.978660  0.821060  0.401907  1
  Y  Y14  1  0.521493  0.322637  0.597224  1
  Y  Y15  1  0.198240  0.500806  0.749374  1
  Y  Y16  1  0.698009  0.997469  0.748873  1
  Y  Y17  1  0.801559  0.498089  0.250568  1
  Y  Y18  1  0.301750  0.001880  0.250033  1
  Th  Th19  1  0.018019  0.180176  0.903128  1
  Sn  Sn20  1  0.293230  0.035001  0.042374  1
  Sn  Sn21  1  0.791071  0.463944  0.458080  1
  Sn  Sn22  1  0.709070  0.965856  0.541909  1
  Sn  Sn23  1  0.209522  0.535399  0.957941  1
  Sn  Sn24  1  0.704735  0.961125  0.958902  1
  Sn  Sn25  1  0.208524  0.536551  0.541686  1
  Sn  Sn26  1  0.291272  0.036148  0.458305  1
  Sn  Sn27  1  0.792665  0.462141  0.041185  1
  Sn  Sn28  1  0.564597  0.620105  0.749815  1
  Sn  Sn29  1  0.064982  0.879375  0.750991  1
  Sn  Sn30  1  0.435281  0.380659  0.249911  1
  Sn  Sn31  1  0.935054  0.119392  0.250282  1
  Sn  Sn32  1  0.331349  0.147455  0.749823  1
  Sn  Sn33  1  0.826909  0.355668  0.748191  1
  Sn  Sn34  1  0.670598  0.852623  0.249941  1
  Sn  Sn35  1  0.170234  0.647098  0.250033  1
