# generated using pymatgen
data_Ti10AlGaSn4
_symmetry_space_group_name_H-M   'P 1'
_cell_length_a   5.16742538
_cell_length_b   7.92745099
_cell_length_c   7.92745020
_cell_angle_alpha   83.91825068
_cell_angle_beta   70.97430042
_cell_angle_gamma   70.97429705
_symmetry_Int_Tables_number   1
_chemical_formula_structural   Ti10AlGaSn4
_chemical_formula_sum   'Ti10 Al1 Ga1 Sn4'
_cell_volume   290.23323893
_cell_formula_units_Z   1
loop_
 _symmetry_equiv_pos_site_id
 _symmetry_equiv_pos_as_xyz
  1  'x, y, z'
loop_
 _atom_site_type_symbol
 _atom_site_label
 _atom_site_symmetry_multiplicity
 _atom_site_fract_x
 _atom_site_fract_y
 _atom_site_fract_z
 _atom_site_occupancy
  Ti  Ti0  1  0.716984  0.857267  0.708481  1
  Ti  Ti1  1  0.282780  0.142695  0.291532  1
  Ti  Ti2  1  0.783016  0.291519  0.142733  1
  Ti  Ti3  1  0.217220  0.708468  0.857305  1
  Ti  Ti4  1  0.574206  0.708548  0.142743  1
  Ti  Ti5  1  0.425512  0.291508  0.857270  1
  Ti  Ti6  1  0.074488  0.142730  0.708492  1
  Ti  Ti7  1  0.925794  0.857257  0.291452  1
  Ti  Ti8  1  0.750000  0.499980  0.500020  1
  Ti  Ti9  1  0.250000  0.500033  0.499967  1
  Al  Al10  1  0.250000  0.999965  0.000035  1
  Ga  Ga11  1  0.750000  0.999985  0.000015  1
  Sn  Sn12  1  0.165501  0.500048  0.168928  1
  Sn  Sn13  1  0.834467  0.499994  0.831068  1
  Sn  Sn14  1  0.334499  0.831072  0.499952  1
  Sn  Sn15  1  0.665533  0.168932  0.500006  1
