# generated using pymatgen
data_Tb15Ho5(Ga2Bi)4
_symmetry_space_group_name_H-M   'P 1'
_cell_length_a   8.24880737
_cell_length_b   8.24889337
_cell_length_c   12.74154300
_cell_angle_alpha   90.00223572
_cell_angle_beta   90.00254587
_cell_angle_gamma   89.96601359
_symmetry_Int_Tables_number   1
_chemical_formula_structural   Tb15Ho5(Ga2Bi)4
_chemical_formula_sum   'Tb15 Ho5 Ga8 Bi4'
_cell_volume   866.97943975
_cell_formula_units_Z   1
loop_
 _symmetry_equiv_pos_site_id
 _symmetry_equiv_pos_as_xyz
  1  'x, y, z'
loop_
 _atom_site_type_symbol
 _atom_site_label
 _atom_site_symmetry_multiplicity
 _atom_site_fract_x
 _atom_site_fract_y
 _atom_site_fract_z
 _atom_site_occupancy
  Tb  Tb0  1  0.651797  0.651394  0.608124  1
  Tb  Tb1  1  0.651734  0.349170  0.108320  1
  Tb  Tb2  1  0.848604  0.849000  0.391778  1
  Tb  Tb3  1  0.152053  0.849507  0.892738  1
  Tb  Tb4  1  0.348244  0.348674  0.607848  1
  Tb  Tb5  1  0.348825  0.651301  0.108311  1
  Tb  Tb6  1  0.151406  0.151036  0.391856  1
  Tb  Tb7  1  0.849080  0.151623  0.892707  1
  Tb  Tb8  1  0.651369  0.347998  0.391074  1
  Tb  Tb9  1  0.347254  0.346841  0.893053  1
  Tb  Tb10  1  0.151454  0.848001  0.608140  1
  Tb  Tb11  1  0.848854  0.848441  0.107595  1
  Tb  Tb12  1  0.348381  0.651761  0.391087  1
  Tb  Tb13  1  0.651363  0.651750  0.892208  1
  Tb  Tb14  1  0.848431  0.151877  0.608153  1
  Ho  Ho15  1  0.999957  0.500107  0.749653  1
  Ho  Ho16  1  0.000245  0.499646  0.249303  1
  Ho  Ho17  1  0.499565  0.000262  0.250065  1
  Ho  Ho18  1  0.500083  0.999965  0.750409  1
  Ho  Ho19  1  0.150361  0.150842  0.110131  1
  Ga  Ga20  1  0.850325  0.850314  0.750208  1
  Ga  Ga21  1  0.850962  0.149518  0.249163  1
  Ga  Ga22  1  0.650310  0.650322  0.249816  1
  Ga  Ga23  1  0.350291  0.649399  0.750418  1
  Ga  Ga24  1  0.149750  0.149733  0.749524  1
  Ga  Ga25  1  0.149638  0.851013  0.249116  1
  Ga  Ga26  1  0.349913  0.349904  0.249176  1
  Ga  Ga27  1  0.649336  0.350349  0.750407  1
  Bi  Bi28  1  0.999928  0.500262  0.499473  1
  Bi  Bi29  1  0.001016  0.499080  0.999544  1
  Bi  Bi30  1  0.500292  0.999930  0.500269  1
  Bi  Bi31  1  0.499178  0.000979  0.000334  1
