# generated using pymatgen
data_Ho5GeRuO12
_symmetry_space_group_name_H-M   'P 1'
_cell_length_a   6.80056195
_cell_length_b   6.80056121
_cell_length_c   7.22492454
_cell_angle_alpha   74.49065604
_cell_angle_beta   74.49065516
_cell_angle_gamma   50.96084806
_symmetry_Int_Tables_number   1
_chemical_formula_structural   Ho5GeRuO12
_chemical_formula_sum   'Ho5 Ge1 Ru1 O12'
_cell_volume   247.88180462
_cell_formula_units_Z   1
loop_
 _symmetry_equiv_pos_site_id
 _symmetry_equiv_pos_as_xyz
  1  'x, y, z'
loop_
 _atom_site_type_symbol
 _atom_site_label
 _atom_site_symmetry_multiplicity
 _atom_site_fract_x
 _atom_site_fract_y
 _atom_site_fract_z
 _atom_site_occupancy
  Ho  Ho0  1  0.305585  0.297906  0.360615  1
  Ho  Ho1  1  0.702094  0.694415  0.639385  1
  Ho  Ho2  1  0.305659  0.307555  0.831478  1
  Ho  Ho3  1  0.692445  0.694341  0.168522  1
  Ho  Ho4  1  0.000396  0.999604  0.500000  1
  Ge  Ge5  1  0.753570  0.246430  0.000000  1
  Ru  Ru6  1  0.241996  0.758004  0.000000  1
  O  O7  1  0.896816  0.420721  0.919179  1
  O  O8  1  0.428689  0.903917  0.917023  1
  O  O9  1  0.096083  0.571311  0.082977  1
  O  O10  1  0.579279  0.103184  0.080821  1
  O  O11  1  0.099608  0.595819  0.575214  1
  O  O12  1  0.599323  0.094688  0.574473  1
  O  O13  1  0.905312  0.400677  0.425527  1
  O  O14  1  0.404181  0.900392  0.424786  1
  O  O15  1  0.994302  0.005616  0.817858  1
  O  O16  1  0.994384  0.005698  0.182142  1
  O  O17  1  0.499941  0.499666  0.815989  1
  O  O18  1  0.500334  0.500059  0.184011  1
