# generated using pymatgen
data_Li12Bi12Te7WO48
_symmetry_space_group_name_H-M   'P 1'
_cell_length_a   10.89131590
_cell_length_b   10.88014902
_cell_length_c   10.89131600
_cell_angle_alpha   109.45044750
_cell_angle_beta   109.49198086
_cell_angle_gamma   109.45045222
_symmetry_Int_Tables_number   1
_chemical_formula_structural   Li12Bi12Te7WO48
_chemical_formula_sum   'Li12 Bi12 Te7 W1 O48'
_cell_volume   993.76785080
_cell_formula_units_Z   1
loop_
 _symmetry_equiv_pos_site_id
 _symmetry_equiv_pos_as_xyz
  1  'x, y, z'
loop_
 _atom_site_type_symbol
 _atom_site_label
 _atom_site_symmetry_multiplicity
 _atom_site_fract_x
 _atom_site_fract_y
 _atom_site_fract_z
 _atom_site_occupancy
  Li  Li0  1  0.750372  0.376435  0.124736  1
  Li  Li1  1  0.875074  0.750061  0.125350  1
  Li  Li2  1  0.125619  0.373961  0.250391  1
  Li  Li3  1  0.625307  0.875281  0.250251  1
  Li  Li4  1  0.624740  0.248325  0.374391  1
  Li  Li5  1  0.249716  0.124985  0.375022  1
  Li  Li6  1  0.750284  0.875015  0.624978  1
  Li  Li7  1  0.375260  0.751675  0.625610  1
  Li  Li8  1  0.374693  0.124718  0.749749  1
  Li  Li9  1  0.874381  0.626039  0.749609  1
  Li  Li10  1  0.249628  0.623565  0.875263  1
  Li  Li11  1  0.124926  0.249940  0.874650  1
  Bi  Bi12  1  0.249706  0.874855  0.125021  1
  Bi  Bi13  1  0.374981  0.249833  0.124683  1
  Bi  Bi14  1  0.375319  0.625148  0.250296  1
  Bi  Bi15  1  0.875238  0.126264  0.250915  1
  Bi  Bi16  1  0.750916  0.624648  0.375678  1
  Bi  Bi17  1  0.124317  0.748968  0.375233  1
  Bi  Bi18  1  0.875682  0.251032  0.624767  1
  Bi  Bi19  1  0.249084  0.375353  0.624322  1
  Bi  Bi20  1  0.124762  0.873736  0.749086  1
  Bi  Bi21  1  0.624682  0.374852  0.749704  1
  Bi  Bi22  1  0.750295  0.125145  0.874979  1
  Bi  Bi23  1  0.625019  0.750167  0.875317  1
  Te  Te24  1  0.000000  0.000000  0.000000  1
  Te  Te25  1  0.500000  0.000000  0.000000  1
  Te  Te26  1  0.000000  0.500000  0.000000  1
  Te  Te27  1  0.500000  0.500000  0.000000  1
  Te  Te28  1  0.000000  0.000000  0.500000  1
  Te  Te29  1  0.500000  0.500000  0.500000  1
  Te  Te30  1  0.500000  0.000000  0.500000  1
  W  W31  1  0.000000  0.500000  0.500000  1
  O  O32  1  0.194765  0.614236  0.021663  1
  O  O33  1  0.326367  0.407256  0.020992  1
  O  O34  1  0.694555  0.174074  0.080791  1
  O  O35  1  0.885941  0.908104  0.081437  1
  O  O36  1  0.615118  0.920081  0.093231  1
  O  O37  1  0.978266  0.173454  0.092181  1
  O  O38  1  0.021887  0.695039  0.115129  1
  O  O39  1  0.592188  0.418718  0.113900  1
  O  O40  1  0.194612  0.080860  0.173637  1
  O  O41  1  0.478333  0.092581  0.173111  1
  O  O42  1  0.113767  0.520486  0.194570  1
  O  O43  1  0.581401  0.673322  0.195488  1
  O  O44  1  0.479005  0.886254  0.305370  1
  O  O45  1  0.326903  0.419489  0.305228  1
  O  O46  1  0.907191  0.521221  0.325946  1
  O  O47  1  0.919822  0.805326  0.326761  1
  O  O48  1  0.304510  0.977842  0.385918  1
  O  O49  1  0.580797  0.406705  0.386235  1
  O  O50  1  0.826775  0.021471  0.406965  1
  O  O51  1  0.081234  0.385969  0.407186  1
  O  O52  1  0.825970  0.304744  0.418774  1
  O  O53  1  0.093022  0.114476  0.419781  1
  O  O54  1  0.386107  0.804827  0.478288  1
  O  O55  1  0.593218  0.673146  0.478105  1
  O  O56  1  0.613892  0.195173  0.521711  1
  O  O57  1  0.406782  0.326853  0.521896  1
  O  O58  1  0.174029  0.695256  0.581224  1
  O  O59  1  0.906978  0.885524  0.580220  1
  O  O60  1  0.173225  0.978529  0.593034  1
  O  O61  1  0.918765  0.614030  0.592815  1
  O  O62  1  0.419204  0.593295  0.613765  1
  O  O63  1  0.695490  0.022158  0.614081  1
  O  O64  1  0.080178  0.194673  0.673238  1
  O  O65  1  0.092809  0.478779  0.674054  1
  O  O66  1  0.673096  0.580512  0.694772  1
  O  O67  1  0.520995  0.113747  0.694630  1
  O  O68  1  0.886233  0.479515  0.805429  1
  O  O69  1  0.418600  0.326678  0.804512  1
  O  O70  1  0.805388  0.919139  0.826362  1
  O  O71  1  0.521668  0.907419  0.826889  1
  O  O72  1  0.978113  0.304961  0.884870  1
  O  O73  1  0.407813  0.581283  0.886101  1
  O  O74  1  0.384881  0.079919  0.906769  1
  O  O75  1  0.021734  0.826547  0.907820  1
  O  O76  1  0.114058  0.091897  0.918562  1
  O  O77  1  0.305445  0.825925  0.919209  1
  O  O78  1  0.805234  0.385764  0.978337  1
  O  O79  1  0.673633  0.592745  0.979008  1
