# generated using pymatgen
data_Ac3Sm(Pd2O5)2
_symmetry_space_group_name_H-M   'P 1'
_cell_length_a   6.83117300
_cell_length_b   6.84451145
_cell_length_c   5.77506500
_cell_angle_alpha   90.00000000
_cell_angle_beta   90.00000000
_cell_angle_gamma   89.89520271
_symmetry_Int_Tables_number   1
_chemical_formula_structural   Ac3Sm(Pd2O5)2
_chemical_formula_sum   'Ac3 Sm1 Pd4 O10'
_cell_volume   270.01872892
_cell_formula_units_Z   1
loop_
 _symmetry_equiv_pos_site_id
 _symmetry_equiv_pos_as_xyz
  1  'x, y, z'
loop_
 _atom_site_type_symbol
 _atom_site_label
 _atom_site_symmetry_multiplicity
 _atom_site_fract_x
 _atom_site_fract_y
 _atom_site_fract_z
 _atom_site_occupancy
  Ac  Ac0  1  0.107809  0.266989  0.000000  1
  Ac  Ac1  1  0.885925  0.739197  0.000000  1
  Ac  Ac2  1  0.267621  0.895512  0.500000  1
  Sm  Sm3  1  0.744990  0.114620  0.500000  1
  Pd  Pd4  1  0.595297  0.307344  0.000000  1
  Pd  Pd5  1  0.406898  0.688645  0.000000  1
  Pd  Pd6  1  0.316584  0.405891  0.500000  1
  Pd  Pd7  1  0.686326  0.591926  0.500000  1
  O  O8  1  0.414432  0.201392  0.261942  1
  O  O9  1  0.593101  0.798351  0.738195  1
  O  O10  1  0.593101  0.798351  0.261805  1
  O  O11  1  0.205835  0.592917  0.757817  1
  O  O12  1  0.414432  0.201392  0.738058  1
  O  O13  1  0.792818  0.396442  0.250455  1
  O  O14  1  0.792818  0.396442  0.749545  1
  O  O15  1  0.205835  0.592917  0.242183  1
  O  O16  1  0.988089  0.005835  0.255193  1
  O  O17  1  0.988089  0.005835  0.744807  1
