# generated using pymatgen
data_Er3Al3SnPdPt
_symmetry_space_group_name_H-M   'P 1'
_cell_length_a   7.12399600
_cell_length_b   7.12399506
_cell_length_c   4.23281100
_cell_angle_alpha   90.00000000
_cell_angle_beta   90.00000000
_cell_angle_gamma   119.99999510
_symmetry_Int_Tables_number   1
_chemical_formula_structural   Er3Al3SnPdPt
_chemical_formula_sum   'Er3 Al3 Sn1 Pd1 Pt1'
_cell_volume   186.04020383
_cell_formula_units_Z   1
loop_
 _symmetry_equiv_pos_site_id
 _symmetry_equiv_pos_as_xyz
  1  'x, y, z'
loop_
 _atom_site_type_symbol
 _atom_site_label
 _atom_site_symmetry_multiplicity
 _atom_site_fract_x
 _atom_site_fract_y
 _atom_site_fract_z
 _atom_site_occupancy
  Er  Er0  1  0.422851  0.016331  0.500000  1
  Er  Er1  1  0.983669  0.406520  0.500000  1
  Er  Er2  1  0.593480  0.577149  0.500000  1
  Al  Al3  1  0.775914  0.020525  0.000000  1
  Al  Al4  1  0.979475  0.755388  0.000000  1
  Al  Al5  1  0.244612  0.224086  0.000000  1
  Sn  Sn6  1  0.333333  0.666667  0.000000  1
  Pd  Pd7  1  0.000000  0.000000  0.500000  1
  Pt  Pt8  1  0.666667  0.333333  0.000000  1
