# generated using pymatgen
data_TbGd5TaO12
_symmetry_space_group_name_H-M   'P 1'
_cell_length_a   6.57448874
_cell_length_b   6.55287846
_cell_length_c   6.55933870
_cell_angle_alpha   98.56146910
_cell_angle_beta   98.71806010
_cell_angle_gamma   98.77590482
_symmetry_Int_Tables_number   1
_chemical_formula_structural   TbGd5TaO12
_chemical_formula_sum   'Tb1 Gd5 Ta1 O12'
_cell_volume   271.74068684
_cell_formula_units_Z   1
loop_
 _symmetry_equiv_pos_site_id
 _symmetry_equiv_pos_as_xyz
  1  'x, y, z'
loop_
 _atom_site_type_symbol
 _atom_site_label
 _atom_site_symmetry_multiplicity
 _atom_site_fract_x
 _atom_site_fract_y
 _atom_site_fract_z
 _atom_site_occupancy
  Tb  Tb0  1  0.861510  0.388928  0.699161  1
  Gd  Gd1  1  0.609839  0.301325  0.138004  1
  Gd  Gd2  1  0.301647  0.140708  0.610171  1
  Gd  Gd3  1  0.699323  0.861209  0.390771  1
  Gd  Gd4  1  0.390527  0.696631  0.860426  1
  Gd  Gd5  1  0.138113  0.608316  0.301737  1
  Ta  Ta6  1  0.999980  0.998967  0.999558  1
  O  O7  1  0.927972  0.042823  0.699266  1
  O  O8  1  0.959521  0.300941  0.070180  1
  O  O9  1  0.590087  0.177912  0.437024  1
  O  O10  1  0.822699  0.563375  0.412723  1
  O  O11  1  0.300049  0.071638  0.960004  1
  O  O12  1  0.564900  0.411478  0.823503  1
  O  O13  1  0.435426  0.589333  0.177802  1
  O  O14  1  0.699601  0.928305  0.040291  1
  O  O15  1  0.177063  0.436068  0.588694  1
  O  O16  1  0.411916  0.824028  0.564193  1
  O  O17  1  0.038178  0.698517  0.926211  1
  O  O18  1  0.071649  0.959498  0.300282  1
