# generated using pymatgen
data_La6DyLu3(In3Br)2
_symmetry_space_group_name_H-M   'P 1'
_cell_length_a   9.57947100
_cell_length_b   9.57947104
_cell_length_c   6.76974500
_cell_angle_alpha   90.00000000
_cell_angle_beta   90.00000000
_cell_angle_gamma   120.00000331
_symmetry_Int_Tables_number   1
_chemical_formula_structural   La6DyLu3(In3Br)2
_chemical_formula_sum   'La6 Dy1 Lu3 In6 Br2'
_cell_volume   538.00459299
_cell_formula_units_Z   1
loop_
 _symmetry_equiv_pos_site_id
 _symmetry_equiv_pos_as_xyz
  1  'x, y, z'
loop_
 _atom_site_type_symbol
 _atom_site_label
 _atom_site_symmetry_multiplicity
 _atom_site_fract_x
 _atom_site_fract_y
 _atom_site_fract_z
 _atom_site_occupancy
  La  La0  1  0.730085  0.730752  0.250540  1
  La  La1  1  0.000666  0.730752  0.749460  1
  La  La2  1  0.730085  0.999334  0.749460  1
  La  La3  1  0.269248  0.269915  0.749460  1
  La  La4  1  0.000666  0.269915  0.250540  1
  La  La5  1  0.269248  0.999334  0.250540  1
  Dy  Dy6  1  0.666667  0.333333  0.000000  1
  Lu  Lu7  1  0.333333  0.666667  0.500000  1
  Lu  Lu8  1  0.666667  0.333333  0.500000  1
  Lu  Lu9  1  0.333333  0.666667  0.000000  1
  In  In10  1  0.393631  0.999488  0.749782  1
  In  In11  1  0.000512  0.606369  0.250218  1
  In  In12  1  0.605857  0.999488  0.250218  1
  In  In13  1  0.000512  0.394143  0.749782  1
  In  In14  1  0.393631  0.394143  0.250218  1
  In  In15  1  0.605857  0.606369  0.749782  1
  Br  Br16  1  0.000000  0.000000  0.500000  1
  Br  Br17  1  0.000000  0.000000  0.000000  1
