# generated using pymatgen
data_Na12SiGe7Pt8
_symmetry_space_group_name_H-M   'P 1'
_cell_length_a   6.02091600
_cell_length_b   7.68253004
_cell_length_c   13.27865116
_cell_angle_alpha   90.33615775
_cell_angle_beta   90.00000000
_cell_angle_gamma   90.00000000
_symmetry_Int_Tables_number   1
_chemical_formula_structural   Na12SiGe7Pt8
_chemical_formula_sum   'Na12 Si1 Ge7 Pt8'
_cell_volume   614.20496460
_cell_formula_units_Z   1
loop_
 _symmetry_equiv_pos_site_id
 _symmetry_equiv_pos_as_xyz
  1  'x, y, z'
loop_
 _atom_site_type_symbol
 _atom_site_label
 _atom_site_symmetry_multiplicity
 _atom_site_fract_x
 _atom_site_fract_y
 _atom_site_fract_z
 _atom_site_occupancy
  Na  Na0  1  0.645570  0.218814  0.249858  1
  Na  Na1  1  0.356180  0.780531  0.750697  1
  Na  Na2  1  0.356180  0.719469  0.249303  1
  Na  Na3  1  0.645570  0.281186  0.750142  1
  Na  Na4  1  0.124589  0.388901  0.099157  1
  Na  Na5  1  0.874416  0.609877  0.900617  1
  Na  Na6  1  0.873685  0.610866  0.599712  1
  Na  Na7  1  0.873685  0.889134  0.400288  1
  Na  Na8  1  0.126478  0.389805  0.400546  1
  Na  Na9  1  0.126478  0.110195  0.599454  1
  Na  Na10  1  0.124589  0.111099  0.900843  1
  Na  Na11  1  0.874416  0.890123  0.099383  1
  Si  Si12  1  0.561771  0.250000  0.000000  1
  Ge  Ge13  1  0.171589  0.079266  0.249696  1
  Ge  Ge14  1  0.826660  0.922208  0.751612  1
  Ge  Ge15  1  0.826660  0.577792  0.248388  1
  Ge  Ge16  1  0.171589  0.420734  0.750304  1
  Ge  Ge17  1  0.426529  0.750000  0.000000  1
  Ge  Ge18  1  0.422341  0.750000  0.500000  1
  Ge  Ge19  1  0.579673  0.250000  0.500000  1
  Pt  Pt20  1  0.367274  0.028488  0.091780  1
  Pt  Pt21  1  0.637567  0.986927  0.909913  1
  Pt  Pt22  1  0.639358  0.977526  0.593447  1
  Pt  Pt23  1  0.639358  0.522474  0.406553  1
  Pt  Pt24  1  0.361477  0.022741  0.406821  1
  Pt  Pt25  1  0.361477  0.477259  0.593179  1
  Pt  Pt26  1  0.367274  0.471512  0.908220  1
  Pt  Pt27  1  0.637567  0.513073  0.090087  1
