# generated using pymatgen
data_Y6Tm10ZnCo4Ag3
_symmetry_space_group_name_H-M   'P 1'
_cell_length_a   9.30204428
_cell_length_b   9.32677411
_cell_length_c   9.32677300
_cell_angle_alpha   59.99999328
_cell_angle_beta   59.91201055
_cell_angle_gamma   59.91201148
_symmetry_Int_Tables_number   1
_chemical_formula_structural   Y6Tm10ZnCo4Ag3
_chemical_formula_sum   'Y6 Tm10 Zn1 Co4 Ag3'
_cell_volume   571.40939220
_cell_formula_units_Z   1
loop_
 _symmetry_equiv_pos_site_id
 _symmetry_equiv_pos_as_xyz
  1  'x, y, z'
loop_
 _atom_site_type_symbol
 _atom_site_label
 _atom_site_symmetry_multiplicity
 _atom_site_fract_x
 _atom_site_fract_y
 _atom_site_fract_z
 _atom_site_occupancy
  Y  Y0  1  0.190316  0.811428  0.811428  1
  Y  Y1  1  0.811179  0.189084  0.189084  1
  Y  Y2  1  0.811179  0.189084  0.810653  1
  Y  Y3  1  0.190316  0.811428  0.186831  1
  Y  Y4  1  0.811179  0.810653  0.189084  1
  Y  Y5  1  0.190316  0.186831  0.811428  1
  Tm  Tm6  1  0.596877  0.598028  0.598028  1
  Tm  Tm7  1  0.596877  0.598028  0.207066  1
  Tm  Tm8  1  0.596877  0.207066  0.598028  1
  Tm  Tm9  1  0.207063  0.597646  0.597646  1
  Tm  Tm10  1  0.062931  0.437541  0.437541  1
  Tm  Tm11  1  0.438215  0.061925  0.061925  1
  Tm  Tm12  1  0.438215  0.061925  0.437934  1
  Tm  Tm13  1  0.062931  0.437541  0.061986  1
  Tm  Tm14  1  0.438215  0.437934  0.061925  1
  Tm  Tm15  1  0.062931  0.061986  0.437541  1
  Zn  Zn16  1  0.515410  0.828197  0.828197  1
  Co  Co17  1  0.391678  0.391357  0.391357  1
  Co  Co18  1  0.391678  0.391357  0.825609  1
  Co  Co19  1  0.391678  0.825609  0.391357  1
  Co  Co20  1  0.826143  0.391286  0.391286  1
  Ag  Ag21  1  0.825930  0.831734  0.831734  1
  Ag  Ag22  1  0.825930  0.831734  0.510602  1
  Ag  Ag23  1  0.825930  0.510602  0.831734  1
