# generated using pymatgen
data_Hf3SnBi4F28
_symmetry_space_group_name_H-M   'P 1'
_cell_length_a   5.76342320
_cell_length_b   9.29709835
_cell_length_c   12.39236600
_cell_angle_alpha   61.87884903
_cell_angle_beta   89.98493897
_cell_angle_gamma   89.89582533
_symmetry_Int_Tables_number   1
_chemical_formula_structural   Hf3SnBi4F28
_chemical_formula_sum   'Hf3 Sn1 Bi4 F28'
_cell_volume   585.63464123
_cell_formula_units_Z   1
loop_
 _symmetry_equiv_pos_site_id
 _symmetry_equiv_pos_as_xyz
  1  'x, y, z'
loop_
 _atom_site_type_symbol
 _atom_site_label
 _atom_site_symmetry_multiplicity
 _atom_site_fract_x
 _atom_site_fract_y
 _atom_site_fract_z
 _atom_site_occupancy
  Hf  Hf0  1  0.755103  0.274598  0.957318  1
  Hf  Hf1  1  0.256301  0.723823  0.543818  1
  Hf  Hf2  1  0.244256  0.724882  0.043175  1
  Sn  Sn3  1  0.742712  0.274335  0.457144  1
  Bi  Bi4  1  0.758345  0.816889  0.762323  1
  Bi  Bi5  1  0.257329  0.182819  0.735995  1
  Bi  Bi6  1  0.241027  0.182676  0.239953  1
  Bi  Bi7  1  0.742726  0.815724  0.263752  1
  F  F8  1  0.452469  0.711920  0.918901  1
  F  F9  1  0.936561  0.290484  0.584951  1
  F  F10  1  0.542968  0.287652  0.080140  1
  F  F11  1  0.050233  0.712308  0.418535  1
  F  F12  1  0.446821  0.280176  0.541370  1
  F  F13  1  0.953339  0.722336  0.952805  1
  F  F14  1  0.547320  0.719367  0.454980  1
  F  F15  1  0.043159  0.277397  0.049338  1
  F  F16  1  0.771351  0.516531  0.861668  1
  F  F17  1  0.269623  0.482237  0.639287  1
  F  F18  1  0.226250  0.483558  0.138768  1
  F  F19  1  0.730851  0.516098  0.358838  1
  F  F20  1  0.760299  0.028721  0.057897  1
  F  F21  1  0.262336  0.969978  0.445009  1
  F  F22  1  0.238843  0.970909  0.940999  1
  F  F23  1  0.738632  0.029332  0.552380  1
  F  F24  1  0.980043  0.731967  0.639335  1
  F  F25  1  0.483644  0.265215  0.859527  1
  F  F26  1  0.028059  0.268599  0.366612  1
  F  F27  1  0.519371  0.734635  0.138092  1
  F  F28  1  0.047388  0.749992  0.167891  1
  F  F29  1  0.555542  0.257006  0.326647  1
  F  F30  1  0.959092  0.252434  0.833463  1
  F  F31  1  0.454329  0.744737  0.670098  1
  F  F32  1  0.410495  0.969329  0.231816  1
  F  F33  1  0.910880  0.029823  0.271693  1
  F  F34  1  0.591112  0.032943  0.767927  1
  F  F35  1  0.091188  0.968570  0.727554  1
