# generated using pymatgen
data_Tb3YEr4(ReB6)4
_symmetry_space_group_name_H-M   'P 1'
_cell_length_a   3.67466400
_cell_length_b   9.15773100
_cell_length_c   11.55016600
_cell_angle_alpha   90.00133913
_cell_angle_beta   90.00000000
_cell_angle_gamma   90.00000000
_symmetry_Int_Tables_number   1
_chemical_formula_structural   Tb3YEr4(ReB6)4
_chemical_formula_sum   'Tb3 Y1 Er4 Re4 B24'
_cell_volume   388.68138625
_cell_formula_units_Z   1
loop_
 _symmetry_equiv_pos_site_id
 _symmetry_equiv_pos_as_xyz
  1  'x, y, z'
loop_
 _atom_site_type_symbol
 _atom_site_label
 _atom_site_symmetry_multiplicity
 _atom_site_fract_x
 _atom_site_fract_y
 _atom_site_fract_z
 _atom_site_occupancy
  Tb  Tb0  1  0.000000  0.323298  0.413866  1
  Tb  Tb1  1  0.000000  0.676709  0.586158  1
  Tb  Tb2  1  0.000000  0.823291  0.086096  1
  Y  Y3  1  0.000000  0.176778  0.913930  1
  Er  Er4  1  0.000000  0.943236  0.370073  1
  Er  Er5  1  0.000000  0.056762  0.629948  1
  Er  Er6  1  0.000000  0.443239  0.129879  1
  Er  Er7  1  0.000000  0.556771  0.870126  1
  Re  Re8  1  0.000000  0.639066  0.320367  1
  Re  Re9  1  0.000000  0.360822  0.679645  1
  Re  Re10  1  0.000000  0.139096  0.179583  1
  Re  Re11  1  0.000000  0.860903  0.820381  1
  B  B12  1  0.500000  0.553611  0.432503  1
  B  B13  1  0.500000  0.446378  0.567504  1
  B  B14  1  0.500000  0.053546  0.067427  1
  B  B15  1  0.500000  0.946408  0.932546  1
  B  B16  1  0.500000  0.749754  0.418239  1
  B  B17  1  0.500000  0.250231  0.581772  1
  B  B18  1  0.500000  0.249806  0.081671  1
  B  B19  1  0.500000  0.750270  0.918224  1
  B  B20  1  0.500000  0.792362  0.265736  1
  B  B21  1  0.500000  0.207551  0.734306  1
  B  B22  1  0.500000  0.292377  0.234238  1
  B  B23  1  0.500000  0.707632  0.765737  1
  B  B24  1  0.500000  0.630571  0.185543  1
  B  B25  1  0.500000  0.369429  0.814508  1
  B  B26  1  0.500000  0.130585  0.314438  1
  B  B27  1  0.500000  0.869455  0.685571  1
  B  B28  1  0.500000  0.982411  0.212347  1
  B  B29  1  0.500000  0.017702  0.787653  1
  B  B30  1  0.500000  0.482399  0.287626  1
  B  B31  1  0.500000  0.517615  0.712387  1
  B  B32  1  0.500000  0.599027  0.027641  1
  B  B33  1  0.500000  0.400891  0.972339  1
  B  B34  1  0.500000  0.098969  0.472363  1
  B  B35  1  0.500000  0.901048  0.527630  1
