# generated using pymatgen
data_TaCoTcB2
_symmetry_space_group_name_H-M   'P 1'
_cell_length_a   4.56294911
_cell_length_b   4.56295049
_cell_length_c   4.56294968
_cell_angle_alpha   139.53939542
_cell_angle_beta   119.53225891
_cell_angle_gamma   75.29953608
_symmetry_Int_Tables_number   1
_chemical_formula_structural   TaCoTcB2
_chemical_formula_sum   'Ta1 Co1 Tc1 B2'
_cell_volume   52.38830614
_cell_formula_units_Z   1
loop_
 _symmetry_equiv_pos_site_id
 _symmetry_equiv_pos_as_xyz
  1  'x, y, z'
loop_
 _atom_site_type_symbol
 _atom_site_label
 _atom_site_symmetry_multiplicity
 _atom_site_fract_x
 _atom_site_fract_y
 _atom_site_fract_z
 _atom_site_occupancy
  Ta  Ta0  1  0.294581  0.794581  0.500000  1
  Co  Co1  1  0.001106  0.001106  0.000000  1
  Tc  Tc2  1  0.697789  0.197789  0.500000  1
  B  B3  1  0.705482  0.503262  0.202221  1
  B  B4  1  0.301041  0.503262  0.797779  1
