# generated using pymatgen
data_Ta6Be15Co3CuNi4
_symmetry_space_group_name_H-M   'P 1'
_cell_length_a   7.56373009
_cell_length_b   7.55586475
_cell_length_c   7.57161550
_cell_angle_alpha   59.95681218
_cell_angle_beta   59.94948021
_cell_angle_gamma   59.94528108
_symmetry_Int_Tables_number   1
_chemical_formula_structural   Ta6Be15Co3CuNi4
_chemical_formula_sum   'Ta6 Be15 Co3 Cu1 Ni4'
_cell_volume   305.63715989
_cell_formula_units_Z   1
loop_
 _symmetry_equiv_pos_site_id
 _symmetry_equiv_pos_as_xyz
  1  'x, y, z'
loop_
 _atom_site_type_symbol
 _atom_site_label
 _atom_site_symmetry_multiplicity
 _atom_site_fract_x
 _atom_site_fract_y
 _atom_site_fract_z
 _atom_site_occupancy
  Ta  Ta0  1  0.708272  0.295852  0.295748  1
  Ta  Ta1  1  0.292995  0.711254  0.694527  1
  Ta  Ta2  1  0.298990  0.709141  0.299202  1
  Ta  Ta3  1  0.709627  0.290464  0.701406  1
  Ta  Ta4  1  0.294173  0.294269  0.705600  1
  Ta  Ta5  1  0.696857  0.705571  0.294674  1
  Be  Be6  1  0.328886  0.323420  0.331492  1
  Be  Be7  1  0.671913  0.672123  0.673244  1
  Be  Be8  1  0.328714  0.322756  0.017512  1
  Be  Be9  1  0.322646  0.027113  0.325548  1
  Be  Be10  1  0.673839  0.673765  0.979520  1
  Be  Be11  1  0.675419  0.976784  0.675675  1
  Be  Be12  1  0.021316  0.320881  0.329457  1
  Be  Be13  1  0.977656  0.674877  0.675179  1
  Be  Be14  1  0.500598  0.999620  0.999267  1
  Be  Be15  1  0.999747  0.498222  0.502405  1
  Be  Be16  1  0.999279  0.499080  0.999164  1
  Be  Be17  1  0.499742  0.000333  0.500412  1
  Be  Be18  1  0.000258  0.000410  0.499853  1
  Be  Be19  1  0.502021  0.498703  0.999071  1
  Be  Be20  1  0.997847  0.005684  0.999127  1
  Co  Co21  1  0.123124  0.122254  0.122091  1
  Co  Co22  1  0.878033  0.877247  0.878347  1
  Co  Co23  1  0.122836  0.122006  0.633379  1
  Cu  Cu24  1  0.122906  0.633451  0.122161  1
  Ni  Ni25  1  0.876859  0.876224  0.368355  1
  Ni  Ni26  1  0.876247  0.369285  0.876855  1
  Ni  Ni27  1  0.631508  0.122901  0.123078  1
  Ni  Ni28  1  0.367695  0.876313  0.877652  1
