# generated using pymatgen
data_Mg3FeBi4(AsO5)4
_symmetry_space_group_name_H-M   'P 1'
_cell_length_a   5.37909378
_cell_length_b   7.76346786
_cell_length_c   11.43045250
_cell_angle_alpha   94.01207773
_cell_angle_beta   96.65598096
_cell_angle_gamma   71.23216254
_symmetry_Int_Tables_number   1
_chemical_formula_structural   Mg3FeBi4(AsO5)4
_chemical_formula_sum   'Mg3 Fe1 Bi4 As4 O20'
_cell_volume   448.64307060
_cell_formula_units_Z   1
loop_
 _symmetry_equiv_pos_site_id
 _symmetry_equiv_pos_as_xyz
  1  'x, y, z'
loop_
 _atom_site_type_symbol
 _atom_site_label
 _atom_site_symmetry_multiplicity
 _atom_site_fract_x
 _atom_site_fract_y
 _atom_site_fract_z
 _atom_site_occupancy
  Mg  Mg0  1  0.719169  0.952386  0.319865  1
  Mg  Mg1  1  0.282665  0.048784  0.680981  1
  Mg  Mg2  1  0.216914  0.451675  0.818972  1
  Fe  Fe3  1  0.785205  0.549768  0.180504  1
  Bi  Bi4  1  0.301571  0.602768  0.363287  1
  Bi  Bi5  1  0.799212  0.102557  0.862136  1
  Bi  Bi6  1  0.701240  0.397248  0.637310  1
  Bi  Bi7  1  0.200637  0.900175  0.136945  1
  As  As8  1  0.627741  0.714713  0.896569  1
  As  As9  1  0.132043  0.213113  0.399240  1
  As  As10  1  0.369583  0.284233  0.101300  1
  As  As11  1  0.870465  0.786077  0.602146  1
  O  O12  1  0.961282  0.665295  0.905673  1
  O  O13  1  0.465270  0.163730  0.406517  1
  O  O14  1  0.036071  0.326466  0.092088  1
  O  O15  1  0.537173  0.834679  0.594336  1
  O  O16  1  0.506467  0.573843  0.798611  1
  O  O17  1  0.006931  0.075741  0.300024  1
  O  O18  1  0.487698  0.424147  0.201210  1
  O  O19  1  0.993030  0.926042  0.700410  1
  O  O20  1  0.997633  0.272046  0.773846  1
  O  O21  1  0.496708  0.774701  0.273756  1
  O  O22  1  0.003508  0.731175  0.227710  1
  O  O23  1  0.502065  0.228597  0.726100  1
  O  O24  1  0.989041  0.437620  0.357484  1
  O  O25  1  0.483584  0.938231  0.852305  1
  O  O26  1  0.015862  0.562825  0.646630  1
  O  O27  1  0.518419  0.061213  0.145664  1
  O  O28  1  0.533800  0.693339  0.033225  1
  O  O29  1  0.043049  0.189582  0.536394  1
  O  O30  1  0.457389  0.309174  0.964303  1
  O  O31  1  0.958578  0.808052  0.464464  1
