# generated using pymatgen
data_TbY15Cd4Pd3Rh
_symmetry_space_group_name_H-M   'P 1'
_cell_length_a   9.73946190
_cell_length_b   9.73946178
_cell_length_c   9.73946159
_cell_angle_alpha   59.73139541
_cell_angle_beta   59.73139442
_cell_angle_gamma   59.73139683
_symmetry_Int_Tables_number   1
_chemical_formula_structural   TbY15Cd4Pd3Rh
_chemical_formula_sum   'Tb1 Y15 Cd4 Pd3 Rh1'
_cell_volume   649.28071112
_cell_formula_units_Z   1
loop_
 _symmetry_equiv_pos_site_id
 _symmetry_equiv_pos_as_xyz
  1  'x, y, z'
loop_
 _atom_site_type_symbol
 _atom_site_label
 _atom_site_symmetry_multiplicity
 _atom_site_fract_x
 _atom_site_fract_y
 _atom_site_fract_z
 _atom_site_occupancy
  Tb  Tb0  1  0.352302  0.352302  0.352302  1
  Y  Y1  1  0.352574  0.352574  0.940834  1
  Y  Y2  1  0.352574  0.940834  0.352574  1
  Y  Y3  1  0.940834  0.352574  0.352574  1
  Y  Y4  1  0.814063  0.189557  0.189557  1
  Y  Y5  1  0.188602  0.810794  0.810794  1
  Y  Y6  1  0.189557  0.814063  0.189557  1
  Y  Y7  1  0.810794  0.188602  0.810794  1
  Y  Y8  1  0.189557  0.189557  0.814063  1
  Y  Y9  1  0.810794  0.810794  0.188602  1
  Y  Y10  1  0.934785  0.565762  0.565762  1
  Y  Y11  1  0.563543  0.935167  0.935167  1
  Y  Y12  1  0.565762  0.934785  0.565762  1
  Y  Y13  1  0.935167  0.563543  0.935167  1
  Y  Y14  1  0.565762  0.565762  0.934785  1
  Y  Y15  1  0.935167  0.935167  0.563543  1
  Cd  Cd16  1  0.581320  0.581320  0.581320  1
  Cd  Cd17  1  0.581539  0.581539  0.253520  1
  Cd  Cd18  1  0.581539  0.253520  0.581539  1
  Cd  Cd19  1  0.253520  0.581539  0.581539  1
  Pd  Pd20  1  0.144373  0.144373  0.567376  1
  Pd  Pd21  1  0.144373  0.567376  0.144373  1
  Pd  Pd22  1  0.567376  0.144373  0.144373  1
  Rh  Rh23  1  0.144124  0.144124  0.144124  1
