# generated using pymatgen
data_Tb3Er(Al8Pt3)3
_symmetry_space_group_name_H-M   'P 1'
_cell_length_a   7.53220127
_cell_length_b   7.53711899
_cell_length_c   13.17588325
_cell_angle_alpha   84.60836744
_cell_angle_beta   100.89624709
_cell_angle_gamma   119.85115678
_symmetry_Int_Tables_number   1
_chemical_formula_structural   Tb3Er(Al8Pt3)3
_chemical_formula_sum   'Tb3 Er1 Al24 Pt9'
_cell_volume   637.06798297
_cell_formula_units_Z   1
loop_
 _symmetry_equiv_pos_site_id
 _symmetry_equiv_pos_as_xyz
  1  'x, y, z'
loop_
 _atom_site_type_symbol
 _atom_site_label
 _atom_site_symmetry_multiplicity
 _atom_site_fract_x
 _atom_site_fract_y
 _atom_site_fract_z
 _atom_site_occupancy
  Tb  Tb0  1  0.732463  0.998781  0.192007  1
  Tb  Tb1  1  0.267557  0.001367  0.807946  1
  Tb  Tb2  1  0.061886  0.668259  0.191950  1
  Er  Er3  1  0.937911  0.331532  0.807442  1
  Al  Al4  1  0.806966  0.868976  0.815371  1
  Al  Al5  1  0.192974  0.131629  0.184648  1
  Al  Al6  1  0.981551  0.665608  0.944134  1
  Al  Al7  1  0.018240  0.333885  0.055104  1
  Al  Al8  1  0.397872  0.663102  0.816477  1
  Al  Al9  1  0.601433  0.336195  0.183523  1
  Al  Al10  1  0.882149  0.664926  0.670484  1
  Al  Al11  1  0.117972  0.334766  0.329920  1
  Al  Al12  1  0.603367  0.458421  0.816027  1
  Al  Al13  1  0.397215  0.541544  0.183950  1
  Al  Al14  1  0.230140  0.340078  0.669339  1
  Al  Al15  1  0.769696  0.659935  0.331120  1
  Al  Al16  1  0.853143  0.333062  0.558748  1
  Al  Al17  1  0.185765  0.999067  0.558706  1
  Al  Al18  1  0.814281  0.000982  0.441451  1
  Al  Al19  1  0.352342  0.999575  0.055508  1
  Al  Al20  1  0.648066  0.000997  0.944088  1
  Al  Al21  1  0.556377  0.993697  0.670694  1
  Al  Al22  1  0.444064  0.006620  0.329721  1
  Al  Al23  1  0.520847  0.667416  0.561622  1
  Al  Al24  1  0.479240  0.332586  0.438557  1
  Al  Al25  1  0.682932  0.667522  0.046604  1
  Al  Al26  1  0.316448  0.332522  0.952886  1
  Al  Al27  1  0.146850  0.666882  0.441507  1
  Pt  Pt28  1  0.328656  0.671417  0.999862  1
  Pt  Pt29  1  0.546315  0.324760  0.637461  1
  Pt  Pt30  1  0.454075  0.675168  0.362838  1
  Pt  Pt31  1  0.887982  0.008436  0.638991  1
  Pt  Pt32  1  0.112232  0.992011  0.361357  1
  Pt  Pt33  1  0.671297  0.328563  0.999832  1
  Pt  Pt34  1  0.203962  0.666215  0.639031  1
  Pt  Pt35  1  0.795678  0.333391  0.361269  1
  Pt  Pt36  1  0.000055  0.000106  0.999825  1
