# generated using pymatgen
data_Nd8Zn8Ir2PdRh5
_symmetry_space_group_name_H-M   'P 1'
_cell_length_a   4.01213700
_cell_length_b   7.35725325
_cell_length_c   16.65770074
_cell_angle_alpha   90.06196619
_cell_angle_beta   90.00000000
_cell_angle_gamma   90.00000000
_symmetry_Int_Tables_number   1
_chemical_formula_structural   Nd8Zn8Ir2PdRh5
_chemical_formula_sum   'Nd8 Zn8 Ir2 Pd1 Rh5'
_cell_volume   491.70685346
_cell_formula_units_Z   1
loop_
 _symmetry_equiv_pos_site_id
 _symmetry_equiv_pos_as_xyz
  1  'x, y, z'
loop_
 _atom_site_type_symbol
 _atom_site_label
 _atom_site_symmetry_multiplicity
 _atom_site_fract_x
 _atom_site_fract_y
 _atom_site_fract_z
 _atom_site_occupancy
  Nd  Nd0  1  0.250000  0.168664  0.938734  1
  Nd  Nd1  1  0.250000  0.666815  0.565131  1
  Nd  Nd2  1  0.750000  0.328367  0.439295  1
  Nd  Nd3  1  0.750000  0.956147  0.280634  1
  Nd  Nd4  1  0.750000  0.830871  0.060119  1
  Nd  Nd5  1  0.750000  0.449526  0.215290  1
  Nd  Nd6  1  0.250000  0.050064  0.716761  1
  Nd  Nd7  1  0.250000  0.546568  0.785546  1
  Zn  Zn8  1  0.750000  0.003941  0.562813  1
  Zn  Zn9  1  0.250000  0.619524  0.345403  1
  Zn  Zn10  1  0.750000  0.376465  0.652383  1
  Zn  Zn11  1  0.250000  0.499403  0.059728  1
  Zn  Zn12  1  0.750000  0.500469  0.940366  1
  Zn  Zn13  1  0.250000  0.001567  0.439850  1
  Zn  Zn14  1  0.250000  0.124113  0.150166  1
  Zn  Zn15  1  0.750000  0.877711  0.848853  1
  Ir  Ir16  1  0.250000  0.243824  0.314453  1
  Ir  Ir17  1  0.750000  0.254761  0.813383  1
  Pd  Pd18  1  0.750000  0.755195  0.433898  1
  Rh  Rh19  1  0.750000  0.755328  0.685100  1
  Rh  Rh20  1  0.250000  0.245518  0.565135  1
  Rh  Rh21  1  0.250000  0.745424  0.186916  1
  Rh  Rh22  1  0.750000  0.254791  0.065426  1
  Rh  Rh23  1  0.250000  0.744943  0.934618  1
