# generated using pymatgen
data_Nd2HoTm(Ir2O7)2
_symmetry_space_group_name_H-M   'P 1'
_cell_length_a   7.35430280
_cell_length_b   7.30040455
_cell_length_c   7.29954027
_cell_angle_alpha   59.51780502
_cell_angle_beta   59.75151844
_cell_angle_gamma   59.75547095
_symmetry_Int_Tables_number   1
_chemical_formula_structural   Nd2HoTm(Ir2O7)2
_chemical_formula_sum   'Nd2 Ho1 Tm1 Ir4 O14'
_cell_volume   275.07100980
_cell_formula_units_Z   1
loop_
 _symmetry_equiv_pos_site_id
 _symmetry_equiv_pos_as_xyz
  1  'x, y, z'
loop_
 _atom_site_type_symbol
 _atom_site_label
 _atom_site_symmetry_multiplicity
 _atom_site_fract_x
 _atom_site_fract_y
 _atom_site_fract_z
 _atom_site_occupancy
  Nd  Nd0  1  0.625000  0.125000  0.125000  1
  Nd  Nd1  1  0.125000  0.125000  0.125000  1
  Ho  Ho2  1  0.125000  0.625000  0.125000  1
  Tm  Tm3  1  0.125000  0.125000  0.625000  1
  Ir  Ir4  1  0.125000  0.625000  0.625000  1
  Ir  Ir5  1  0.625000  0.125000  0.625000  1
  Ir  Ir6  1  0.625000  0.625000  0.125000  1
  Ir  Ir7  1  0.625000  0.625000  0.625000  1
  O  O8  1  0.719855  0.700941  0.290014  1
  O  O9  1  0.288825  0.289822  0.699844  1
  O  O10  1  0.721509  0.289822  0.699844  1
  O  O11  1  0.289189  0.700941  0.290014  1
  O  O12  1  0.289837  0.711402  0.708923  1
  O  O13  1  0.710569  0.289476  0.289387  1
  O  O14  1  0.530145  0.549059  0.959986  1
  O  O15  1  0.961175  0.960178  0.550156  1
  O  O16  1  0.528491  0.960178  0.550156  1
  O  O17  1  0.960811  0.549059  0.959986  1
  O  O18  1  0.960163  0.538598  0.541077  1
  O  O19  1  0.539431  0.960524  0.960613  1
  O  O20  1  0.241745  0.256329  0.260180  1
  O  O21  1  0.008255  0.993671  0.989820  1
