# generated using pymatgen
data_Rb4LiIO6
_symmetry_space_group_name_H-M   'P 1'
_cell_length_a   10.13538900
_cell_length_b   11.45765500
_cell_length_c   13.48230000
_cell_angle_alpha   90.00000000
_cell_angle_beta   90.00000000
_cell_angle_gamma   90.00000000
_symmetry_Int_Tables_number   1
_chemical_formula_structural   Rb4LiIO6
_chemical_formula_sum   'Rb32 Li8 I8 O48'
_cell_volume   1565.66970922
_cell_formula_units_Z   8
loop_
 _symmetry_equiv_pos_site_id
 _symmetry_equiv_pos_as_xyz
  1  'x, y, z'
loop_
 _atom_site_type_symbol
 _atom_site_label
 _atom_site_symmetry_multiplicity
 _atom_site_fract_x
 _atom_site_fract_y
 _atom_site_fract_z
 _atom_site_occupancy
  Rb  Rb0  1  0.874074  0.414670  0.687240  1
  Rb  Rb1  1  0.874074  0.085330  0.187240  1
  Rb  Rb2  1  0.061280  0.561930  0.888649  1
  Rb  Rb3  1  0.938720  0.061930  0.611351  1
  Rb  Rb4  1  0.794071  0.812810  0.312133  1
  Rb  Rb5  1  0.837295  0.974533  0.929769  1
  Rb  Rb6  1  0.061280  0.938070  0.388649  1
  Rb  Rb7  1  0.561280  0.938070  0.111351  1
  Rb  Rb8  1  0.438720  0.061930  0.888649  1
  Rb  Rb9  1  0.374074  0.085330  0.312760  1
  Rb  Rb10  1  0.162705  0.025467  0.070231  1
  Rb  Rb11  1  0.294071  0.812810  0.187867  1
  Rb  Rb12  1  0.205929  0.187190  0.687867  1
  Rb  Rb13  1  0.205929  0.312810  0.187867  1
  Rb  Rb14  1  0.438720  0.438070  0.388649  1
  Rb  Rb15  1  0.162705  0.474533  0.570231  1
  Rb  Rb16  1  0.705929  0.312810  0.312133  1
  Rb  Rb17  1  0.561280  0.561930  0.611351  1
  Rb  Rb18  1  0.625926  0.585330  0.187240  1
  Rb  Rb19  1  0.337295  0.525467  0.070231  1
  Rb  Rb20  1  0.705929  0.187190  0.812133  1
  Rb  Rb21  1  0.794071  0.687190  0.812133  1
  Rb  Rb22  1  0.662705  0.025467  0.429769  1
  Rb  Rb23  1  0.125926  0.585330  0.312760  1
  Rb  Rb24  1  0.625926  0.914670  0.687240  1
  Rb  Rb25  1  0.938720  0.438070  0.111351  1
  Rb  Rb26  1  0.337295  0.974533  0.570231  1
  Rb  Rb27  1  0.294071  0.687190  0.687867  1
  Rb  Rb28  1  0.125926  0.914670  0.812760  1
  Rb  Rb29  1  0.374074  0.414670  0.812760  1
  Rb  Rb30  1  0.837295  0.525467  0.429769  1
  Rb  Rb31  1  0.662705  0.474533  0.929769  1
  Li  Li32  1  0.802147  0.252089  0.509627  1
  Li  Li33  1  0.197853  0.747911  0.490373  1
  Li  Li34  1  0.197853  0.752089  0.990373  1
  Li  Li35  1  0.802147  0.247911  0.009627  1
  Li  Li36  1  0.697853  0.752089  0.509627  1
  Li  Li37  1  0.302147  0.252089  0.990373  1
  Li  Li38  1  0.697853  0.747911  0.009627  1
  Li  Li39  1  0.302147  0.247911  0.490373  1
  I  I40  1  0.546642  0.257527  0.601594  1
  I  I41  1  0.046642  0.242473  0.398406  1
  I  I42  1  0.453358  0.742473  0.398406  1
  I  I43  1  0.546642  0.242473  0.101594  1
  I  I44  1  0.953358  0.742473  0.101594  1
  I  I45  1  0.046642  0.257527  0.898406  1
  I  I46  1  0.953358  0.757527  0.601594  1
  I  I47  1  0.453358  0.757527  0.898406  1
  O  O48  1  0.611952  0.649994  0.405801  1
  O  O49  1  0.798029  0.661510  0.603178  1
  O  O50  1  0.527485  0.674663  0.010252  1
  O  O51  1  0.027485  0.825337  0.989749  1
  O  O52  1  0.645663  0.145023  0.011351  1
  O  O53  1  0.472515  0.174663  0.489749  1
  O  O54  1  0.972515  0.325337  0.510251  1
  O  O55  1  0.701971  0.338490  0.103178  1
  O  O56  1  0.888048  0.350006  0.905801  1
  O  O57  1  0.111952  0.850006  0.594199  1
  O  O58  1  0.394217  0.854377  0.792351  1
  O  O59  1  0.354337  0.854977  0.988649  1
  O  O60  1  0.201971  0.161510  0.896822  1
  O  O61  1  0.530109  0.849413  0.307416  1
  O  O62  1  0.298029  0.661510  0.896822  1
  O  O63  1  0.605783  0.145623  0.207649  1
  O  O64  1  0.701971  0.161510  0.603178  1
  O  O65  1  0.854337  0.854977  0.511351  1
  O  O66  1  0.605783  0.354377  0.707649  1
  O  O67  1  0.611952  0.850006  0.905801  1
  O  O68  1  0.388048  0.149994  0.094199  1
  O  O69  1  0.472515  0.325337  0.989749  1
  O  O70  1  0.105783  0.354377  0.792351  1
  O  O71  1  0.798029  0.838490  0.103178  1
  O  O72  1  0.969891  0.349413  0.307416  1
  O  O73  1  0.894217  0.854377  0.707649  1
  O  O74  1  0.969891  0.150587  0.807416  1
  O  O75  1  0.888048  0.149994  0.405801  1
  O  O76  1  0.145663  0.354977  0.988649  1
  O  O77  1  0.894217  0.645623  0.207649  1
  O  O78  1  0.298029  0.838490  0.396822  1
  O  O79  1  0.027485  0.674663  0.489749  1
  O  O80  1  0.105783  0.145623  0.292351  1
  O  O81  1  0.530109  0.650587  0.807416  1
  O  O82  1  0.469891  0.349413  0.192584  1
  O  O83  1  0.030109  0.650587  0.692584  1
  O  O84  1  0.388048  0.350006  0.594199  1
  O  O85  1  0.972515  0.174663  0.010252  1
  O  O86  1  0.030109  0.849413  0.192584  1
  O  O87  1  0.469891  0.150587  0.692584  1
  O  O88  1  0.527485  0.825337  0.510251  1
  O  O89  1  0.201971  0.338490  0.396822  1
  O  O90  1  0.145663  0.145023  0.488649  1
  O  O91  1  0.854337  0.645023  0.011351  1
  O  O92  1  0.354337  0.645023  0.488649  1
  O  O93  1  0.111952  0.649994  0.094199  1
  O  O94  1  0.394217  0.645623  0.292351  1
  O  O95  1  0.645663  0.354977  0.511351  1
