# generated using pymatgen
data_Ce2Ho3SiPb3
_symmetry_space_group_name_H-M   'P 1'
_cell_length_a   9.53383700
_cell_length_b   9.53383722
_cell_length_c   6.33870400
_cell_angle_alpha   90.00000000
_cell_angle_beta   90.00000000
_cell_angle_gamma   120.00000272
_symmetry_Int_Tables_number   1
_chemical_formula_structural   Ce2Ho3SiPb3
_chemical_formula_sum   'Ce4 Ho6 Si2 Pb6'
_cell_volume   498.96093706
_cell_formula_units_Z   2
loop_
 _symmetry_equiv_pos_site_id
 _symmetry_equiv_pos_as_xyz
  1  'x, y, z'
loop_
 _atom_site_type_symbol
 _atom_site_label
 _atom_site_symmetry_multiplicity
 _atom_site_fract_x
 _atom_site_fract_y
 _atom_site_fract_z
 _atom_site_occupancy
  Ce  Ce0  1  0.333333  0.666667  0.500000  1
  Ce  Ce1  1  0.666667  0.333333  0.500000  1
  Ce  Ce2  1  0.333333  0.666667  0.000000  1
  Ce  Ce3  1  0.666667  0.333333  0.000000  1
  Ho  Ho4  1  0.247701  0.247701  0.750000  1
  Ho  Ho5  1  0.752299  0.752299  0.250000  1
  Ho  Ho6  1  0.247701  0.000000  0.250000  1
  Ho  Ho7  1  0.752299  0.000000  0.750000  1
  Ho  Ho8  1  0.000000  0.247701  0.250000  1
  Ho  Ho9  1  0.000000  0.752299  0.750000  1
  Si  Si10  1  0.000000  0.000000  0.000000  1
  Si  Si11  1  0.000000  0.000000  0.500000  1
  Pb  Pb12  1  0.387158  0.387158  0.250000  1
  Pb  Pb13  1  0.612842  0.612842  0.750000  1
  Pb  Pb14  1  0.000000  0.387158  0.750000  1
  Pb  Pb15  1  0.612842  0.000000  0.250000  1
  Pb  Pb16  1  0.387158  0.000000  0.750000  1
  Pb  Pb17  1  0.000000  0.612842  0.250000  1
