# generated using pymatgen
data_Gd6Ti4Al12Os7
_symmetry_space_group_name_H-M   'P 1'
_cell_length_a   8.99664465
_cell_length_b   8.99664575
_cell_length_c   8.99664600
_cell_angle_alpha   60.00000642
_cell_angle_beta   60.00000238
_cell_angle_gamma   60.00000351
_symmetry_Int_Tables_number   1
_chemical_formula_structural   Gd6Ti4Al12Os7
_chemical_formula_sum   'Gd6 Ti4 Al12 Os7'
_cell_volume   514.90470667
_cell_formula_units_Z   1
loop_
 _symmetry_equiv_pos_site_id
 _symmetry_equiv_pos_as_xyz
  1  'x, y, z'
loop_
 _atom_site_type_symbol
 _atom_site_label
 _atom_site_symmetry_multiplicity
 _atom_site_fract_x
 _atom_site_fract_y
 _atom_site_fract_z
 _atom_site_occupancy
  Gd  Gd0  1  0.710694  0.710694  0.289306  1
  Gd  Gd1  1  0.289306  0.710694  0.289306  1
  Gd  Gd2  1  0.710694  0.289306  0.289306  1
  Gd  Gd3  1  0.289306  0.289306  0.710694  1
  Gd  Gd4  1  0.710694  0.289306  0.710694  1
  Gd  Gd5  1  0.289306  0.710694  0.710694  1
  Ti  Ti6  1  0.880928  0.880928  0.357214  1
  Ti  Ti7  1  0.880928  0.357214  0.880928  1
  Ti  Ti8  1  0.357214  0.880928  0.880928  1
  Ti  Ti9  1  0.880928  0.880928  0.880928  1
  Al  Al10  1  0.119182  0.119182  0.642456  1
  Al  Al11  1  0.119182  0.642456  0.119182  1
  Al  Al12  1  0.642456  0.119182  0.119182  1
  Al  Al13  1  0.119182  0.119182  0.119182  1
  Al  Al14  1  0.670092  0.670092  0.989723  1
  Al  Al15  1  0.670092  0.989723  0.670092  1
  Al  Al16  1  0.989723  0.670092  0.670092  1
  Al  Al17  1  0.670092  0.670092  0.670092  1
  Al  Al18  1  0.329806  0.329806  0.010580  1
  Al  Al19  1  0.329806  0.010580  0.329806  1
  Al  Al20  1  0.010580  0.329806  0.329806  1
  Al  Al21  1  0.329806  0.329806  0.329806  1
  Os  Os22  1  0.000000  0.000000  0.000000  1
  Os  Os23  1  0.999277  0.999277  0.500723  1
  Os  Os24  1  0.500723  0.999277  0.500723  1
  Os  Os25  1  0.999277  0.500723  0.500723  1
  Os  Os26  1  0.500723  0.500723  0.999277  1
  Os  Os27  1  0.999277  0.500723  0.999277  1
  Os  Os28  1  0.500723  0.999277  0.999277  1
