# generated using pymatgen
data_AcCrSe2O
_symmetry_space_group_name_H-M   'P 1'
_cell_length_a   6.36543164
_cell_length_b   6.36543200
_cell_length_c   8.60275215
_cell_angle_alpha   89.39855363
_cell_angle_beta   89.39855252
_cell_angle_gamma   36.90180280
_symmetry_Int_Tables_number   1
_chemical_formula_structural   AcCrSe2O
_chemical_formula_sum   'Ac2 Cr2 Se4 O2'
_cell_volume   209.28594960
_cell_formula_units_Z   2
loop_
 _symmetry_equiv_pos_site_id
 _symmetry_equiv_pos_as_xyz
  1  'x, y, z'
loop_
 _atom_site_type_symbol
 _atom_site_label
 _atom_site_symmetry_multiplicity
 _atom_site_fract_x
 _atom_site_fract_y
 _atom_site_fract_z
 _atom_site_occupancy
  Ac  Ac0  1  0.771818  0.771818  0.195696  1
  Ac  Ac1  1  0.228182  0.228182  0.804304  1
  Cr  Cr2  1  0.500000  0.500000  0.000000  1
  Cr  Cr3  1  0.000000  0.000000  0.500000  1
  Se  Se4  1  0.043116  0.043116  0.196677  1
  Se  Se5  1  0.363822  0.363822  0.473251  1
  Se  Se6  1  0.636177  0.636177  0.526749  1
  Se  Se7  1  0.956884  0.956884  0.803323  1
  O  O8  1  0.335780  0.335780  0.055357  1
  O  O9  1  0.664221  0.664221  0.944643  1
