# generated using pymatgen
data_Ce8Zn3Si12Os
_symmetry_space_group_name_H-M   'P 1'
_cell_length_a   8.20064000
_cell_length_b   8.20064037
_cell_length_c   8.33465000
_cell_angle_alpha   90.00000000
_cell_angle_beta   90.00000000
_cell_angle_gamma   119.99999849
_symmetry_Int_Tables_number   1
_chemical_formula_structural   Ce8Zn3Si12Os
_chemical_formula_sum   'Ce8 Zn3 Si12 Os1'
_cell_volume   485.41536565
_cell_formula_units_Z   1
loop_
 _symmetry_equiv_pos_site_id
 _symmetry_equiv_pos_as_xyz
  1  'x, y, z'
loop_
 _atom_site_type_symbol
 _atom_site_label
 _atom_site_symmetry_multiplicity
 _atom_site_fract_x
 _atom_site_fract_y
 _atom_site_fract_z
 _atom_site_occupancy
  Ce  Ce0  1  0.000000  0.000000  0.249063  1
  Ce  Ce1  1  0.000000  0.000000  0.750976  1
  Ce  Ce2  1  0.495213  0.504787  0.255622  1
  Ce  Ce3  1  0.495213  0.990425  0.255622  1
  Ce  Ce4  1  0.009575  0.504787  0.255622  1
  Ce  Ce5  1  0.496065  0.503935  0.744401  1
  Ce  Ce6  1  0.496065  0.992131  0.744401  1
  Ce  Ce7  1  0.007869  0.503935  0.744401  1
  Zn  Zn8  1  0.666667  0.333333  0.498196  1
  Zn  Zn9  1  0.666667  0.333333  0.001923  1
  Zn  Zn10  1  0.333333  0.666667  0.998290  1
  Si  Si11  1  0.165556  0.834444  0.500471  1
  Si  Si12  1  0.165556  0.331112  0.500471  1
  Si  Si13  1  0.668888  0.834444  0.500471  1
  Si  Si14  1  0.835470  0.164530  0.499613  1
  Si  Si15  1  0.835470  0.670939  0.499613  1
  Si  Si16  1  0.329061  0.164530  0.499613  1
  Si  Si17  1  0.833871  0.166129  0.000305  1
  Si  Si18  1  0.833871  0.667742  0.000305  1
  Si  Si19  1  0.332258  0.166129  0.000305  1
  Si  Si20  1  0.165523  0.834477  0.999783  1
  Si  Si21  1  0.165523  0.331045  0.999783  1
  Si  Si22  1  0.668955  0.834477  0.999783  1
  Os  Os23  1  0.333333  0.666667  0.500965  1
