# generated using pymatgen
data_Ti8Mn4Fe3Pt
_symmetry_space_group_name_H-M   'P 1'
_cell_length_a   5.94639000
_cell_length_b   4.22134600
_cell_length_c   8.44435200
_cell_angle_alpha   90.00000000
_cell_angle_beta   89.99994219
_cell_angle_gamma   90.00000000
_symmetry_Int_Tables_number   1
_chemical_formula_structural   Ti8Mn4Fe3Pt
_chemical_formula_sum   'Ti8 Mn4 Fe3 Pt1'
_cell_volume   211.96817867
_cell_formula_units_Z   1
loop_
 _symmetry_equiv_pos_site_id
 _symmetry_equiv_pos_as_xyz
  1  'x, y, z'
loop_
 _atom_site_type_symbol
 _atom_site_label
 _atom_site_symmetry_multiplicity
 _atom_site_fract_x
 _atom_site_fract_y
 _atom_site_fract_z
 _atom_site_occupancy
  Ti  Ti0  1  0.005171  0.750000  0.133704  1
  Ti  Ti1  1  0.494840  0.750000  0.133705  1
  Ti  Ti2  1  0.997988  0.250001  0.374959  1
  Ti  Ti3  1  0.502003  0.250001  0.374959  1
  Ti  Ti4  1  0.494967  0.750000  0.616295  1
  Ti  Ti5  1  0.005043  0.750000  0.616296  1
  Ti  Ti6  1  0.487236  0.250001  0.875045  1
  Ti  Ti7  1  0.012755  0.250001  0.875046  1
  Mn  Mn8  1  0.750001  0.250001  0.125707  1
  Mn  Mn9  1  0.249998  0.750000  0.374902  1
  Mn  Mn10  1  0.750005  0.250001  0.624337  1
  Mn  Mn11  1  0.249999  0.750000  0.875079  1
  Fe  Fe12  1  0.250003  0.250001  0.125525  1
  Fe  Fe13  1  0.749995  0.750000  0.374969  1
  Fe  Fe14  1  0.250003  0.250001  0.624481  1
  Pt  Pt15  1  0.749998  0.750000  0.874989  1
