# generated using pymatgen
data_Tm2Zn14Pd3
_symmetry_space_group_name_H-M   'P 1'
_cell_length_a   6.82640902
_cell_length_b   6.82739659
_cell_length_c   6.82772464
_cell_angle_alpha   82.77298284
_cell_angle_beta   97.24890489
_cell_angle_gamma   97.25575896
_symmetry_Int_Tables_number   1
_chemical_formula_structural   Tm2Zn14Pd3
_chemical_formula_sum   'Tm2 Zn14 Pd3'
_cell_volume   311.18811646
_cell_formula_units_Z   1
loop_
 _symmetry_equiv_pos_site_id
 _symmetry_equiv_pos_as_xyz
  1  'x, y, z'
loop_
 _atom_site_type_symbol
 _atom_site_label
 _atom_site_symmetry_multiplicity
 _atom_site_fract_x
 _atom_site_fract_y
 _atom_site_fract_z
 _atom_site_occupancy
  Tm  Tm0  1  0.662158  0.337849  0.337854  1
  Tm  Tm1  1  0.337841  0.662152  0.662145  1
  Zn  Zn2  1  0.299248  0.299281  0.000005  1
  Zn  Zn3  1  0.700752  0.700718  0.999995  1
  Zn  Zn4  1  0.895666  0.104338  0.104341  1
  Zn  Zn5  1  0.353100  0.646873  0.159585  1
  Zn  Zn6  1  0.999999  0.700750  0.299255  1
  Zn  Zn7  1  0.299241  0.000007  0.299281  1
  Zn  Zn8  1  0.646899  0.840419  0.353131  1
  Zn  Zn9  1  0.159573  0.353119  0.353122  1
  Zn  Zn10  1  0.840426  0.646880  0.646879  1
  Zn  Zn11  1  0.353102  0.159581  0.646869  1
  Zn  Zn12  1  0.000001  0.299249  0.700744  1
  Zn  Zn13  1  0.700759  0.999993  0.700719  1
  Zn  Zn14  1  0.646899  0.353127  0.840415  1
  Zn  Zn15  1  0.104333  0.895662  0.895660  1
  Pd  Pd16  1  0.499999  0.999999  0.999999  1
  Pd  Pd17  1  0.000000  0.500000  0.999999  1
  Pd  Pd18  1  0.000001  0.999998  0.500001  1
