# generated using pymatgen
data_Tb3HoAl18Rh5Au
_symmetry_space_group_name_H-M   'P 1'
_cell_length_a   7.58804132
_cell_length_b   7.58781285
_cell_length_c   9.47303705
_cell_angle_alpha   89.94955001
_cell_angle_beta   89.93338216
_cell_angle_gamma   119.48781676
_symmetry_Int_Tables_number   1
_chemical_formula_structural   Tb3HoAl18Rh5Au
_chemical_formula_sum   'Tb3 Ho1 Al18 Rh5 Au1'
_cell_volume   474.77041235
_cell_formula_units_Z   1
loop_
 _symmetry_equiv_pos_site_id
 _symmetry_equiv_pos_as_xyz
  1  'x, y, z'
loop_
 _atom_site_type_symbol
 _atom_site_label
 _atom_site_symmetry_multiplicity
 _atom_site_fract_x
 _atom_site_fract_y
 _atom_site_fract_z
 _atom_site_occupancy
  Tb  Tb0  1  0.004407  0.326028  0.749468  1
  Tb  Tb1  1  0.674019  0.995540  0.250548  1
  Tb  Tb2  1  0.326011  0.004397  0.749471  1
  Ho  Ho3  1  0.995559  0.674016  0.250617  1
  Al  Al4  1  0.135291  0.135132  0.257115  1
  Al  Al5  1  0.864658  0.864626  0.742892  1
  Al  Al6  1  0.001514  0.344582  0.079126  1
  Al  Al7  1  0.998489  0.655682  0.921144  1
  Al  Al8  1  0.000312  0.664097  0.573752  1
  Al  Al9  1  0.335649  0.999452  0.425938  1
  Al  Al10  1  0.999685  0.336125  0.425951  1
  Al  Al11  1  0.664097  0.000308  0.573960  1
  Al  Al12  1  0.655652  0.998482  0.920970  1
  Al  Al13  1  0.344100  0.001302  0.079101  1
  Al  Al14  1  0.333303  0.333291  0.550573  1
  Al  Al15  1  0.666915  0.666708  0.449293  1
  Al  Al16  1  0.658521  0.658329  0.055776  1
  Al  Al17  1  0.341684  0.341678  0.944351  1
  Al  Al18  1  0.339401  0.550922  0.251275  1
  Al  Al19  1  0.660461  0.449151  0.748726  1
  Al  Al20  1  0.551132  0.339745  0.251281  1
  Al  Al21  1  0.449155  0.660444  0.748723  1
  Rh  Rh22  1  0.671890  0.328304  0.000114  1
  Rh  Rh23  1  0.328101  0.671786  0.000114  1
  Rh  Rh24  1  0.328093  0.671826  0.499895  1
  Rh  Rh25  1  0.671926  0.328266  0.499887  1
  Rh  Rh26  1  0.999982  0.999865  0.499864  1
  Au  Au27  1  0.999992  0.999914  0.000075  1
