# generated using pymatgen
data_Tb3Er13(In3Os)2
_symmetry_space_group_name_H-M   'P 1'
_cell_length_a   10.33010800
_cell_length_b   10.33010754
_cell_length_c   7.07944000
_cell_angle_alpha   90.00000000
_cell_angle_beta   90.00000000
_cell_angle_gamma   119.99999506
_symmetry_Int_Tables_number   1
_chemical_formula_structural   Tb3Er13(In3Os)2
_chemical_formula_sum   'Tb3 Er13 In6 Os2'
_cell_volume   654.24326938
_cell_formula_units_Z   1
loop_
 _symmetry_equiv_pos_site_id
 _symmetry_equiv_pos_as_xyz
  1  'x, y, z'
loop_
 _atom_site_type_symbol
 _atom_site_label
 _atom_site_symmetry_multiplicity
 _atom_site_fract_x
 _atom_site_fract_y
 _atom_site_fract_z
 _atom_site_occupancy
  Tb  Tb0  1  0.532652  0.065305  0.793415  1
  Tb  Tb1  1  0.934695  0.467348  0.793415  1
  Tb  Tb2  1  0.532652  0.467348  0.793415  1
  Er  Er3  1  0.466042  0.932085  0.294281  1
  Er  Er4  1  0.067915  0.533958  0.294281  1
  Er  Er5  1  0.466042  0.533958  0.294281  1
  Er  Er6  1  0.822859  0.645719  0.496581  1
  Er  Er7  1  0.354281  0.177141  0.496581  1
  Er  Er8  1  0.822859  0.177141  0.496581  1
  Er  Er9  1  0.177186  0.354371  0.999188  1
  Er  Er10  1  0.645629  0.822814  0.999188  1
  Er  Er11  1  0.177186  0.822814  0.999188  1
  Er  Er12  1  0.666667  0.333333  0.172676  1
  Er  Er13  1  0.333333  0.666667  0.672463  1
  Er  Er14  1  0.000000  0.000000  0.778149  1
  Er  Er15  1  0.000000  0.000000  0.278123  1
  In  In16  1  0.837322  0.674645  0.041405  1
  In  In17  1  0.325355  0.162678  0.041405  1
  In  In18  1  0.837322  0.162678  0.041405  1
  In  In19  1  0.163156  0.326312  0.540931  1
  In  In20  1  0.673688  0.836844  0.540931  1
  In  In21  1  0.163156  0.836844  0.540931  1
  Os  Os22  1  0.666667  0.333333  0.567699  1
  Os  Os23  1  0.333333  0.666667  0.069394  1
