# generated using pymatgen
data_Mn3Nb6Al8Cu
_symmetry_space_group_name_H-M   'P 1'
_cell_length_a   8.76199766
_cell_length_b   8.85485825
_cell_length_c   8.19554200
_cell_angle_alpha   90.00000000
_cell_angle_beta   90.00000000
_cell_angle_gamma   120.83556420
_symmetry_Int_Tables_number   1
_chemical_formula_structural   Mn3Nb6Al8Cu
_chemical_formula_sum   'Mn6 Nb12 Al16 Cu2'
_cell_volume   545.97719603
_cell_formula_units_Z   2
loop_
 _symmetry_equiv_pos_site_id
 _symmetry_equiv_pos_as_xyz
  1  'x, y, z'
loop_
 _atom_site_type_symbol
 _atom_site_label
 _atom_site_symmetry_multiplicity
 _atom_site_fract_x
 _atom_site_fract_y
 _atom_site_fract_z
 _atom_site_occupancy
  Mn  Mn0  1  0.178378  0.503666  0.750000  1
  Mn  Mn1  1  0.821622  0.496334  0.250000  1
  Mn  Mn2  1  0.488595  0.656404  0.750000  1
  Mn  Mn3  1  0.502858  0.165973  0.750000  1
  Mn  Mn4  1  0.511405  0.343596  0.250000  1
  Mn  Mn5  1  0.497142  0.834027  0.250000  1
  Nb  Nb6  1  0.336853  0.002081  0.065275  1
  Nb  Nb7  1  0.663147  0.997919  0.934725  1
  Nb  Nb8  1  0.999366  0.334210  0.063383  1
  Nb  Nb9  1  0.663147  0.997919  0.565275  1
  Nb  Nb10  1  0.999366  0.334210  0.436617  1
  Nb  Nb11  1  0.000634  0.665790  0.936617  1
  Nb  Nb12  1  0.336853  0.002081  0.434725  1
  Nb  Nb13  1  0.000634  0.665790  0.563383  1
  Nb  Nb14  1  0.662126  0.665419  0.063064  1
  Nb  Nb15  1  0.337874  0.334581  0.936936  1
  Nb  Nb16  1  0.337874  0.334581  0.563064  1
  Nb  Nb17  1  0.662126  0.665419  0.436936  1
  Al  Al18  1  0.338160  0.842461  0.750000  1
  Al  Al19  1  0.656758  0.504324  0.750000  1
  Al  Al20  1  0.661840  0.157539  0.250000  1
  Al  Al21  1  0.343242  0.495676  0.250000  1
  Al  Al22  1  0.846894  0.341022  0.750000  1
  Al  Al23  1  0.153106  0.658978  0.250000  1
  Al  Al24  1  0.337452  0.669031  0.500260  1
  Al  Al25  1  0.662548  0.330969  0.499740  1
  Al  Al26  1  0.662548  0.330969  0.000260  1
  Al  Al27  1  0.337452  0.669031  0.999740  1
  Al  Al28  1  0.176802  0.006026  0.750000  1
  Al  Al29  1  0.823198  0.993974  0.250000  1
  Al  Al30  1  0.011394  0.180555  0.750000  1
  Al  Al31  1  0.988606  0.819445  0.250000  1
  Al  Al32  1  0.821147  0.832019  0.750000  1
  Al  Al33  1  0.178853  0.167981  0.250000  1
  Cu  Cu34  1  0.000000  0.000000  0.500000  1
  Cu  Cu35  1  0.000000  0.000000  0.000000  1
