# generated using pymatgen
data_Pr2B4Os3Ru
_symmetry_space_group_name_H-M   'P 1'
_cell_length_a   6.83529613
_cell_length_b   6.04184717
_cell_length_c   5.64268609
_cell_angle_alpha   71.51125875
_cell_angle_beta   56.96064771
_cell_angle_gamma   51.75074800
_symmetry_Int_Tables_number   1
_chemical_formula_structural   Pr2B4Os3Ru
_chemical_formula_sum   'Pr2 B4 Os3 Ru1'
_cell_volume   153.33843152
_cell_formula_units_Z   1
loop_
 _symmetry_equiv_pos_site_id
 _symmetry_equiv_pos_as_xyz
  1  'x, y, z'
loop_
 _atom_site_type_symbol
 _atom_site_label
 _atom_site_symmetry_multiplicity
 _atom_site_fract_x
 _atom_site_fract_y
 _atom_site_fract_z
 _atom_site_occupancy
  Pr  Pr0  1  0.998721  0.998721  0.001279  1
  Pr  Pr1  1  0.251718  0.251718  0.248282  1
  B  B2  1  0.679569  0.320065  0.684467  1
  B  B3  1  0.320065  0.679569  0.315899  1
  B  B4  1  0.935136  0.563422  0.935032  1
  B  B5  1  0.563422  0.935136  0.566409  1
  Os  Os6  1  0.615083  0.615083  0.884917  1
  Os  Os7  1  0.635887  0.635887  0.364112  1
  Os  Os8  1  0.363029  0.363030  0.636970  1
  Ru  Ru9  1  0.887369  0.887368  0.612631  1
