# generated using pymatgen
data_Ca6ScV3(SiO4)6
_symmetry_space_group_name_H-M   'P 1'
_cell_length_a   10.61987270
_cell_length_b   10.62289011
_cell_length_c   10.62288945
_cell_angle_alpha   109.56796894
_cell_angle_beta   109.46367322
_cell_angle_gamma   109.46367029
_symmetry_Int_Tables_number   1
_chemical_formula_structural   Ca6ScV3(SiO4)6
_chemical_formula_sum   'Ca12 Sc2 V6 Si12 O48'
_cell_volume   921.60327543
_cell_formula_units_Z   2
loop_
 _symmetry_equiv_pos_site_id
 _symmetry_equiv_pos_as_xyz
  1  'x, y, z'
loop_
 _atom_site_type_symbol
 _atom_site_label
 _atom_site_symmetry_multiplicity
 _atom_site_fract_x
 _atom_site_fract_y
 _atom_site_fract_z
 _atom_site_occupancy
  Ca  Ca0  1  0.750000  0.122097  0.377903  1
  Ca  Ca1  1  0.250000  0.374676  0.125324  1
  Ca  Ca2  1  0.124831  0.247389  0.373487  1
  Ca  Ca3  1  0.373009  0.748101  0.125457  1
  Ca  Ca4  1  0.750000  0.625324  0.874676  1
  Ca  Ca5  1  0.126991  0.374543  0.751899  1
  Ca  Ca6  1  0.624831  0.873487  0.747389  1
  Ca  Ca7  1  0.250000  0.877903  0.622097  1
  Ca  Ca8  1  0.873009  0.625457  0.248101  1
  Ca  Ca9  1  0.626991  0.251899  0.874543  1
  Ca  Ca10  1  0.875169  0.752611  0.626513  1
  Ca  Ca11  1  0.375169  0.126513  0.252611  1
  Sc  Sc12  1  0.500000  0.000000  0.000000  1
  Sc  Sc13  1  0.000000  0.500000  0.500000  1
  V  V14  1  0.000000  0.000000  0.000000  1
  V  V15  1  0.000000  0.500000  0.000000  1
  V  V16  1  0.500000  0.500000  0.000000  1
  V  V17  1  0.500000  0.000000  0.500000  1
  V  V18  1  0.500000  0.500000  0.500000  1
  V  V19  1  0.000000  0.000000  0.500000  1
  Si  Si20  1  0.126093  0.874715  0.250398  1
  Si  Si21  1  0.873907  0.125285  0.749602  1
  Si  Si22  1  0.252646  0.627011  0.374727  1
  Si  Si23  1  0.373907  0.249602  0.625285  1
  Si  Si24  1  0.752646  0.874727  0.127011  1
  Si  Si25  1  0.123602  0.750734  0.877136  1
  Si  Si26  1  0.376398  0.622864  0.749266  1
  Si  Si27  1  0.626093  0.750398  0.374715  1
  Si  Si28  1  0.876398  0.249266  0.122864  1
  Si  Si29  1  0.247354  0.125273  0.872989  1
  Si  Si30  1  0.747354  0.372989  0.625273  1
  Si  Si31  1  0.623602  0.377136  0.250734  1
  O  O32  1  0.487494  0.382927  0.293607  1
  O  O33  1  0.301827  0.892434  0.012921  1
  O  O34  1  0.611003  0.911285  0.119547  1
  O  O35  1  0.589525  0.199893  0.209464  1
  O  O36  1  0.117979  0.008163  0.205311  1
  O  O37  1  0.194255  0.202991  0.587150  1
  O  O38  1  0.198173  0.487079  0.607566  1
  O  O39  1  0.207972  0.588018  0.195644  1
  O  O40  1  0.384067  0.588837  0.892802  1
  O  O41  1  0.910475  0.290536  0.300107  1
  O  O42  1  0.292028  0.304356  0.911982  1
  O  O43  1  0.201059  0.114851  0.006015  1
  O  O44  1  0.493090  0.607745  0.194154  1
  O  O45  1  0.888997  0.380453  0.588715  1
  O  O46  1  0.012506  0.206393  0.117073  1
  O  O47  1  0.605689  0.193307  0.490712  1
  O  O48  1  0.587522  0.890631  0.381327  1
  O  O49  1  0.006910  0.305846  0.892255  1
  O  O50  1  0.912478  0.118673  0.609369  1
  O  O51  1  0.615933  0.411163  0.107198  1
  O  O52  1  0.115933  0.607198  0.911163  1
  O  O53  1  0.298941  0.493985  0.385149  1
  O  O54  1  0.894311  0.009288  0.306693  1
  O  O55  1  0.305745  0.912850  0.297009  1
  O  O56  1  0.512506  0.617073  0.706393  1
  O  O57  1  0.698173  0.107566  0.987079  1
  O  O58  1  0.388997  0.088715  0.880453  1
  O  O59  1  0.410475  0.800107  0.790536  1
  O  O60  1  0.882021  0.991837  0.794689  1
  O  O61  1  0.805745  0.797009  0.412850  1
  O  O62  1  0.801827  0.512921  0.392434  1
  O  O63  1  0.792028  0.411982  0.804356  1
  O  O64  1  0.694255  0.087150  0.702991  1
  O  O65  1  0.105689  0.990712  0.693307  1
  O  O66  1  0.701059  0.506015  0.614851  1
  O  O67  1  0.617979  0.705311  0.508163  1
  O  O68  1  0.884067  0.392802  0.088837  1
  O  O69  1  0.087522  0.881327  0.390631  1
  O  O70  1  0.993090  0.694154  0.107745  1
  O  O71  1  0.412478  0.109369  0.618673  1
  O  O72  1  0.394311  0.806693  0.509288  1
  O  O73  1  0.987494  0.793607  0.882927  1
  O  O74  1  0.111003  0.619547  0.411285  1
  O  O75  1  0.506910  0.392255  0.805846  1
  O  O76  1  0.798941  0.885149  0.993985  1
  O  O77  1  0.707972  0.695644  0.088018  1
  O  O78  1  0.089525  0.709464  0.699893  1
  O  O79  1  0.382021  0.294689  0.491837  1
