# generated using pymatgen
data_Cs3KHgCl6
_symmetry_space_group_name_H-M   'P 1'
_cell_length_a   9.29137661
_cell_length_b   9.29137728
_cell_length_c   9.29137605
_cell_angle_alpha   91.81185715
_cell_angle_beta   91.81186458
_cell_angle_gamma   91.81186051
_symmetry_Int_Tables_number   1
_chemical_formula_structural   Cs3KHgCl6
_chemical_formula_sum   'Cs6 K2 Hg2 Cl12'
_cell_volume   800.89248510
_cell_formula_units_Z   2
loop_
 _symmetry_equiv_pos_site_id
 _symmetry_equiv_pos_as_xyz
  1  'x, y, z'
loop_
 _atom_site_type_symbol
 _atom_site_label
 _atom_site_symmetry_multiplicity
 _atom_site_fract_x
 _atom_site_fract_y
 _atom_site_fract_z
 _atom_site_occupancy
  Cs  Cs0  1  0.747471  0.372383  0.123203  1
  Cs  Cs1  1  0.623203  0.872383  0.247470  1
  Cs  Cs2  1  0.123204  0.747470  0.372384  1
  Cs  Cs3  1  0.872384  0.247470  0.623204  1
  Cs  Cs4  1  0.372384  0.123204  0.747470  1
  Cs  Cs5  1  0.247470  0.623203  0.872383  1
  K  K6  1  0.248043  0.248043  0.248043  1
  K  K7  1  0.748043  0.748043  0.748043  1
  Hg  Hg8  1  0.497995  0.497995  0.497995  1
  Hg  Hg9  1  0.997996  0.997995  0.997996  1
  Cl  Cl10  1  0.918843  0.716174  0.043860  1
  Cl  Cl11  1  0.279536  0.951690  0.077102  1
  Cl  Cl12  1  0.418844  0.543859  0.216174  1
  Cl  Cl13  1  0.951690  0.077102  0.279535  1
  Cl  Cl14  1  0.543859  0.216174  0.418844  1
  Cl  Cl15  1  0.779535  0.577102  0.451690  1
  Cl  Cl16  1  0.216174  0.418844  0.543859  1
  Cl  Cl17  1  0.451690  0.779535  0.577102  1
  Cl  Cl18  1  0.043860  0.918844  0.716173  1
  Cl  Cl19  1  0.577102  0.451690  0.779536  1
  Cl  Cl20  1  0.716174  0.043859  0.918844  1
  Cl  Cl21  1  0.077103  0.279535  0.951690  1
