# generated using pymatgen
data_Li5Fe(Co2Si)6
_symmetry_space_group_name_H-M   'P 1'
_cell_length_a   3.88525900
_cell_length_b   5.49257900
_cell_length_c   11.66196400
_cell_angle_alpha   90.00000000
_cell_angle_beta   90.00008355
_cell_angle_gamma   90.00000000
_symmetry_Int_Tables_number   1
_chemical_formula_structural   Li5Fe(Co2Si)6
_chemical_formula_sum   'Li5 Fe1 Co12 Si6'
_cell_volume   248.86738458
_cell_formula_units_Z   1
loop_
 _symmetry_equiv_pos_site_id
 _symmetry_equiv_pos_as_xyz
  1  'x, y, z'
loop_
 _atom_site_type_symbol
 _atom_site_label
 _atom_site_symmetry_multiplicity
 _atom_site_fract_x
 _atom_site_fract_y
 _atom_site_fract_z
 _atom_site_occupancy
  Li  Li0  1  0.499941  0.000000  0.167225  1
  Li  Li1  1  0.999919  0.500001  0.333990  1
  Li  Li2  1  0.500001  0.000000  0.500000  1
  Li  Li3  1  0.000080  0.500001  0.666010  1
  Li  Li4  1  0.500058  0.000000  0.832775  1
  Fe  Fe5  1  0.000000  0.500001  0.000000  1
  Co  Co6  1  0.500001  0.251883  0.000000  1
  Co  Co7  1  0.500001  0.748116  0.000000  1
  Co  Co8  1  0.999930  0.249721  0.166707  1
  Co  Co9  1  0.999930  0.750280  0.166707  1
  Co  Co10  1  0.499929  0.248821  0.333776  1
  Co  Co11  1  0.499929  0.751179  0.333776  1
  Co  Co12  1  0.000000  0.251062  0.500000  1
  Co  Co13  1  0.000000  0.748939  0.500000  1
  Co  Co14  1  0.500071  0.248821  0.666224  1
  Co  Co15  1  0.500071  0.751179  0.666224  1
  Co  Co16  1  0.000072  0.249721  0.833294  1
  Co  Co17  1  0.000072  0.750280  0.833294  1
  Si  Si18  1  0.000000  0.000000  0.000000  1
  Si  Si19  1  0.499931  0.500001  0.171337  1
  Si  Si20  1  0.999926  0.000000  0.335871  1
  Si  Si21  1  0.500001  0.500001  0.500000  1
  Si  Si22  1  0.000073  0.000000  0.664129  1
  Si  Si23  1  0.500068  0.500001  0.828662  1
