# generated using pymatgen
data_Ho2Co3Ni(PRu)6
_symmetry_space_group_name_H-M   'P 1'
_cell_length_a   3.78497000
_cell_length_b   10.63554500
_cell_length_c   12.09130500
_cell_angle_alpha   90.00000000
_cell_angle_beta   90.00000000
_cell_angle_gamma   90.00000000
_symmetry_Int_Tables_number   1
_chemical_formula_structural   Ho2Co3Ni(PRu)6
_chemical_formula_sum   'Ho4 Co6 Ni2 P12 Ru12'
_cell_volume   486.73812785
_cell_formula_units_Z   2
loop_
 _symmetry_equiv_pos_site_id
 _symmetry_equiv_pos_as_xyz
  1  'x, y, z'
loop_
 _atom_site_type_symbol
 _atom_site_label
 _atom_site_symmetry_multiplicity
 _atom_site_fract_x
 _atom_site_fract_y
 _atom_site_fract_z
 _atom_site_occupancy
  Ho  Ho0  1  0.250000  0.583676  0.707129  1
  Ho  Ho1  1  0.250000  0.916324  0.207129  1
  Ho  Ho2  1  0.750000  0.413457  0.293639  1
  Ho  Ho3  1  0.750000  0.086543  0.793639  1
  Co  Co4  1  0.750000  0.112130  0.303355  1
  Co  Co5  1  0.750000  0.387870  0.803355  1
  Co  Co6  1  0.250000  0.463273  0.933364  1
  Co  Co7  1  0.250000  0.036727  0.433364  1
  Co  Co8  1  0.750000  0.538221  0.067612  1
  Co  Co9  1  0.750000  0.961779  0.567612  1
  Ni  Ni10  1  0.250000  0.887935  0.697520  1
  Ni  Ni11  1  0.250000  0.612065  0.197520  1
  P  P12  1  0.250000  0.423077  0.110213  1
  P  P13  1  0.250000  0.076923  0.610213  1
  P  P14  1  0.750000  0.573719  0.887947  1
  P  P15  1  0.750000  0.926281  0.387947  1
  P  P16  1  0.250000  0.272225  0.871533  1
  P  P17  1  0.250000  0.227775  0.371533  1
  P  P18  1  0.750000  0.731278  0.126363  1
  P  P19  1  0.750000  0.768722  0.626363  1
  P  P20  1  0.250000  0.600914  0.389974  1
  P  P21  1  0.250000  0.899086  0.889974  1
  P  P22  1  0.750000  0.398484  0.613683  1
  P  P23  1  0.750000  0.101516  0.113683  1
  Ru  Ru24  1  0.250000  0.707546  0.987288  1
  Ru  Ru25  1  0.250000  0.792454  0.487288  1
  Ru  Ru26  1  0.750000  0.293333  0.013096  1
  Ru  Ru27  1  0.750000  0.206667  0.513096  1
  Ru  Ru28  1  0.250000  0.405028  0.484875  1
  Ru  Ru29  1  0.250000  0.094972  0.984875  1
  Ru  Ru30  1  0.750000  0.593476  0.513393  1
  Ru  Ru31  1  0.750000  0.906524  0.013393  1
  Ru  Ru32  1  0.250000  0.223851  0.180552  1
  Ru  Ru33  1  0.250000  0.276149  0.680552  1
  Ru  Ru34  1  0.750000  0.776371  0.818462  1
  Ru  Ru35  1  0.750000  0.723629  0.318462  1
