# generated using pymatgen
data_TbTm7In3Tc
_symmetry_space_group_name_H-M   'P 1'
_cell_length_a   10.29722867
_cell_length_b   10.29722127
_cell_length_c   6.99049683
_cell_angle_alpha   89.86386775
_cell_angle_beta   90.13606866
_cell_angle_gamma   120.02365142
_symmetry_Int_Tables_number   1
_chemical_formula_structural   TbTm7In3Tc
_chemical_formula_sum   'Tb2 Tm14 In6 Tc2'
_cell_volume   641.76184067
_cell_formula_units_Z   2
loop_
 _symmetry_equiv_pos_site_id
 _symmetry_equiv_pos_as_xyz
  1  'x, y, z'
loop_
 _atom_site_type_symbol
 _atom_site_label
 _atom_site_symmetry_multiplicity
 _atom_site_fract_x
 _atom_site_fract_y
 _atom_site_fract_z
 _atom_site_occupancy
  Tb  Tb0  1  0.530007  0.060493  0.517094  1
  Tb  Tb1  1  0.939507  0.469993  0.517095  1
  Tm  Tm2  1  0.530488  0.469512  0.518284  1
  Tm  Tm3  1  0.468041  0.936447  0.018317  1
  Tm  Tm4  1  0.063553  0.531958  0.018317  1
  Tm  Tm5  1  0.468291  0.531708  0.019475  1
  Tm  Tm6  1  0.178054  0.355128  0.721510  1
  Tm  Tm7  1  0.644872  0.821946  0.721510  1
  Tm  Tm8  1  0.177092  0.822908  0.721905  1
  Tm  Tm9  1  0.822360  0.645646  0.219639  1
  Tm  Tm10  1  0.354354  0.177640  0.219638  1
  Tm  Tm11  1  0.823311  0.176690  0.218841  1
  Tm  Tm12  1  0.666285  0.333715  0.893140  1
  Tm  Tm13  1  0.333833  0.666167  0.389723  1
  Tm  Tm14  1  0.000200  0.999799  0.497330  1
  Tm  Tm15  1  0.000082  0.999919  0.996893  1
  In  In16  1  0.836576  0.674103  0.761444  1
  In  In17  1  0.325897  0.163424  0.761442  1
  In  In18  1  0.837126  0.162875  0.761840  1
  In  In19  1  0.163607  0.326672  0.261055  1
  In  In20  1  0.673328  0.836392  0.261056  1
  In  In21  1  0.163465  0.836537  0.261737  1
  Tc  Tc22  1  0.666539  0.333461  0.291294  1
  Tc  Tc23  1  0.333131  0.666868  0.789427  1
