# generated using pymatgen
data_Tb6Dy2Hf11Si16Mo
_symmetry_space_group_name_H-M   'P 1'
_cell_length_a   7.26168766
_cell_length_b   7.26120271
_cell_length_c   13.32537000
_cell_angle_alpha   89.94426433
_cell_angle_beta   90.05771104
_cell_angle_gamma   90.04806346
_symmetry_Int_Tables_number   1
_chemical_formula_structural   Tb6Dy2Hf11Si16Mo
_chemical_formula_sum   'Tb6 Dy2 Hf11 Si16 Mo1'
_cell_volume   702.62698492
_cell_formula_units_Z   1
loop_
 _symmetry_equiv_pos_site_id
 _symmetry_equiv_pos_as_xyz
  1  'x, y, z'
loop_
 _atom_site_type_symbol
 _atom_site_label
 _atom_site_symmetry_multiplicity
 _atom_site_fract_x
 _atom_site_fract_y
 _atom_site_fract_z
 _atom_site_occupancy
  Tb  Tb0  1  0.156667  0.495363  0.465517  1
  Tb  Tb1  1  0.501331  0.845526  0.034224  1
  Tb  Tb2  1  0.845581  0.501311  0.965699  1
  Tb  Tb3  1  0.495364  0.156716  0.534554  1
  Tb  Tb4  1  0.342983  0.998475  0.787424  1
  Tb  Tb5  1  0.656779  0.004248  0.283495  1
  Dy  Dy6  1  0.998671  0.343092  0.212462  1
  Dy  Dy7  1  0.004044  0.656562  0.716492  1
  Hf  Hf8  1  0.825621  0.825555  0.500024  1
  Hf  Hf9  1  0.324306  0.674377  0.248977  1
  Hf  Hf10  1  0.674552  0.324480  0.751020  1
  Hf  Hf11  1  0.148467  0.997013  0.373634  1
  Hf  Hf12  1  0.853270  0.004967  0.877417  1
  Hf  Hf13  1  0.504038  0.648677  0.624703  1
  Hf  Hf14  1  0.349107  0.493106  0.877251  1
  Hf  Hf15  1  0.493047  0.349180  0.122745  1
  Hf  Hf16  1  0.648758  0.504003  0.375304  1
  Hf  Hf17  1  0.996987  0.148500  0.626339  1
  Hf  Hf18  1  0.004946  0.853313  0.122583  1
  Si  Si19  1  0.362577  0.295182  0.316194  1
  Si  Si20  1  0.636544  0.704873  0.817463  1
  Si  Si21  1  0.204807  0.862802  0.567308  1
  Si  Si22  1  0.137364  0.796326  0.933061  1
  Si  Si23  1  0.796582  0.137565  0.066990  1
  Si  Si24  1  0.862996  0.204978  0.432828  1
  Si  Si25  1  0.295034  0.362932  0.683758  1
  Si  Si26  1  0.705100  0.636194  0.182454  1
  Si  Si27  1  0.293882  0.051396  0.182891  1
  Si  Si28  1  0.704435  0.951789  0.685959  1
  Si  Si29  1  0.450740  0.795571  0.435126  1
  Si  Si30  1  0.204094  0.547116  0.064252  1
  Si  Si31  1  0.547299  0.204266  0.935800  1
  Si  Si32  1  0.795724  0.450912  0.565010  1
  Si  Si33  1  0.051184  0.294224  0.817023  1
  Si  Si34  1  0.951911  0.704114  0.313979  1
  Mo  Mo35  1  0.175208  0.175293  0.000036  1
