# generated using pymatgen
data_SrBi2RuO7
_symmetry_space_group_name_H-M   'P 1'
_cell_length_a   6.60215034
_cell_length_b   6.60214985
_cell_length_c   7.59093200
_cell_angle_alpha   90.00000000
_cell_angle_beta   90.00000000
_cell_angle_gamma   107.80830239
_symmetry_Int_Tables_number   1
_chemical_formula_structural   SrBi2RuO7
_chemical_formula_sum   'Sr2 Bi4 Ru2 O14'
_cell_volume   315.02255550
_cell_formula_units_Z   2
loop_
 _symmetry_equiv_pos_site_id
 _symmetry_equiv_pos_as_xyz
  1  'x, y, z'
loop_
 _atom_site_type_symbol
 _atom_site_label
 _atom_site_symmetry_multiplicity
 _atom_site_fract_x
 _atom_site_fract_y
 _atom_site_fract_z
 _atom_site_occupancy
  Sr  Sr0  1  0.000000  0.000000  0.500000  1
  Sr  Sr1  1  0.000000  0.000000  0.000000  1
  Bi  Bi2  1  0.497636  0.958543  0.750000  1
  Bi  Bi3  1  0.502364  0.041457  0.250000  1
  Bi  Bi4  1  0.958543  0.497636  0.750000  1
  Bi  Bi5  1  0.041457  0.502364  0.250000  1
  Ru  Ru6  1  0.500000  0.500000  0.500000  1
  Ru  Ru7  1  0.500000  0.500000  0.000000  1
  O  O8  1  0.566809  0.566809  0.750000  1
  O  O9  1  0.433191  0.433191  0.250000  1
  O  O10  1  0.840514  0.142696  0.750000  1
  O  O11  1  0.159486  0.857304  0.250000  1
  O  O12  1  0.142696  0.840514  0.750000  1
  O  O13  1  0.857304  0.159486  0.250000  1
  O  O14  1  0.447068  0.189288  0.969928  1
  O  O15  1  0.552932  0.810712  0.469928  1
  O  O16  1  0.189288  0.447068  0.969928  1
  O  O17  1  0.810712  0.552932  0.469928  1
  O  O18  1  0.447068  0.189288  0.530072  1
  O  O19  1  0.552932  0.810712  0.030072  1
  O  O20  1  0.810712  0.552932  0.030072  1
  O  O21  1  0.189288  0.447068  0.530072  1
