# generated using pymatgen
data_NbTcS4
_symmetry_space_group_name_H-M   'P 1'
_cell_length_a   3.22315600
_cell_length_b   5.57741891
_cell_length_c   7.10063080
_cell_angle_alpha   74.33523781
_cell_angle_beta   90.00000000
_cell_angle_gamma   90.00000000
_symmetry_Int_Tables_number   1
_chemical_formula_structural   NbTcS4
_chemical_formula_sum   'Nb1 Tc1 S4'
_cell_volume   122.90619131
_cell_formula_units_Z   1
loop_
 _symmetry_equiv_pos_site_id
 _symmetry_equiv_pos_as_xyz
  1  'x, y, z'
loop_
 _atom_site_type_symbol
 _atom_site_label
 _atom_site_symmetry_multiplicity
 _atom_site_fract_x
 _atom_site_fract_y
 _atom_site_fract_z
 _atom_site_occupancy
  Nb  Nb0  1  0.500000  0.499355  0.000711  1
  Tc  Tc1  1  0.000000  0.002963  0.000552  1
  S  S2  1  0.000000  0.404051  0.767043  1
  S  S3  1  0.500000  0.918451  0.775190  1
  S  S4  1  0.500000  0.763707  0.226280  1
  S  S5  1  0.000000  0.243470  0.234224  1
