# generated using pymatgen
data_Zr4Nb2Si7Ni16
_symmetry_space_group_name_H-M   'P 1'
_cell_length_a   8.08760409
_cell_length_b   8.09933765
_cell_length_c   8.08760302
_cell_angle_alpha   59.95198755
_cell_angle_beta   60.20049557
_cell_angle_gamma   59.95198750
_symmetry_Int_Tables_number   1
_chemical_formula_structural   Zr4Nb2Si7Ni16
_chemical_formula_sum   'Zr4 Nb2 Si7 Ni16'
_cell_volume   374.89655219
_cell_formula_units_Z   1
loop_
 _symmetry_equiv_pos_site_id
 _symmetry_equiv_pos_as_xyz
  1  'x, y, z'
loop_
 _atom_site_type_symbol
 _atom_site_label
 _atom_site_symmetry_multiplicity
 _atom_site_fract_x
 _atom_site_fract_y
 _atom_site_fract_z
 _atom_site_occupancy
  Zr  Zr0  1  0.792712  0.790582  0.207288  1
  Zr  Zr1  1  0.797860  0.204178  0.793784  1
  Zr  Zr2  1  0.206216  0.795822  0.202140  1
  Zr  Zr3  1  0.792712  0.209418  0.207288  1
  Nb  Nb4  1  0.207722  0.795442  0.792278  1
  Nb  Nb5  1  0.207722  0.204558  0.792278  1
  Si  Si6  1  0.504390  0.500000  0.495610  1
  Si  Si7  1  0.495777  0.000000  0.504223  1
  Si  Si8  1  0.007494  0.500000  0.992506  1
  Si  Si9  1  0.003023  0.995612  0.503188  1
  Si  Si10  1  0.496812  0.004388  0.996977  1
  Si  Si11  1  0.003023  0.498178  0.503188  1
  Si  Si12  1  0.496812  0.501822  0.996977  1
  Ni  Ni13  1  0.168038  0.168607  0.494748  1
  Ni  Ni14  1  0.492424  0.169151  0.169276  1
  Ni  Ni15  1  0.168273  0.168857  0.168989  1
  Ni  Ni16  1  0.505252  0.831393  0.831962  1
  Ni  Ni17  1  0.831011  0.831143  0.831727  1
  Ni  Ni18  1  0.830724  0.830849  0.507576  1
  Ni  Ni19  1  0.168273  0.493882  0.168989  1
  Ni  Ni20  1  0.613507  0.147457  0.619824  1
  Ni  Ni21  1  0.380824  0.385088  0.849000  1
  Ni  Ni22  1  0.855953  0.380812  0.382423  1
  Ni  Ni23  1  0.380176  0.380789  0.386493  1
  Ni  Ni24  1  0.151000  0.614912  0.619176  1
  Ni  Ni25  1  0.613507  0.619211  0.619824  1
  Ni  Ni26  1  0.617577  0.619188  0.144047  1
  Ni  Ni27  1  0.380176  0.852543  0.386493  1
  Ni  Ni28  1  0.831011  0.506118  0.831727  1
