# generated using pymatgen
data_NaPa(NiAs)2
_symmetry_space_group_name_H-M   'P 1'
_cell_length_a   4.08620700
_cell_length_b   4.08620856
_cell_length_c   16.16737300
_cell_angle_alpha   90.00000000
_cell_angle_beta   90.00000000
_cell_angle_gamma   120.00001167
_symmetry_Int_Tables_number   1
_chemical_formula_structural   NaPa(NiAs)2
_chemical_formula_sum   'Na2 Pa2 Ni4 As4'
_cell_volume   233.78192544
_cell_formula_units_Z   2
loop_
 _symmetry_equiv_pos_site_id
 _symmetry_equiv_pos_as_xyz
  1  'x, y, z'
loop_
 _atom_site_type_symbol
 _atom_site_label
 _atom_site_symmetry_multiplicity
 _atom_site_fract_x
 _atom_site_fract_y
 _atom_site_fract_z
 _atom_site_occupancy
  Na  Na0  1  0.000000  0.000000  0.000000  1
  Na  Na1  1  0.000000  0.000000  0.500000  1
  Pa  Pa2  1  0.000000  0.000000  0.250000  1
  Pa  Pa3  1  0.000000  0.000000  0.750000  1
  Ni  Ni4  1  0.333333  0.666667  0.151760  1
  Ni  Ni5  1  0.666667  0.333333  0.848240  1
  Ni  Ni6  1  0.666667  0.333333  0.651760  1
  Ni  Ni7  1  0.333333  0.666667  0.348240  1
  As  As8  1  0.333333  0.666667  0.629880  1
  As  As9  1  0.666667  0.333333  0.370120  1
  As  As10  1  0.666667  0.333333  0.129880  1
  As  As11  1  0.333333  0.666667  0.870120  1
