# generated using pymatgen
data_TbErNiPt
_symmetry_space_group_name_H-M   'P 1'
_cell_length_a   4.34862800
_cell_length_b   5.51958100
_cell_length_c   7.09299600
_cell_angle_alpha   90.00000000
_cell_angle_beta   90.00000000
_cell_angle_gamma   90.00000000
_symmetry_Int_Tables_number   1
_chemical_formula_structural   TbErNiPt
_chemical_formula_sum   'Tb2 Er2 Ni2 Pt2'
_cell_volume   170.25037760
_cell_formula_units_Z   2
loop_
 _symmetry_equiv_pos_site_id
 _symmetry_equiv_pos_as_xyz
  1  'x, y, z'
loop_
 _atom_site_type_symbol
 _atom_site_label
 _atom_site_symmetry_multiplicity
 _atom_site_fract_x
 _atom_site_fract_y
 _atom_site_fract_z
 _atom_site_occupancy
  Tb  Tb0  1  0.500000  0.385257  0.319293  1
  Tb  Tb1  1  0.500000  0.614743  0.819293  1
  Er  Er2  1  0.000000  0.117878  0.679687  1
  Er  Er3  1  0.000000  0.882122  0.179687  1
  Ni  Ni4  1  0.000000  0.612775  0.541411  1
  Ni  Ni5  1  0.000000  0.387225  0.041411  1
  Pt  Pt6  1  0.500000  0.887382  0.459610  1
  Pt  Pt7  1  0.500000  0.112618  0.959610  1
