# generated using pymatgen
data_Tb2DyMg3Ag2Ir
_symmetry_space_group_name_H-M   'P 1'
_cell_length_a   7.81414119
_cell_length_b   7.81610318
_cell_length_c   3.91691600
_cell_angle_alpha   90.00000000
_cell_angle_beta   90.00000000
_cell_angle_gamma   120.01709624
_symmetry_Int_Tables_number   1
_chemical_formula_structural   Tb2DyMg3Ag2Ir
_chemical_formula_sum   'Tb2 Dy1 Mg3 Ag2 Ir1'
_cell_volume   207.14363089
_cell_formula_units_Z   1
loop_
 _symmetry_equiv_pos_site_id
 _symmetry_equiv_pos_as_xyz
  1  'x, y, z'
loop_
 _atom_site_type_symbol
 _atom_site_label
 _atom_site_symmetry_multiplicity
 _atom_site_fract_x
 _atom_site_fract_y
 _atom_site_fract_z
 _atom_site_occupancy
  Tb  Tb0  1  0.430486  0.399315  0.500000  1
  Tb  Tb1  1  0.600716  0.031165  0.500000  1
  Dy  Dy2  1  0.968655  0.569471  0.500000  1
  Mg  Mg3  1  0.745911  0.745268  0.000000  1
  Mg  Mg4  1  0.254633  0.000465  0.000000  1
  Mg  Mg5  1  0.999452  0.254262  0.000000  1
  Ag  Ag6  1  0.333172  0.666613  0.000000  1
  Ag  Ag7  1  0.999994  0.999882  0.500000  1
  Ir  Ir8  1  0.666981  0.333559  0.000000  1
