# generated using pymatgen
data_Ac12ZnGe11Pd12
_symmetry_space_group_name_H-M   'P 1'
_cell_length_a   4.68494100
_cell_length_b   7.94785956
_cell_length_c   23.07793600
_cell_angle_alpha   89.86969078
_cell_angle_beta   90.00000000
_cell_angle_gamma   90.00000000
_symmetry_Int_Tables_number   1
_chemical_formula_structural   Ac12ZnGe11Pd12
_chemical_formula_sum   'Ac12 Zn1 Ge11 Pd12'
_cell_volume   859.31056541
_cell_formula_units_Z   1
loop_
 _symmetry_equiv_pos_site_id
 _symmetry_equiv_pos_as_xyz
  1  'x, y, z'
loop_
 _atom_site_type_symbol
 _atom_site_label
 _atom_site_symmetry_multiplicity
 _atom_site_fract_x
 _atom_site_fract_y
 _atom_site_fract_z
 _atom_site_occupancy
  Ac  Ac0  1  0.250000  0.713506  0.333114  1
  Ac  Ac1  1  0.750000  0.289556  0.666356  1
  Ac  Ac2  1  0.750000  0.212577  0.167033  1
  Ac  Ac3  1  0.250000  0.785159  0.831221  1
  Ac  Ac4  1  0.250000  0.792038  0.167146  1
  Ac  Ac5  1  0.750000  0.209394  0.831877  1
  Ac  Ac6  1  0.750000  0.292122  0.333405  1
  Ac  Ac7  1  0.250000  0.704799  0.666108  1
  Ac  Ac8  1  0.250000  0.719483  0.003476  1
  Ac  Ac9  1  0.750000  0.283451  0.998688  1
  Ac  Ac10  1  0.750000  0.215439  0.497358  1
  Ac  Ac11  1  0.250000  0.782233  0.502238  1
  Zn  Zn12  1  0.250000  0.412049  0.895537  1
  Ge  Ge13  1  0.250000  0.090643  0.070926  1
  Ge  Ge14  1  0.750000  0.917970  0.928489  1
  Ge  Ge15  1  0.750000  0.589344  0.429049  1
  Ge  Ge16  1  0.250000  0.409577  0.568761  1
  Ge  Ge17  1  0.250000  0.085162  0.270623  1
  Ge  Ge18  1  0.750000  0.915173  0.728215  1
  Ge  Ge19  1  0.750000  0.584161  0.229173  1
  Ge  Ge20  1  0.250000  0.411625  0.768984  1
  Ge  Ge21  1  0.250000  0.083846  0.395563  1
  Ge  Ge22  1  0.750000  0.916991  0.604617  1
  Ge  Ge23  1  0.750000  0.584686  0.105251  1
  Pd  Pd24  1  0.250000  0.419626  0.238956  1
  Pd  Pd25  1  0.750000  0.582479  0.761887  1
  Pd  Pd26  1  0.750000  0.919890  0.261106  1
  Pd  Pd27  1  0.250000  0.076437  0.737932  1
  Pd  Pd28  1  0.250000  0.417287  0.433638  1
  Pd  Pd29  1  0.750000  0.581810  0.566093  1
  Pd  Pd30  1  0.750000  0.915478  0.068339  1
  Pd  Pd31  1  0.250000  0.075066  0.936280  1
  Pd  Pd32  1  0.250000  0.421872  0.093032  1
  Pd  Pd33  1  0.750000  0.589901  0.909554  1
  Pd  Pd34  1  0.750000  0.920287  0.407034  1
  Pd  Pd35  1  0.250000  0.078884  0.592937  1
