# generated using pymatgen
data_RbB(SeO4)2
_symmetry_space_group_name_H-M   'P 1'
_cell_length_a   8.62076000
_cell_length_b   6.55326041
_cell_length_c   8.46500725
_cell_angle_alpha   74.95539060
_cell_angle_beta   90.00000000
_cell_angle_gamma   90.00000000
_symmetry_Int_Tables_number   1
_chemical_formula_structural   RbB(SeO4)2
_chemical_formula_sum   'Rb2 B2 Se4 O16'
_cell_volume   461.83128551
_cell_formula_units_Z   2
loop_
 _symmetry_equiv_pos_site_id
 _symmetry_equiv_pos_as_xyz
  1  'x, y, z'
loop_
 _atom_site_type_symbol
 _atom_site_label
 _atom_site_symmetry_multiplicity
 _atom_site_fract_x
 _atom_site_fract_y
 _atom_site_fract_z
 _atom_site_occupancy
  Rb  Rb0  1  0.561110  0.500000  0.750000  1
  Rb  Rb1  1  0.438890  0.500000  0.250000  1
  B  B2  1  0.961144  0.000000  0.250000  1
  B  B3  1  0.038856  0.000000  0.750000  1
  Se  Se4  1  0.210488  0.890520  0.491729  1
  Se  Se5  1  0.210488  0.109480  0.008271  1
  Se  Se6  1  0.789512  0.109480  0.508271  1
  Se  Se7  1  0.789512  0.890520  0.991729  1
  O  O8  1  0.282571  0.126207  0.420682  1
  O  O9  1  0.282571  0.873793  0.079318  1
  O  O10  1  0.717429  0.873793  0.579318  1
  O  O11  1  0.717429  0.126207  0.920682  1
  O  O12  1  0.049050  0.848376  0.379520  1
  O  O13  1  0.049050  0.151624  0.120480  1
  O  O14  1  0.950950  0.151624  0.620480  1
  O  O15  1  0.950950  0.848376  0.879520  1
  O  O16  1  0.137420  0.849190  0.688776  1
  O  O17  1  0.137420  0.150810  0.811224  1
  O  O18  1  0.862580  0.150810  0.311224  1
  O  O19  1  0.862580  0.849190  0.188776  1
  O  O20  1  0.323381  0.687456  0.504491  1
  O  O21  1  0.323381  0.312544  0.995509  1
  O  O22  1  0.676619  0.312544  0.495509  1
  O  O23  1  0.676619  0.687456  0.004491  1
