# generated using pymatgen
data_RbGa9CoIr
_symmetry_space_group_name_H-M   'P 1'
_cell_length_a   8.15140400
_cell_length_b   8.15140405
_cell_length_c   3.96531100
_cell_angle_alpha   90.00000000
_cell_angle_beta   90.00000000
_cell_angle_gamma   119.99999979
_symmetry_Int_Tables_number   1
_chemical_formula_structural   RbGa9CoIr
_chemical_formula_sum   'Rb1 Ga9 Co1 Ir1'
_cell_volume   228.17745217
_cell_formula_units_Z   1
loop_
 _symmetry_equiv_pos_site_id
 _symmetry_equiv_pos_as_xyz
  1  'x, y, z'
loop_
 _atom_site_type_symbol
 _atom_site_label
 _atom_site_symmetry_multiplicity
 _atom_site_fract_x
 _atom_site_fract_y
 _atom_site_fract_z
 _atom_site_occupancy
  Rb  Rb0  1  0.000000  0.000000  0.000000  1
  Ga  Ga1  1  0.794985  0.589969  0.500000  1
  Ga  Ga2  1  0.494143  0.505857  0.000000  1
  Ga  Ga3  1  0.494143  0.988286  0.000000  1
  Ga  Ga4  1  0.410031  0.205015  0.500000  1
  Ga  Ga5  1  0.210033  0.420069  0.500000  1
  Ga  Ga6  1  0.210033  0.789967  0.500000  1
  Ga  Ga7  1  0.579931  0.789967  0.500000  1
  Ga  Ga8  1  0.011714  0.505857  0.000000  1
  Ga  Ga9  1  0.794985  0.205015  0.500000  1
  Co  Co10  1  0.333333  0.666667  0.000000  1
  Ir  Ir11  1  0.666667  0.333333  0.000000  1
