# generated using pymatgen
data_Sm4B3(PdRh)6
_symmetry_space_group_name_H-M   'P 1'
_cell_length_a   4.24831800
_cell_length_b   4.24831800
_cell_length_c   16.88457000
_cell_angle_alpha   90.00000000
_cell_angle_beta   90.00000000
_cell_angle_gamma   90.00000000
_symmetry_Int_Tables_number   1
_chemical_formula_structural   Sm4B3(PdRh)6
_chemical_formula_sum   'Sm4 B3 Pd6 Rh6'
_cell_volume   304.73619470
_cell_formula_units_Z   1
loop_
 _symmetry_equiv_pos_site_id
 _symmetry_equiv_pos_as_xyz
  1  'x, y, z'
loop_
 _atom_site_type_symbol
 _atom_site_label
 _atom_site_symmetry_multiplicity
 _atom_site_fract_x
 _atom_site_fract_y
 _atom_site_fract_z
 _atom_site_occupancy
  Sm  Sm0  1  0.000000  0.000000  0.875082  1
  Sm  Sm1  1  0.000000  0.000000  0.124918  1
  Sm  Sm2  1  0.000000  0.000000  0.374696  1
  Sm  Sm3  1  0.000000  0.000000  0.625304  1
  B  B4  1  0.500000  0.500000  0.237486  1
  B  B5  1  0.500000  0.500000  0.500000  1
  B  B6  1  0.500000  0.500000  0.762514  1
  Pd  Pd7  1  0.500000  0.500000  0.886389  1
  Pd  Pd8  1  0.500000  0.500000  0.113611  1
  Pd  Pd9  1  0.500000  0.500000  0.372054  1
  Pd  Pd10  1  0.500000  0.500000  0.627946  1
  Pd  Pd11  1  0.500000  0.000000  0.000000  1
  Pd  Pd12  1  0.000000  0.500000  0.000000  1
  Rh  Rh13  1  0.500000  0.000000  0.250324  1
  Rh  Rh14  1  0.500000  0.000000  0.500000  1
  Rh  Rh15  1  0.500000  0.000000  0.749676  1
  Rh  Rh16  1  0.000000  0.500000  0.250324  1
  Rh  Rh17  1  0.000000  0.500000  0.500000  1
  Rh  Rh18  1  0.000000  0.500000  0.749676  1
