# generated using pymatgen
data_CaLa4(InSb)2
_symmetry_space_group_name_H-M   'P 1'
_cell_length_a   9.25640900
_cell_length_b   9.25640914
_cell_length_c   8.54474300
_cell_angle_alpha   90.00000000
_cell_angle_beta   90.00000000
_cell_angle_gamma   124.91427077
_symmetry_Int_Tables_number   1
_chemical_formula_structural   CaLa4(InSb)2
_chemical_formula_sum   'Ca2 La8 In4 Sb4'
_cell_volume   600.34774732
_cell_formula_units_Z   2
loop_
 _symmetry_equiv_pos_site_id
 _symmetry_equiv_pos_as_xyz
  1  'x, y, z'
loop_
 _atom_site_type_symbol
 _atom_site_label
 _atom_site_symmetry_multiplicity
 _atom_site_fract_x
 _atom_site_fract_y
 _atom_site_fract_z
 _atom_site_occupancy
  Ca  Ca0  1  0.000000  0.000000  0.000000  1
  Ca  Ca1  1  0.500000  0.500000  0.500000  1
  La  La2  1  0.031846  0.311823  0.333302  1
  La  La3  1  0.968154  0.688177  0.666698  1
  La  La4  1  0.468154  0.188177  0.833302  1
  La  La5  1  0.811823  0.531846  0.166698  1
  La  La6  1  0.531846  0.811823  0.166698  1
  La  La7  1  0.188177  0.468154  0.833302  1
  La  La8  1  0.688177  0.968154  0.666698  1
  La  La9  1  0.311823  0.031846  0.333302  1
  In  In10  1  0.374694  0.374694  0.124257  1
  In  In11  1  0.625306  0.625306  0.875743  1
  In  In12  1  0.125306  0.125306  0.624257  1
  In  In13  1  0.874694  0.874694  0.375743  1
  Sb  Sb14  1  0.799804  0.200196  0.000000  1
  Sb  Sb15  1  0.200196  0.799804  0.000000  1
  Sb  Sb16  1  0.700196  0.299804  0.500000  1
  Sb  Sb17  1  0.299804  0.700196  0.500000  1
