# generated using pymatgen
data_LaSm5U4O20
_symmetry_space_group_name_H-M   'P 1'
_cell_length_a   6.75567739
_cell_length_b   7.65385565
_cell_length_c   8.59348039
_cell_angle_alpha   101.21118406
_cell_angle_beta   97.83245824
_cell_angle_gamma   107.22979074
_symmetry_Int_Tables_number   1
_chemical_formula_structural   LaSm5U4O20
_chemical_formula_sum   'La1 Sm5 U4 O20'
_cell_volume   407.29395572
_cell_formula_units_Z   1
loop_
 _symmetry_equiv_pos_site_id
 _symmetry_equiv_pos_as_xyz
  1  'x, y, z'
loop_
 _atom_site_type_symbol
 _atom_site_label
 _atom_site_symmetry_multiplicity
 _atom_site_fract_x
 _atom_site_fract_y
 _atom_site_fract_z
 _atom_site_occupancy
  La  La0  1  0.000000  0.500000  0.500000  1
  Sm  Sm1  1  0.612546  0.704244  0.701053  1
  Sm  Sm2  1  0.387454  0.295756  0.298947  1
  Sm  Sm3  1  0.199255  0.897968  0.895223  1
  Sm  Sm4  1  0.800745  0.102032  0.104777  1
  Sm  Sm5  1  0.000000  0.000000  0.500000  1
  U  U6  1  0.403338  0.805255  0.301400  1
  U  U7  1  0.199163  0.401231  0.902547  1
  U  U8  1  0.800837  0.598769  0.097453  1
  U  U9  1  0.596662  0.194745  0.698600  1
  O  O10  1  0.437575  0.532966  0.133548  1
  O  O11  1  0.556072  0.990318  0.838989  1
  O  O12  1  0.274725  0.148766  0.745911  1
  O  O13  1  0.366964  0.599026  0.437555  1
  O  O14  1  0.054909  0.731141  0.326261  1
  O  O15  1  0.443928  0.009682  0.161011  1
  O  O16  1  0.150790  0.186941  0.029481  1
  O  O17  1  0.562425  0.467034  0.866452  1
  O  O18  1  0.855650  0.339346  0.949595  1
  O  O19  1  0.260044  0.605243  0.767356  1
  O  O20  1  0.952640  0.776887  0.655858  1
  O  O21  1  0.356850  0.059953  0.453869  1
  O  O22  1  0.643150  0.940047  0.546131  1
  O  O23  1  0.047360  0.223113  0.344142  1
  O  O24  1  0.739956  0.394757  0.232644  1
  O  O25  1  0.144350  0.660654  0.050405  1
  O  O26  1  0.849210  0.813059  0.970519  1
  O  O27  1  0.945091  0.268859  0.673739  1
  O  O28  1  0.633036  0.400974  0.562445  1
  O  O29  1  0.725275  0.851234  0.254089  1
