# generated using pymatgen
data_Ba4NbIr3O16
_symmetry_space_group_name_H-M   'P 1'
_cell_length_a   5.22411117
_cell_length_b   5.94522515
_cell_length_c   13.56397400
_cell_angle_alpha   90.00000000
_cell_angle_beta   90.00000000
_cell_angle_gamma   90.07398126
_symmetry_Int_Tables_number   1
_chemical_formula_structural   Ba4NbIr3O16
_chemical_formula_sum   'Ba4 Nb1 Ir3 O16'
_cell_volume   421.27656742
_cell_formula_units_Z   1
loop_
 _symmetry_equiv_pos_site_id
 _symmetry_equiv_pos_as_xyz
  1  'x, y, z'
loop_
 _atom_site_type_symbol
 _atom_site_label
 _atom_site_symmetry_multiplicity
 _atom_site_fract_x
 _atom_site_fract_y
 _atom_site_fract_z
 _atom_site_occupancy
  Ba  Ba0  1  0.250000  0.000000  0.157746  1
  Ba  Ba1  1  0.750000  0.000000  0.843609  1
  Ba  Ba2  1  0.250000  0.500000  0.661947  1
  Ba  Ba3  1  0.750000  0.500000  0.338640  1
  Nb  Nb4  1  0.250000  0.500000  0.924391  1
  Ir  Ir5  1  0.250000  0.000000  0.433228  1
  Ir  Ir6  1  0.750000  0.000000  0.564765  1
  Ir  Ir7  1  0.750000  0.500000  0.069077  1
  O  O8  1  0.358074  0.206368  0.336915  1
  O  O9  1  0.854427  0.207306  0.660082  1
  O  O10  1  0.936220  0.169139  0.457362  1
  O  O11  1  0.437440  0.169083  0.540261  1
  O  O12  1  0.451612  0.320047  0.046844  1
  O  O13  1  0.932095  0.321102  0.963436  1
  O  O14  1  0.868864  0.302490  0.166866  1
  O  O15  1  0.351683  0.285360  0.831534  1
  O  O16  1  0.631136  0.697510  0.166866  1
  O  O17  1  0.148317  0.714640  0.831534  1
  O  O18  1  0.048388  0.679953  0.046844  1
  O  O19  1  0.567905  0.678898  0.963436  1
  O  O20  1  0.563780  0.830861  0.457362  1
  O  O21  1  0.062560  0.830917  0.540261  1
  O  O22  1  0.141926  0.793632  0.336915  1
  O  O23  1  0.645573  0.792694  0.660082  1
