# generated using pymatgen
data_Tb5Mn2O11F
_symmetry_space_group_name_H-M   'P 1'
_cell_length_a   6.87877978
_cell_length_b   6.81485379
_cell_length_c   7.23295897
_cell_angle_alpha   74.66761931
_cell_angle_beta   74.86582611
_cell_angle_gamma   50.48107648
_symmetry_Int_Tables_number   1
_chemical_formula_structural   Tb5Mn2O11F
_chemical_formula_sum   'Tb5 Mn2 O11 F1'
_cell_volume   250.27971490
_cell_formula_units_Z   1
loop_
 _symmetry_equiv_pos_site_id
 _symmetry_equiv_pos_as_xyz
  1  'x, y, z'
loop_
 _atom_site_type_symbol
 _atom_site_label
 _atom_site_symmetry_multiplicity
 _atom_site_fract_x
 _atom_site_fract_y
 _atom_site_fract_z
 _atom_site_occupancy
  Tb  Tb0  1  0.709962  0.684926  0.649907  1
  Tb  Tb1  1  0.708162  0.681096  0.152970  1
  Tb  Tb2  1  0.964812  0.016293  0.003631  1
  Tb  Tb3  1  0.296567  0.325809  0.851898  1
  Tb  Tb4  1  0.308304  0.303812  0.341093  1
  Mn  Mn5  1  0.247578  0.756796  0.497357  1
  Mn  Mn6  1  0.757355  0.239364  0.502558  1
  O  O7  1  0.578780  0.094584  0.590059  1
  O  O8  1  0.904982  0.419945  0.418298  1
  O  O9  1  0.095660  0.602923  0.076737  1
  O  O10  1  0.999151  0.000438  0.320469  1
  O  O11  1  0.502254  0.501584  0.680506  1
  O  O12  1  0.902176  0.407011  0.923207  1
  O  O13  1  0.103148  0.577716  0.578341  1
  O  O14  1  0.425683  0.899651  0.416660  1
  O  O15  1  0.591908  0.092934  0.070514  1
  O  O16  1  0.504673  0.495060  0.319768  1
  O  O17  1  0.004991  0.998314  0.678873  1
  F  F18  1  0.393855  0.901742  0.927154  1
