# generated using pymatgen
data_Lu4TcMoOs6
_symmetry_space_group_name_H-M   'P 1'
_cell_length_a   5.27255758
_cell_length_b   5.41490824
_cell_length_c   8.82352300
_cell_angle_alpha   90.00000000
_cell_angle_beta   90.00000000
_cell_angle_gamma   121.74567679
_symmetry_Int_Tables_number   1
_chemical_formula_structural   Lu4TcMoOs6
_chemical_formula_sum   'Lu4 Tc1 Mo1 Os6'
_cell_volume   214.22669323
_cell_formula_units_Z   1
loop_
 _symmetry_equiv_pos_site_id
 _symmetry_equiv_pos_as_xyz
  1  'x, y, z'
loop_
 _atom_site_type_symbol
 _atom_site_label
 _atom_site_symmetry_multiplicity
 _atom_site_fract_x
 _atom_site_fract_y
 _atom_site_fract_z
 _atom_site_occupancy
  Lu  Lu0  1  0.340947  0.669244  0.436323  1
  Lu  Lu1  1  0.666908  0.336233  0.565214  1
  Lu  Lu2  1  0.666908  0.336233  0.934786  1
  Lu  Lu3  1  0.340947  0.669244  0.063677  1
  Tc  Tc4  1  0.165111  0.335612  0.750000  1
  Mo  Mo5  1  0.333941  0.163936  0.250000  1
  Os  Os6  1  0.168584  0.825981  0.750000  1
  Os  Os7  1  0.825189  0.649802  0.250000  1
  Os  Os8  1  0.643397  0.820765  0.750000  1
  Os  Os9  1  0.010706  0.011361  0.997888  1
  Os  Os10  1  0.826656  0.170229  0.250000  1
  Os  Os11  1  0.010706  0.011361  0.502112  1
