# generated using pymatgen
data_La7Ho13Pb16
_symmetry_space_group_name_H-M   'P 1'
_cell_length_a   8.30764063
_cell_length_b   8.38589801
_cell_length_c   15.85650200
_cell_angle_alpha   90.03986704
_cell_angle_beta   90.22773842
_cell_angle_gamma   89.77602709
_symmetry_Int_Tables_number   1
_chemical_formula_structural   La7Ho13Pb16
_chemical_formula_sum   'La7 Ho13 Pb16'
_cell_volume   1104.65793106
_cell_formula_units_Z   1
loop_
 _symmetry_equiv_pos_site_id
 _symmetry_equiv_pos_as_xyz
  1  'x, y, z'
loop_
 _atom_site_type_symbol
 _atom_site_label
 _atom_site_symmetry_multiplicity
 _atom_site_fract_x
 _atom_site_fract_y
 _atom_site_fract_z
 _atom_site_occupancy
  La  La0  1  0.974918  0.821256  0.900956  1
  La  La1  1  0.524229  0.321938  0.096683  1
  La  La2  1  0.026162  0.178256  0.403062  1
  La  La3  1  0.525703  0.323578  0.403765  1
  La  La4  1  0.024256  0.177890  0.096993  1
  La  La5  1  0.476689  0.677668  0.903387  1
  La  La6  1  0.974563  0.820942  0.597778  1
  Ho  Ho7  1  0.632965  0.157990  0.622422  1
  Ho  Ho8  1  0.134714  0.341579  0.876988  1
  Ho  Ho9  1  0.365898  0.841467  0.122880  1
  Ho  Ho10  1  0.869024  0.658570  0.379011  1
  Ho  Ho11  1  0.368777  0.841168  0.378727  1
  Ho  Ho12  1  0.866084  0.658759  0.122187  1
  Ho  Ho13  1  0.634074  0.157270  0.875524  1
  Ho  Ho14  1  0.132554  0.342817  0.621724  1
  Ho  Ho15  1  0.468585  0.676695  0.599979  1
  Ho  Ho16  1  0.798857  0.496003  0.748627  1
  Ho  Ho17  1  0.299880  0.005341  0.748633  1
  Ho  Ho18  1  0.201202  0.504928  0.250886  1
  Ho  Ho19  1  0.700735  0.993961  0.250203  1
  Pb  Pb20  1  0.705122  0.960149  0.456332  1
  Pb  Pb21  1  0.203375  0.541664  0.044020  1
  Pb  Pb22  1  0.296157  0.040204  0.955241  1
  Pb  Pb23  1  0.786844  0.466069  0.546097  1
  Pb  Pb24  1  0.296872  0.036394  0.544749  1
  Pb  Pb25  1  0.797022  0.457069  0.955367  1
  Pb  Pb26  1  0.703608  0.959050  0.043123  1
  Pb  Pb27  1  0.210209  0.543708  0.459295  1
  Pb  Pb28  1  0.437999  0.370822  0.749112  1
  Pb  Pb29  1  0.937628  0.130474  0.749202  1
  Pb  Pb30  1  0.562695  0.630475  0.250478  1
  Pb  Pb31  1  0.062950  0.869264  0.250625  1
  Pb  Pb32  1  0.658870  0.847606  0.746488  1
  Pb  Pb33  1  0.167574  0.647045  0.749164  1
  Pb  Pb34  1  0.337102  0.148432  0.250151  1
  Pb  Pb35  1  0.836101  0.353500  0.250137  1
