# generated using pymatgen
data_Sc12Re3Si12Rh
_symmetry_space_group_name_H-M   'P 1'
_cell_length_a   3.97372300
_cell_length_b   10.41755632
_cell_length_c   11.75640639
_cell_angle_alpha   89.85902513
_cell_angle_beta   90.00000000
_cell_angle_gamma   90.00000000
_symmetry_Int_Tables_number   1
_chemical_formula_structural   Sc12Re3Si12Rh
_chemical_formula_sum   'Sc12 Re3 Si12 Rh1'
_cell_volume   486.67240568
_cell_formula_units_Z   1
loop_
 _symmetry_equiv_pos_site_id
 _symmetry_equiv_pos_as_xyz
  1  'x, y, z'
loop_
 _atom_site_type_symbol
 _atom_site_label
 _atom_site_symmetry_multiplicity
 _atom_site_fract_x
 _atom_site_fract_y
 _atom_site_fract_z
 _atom_site_occupancy
  Sc  Sc0  1  0.250000  0.877387  0.016834  1
  Sc  Sc1  1  0.250000  0.624813  0.516060  1
  Sc  Sc2  1  0.750000  0.124879  0.981903  1
  Sc  Sc3  1  0.750000  0.376789  0.479391  1
  Sc  Sc4  1  0.250000  0.922163  0.608262  1
  Sc  Sc5  1  0.250000  0.577417  0.107309  1
  Sc  Sc6  1  0.750000  0.077765  0.393816  1
  Sc  Sc7  1  0.750000  0.423066  0.896483  1
  Sc  Sc8  1  0.250000  0.655201  0.798041  1
  Sc  Sc9  1  0.250000  0.839468  0.298055  1
  Sc  Sc10  1  0.750000  0.338654  0.202034  1
  Sc  Sc11  1  0.750000  0.161343  0.702016  1
  Re  Re12  1  0.250000  0.111886  0.176773  1
  Re  Re13  1  0.750000  0.610991  0.324429  1
  Re  Re14  1  0.750000  0.889858  0.822741  1
  Si  Si15  1  0.250000  0.020917  0.822141  1
  Si  Si16  1  0.250000  0.481257  0.322781  1
  Si  Si17  1  0.750000  0.981870  0.177019  1
  Si  Si18  1  0.750000  0.515387  0.675792  1
  Si  Si19  1  0.250000  0.254383  0.843173  1
  Si  Si20  1  0.250000  0.247858  0.345454  1
  Si  Si21  1  0.750000  0.747485  0.154922  1
  Si  Si22  1  0.750000  0.749012  0.656543  1
  Si  Si23  1  0.250000  0.193083  0.545075  1
  Si  Si24  1  0.250000  0.308156  0.044513  1
  Si  Si25  1  0.750000  0.807583  0.456331  1
  Si  Si26  1  0.750000  0.693275  0.955097  1
  Rh  Rh27  1  0.250000  0.388050  0.677015  1
