# generated using pymatgen
data_Dy5Ta3P12(Ir3Rh)4
_symmetry_space_group_name_H-M   'P 1'
_cell_length_a   12.77984858
_cell_length_b   12.77644924
_cell_length_c   3.97117500
_cell_angle_alpha   90.00000000
_cell_angle_beta   90.00000000
_cell_angle_gamma   120.04321216
_symmetry_Int_Tables_number   1
_chemical_formula_structural   Dy5Ta3P12(Ir3Rh)4
_chemical_formula_sum   'Dy5 Ta3 P12 Ir12 Rh4'
_cell_volume   561.30158425
_cell_formula_units_Z   1
loop_
 _symmetry_equiv_pos_site_id
 _symmetry_equiv_pos_as_xyz
  1  'x, y, z'
loop_
 _atom_site_type_symbol
 _atom_site_label
 _atom_site_symmetry_multiplicity
 _atom_site_fract_x
 _atom_site_fract_y
 _atom_site_fract_z
 _atom_site_occupancy
  Dy  Dy0  1  0.333384  0.666750  0.500000  1
  Dy  Dy1  1  0.666700  0.333199  0.500000  1
  Dy  Dy2  1  0.000232  0.813848  0.000000  1
  Dy  Dy3  1  0.186345  0.186157  0.000000  1
  Dy  Dy4  1  0.813865  0.000205  0.000000  1
  Ta  Ta5  1  0.000394  0.452393  0.500000  1
  Ta  Ta6  1  0.547682  0.548230  0.500000  1
  Ta  Ta7  1  0.451929  0.000049  0.500000  1
  P  P8  1  0.000145  0.642870  0.500000  1
  P  P9  1  0.357325  0.357431  0.500000  1
  P  P10  1  0.642764  0.999922  0.500000  1
  P  P11  1  0.516841  0.683614  0.000000  1
  P  P12  1  0.316332  0.833241  0.000000  1
  P  P13  1  0.167066  0.483228  0.000000  1
  P  P14  1  0.482736  0.167038  0.000000  1
  P  P15  1  0.684239  0.516814  0.000000  1
  P  P16  1  0.832673  0.315478  0.000000  1
  P  P17  1  0.999746  0.176304  0.500000  1
  P  P18  1  0.823845  0.823567  0.500000  1
  P  P19  1  0.176552  0.999926  0.500000  1
  Ir  Ir20  1  0.509316  0.864997  0.000000  1
  Ir  Ir21  1  0.134844  0.644203  0.000000  1
  Ir  Ir22  1  0.356031  0.490488  0.000000  1
  Ir  Ir23  1  0.491259  0.356519  0.000000  1
  Ir  Ir24  1  0.864262  0.507359  0.000000  1
  Ir  Ir25  1  0.643629  0.135583  0.000000  1
  Ir  Ir26  1  0.000201  0.283320  0.000000  1
  Ir  Ir27  1  0.716754  0.717078  0.000000  1
  Ir  Ir28  1  0.282801  0.999984  0.000000  1
  Ir  Ir29  1  0.803964  0.626337  0.500000  1
  Ir  Ir30  1  0.822426  0.195764  0.500000  1
  Ir  Ir31  1  0.000168  0.000146  0.500000  1
  Rh  Rh32  1  0.626762  0.804463  0.500000  1
  Rh  Rh33  1  0.195795  0.822457  0.500000  1
  Rh  Rh34  1  0.177467  0.373445  0.500000  1
  Rh  Rh35  1  0.373523  0.177592  0.500000  1
