# generated using pymatgen
data_Sc12Co4PtPb
_symmetry_space_group_name_H-M   'P 1'
_cell_length_a   7.74943189
_cell_length_b   7.74943148
_cell_length_c   7.74943080
_cell_angle_alpha   110.70421808
_cell_angle_beta   111.27456407
_cell_angle_gamma   106.47630420
_symmetry_Int_Tables_number   1
_chemical_formula_structural   Sc12Co4PtPb
_chemical_formula_sum   'Sc12 Co4 Pt1 Pb1'
_cell_volume   357.51252882
_cell_formula_units_Z   1
loop_
 _symmetry_equiv_pos_site_id
 _symmetry_equiv_pos_as_xyz
  1  'x, y, z'
loop_
 _atom_site_type_symbol
 _atom_site_label
 _atom_site_symmetry_multiplicity
 _atom_site_fract_x
 _atom_site_fract_y
 _atom_site_fract_z
 _atom_site_occupancy
  Sc  Sc0  1  0.431016  0.224602  0.206413  1
  Sc  Sc1  1  0.568984  0.775398  0.793587  1
  Sc  Sc2  1  0.018188  0.224602  0.793587  1
  Sc  Sc3  1  0.981812  0.775398  0.206413  1
  Sc  Sc4  1  0.312218  0.613705  0.301487  1
  Sc  Sc5  1  0.687782  0.386295  0.698513  1
  Sc  Sc6  1  0.312218  0.010730  0.698513  1
  Sc  Sc7  1  0.687782  0.989270  0.301487  1
  Sc  Sc8  1  0.185466  0.278460  0.463928  1
  Sc  Sc9  1  0.814534  0.721539  0.536072  1
  Sc  Sc10  1  0.185466  0.721539  0.907006  1
  Sc  Sc11  1  0.814534  0.278460  0.092994  1
  Co  Co12  1  0.367533  0.000000  0.367533  1
  Co  Co13  1  0.632467  0.000000  0.632467  1
  Co  Co14  1  0.117382  0.617382  0.500000  1
  Co  Co15  1  0.882618  0.382618  0.500000  1
  Pt  Pt16  1  0.000000  0.000000  0.000000  1
  Pb  Pb17  1  0.500000  0.500000  0.000000  1
