# generated using pymatgen
data_Tm4AlTc(B8Mo)2
_symmetry_space_group_name_H-M   'P 1'
_cell_length_a   3.58453400
_cell_length_b   5.96287330
_cell_length_c   11.50907629
_cell_angle_alpha   89.99479592
_cell_angle_beta   90.00000000
_cell_angle_gamma   90.00000000
_symmetry_Int_Tables_number   1
_chemical_formula_structural   Tm4AlTc(B8Mo)2
_chemical_formula_sum   'Tm4 Al1 Tc1 B16 Mo2'
_cell_volume   245.99640059
_cell_formula_units_Z   1
loop_
 _symmetry_equiv_pos_site_id
 _symmetry_equiv_pos_as_xyz
  1  'x, y, z'
loop_
 _atom_site_type_symbol
 _atom_site_label
 _atom_site_symmetry_multiplicity
 _atom_site_fract_x
 _atom_site_fract_y
 _atom_site_fract_z
 _atom_site_occupancy
  Tm  Tm0  1  0.500000  0.373911  0.148493  1
  Tm  Tm1  1  0.500000  0.629364  0.855641  1
  Tm  Tm2  1  0.500000  0.125070  0.649045  1
  Tm  Tm3  1  0.500000  0.871438  0.345305  1
  Al  Al4  1  0.500000  0.136267  0.914311  1
  Tc  Tc5  1  0.500000  0.871348  0.082999  1
  B  B6  1  0.000000  0.113914  0.049774  1
  B  B7  1  0.000000  0.881942  0.953242  1
  B  B8  1  0.000000  0.384485  0.548448  1
  B  B9  1  0.000000  0.615781  0.452406  1
  B  B10  1  0.000000  0.131384  0.467463  1
  B  B11  1  0.000000  0.867830  0.532188  1
  B  B12  1  0.000000  0.364222  0.968649  1
  B  B13  1  0.000000  0.634614  0.030524  1
  B  B14  1  0.000000  0.021767  0.191458  1
  B  B15  1  0.000000  0.978713  0.807597  1
  B  B16  1  0.000000  0.473147  0.696661  1
  B  B17  1  0.000000  0.524354  0.304500  1
  B  B18  1  0.000000  0.210368  0.311825  1
  B  B19  1  0.000000  0.792233  0.689255  1
  B  B20  1  0.000000  0.285190  0.815925  1
  B  B21  1  0.000000  0.714049  0.183390  1
  Mo  Mo22  1  0.500000  0.370166  0.414725  1
  Mo  Mo23  1  0.500000  0.628442  0.586175  1
