# generated using pymatgen
data_TbHo9(Sn3P)2
_symmetry_space_group_name_H-M   'P 1'
_cell_length_a   9.05147540
_cell_length_b   9.05147673
_cell_length_c   6.66250700
_cell_angle_alpha   90.00000000
_cell_angle_beta   90.00000000
_cell_angle_gamma   119.96608959
_symmetry_Int_Tables_number   1
_chemical_formula_structural   TbHo9(Sn3P)2
_chemical_formula_sum   'Tb1 Ho9 Sn6 P2'
_cell_volume   472.88487481
_cell_formula_units_Z   1
loop_
 _symmetry_equiv_pos_site_id
 _symmetry_equiv_pos_as_xyz
  1  'x, y, z'
loop_
 _atom_site_type_symbol
 _atom_site_label
 _atom_site_symmetry_multiplicity
 _atom_site_fract_x
 _atom_site_fract_y
 _atom_site_fract_z
 _atom_site_occupancy
  Tb  Tb0  1  0.757415  0.757415  0.750000  1
  Ho  Ho1  1  0.666630  0.333211  0.000054  1
  Ho  Ho2  1  0.333211  0.666630  0.000054  1
  Ho  Ho3  1  0.333211  0.666630  0.499946  1
  Ho  Ho4  1  0.666630  0.333211  0.499946  1
  Ho  Ho5  1  0.241644  0.000088  0.750000  1
  Ho  Ho6  1  0.000088  0.241644  0.750000  1
  Ho  Ho7  1  0.241621  0.241621  0.250000  1
  Ho  Ho8  1  0.758452  0.000061  0.250000  1
  Ho  Ho9  1  0.000061  0.758452  0.250000  1
  Sn  Sn10  1  0.397290  0.397290  0.750000  1
  Sn  Sn11  1  0.602146  0.000389  0.750000  1
  Sn  Sn12  1  0.000389  0.602146  0.750000  1
  Sn  Sn13  1  0.602397  0.602397  0.250000  1
  Sn  Sn14  1  0.397653  0.999987  0.250000  1
  Sn  Sn15  1  0.999987  0.397653  0.250000  1
  P  P16  1  0.000587  0.000587  0.000522  1
  P  P17  1  0.000587  0.000587  0.499478  1
