# generated using pymatgen
data_Th10GaCuSn6
_symmetry_space_group_name_H-M   'P 1'
_cell_length_a   9.59217000
_cell_length_b   9.59217095
_cell_length_c   6.54513100
_cell_angle_alpha   90.00000000
_cell_angle_beta   90.00000000
_cell_angle_gamma   119.99999671
_symmetry_Int_Tables_number   1
_chemical_formula_structural   Th10GaCuSn6
_chemical_formula_sum   'Th10 Ga1 Cu1 Sn6'
_cell_volume   521.53416867
_cell_formula_units_Z   1
loop_
 _symmetry_equiv_pos_site_id
 _symmetry_equiv_pos_as_xyz
  1  'x, y, z'
loop_
 _atom_site_type_symbol
 _atom_site_label
 _atom_site_symmetry_multiplicity
 _atom_site_fract_x
 _atom_site_fract_y
 _atom_site_fract_z
 _atom_site_occupancy
  Th  Th0  1  0.666667  0.333333  0.500000  1
  Th  Th1  1  0.333333  0.666667  0.500000  1
  Th  Th2  1  0.333333  0.666667  0.000000  1
  Th  Th3  1  0.666667  0.333333  0.000000  1
  Th  Th4  1  0.736065  0.736065  0.249156  1
  Th  Th5  1  0.263935  0.000000  0.249156  1
  Th  Th6  1  0.000000  0.263935  0.249156  1
  Th  Th7  1  0.263935  0.263935  0.750844  1
  Th  Th8  1  0.736065  0.000000  0.750844  1
  Th  Th9  1  0.000000  0.736065  0.750844  1
  Ga  Ga10  1  0.000000  0.000000  0.500000  1
  Cu  Cu11  1  0.000000  0.000000  0.000000  1
  Sn  Sn12  1  0.382977  0.382977  0.249899  1
  Sn  Sn13  1  0.617023  0.000000  0.249899  1
  Sn  Sn14  1  0.000000  0.617023  0.249899  1
  Sn  Sn15  1  0.617023  0.617023  0.750101  1
  Sn  Sn16  1  0.382977  0.000000  0.750101  1
  Sn  Sn17  1  0.000000  0.382977  0.750101  1
