# generated using pymatgen
data_Nd8Si12PdPt3
_symmetry_space_group_name_H-M   'P 1'
_cell_length_a   8.24808900
_cell_length_b   8.24808909
_cell_length_c   8.57389300
_cell_angle_alpha   90.00000000
_cell_angle_beta   90.00000000
_cell_angle_gamma   119.99999563
_symmetry_Int_Tables_number   1
_chemical_formula_structural   Nd8Si12PdPt3
_chemical_formula_sum   'Nd8 Si12 Pd1 Pt3'
_cell_volume   505.14422454
_cell_formula_units_Z   1
loop_
 _symmetry_equiv_pos_site_id
 _symmetry_equiv_pos_as_xyz
  1  'x, y, z'
loop_
 _atom_site_type_symbol
 _atom_site_label
 _atom_site_symmetry_multiplicity
 _atom_site_fract_x
 _atom_site_fract_y
 _atom_site_fract_z
 _atom_site_occupancy
  Nd  Nd0  1  0.499540  0.500460  0.750074  1
  Nd  Nd1  1  0.500050  0.499950  0.249936  1
  Nd  Nd2  1  0.000920  0.500460  0.750074  1
  Nd  Nd3  1  0.999900  0.499950  0.249936  1
  Nd  Nd4  1  0.499540  0.999080  0.750074  1
  Nd  Nd5  1  0.500050  0.000100  0.249936  1
  Nd  Nd6  1  0.000000  0.000000  0.749699  1
  Nd  Nd7  1  0.000000  0.000000  0.250284  1
  Si  Si8  1  0.834305  0.165695  0.000010  1
  Si  Si9  1  0.165982  0.834018  0.999822  1
  Si  Si10  1  0.331392  0.165695  0.000010  1
  Si  Si11  1  0.165488  0.834512  0.499992  1
  Si  Si12  1  0.668035  0.834018  0.999822  1
  Si  Si13  1  0.834514  0.165486  0.500165  1
  Si  Si14  1  0.834305  0.668608  0.000010  1
  Si  Si15  1  0.669022  0.834512  0.499992  1
  Si  Si16  1  0.165982  0.331965  0.999822  1
  Si  Si17  1  0.330972  0.165486  0.500165  1
  Si  Si18  1  0.165488  0.330978  0.499992  1
  Si  Si19  1  0.834514  0.669028  0.500165  1
  Pd  Pd20  1  0.666667  0.333333  0.499815  1
  Pt  Pt21  1  0.666667  0.333333  0.999485  1
  Pt  Pt22  1  0.333333  0.666667  0.001245  1
  Pt  Pt23  1  0.333333  0.666667  0.499474  1
