# generated using pymatgen
data_DyEr2PaZn4PtRh3
_symmetry_space_group_name_H-M   'P 1'
_cell_length_a   3.84474700
_cell_length_b   7.16116866
_cell_length_c   8.31972785
_cell_angle_alpha   90.83957939
_cell_angle_beta   90.00000000
_cell_angle_gamma   90.00000000
_symmetry_Int_Tables_number   1
_chemical_formula_structural   DyEr2PaZn4PtRh3
_chemical_formula_sum   'Dy1 Er2 Pa1 Zn4 Pt1 Rh3'
_cell_volume   229.04149054
_cell_formula_units_Z   1
loop_
 _symmetry_equiv_pos_site_id
 _symmetry_equiv_pos_as_xyz
  1  'x, y, z'
loop_
 _atom_site_type_symbol
 _atom_site_label
 _atom_site_symmetry_multiplicity
 _atom_site_fract_x
 _atom_site_fract_y
 _atom_site_fract_z
 _atom_site_occupancy
  Dy  Dy0  1  0.750000  0.933204  0.689558  1
  Er  Er1  1  0.750000  0.441859  0.809399  1
  Er  Er2  1  0.250000  0.056489  0.314791  1
  Pa  Pa3  1  0.250000  0.557867  0.178675  1
  Zn  Zn4  1  0.250000  0.125954  0.937470  1
  Zn  Zn5  1  0.750000  0.895277  0.063224  1
  Zn  Zn6  1  0.250000  0.621174  0.564279  1
  Zn  Zn7  1  0.750000  0.374025  0.438498  1
  Pt  Pt8  1  0.250000  0.233435  0.625307  1
  Rh  Rh9  1  0.750000  0.744548  0.359513  1
  Rh  Rh10  1  0.750000  0.282006  0.127691  1
  Rh  Rh11  1  0.250000  0.734160  0.891595  1
