# generated using pymatgen
data_SbSeF34
_symmetry_space_group_name_H-M   'P 1'
_cell_length_a   8.82929789
_cell_length_b   8.36070179
_cell_length_c   10.12349041
_cell_angle_alpha   82.65637825
_cell_angle_beta   87.89020026
_cell_angle_gamma   67.16706624
_symmetry_Int_Tables_number   1
_chemical_formula_structural   SbSeF34
_chemical_formula_sum   'Sb1 Se1 F34'
_cell_volume   683.03207741
_cell_formula_units_Z   1
loop_
 _symmetry_equiv_pos_site_id
 _symmetry_equiv_pos_as_xyz
  1  'x, y, z'
loop_
 _atom_site_type_symbol
 _atom_site_label
 _atom_site_symmetry_multiplicity
 _atom_site_fract_x
 _atom_site_fract_y
 _atom_site_fract_z
 _atom_site_occupancy
  Sb  Sb0  1  0.139883  0.749414  0.236367  1
  Se  Se1  1  0.862749  0.249612  0.762566  1
  F  F2  1  0.608508  0.198449  0.486378  1
  F  F3  1  0.401057  0.788135  0.506875  1
  F  F4  1  0.825420  0.711322  0.718334  1
  F  F5  1  0.166005  0.318250  0.299570  1
  F  F6  1  0.089581  0.754198  0.864642  1
  F  F7  1  0.921309  0.218983  0.148111  1
  F  F8  1  0.552730  0.148175  0.374075  1
  F  F9  1  0.440347  0.853469  0.619370  1
  F  F10  1  0.660965  0.318327  0.705283  1
  F  F11  1  0.360419  0.675967  0.302577  1
  F  F12  1  0.923147  0.077623  0.667017  1
  F  F13  1  0.064113  0.927722  0.356011  1
  F  F14  1  0.902164  0.379808  0.628973  1
  F  F15  1  0.091790  0.609672  0.388857  1
  F  F16  1  0.863142  0.798591  0.599935  1
  F  F17  1  0.145276  0.177207  0.381673  1
  F  F18  1  0.802840  0.423064  0.857269  1
  F  F19  1  0.206601  0.548998  0.141490  1
  F  F20  1  0.213276  0.689867  0.768906  1
  F  F21  1  0.783040  0.319101  0.220281  1
  F  F22  1  0.922063  0.822542  0.166984  1
  F  F23  1  0.062901  0.182407  0.821056  1
  F  F24  1  0.821255  0.119086  0.894577  1
  F  F25  1  0.184604  0.902004  0.097463  1
  F  F26  1  0.484725  0.593320  0.981418  1
  F  F27  1  0.518375  0.412215  0.014356  1
  F  F28  1  0.453640  0.089606  0.868890  1
  F  F29  1  0.533475  0.926756  0.136678  1
  F  F30  1  0.288015  0.239205  0.609047  1
  F  F31  1  0.707785  0.760026  0.383887  1
  F  F32  1  0.258286  0.390139  0.673287  1
  F  F33  1  0.747186  0.603620  0.325343  1
  F  F34  1  0.554567  0.919478  0.837636  1
  F  F35  1  0.438759  0.103643  0.154820  1
