# generated using pymatgen
data_DyNp(TaS2)6
_symmetry_space_group_name_H-M   'P 1'
_cell_length_a   5.79959600
_cell_length_b   5.79959473
_cell_length_c   13.89447400
_cell_angle_alpha   90.00000000
_cell_angle_beta   90.00000000
_cell_angle_gamma   120.00000725
_symmetry_Int_Tables_number   1
_chemical_formula_structural   DyNp(TaS2)6
_chemical_formula_sum   'Dy1 Np1 Ta6 S12'
_cell_volume   404.73251762
_cell_formula_units_Z   1
loop_
 _symmetry_equiv_pos_site_id
 _symmetry_equiv_pos_as_xyz
  1  'x, y, z'
loop_
 _atom_site_type_symbol
 _atom_site_label
 _atom_site_symmetry_multiplicity
 _atom_site_fract_x
 _atom_site_fract_y
 _atom_site_fract_z
 _atom_site_occupancy
  Dy  Dy0  1  0.000000  0.000000  0.500000  1
  Np  Np1  1  0.000000  0.000000  0.000000  1
  Ta  Ta2  1  0.333333  0.666667  0.252633  1
  Ta  Ta3  1  0.666667  0.333333  0.747367  1
  Ta  Ta4  1  0.666667  0.333333  0.252633  1
  Ta  Ta5  1  0.333333  0.666667  0.747367  1
  Ta  Ta6  1  0.000000  0.000000  0.251409  1
  Ta  Ta7  1  0.000000  0.000000  0.748591  1
  S  S8  1  0.340068  0.000000  0.138767  1
  S  S9  1  0.000000  0.340068  0.138767  1
  S  S10  1  0.659932  0.659932  0.138767  1
  S  S11  1  0.337065  0.337065  0.634396  1
  S  S12  1  0.662935  0.662935  0.365604  1
  S  S13  1  0.662935  0.000000  0.634396  1
  S  S14  1  0.000000  0.662935  0.634396  1
  S  S15  1  0.000000  0.659932  0.861233  1
  S  S16  1  0.340068  0.340068  0.861233  1
  S  S17  1  0.000000  0.337065  0.365604  1
  S  S18  1  0.337065  0.000000  0.365604  1
  S  S19  1  0.659932  0.000000  0.861233  1
