# generated using pymatgen
data_Ce2SmCr(Co4P3)2
_symmetry_space_group_name_H-M   'P 1'
_cell_length_a   3.74477100
_cell_length_b   10.53773200
_cell_length_c   12.37580600
_cell_angle_alpha   90.00000000
_cell_angle_beta   90.00000000
_cell_angle_gamma   90.00000000
_symmetry_Int_Tables_number   1
_chemical_formula_structural   Ce2SmCr(Co4P3)2
_chemical_formula_sum   'Ce4 Sm2 Cr2 Co16 P12'
_cell_volume   488.36654673
_cell_formula_units_Z   2
loop_
 _symmetry_equiv_pos_site_id
 _symmetry_equiv_pos_as_xyz
  1  'x, y, z'
loop_
 _atom_site_type_symbol
 _atom_site_label
 _atom_site_symmetry_multiplicity
 _atom_site_fract_x
 _atom_site_fract_y
 _atom_site_fract_z
 _atom_site_occupancy
  Ce  Ce0  1  0.500000  0.819808  0.207702  1
  Ce  Ce1  1  0.500000  0.180192  0.207702  1
  Ce  Ce2  1  0.000000  0.680192  0.792298  1
  Ce  Ce3  1  0.000000  0.319808  0.792298  1
  Sm  Sm4  1  0.000000  0.500000  0.519132  1
  Sm  Sm5  1  0.500000  0.000000  0.480868  1
  Cr  Cr6  1  0.500000  0.500000  0.154843  1
  Cr  Cr7  1  0.000000  0.000000  0.845157  1
  Co  Co8  1  0.500000  0.500000  0.708309  1
  Co  Co9  1  0.000000  0.000000  0.291691  1
  Co  Co10  1  0.000000  0.500000  0.987436  1
  Co  Co11  1  0.500000  0.000000  0.012564  1
  Co  Co12  1  0.500000  0.332348  0.993949  1
  Co  Co13  1  0.500000  0.667652  0.993949  1
  Co  Co14  1  0.000000  0.167652  0.006051  1
  Co  Co15  1  0.000000  0.832348  0.006051  1
  Co  Co16  1  0.500000  0.297248  0.428696  1
  Co  Co17  1  0.500000  0.702752  0.428696  1
  Co  Co18  1  0.000000  0.202752  0.571304  1
  Co  Co19  1  0.000000  0.797248  0.571304  1
  Co  Co20  1  0.500000  0.879720  0.712490  1
  Co  Co21  1  0.500000  0.120280  0.712490  1
  Co  Co22  1  0.000000  0.620280  0.287510  1
  Co  Co23  1  0.000000  0.379720  0.287510  1
  P  P24  1  0.500000  0.500000  0.887916  1
  P  P25  1  0.000000  0.000000  0.112084  1
  P  P26  1  0.500000  0.500000  0.341962  1
  P  P27  1  0.000000  0.000000  0.658038  1
  P  P28  1  0.500000  0.308997  0.613100  1
  P  P29  1  0.500000  0.691003  0.613100  1
  P  P30  1  0.000000  0.191003  0.386900  1
  P  P31  1  0.000000  0.808997  0.386900  1
  P  P32  1  0.500000  0.847682  0.894033  1
  P  P33  1  0.500000  0.152318  0.894033  1
  P  P34  1  0.000000  0.652318  0.105967  1
  P  P35  1  0.000000  0.347682  0.105967  1
