# generated using pymatgen
data_PrMnHgPt3
_symmetry_space_group_name_H-M   'P 1'
_cell_length_a   5.55023431
_cell_length_b   5.34240654
_cell_length_c   5.55023600
_cell_angle_alpha   58.70458497
_cell_angle_beta   60.00000185
_cell_angle_gamma   58.70458070
_symmetry_Int_Tables_number   1
_chemical_formula_structural   PrMnHgPt3
_chemical_formula_sum   'Pr1 Mn1 Hg1 Pt3'
_cell_volume   114.04010973
_cell_formula_units_Z   1
loop_
 _symmetry_equiv_pos_site_id
 _symmetry_equiv_pos_as_xyz
  1  'x, y, z'
loop_
 _atom_site_type_symbol
 _atom_site_label
 _atom_site_symmetry_multiplicity
 _atom_site_fract_x
 _atom_site_fract_y
 _atom_site_fract_z
 _atom_site_occupancy
  Pr  Pr0  1  0.503299  0.490104  0.503299  1
  Mn  Mn1  1  0.123460  0.629619  0.123460  1
  Hg  Hg2  1  0.751641  0.745077  0.751641  1
  Pt  Pt3  1  0.122929  0.128400  0.625741  1
  Pt  Pt4  1  0.625741  0.128400  0.122929  1
  Pt  Pt5  1  0.122929  0.128400  0.122929  1
