# generated using pymatgen
data_Pa8V3Si16Mo9
_symmetry_space_group_name_H-M   'P 1'
_cell_length_a   6.88691254
_cell_length_b   6.88691199
_cell_length_c   12.80523900
_cell_angle_alpha   89.96169694
_cell_angle_beta   90.03830305
_cell_angle_gamma   89.75408335
_symmetry_Int_Tables_number   1
_chemical_formula_structural   Pa8V3Si16Mo9
_chemical_formula_sum   'Pa8 V3 Si16 Mo9'
_cell_volume   607.34099127
_cell_formula_units_Z   1
loop_
 _symmetry_equiv_pos_site_id
 _symmetry_equiv_pos_as_xyz
  1  'x, y, z'
loop_
 _atom_site_type_symbol
 _atom_site_label
 _atom_site_symmetry_multiplicity
 _atom_site_fract_x
 _atom_site_fract_y
 _atom_site_fract_z
 _atom_site_occupancy
  Pa  Pa0  1  0.334904  0.999712  0.471931  1
  Pa  Pa1  1  0.500278  0.834229  0.721421  1
  Pa  Pa2  1  0.499068  0.165489  0.220957  1
  Pa  Pa3  1  0.834229  0.500278  0.278579  1
  Pa  Pa4  1  0.165489  0.499068  0.779043  1
  Pa  Pa5  1  0.663745  0.000739  0.972161  1
  Pa  Pa6  1  0.999712  0.334904  0.528069  1
  Pa  Pa7  1  0.000739  0.663745  0.027839  1
  V  V8  1  0.167013  0.831475  0.250620  1
  V  V9  1  0.831475  0.167013  0.749380  1
  V  V10  1  0.667883  0.667883  0.500000  1
  Si  Si11  1  0.196460  0.121020  0.683953  1
  Si  Si12  1  0.382916  0.696661  0.934147  1
  Si  Si13  1  0.620132  0.303968  0.434599  1
  Si  Si14  1  0.696661  0.382916  0.065853  1
  Si  Si15  1  0.303968  0.620132  0.565401  1
  Si  Si16  1  0.804209  0.879062  0.184504  1
  Si  Si17  1  0.121020  0.196460  0.316047  1
  Si  Si18  1  0.879062  0.804209  0.815496  1
  Si  Si19  1  0.277111  0.969886  0.066073  1
  Si  Si20  1  0.529194  0.783017  0.316907  1
  Si  Si21  1  0.472578  0.217472  0.815568  1
  Si  Si22  1  0.783017  0.529194  0.683093  1
  Si  Si23  1  0.217472  0.472578  0.184432  1
  Si  Si24  1  0.718573  0.028676  0.566126  1
  Si  Si25  1  0.969886  0.277111  0.933927  1
  Si  Si26  1  0.028676  0.718573  0.433874  1
  Mo  Mo27  1  0.331841  0.331841  0.000000  1
  Mo  Mo28  1  0.175488  0.986436  0.869844  1
  Mo  Mo29  1  0.509212  0.679375  0.123281  1
  Mo  Mo30  1  0.491547  0.324699  0.622473  1
  Mo  Mo31  1  0.679375  0.509212  0.876719  1
  Mo  Mo32  1  0.324699  0.491547  0.377527  1
  Mo  Mo33  1  0.826047  0.009888  0.371986  1
  Mo  Mo34  1  0.986436  0.175488  0.130156  1
  Mo  Mo35  1  0.009888  0.826047  0.628014  1
