# generated using pymatgen
data_RbBa9(IrO6)4
_symmetry_space_group_name_H-M   'P 1'
_cell_length_a   8.28581934
_cell_length_b   8.28301762
_cell_length_c   11.13983000
_cell_angle_alpha   111.81351260
_cell_angle_beta   111.82139986
_cell_angle_gamma   90.01900253
_symmetry_Int_Tables_number   1
_chemical_formula_structural   RbBa9(IrO6)4
_chemical_formula_sum   'Rb1 Ba9 Ir4 O24'
_cell_volume   650.38396625
_cell_formula_units_Z   1
loop_
 _symmetry_equiv_pos_site_id
 _symmetry_equiv_pos_as_xyz
  1  'x, y, z'
loop_
 _atom_site_type_symbol
 _atom_site_label
 _atom_site_symmetry_multiplicity
 _atom_site_fract_x
 _atom_site_fract_y
 _atom_site_fract_z
 _atom_site_occupancy
  Rb  Rb0  1  0.499900  0.499894  0.999796  1
  Ba  Ba1  1  0.999970  0.999979  0.999941  1
  Ba  Ba2  1  0.452088  0.329669  0.286597  1
  Ba  Ba3  1  0.957196  0.452247  0.286763  1
  Ba  Ba4  1  0.329594  0.834524  0.286770  1
  Ba  Ba5  1  0.834552  0.956961  0.286643  1
  Ba  Ba6  1  0.165800  0.043289  0.713442  1
  Ba  Ba7  1  0.670234  0.165815  0.713412  1
  Ba  Ba8  1  0.043144  0.547585  0.713405  1
  Ba  Ba9  1  0.547645  0.670164  0.713481  1
  Ir  Ir10  1  0.500019  0.000016  0.000040  1
  Ir  Ir11  1  0.999999  0.500001  0.000004  1
  Ir  Ir12  1  0.240414  0.240399  0.480757  1
  Ir  Ir13  1  0.759591  0.759585  0.519217  1
  O  O14  1  0.308322  0.128728  0.000014  1
  O  O15  1  0.871292  0.308319  0.000039  1
  O  O16  1  0.128720  0.691699  0.999991  1
  O  O17  1  0.691705  0.871302  0.000041  1
  O  O18  1  0.664617  0.204082  0.146660  1
  O  O19  1  0.204074  0.482142  0.146844  1
  O  O20  1  0.942713  0.664718  0.146803  1
  O  O21  1  0.482104  0.942673  0.146757  1
  O  O22  1  0.135025  0.135055  0.270044  1
  O  O23  1  0.657587  0.657627  0.315298  1
  O  O24  1  0.461111  0.184044  0.471594  1
  O  O25  1  0.010558  0.287591  0.471645  1
  O  O26  1  0.287681  0.461247  0.471588  1
  O  O27  1  0.183960  0.010401  0.471605  1
  O  O28  1  0.815881  0.989413  0.528343  1
  O  O29  1  0.712431  0.538888  0.528356  1
  O  O30  1  0.989242  0.712480  0.528340  1
  O  O31  1  0.539073  0.815877  0.528387  1
  O  O32  1  0.342433  0.342389  0.684728  1
  O  O33  1  0.865005  0.864977  0.730015  1
  O  O34  1  0.517824  0.057257  0.853165  1
  O  O35  1  0.057208  0.335266  0.853127  1
  O  O36  1  0.795924  0.517794  0.853087  1
  O  O37  1  0.335367  0.795907  0.853267  1
