# generated using pymatgen
data_Y3Tm17Cd6OsRu
_symmetry_space_group_name_H-M   'P 1'
_cell_length_a   9.48109100
_cell_length_b   9.48109154
_cell_length_c   9.75472300
_cell_angle_alpha   90.00000000
_cell_angle_beta   90.00000000
_cell_angle_gamma   120.00000159
_symmetry_Int_Tables_number   1
_chemical_formula_structural   Y3Tm17Cd6OsRu
_chemical_formula_sum   'Y3 Tm17 Cd6 Os1 Ru1'
_cell_volume   759.38536137
_cell_formula_units_Z   1
loop_
 _symmetry_equiv_pos_site_id
 _symmetry_equiv_pos_as_xyz
  1  'x, y, z'
loop_
 _atom_site_type_symbol
 _atom_site_label
 _atom_site_symmetry_multiplicity
 _atom_site_fract_x
 _atom_site_fract_y
 _atom_site_fract_z
 _atom_site_occupancy
  Y  Y0  1  0.539133  0.460867  0.250000  1
  Y  Y1  1  0.539133  0.078267  0.250000  1
  Y  Y2  1  0.921733  0.460867  0.250000  1
  Tm  Tm3  1  0.000000  0.000000  0.499760  1
  Tm  Tm4  1  0.000000  0.000000  0.000240  1
  Tm  Tm5  1  0.210294  0.789706  0.442090  1
  Tm  Tm6  1  0.210294  0.420589  0.442090  1
  Tm  Tm7  1  0.579411  0.789706  0.442090  1
  Tm  Tm8  1  0.789979  0.210021  0.560241  1
  Tm  Tm9  1  0.789979  0.579956  0.560241  1
  Tm  Tm10  1  0.420044  0.210021  0.560241  1
  Tm  Tm11  1  0.789979  0.210021  0.939759  1
  Tm  Tm12  1  0.789979  0.579956  0.939759  1
  Tm  Tm13  1  0.420044  0.210021  0.939759  1
  Tm  Tm14  1  0.210294  0.789706  0.057910  1
  Tm  Tm15  1  0.210294  0.420589  0.057910  1
  Tm  Tm16  1  0.579411  0.789706  0.057910  1
  Tm  Tm17  1  0.459172  0.540828  0.750000  1
  Tm  Tm18  1  0.459172  0.918343  0.750000  1
  Tm  Tm19  1  0.081657  0.540828  0.750000  1
  Cd  Cd20  1  0.886679  0.113321  0.250000  1
  Cd  Cd21  1  0.886679  0.773359  0.250000  1
  Cd  Cd22  1  0.226641  0.113321  0.250000  1
  Cd  Cd23  1  0.114458  0.885542  0.750000  1
  Cd  Cd24  1  0.114458  0.228915  0.750000  1
  Cd  Cd25  1  0.771085  0.885542  0.750000  1
  Os  Os26  1  0.333333  0.666667  0.250000  1
  Ru  Ru27  1  0.666667  0.333333  0.750000  1
