# generated using pymatgen
data_Tb2Y2Ga12Re
_symmetry_space_group_name_H-M   'P 1'
_cell_length_a   7.50290775
_cell_length_b   7.50290705
_cell_length_c   7.50892139
_cell_angle_alpha   109.46896935
_cell_angle_beta   109.46896406
_cell_angle_gamma   109.44326020
_symmetry_Int_Tables_number   1
_chemical_formula_structural   Tb2Y2Ga12Re
_chemical_formula_sum   'Tb2 Y2 Ga12 Re1'
_cell_volume   325.52827653
_cell_formula_units_Z   1
loop_
 _symmetry_equiv_pos_site_id
 _symmetry_equiv_pos_as_xyz
  1  'x, y, z'
loop_
 _atom_site_type_symbol
 _atom_site_label
 _atom_site_symmetry_multiplicity
 _atom_site_fract_x
 _atom_site_fract_y
 _atom_site_fract_z
 _atom_site_occupancy
  Tb  Tb0  1  0.000000  0.500000  0.000000  1
  Tb  Tb1  1  0.500000  0.000000  0.000000  1
  Y  Y2  1  0.000000  0.000000  0.500000  1
  Y  Y3  1  0.500000  0.500000  0.500000  1
  Ga  Ga4  1  0.750000  0.250000  0.500000  1
  Ga  Ga5  1  0.749996  0.500001  0.249996  1
  Ga  Ga6  1  0.499999  0.250004  0.750004  1
  Ga  Ga7  1  0.250004  0.499999  0.750004  1
  Ga  Ga8  1  0.250000  0.750000  0.500000  1
  Ga  Ga9  1  0.500001  0.749996  0.249996  1
  Ga  Ga10  1  0.708587  0.708587  0.000000  1
  Ga  Ga11  1  0.291402  0.999978  0.291380  1
  Ga  Ga12  1  0.999978  0.291402  0.291380  1
  Ga  Ga13  1  0.291413  0.291413  0.000000  1
  Ga  Ga14  1  0.708598  0.000022  0.708620  1
  Ga  Ga15  1  0.000022  0.708598  0.708620  1
  Re  Re16  1  0.000000  0.000000  0.000000  1
