# generated using pymatgen
data_Y13Tm3MgHg3Ir4
_symmetry_space_group_name_H-M   'P 1'
_cell_length_a   9.62729397
_cell_length_b   9.62868048
_cell_length_c   9.62868100
_cell_angle_alpha   60.00000163
_cell_angle_beta   59.99523745
_cell_angle_gamma   59.99522965
_symmetry_Int_Tables_number   1
_chemical_formula_structural   Y13Tm3MgHg3Ir4
_chemical_formula_sum   'Y13 Tm3 Mg1 Hg3 Ir4'
_cell_volume   631.09032501
_cell_formula_units_Z   1
loop_
 _symmetry_equiv_pos_site_id
 _symmetry_equiv_pos_as_xyz
  1  'x, y, z'
loop_
 _atom_site_type_symbol
 _atom_site_label
 _atom_site_symmetry_multiplicity
 _atom_site_fract_x
 _atom_site_fract_y
 _atom_site_fract_z
 _atom_site_occupancy
  Y  Y0  1  0.192411  0.602529  0.602529  1
  Y  Y1  1  0.058751  0.440828  0.440828  1
  Y  Y2  1  0.437853  0.061569  0.061569  1
  Y  Y3  1  0.437853  0.061569  0.439009  1
  Y  Y4  1  0.058751  0.440828  0.059592  1
  Y  Y5  1  0.437853  0.439009  0.061569  1
  Y  Y6  1  0.058751  0.059592  0.440828  1
  Y  Y7  1  0.186503  0.812622  0.812622  1
  Y  Y8  1  0.810957  0.188145  0.188145  1
  Y  Y9  1  0.810957  0.188145  0.812754  1
  Y  Y10  1  0.186503  0.812622  0.188255  1
  Y  Y11  1  0.810957  0.812754  0.188145  1
  Y  Y12  1  0.186503  0.188255  0.812622  1
  Tm  Tm13  1  0.599180  0.597551  0.597551  1
  Tm  Tm14  1  0.599180  0.597551  0.205717  1
  Tm  Tm15  1  0.599180  0.205717  0.597551  1
  Mg  Mg16  1  0.537073  0.820976  0.820976  1
  Hg  Hg17  1  0.830755  0.836226  0.836226  1
  Hg  Hg18  1  0.830755  0.836226  0.496794  1
  Hg  Hg19  1  0.830755  0.496794  0.836226  1
  Ir  Ir20  1  0.392887  0.393216  0.393216  1
  Ir  Ir21  1  0.392887  0.393216  0.820680  1
  Ir  Ir22  1  0.392887  0.820680  0.393216  1
  Ir  Ir23  1  0.819860  0.393380  0.393380  1
