# generated using pymatgen
data_Yb20(InAu3)3
_symmetry_space_group_name_H-M   'P 1'
_cell_length_a   7.98023000
_cell_length_b   7.98023000
_cell_length_c   14.05850100
_cell_angle_alpha   90.00000000
_cell_angle_beta   90.00000000
_cell_angle_gamma   90.00000000
_symmetry_Int_Tables_number   1
_chemical_formula_structural   Yb20(InAu3)3
_chemical_formula_sum   'Yb20 In3 Au9'
_cell_volume   895.30257377
_cell_formula_units_Z   1
loop_
 _symmetry_equiv_pos_site_id
 _symmetry_equiv_pos_as_xyz
  1  'x, y, z'
loop_
 _atom_site_type_symbol
 _atom_site_label
 _atom_site_symmetry_multiplicity
 _atom_site_fract_x
 _atom_site_fract_y
 _atom_site_fract_z
 _atom_site_occupancy
  Yb  Yb0  1  0.000000  0.000000  0.753897  1
  Yb  Yb1  1  0.500000  0.500000  0.249629  1
  Yb  Yb2  1  0.000000  0.000000  0.246103  1
  Yb  Yb3  1  0.500000  0.500000  0.750371  1
  Yb  Yb4  1  0.172358  0.657610  0.107754  1
  Yb  Yb5  1  0.664222  0.165401  0.611929  1
  Yb  Yb6  1  0.827642  0.342390  0.107754  1
  Yb  Yb7  1  0.335778  0.834599  0.611929  1
  Yb  Yb8  1  0.342390  0.172358  0.107754  1
  Yb  Yb9  1  0.834599  0.664222  0.611929  1
  Yb  Yb10  1  0.657610  0.827642  0.107754  1
  Yb  Yb11  1  0.165401  0.335778  0.611929  1
  Yb  Yb12  1  0.342390  0.827642  0.892246  1
  Yb  Yb13  1  0.834599  0.335778  0.388071  1
  Yb  Yb14  1  0.657610  0.172358  0.892246  1
  Yb  Yb15  1  0.165401  0.664222  0.388071  1
  Yb  Yb16  1  0.172358  0.342390  0.892246  1
  Yb  Yb17  1  0.664222  0.834599  0.388071  1
  Yb  Yb18  1  0.827642  0.657610  0.892246  1
  Yb  Yb19  1  0.335778  0.165401  0.388071  1
  In  In20  1  0.000000  0.000000  0.500000  1
  In  In21  1  0.000000  0.000000  0.000000  1
  In  In22  1  0.500000  0.500000  0.500000  1
  Au  Au23  1  0.634291  0.134418  0.248375  1
  Au  Au24  1  0.134418  0.634291  0.751625  1
  Au  Au25  1  0.865582  0.365709  0.751625  1
  Au  Au26  1  0.365709  0.865582  0.248375  1
  Au  Au27  1  0.365709  0.134418  0.751625  1
  Au  Au28  1  0.865582  0.634291  0.248375  1
  Au  Au29  1  0.134418  0.365709  0.248375  1
  Au  Au30  1  0.634291  0.865582  0.751625  1
  Au  Au31  1  0.500000  0.500000  0.000000  1
