# generated using pymatgen
data_Er4Si10TcOs5
_symmetry_space_group_name_H-M   'P 1'
_cell_length_a   8.24085196
_cell_length_b   8.25881204
_cell_length_c   8.25881200
_cell_angle_alpha   140.08340934
_cell_angle_beta   108.84173718
_cell_angle_gamma   84.86936740
_symmetry_Int_Tables_number   1
_chemical_formula_structural   Er4Si10TcOs5
_chemical_formula_sum   'Er4 Si10 Tc1 Os5'
_cell_volume   329.55432781
_cell_formula_units_Z   1
loop_
 _symmetry_equiv_pos_site_id
 _symmetry_equiv_pos_as_xyz
  1  'x, y, z'
loop_
 _atom_site_type_symbol
 _atom_site_label
 _atom_site_symmetry_multiplicity
 _atom_site_fract_x
 _atom_site_fract_y
 _atom_site_fract_z
 _atom_site_occupancy
  Er  Er0  1  0.903421  0.136449  0.766972  1
  Er  Er1  1  0.096724  0.863877  0.232847  1
  Er  Er2  1  0.629906  0.363415  0.266491  1
  Er  Er3  1  0.371527  0.637476  0.734052  1
  Si  Si4  1  0.000668  0.750040  0.748868  1
  Si  Si5  1  0.000668  0.251800  0.250628  1
  Si  Si6  1  0.705919  0.456435  0.749037  1
  Si  Si7  1  0.292306  0.044189  0.750856  1
  Si  Si8  1  0.292306  0.541449  0.248117  1
  Si  Si9  1  0.705919  0.956882  0.249484  1
  Si  Si10  1  0.233343  0.404461  0.828881  1
  Si  Si11  1  0.578188  0.905379  0.672810  1
  Si  Si12  1  0.424425  0.093980  0.330443  1
  Si  Si13  1  0.762820  0.593654  0.169167  1
  Tc  Tc14  1  0.762488  0.852680  0.909810  1
  Os  Os15  1  0.498529  0.248676  0.749606  1
  Os  Os16  1  0.944959  0.352810  0.592149  1
  Os  Os17  1  0.053178  0.649052  0.404126  1
  Os  Os18  1  0.244177  0.148373  0.095802  1
  Os  Os19  1  0.498529  0.748923  0.249853  1
