# generated using pymatgen
data_Tb2YB7Os
_symmetry_space_group_name_H-M   'P 1'
_cell_length_a   8.09580009
_cell_length_b   8.09580035
_cell_length_c   9.35280700
_cell_angle_alpha   90.00000000
_cell_angle_beta   90.00000000
_cell_angle_gamma   154.80076611
_symmetry_Int_Tables_number   1
_chemical_formula_structural   Tb2YB7Os
_chemical_formula_sum   'Tb4 Y2 B14 Os2'
_cell_volume   260.99592828
_cell_formula_units_Z   2
loop_
 _symmetry_equiv_pos_site_id
 _symmetry_equiv_pos_as_xyz
  1  'x, y, z'
loop_
 _atom_site_type_symbol
 _atom_site_label
 _atom_site_symmetry_multiplicity
 _atom_site_fract_x
 _atom_site_fract_y
 _atom_site_fract_z
 _atom_site_occupancy
  Tb  Tb0  1  0.894148  0.105852  0.939719  1
  Tb  Tb1  1  0.105852  0.894148  0.060281  1
  Tb  Tb2  1  0.894148  0.105852  0.560281  1
  Tb  Tb3  1  0.105852  0.894148  0.439719  1
  Y  Y4  1  0.755981  0.244019  0.250000  1
  Y  Y5  1  0.244019  0.755981  0.750000  1
  B  B6  1  0.541699  0.458301  0.250000  1
  B  B7  1  0.458301  0.541699  0.750000  1
  B  B8  1  0.521298  0.478702  0.903454  1
  B  B9  1  0.478702  0.521298  0.096546  1
  B  B10  1  0.478702  0.521298  0.403454  1
  B  B11  1  0.521298  0.478702  0.596546  1
  B  B12  1  0.631990  0.368010  0.849394  1
  B  B13  1  0.368010  0.631990  0.150606  1
  B  B14  1  0.727306  0.272694  0.965702  1
  B  B15  1  0.272694  0.727306  0.034298  1
  B  B16  1  0.272694  0.727306  0.465702  1
  B  B17  1  0.727306  0.272694  0.534298  1
  B  B18  1  0.631990  0.368010  0.650606  1
  B  B19  1  0.368010  0.631990  0.349394  1
  Os  Os20  1  0.054459  0.945541  0.750000  1
  Os  Os21  1  0.945541  0.054459  0.250000  1
