# generated using pymatgen
data_DyErNi3B4Ir
_symmetry_space_group_name_H-M   'P 1'
_cell_length_a   4.98751411
_cell_length_b   5.01694881
_cell_length_c   7.08426018
_cell_angle_alpha   59.54186401
_cell_angle_beta   58.56391865
_cell_angle_gamma   63.23528899
_symmetry_Int_Tables_number   1
_chemical_formula_structural   DyErNi3B4Ir
_chemical_formula_sum   'Dy1 Er1 Ni3 B4 Ir1'
_cell_volume   126.13730001
_cell_formula_units_Z   1
loop_
 _symmetry_equiv_pos_site_id
 _symmetry_equiv_pos_as_xyz
  1  'x, y, z'
loop_
 _atom_site_type_symbol
 _atom_site_label
 _atom_site_symmetry_multiplicity
 _atom_site_fract_x
 _atom_site_fract_y
 _atom_site_fract_z
 _atom_site_occupancy
  Dy  Dy0  1  0.876075  0.119966  0.753256  1
  Er  Er1  1  0.114610  0.883533  0.256787  1
  Ni  Ni2  1  0.735736  0.524618  0.302035  1
  Ni  Ni3  1  0.534607  0.731124  0.789830  1
  Ni  Ni4  1  0.280861  0.468164  0.697289  1
  B  B5  1  0.157033  0.506440  0.009208  1
  B  B6  1  0.500162  0.834287  0.483141  1
  B  B7  1  0.844198  0.494986  0.973062  1
  B  B8  1  0.505839  0.154355  0.530108  1
  Ir  Ir9  1  0.450880  0.282527  0.205283  1
