# generated using pymatgen
data_Er5Lu(Sc2Sb3)2
_symmetry_space_group_name_H-M   'P 1'
_cell_length_a   8.73340209
_cell_length_b   8.74386456
_cell_length_c   6.06874000
_cell_angle_alpha   90.00022148
_cell_angle_beta   89.99988424
_cell_angle_gamma   120.03963006
_symmetry_Int_Tables_number   1
_chemical_formula_structural   Er5Lu(Sc2Sb3)2
_chemical_formula_sum   'Er5 Lu1 Sc4 Sb6'
_cell_volume   401.18295398
_cell_formula_units_Z   1
loop_
 _symmetry_equiv_pos_site_id
 _symmetry_equiv_pos_as_xyz
  1  'x, y, z'
loop_
 _atom_site_type_symbol
 _atom_site_label
 _atom_site_symmetry_multiplicity
 _atom_site_fract_x
 _atom_site_fract_y
 _atom_site_fract_z
 _atom_site_occupancy
  Er  Er0  1  0.000000  0.245711  0.250000  1
  Er  Er1  1  0.754965  0.754694  0.250004  1
  Er  Er2  1  0.754758  0.999908  0.749996  1
  Er  Er3  1  0.245242  0.245150  0.749996  1
  Er  Er4  1  0.245035  0.999729  0.250004  1
  Lu  Lu5  1  0.000000  0.754600  0.750001  1
  Sc  Sc6  1  0.333412  0.666683  0.499974  1
  Sc  Sc7  1  0.666589  0.333269  0.000025  1
  Sc  Sc8  1  0.666588  0.333270  0.499974  1
  Sc  Sc9  1  0.333411  0.666681  0.000025  1
  Sb  Sb10  1  0.393468  0.999270  0.749997  1
  Sb  Sb11  1  0.394388  0.394382  0.250003  1
  Sb  Sb12  1  0.000000  0.605619  0.250003  1
  Sb  Sb13  1  0.000000  0.395236  0.749996  1
  Sb  Sb14  1  0.606532  0.605802  0.749997  1
  Sb  Sb15  1  0.605612  0.999994  0.250003  1
