# generated using pymatgen
data_Zr6V8Re3Os
_symmetry_space_group_name_H-M   'P 1'
_cell_length_a   5.20252696
_cell_length_b   5.21412977
_cell_length_c   12.87964097
_cell_angle_alpha   90.42783659
_cell_angle_beta   89.45877674
_cell_angle_gamma   119.38472873
_symmetry_Int_Tables_number   1
_chemical_formula_structural   Zr6V8Re3Os
_chemical_formula_sum   'Zr6 V8 Re3 Os1'
_cell_volume   304.41652000
_cell_formula_units_Z   1
loop_
 _symmetry_equiv_pos_site_id
 _symmetry_equiv_pos_as_xyz
  1  'x, y, z'
loop_
 _atom_site_type_symbol
 _atom_site_label
 _atom_site_symmetry_multiplicity
 _atom_site_fract_x
 _atom_site_fract_y
 _atom_site_fract_z
 _atom_site_occupancy
  Zr  Zr0  1  0.333697  0.664837  0.916323  1
  Zr  Zr1  1  0.000292  0.001190  0.248965  1
  Zr  Zr2  1  0.666732  0.333068  0.584153  1
  Zr  Zr3  1  0.333527  0.666622  0.667833  1
  Zr  Zr4  1  0.999473  0.998926  0.000112  1
  Zr  Zr5  1  0.666359  0.335257  0.332678  1
  V  V6  1  0.167030  0.334770  0.458490  1
  V  V7  1  0.833046  0.665148  0.791830  1
  V  V8  1  0.332196  0.669043  0.292898  1
  V  V9  1  0.000594  0.999787  0.625792  1
  V  V10  1  0.667120  0.331182  0.956416  1
  V  V11  1  0.999852  0.500024  0.124709  1
  V  V12  1  0.666381  0.834135  0.458738  1
  V  V13  1  0.333725  0.165673  0.791455  1
  Re  Re14  1  0.499914  0.500140  0.124468  1
  Re  Re15  1  0.166048  0.834486  0.458798  1
  Re  Re16  1  0.499959  0.000106  0.124592  1
  Os  Os17  1  0.834056  0.165607  0.791748  1
