# generated using pymatgen
data_Nd2HoGa6(CuNi2)3
_symmetry_space_group_name_H-M   'P 1'
_cell_length_a   4.09632600
_cell_length_b   8.92293705
_cell_length_c   8.98935100
_cell_angle_alpha   119.75589792
_cell_angle_beta   90.00000000
_cell_angle_gamma   90.00000000
_symmetry_Int_Tables_number   1
_chemical_formula_structural   Nd2HoGa6(CuNi2)3
_chemical_formula_sum   'Nd2 Ho1 Ga6 Cu3 Ni6'
_cell_volume   285.24912006
_cell_formula_units_Z   1
loop_
 _symmetry_equiv_pos_site_id
 _symmetry_equiv_pos_as_xyz
  1  'x, y, z'
loop_
 _atom_site_type_symbol
 _atom_site_label
 _atom_site_symmetry_multiplicity
 _atom_site_fract_x
 _atom_site_fract_y
 _atom_site_fract_z
 _atom_site_occupancy
  Nd  Nd0  1  0.500000  0.333357  0.666481  1
  Nd  Nd1  1  0.500000  0.666876  0.333519  1
  Ho  Ho2  1  0.000000  0.998243  0.000000  1
  Ga  Ga3  1  0.000000  0.516302  0.000000  1
  Ga  Ga4  1  0.000000  0.484599  0.483465  1
  Ga  Ga5  1  0.000000  0.001134  0.516535  1
  Ga  Ga6  1  0.500000  0.277845  0.000000  1
  Ga  Ga7  1  0.500000  0.721912  0.721943  1
  Ga  Ga8  1  0.500000  0.999968  0.278057  1
  Cu  Cu9  1  0.500000  0.714434  0.000000  1
  Cu  Cu10  1  0.500000  0.286882  0.285952  1
  Cu  Cu11  1  0.500000  0.000928  0.714048  1
  Ni  Ni12  1  0.000000  0.172103  0.364336  1
  Ni  Ni13  1  0.000000  0.192295  0.827368  1
  Ni  Ni14  1  0.000000  0.632560  0.804791  1
  Ni  Ni15  1  0.000000  0.807767  0.635664  1
  Ni  Ni16  1  0.000000  0.364927  0.172632  1
  Ni  Ni17  1  0.000000  0.827770  0.195209  1
