# generated using pymatgen
data_Pr3NdAl17GaIr6
_symmetry_space_group_name_H-M   'P 1'
_cell_length_a   7.61285617
_cell_length_b   7.61478570
_cell_length_c   9.64720000
_cell_angle_alpha   90.00000000
_cell_angle_beta   90.00000000
_cell_angle_gamma   119.26048310
_symmetry_Int_Tables_number   1
_chemical_formula_structural   Pr3NdAl17GaIr6
_chemical_formula_sum   'Pr3 Nd1 Al17 Ga1 Ir6'
_cell_volume   487.89406019
_cell_formula_units_Z   1
loop_
 _symmetry_equiv_pos_site_id
 _symmetry_equiv_pos_as_xyz
  1  'x, y, z'
loop_
 _atom_site_type_symbol
 _atom_site_label
 _atom_site_symmetry_multiplicity
 _atom_site_fract_x
 _atom_site_fract_y
 _atom_site_fract_z
 _atom_site_occupancy
  Pr  Pr0  1  0.993557  0.673809  0.250000  1
  Pr  Pr1  1  0.005229  0.328527  0.750000  1
  Pr  Pr2  1  0.673940  0.993562  0.250000  1
  Nd  Nd3  1  0.328423  0.005208  0.750000  1
  Al  Al4  1  0.868032  0.867562  0.750000  1
  Al  Al5  1  0.003120  0.336077  0.071435  1
  Al  Al6  1  0.997472  0.664522  0.927264  1
  Al  Al7  1  0.997472  0.664522  0.572736  1
  Al  Al8  1  0.336022  0.002976  0.429200  1
  Al  Al9  1  0.003120  0.336077  0.428565  1
  Al  Al10  1  0.663737  0.997117  0.572761  1
  Al  Al11  1  0.663737  0.997117  0.927239  1
  Al  Al12  1  0.336022  0.002976  0.070800  1
  Al  Al13  1  0.334165  0.333885  0.547702  1
  Al  Al14  1  0.665124  0.665121  0.455800  1
  Al  Al15  1  0.665124  0.665121  0.044200  1
  Al  Al16  1  0.334165  0.333885  0.952298  1
  Al  Al17  1  0.338552  0.546689  0.250000  1
  Al  Al18  1  0.659703  0.453007  0.750000  1
  Al  Al19  1  0.546542  0.338246  0.250000  1
  Al  Al20  1  0.453631  0.661129  0.750000  1
  Ga  Ga21  1  0.136564  0.136345  0.250000  1
  Ir  Ir22  1  0.670109  0.328650  0.000184  1
  Ir  Ir23  1  0.328783  0.670374  0.000195  1
  Ir  Ir24  1  0.328783  0.670374  0.499805  1
  Ir  Ir25  1  0.670109  0.328650  0.499816  1
  Ir  Ir26  1  0.999382  0.999235  0.996785  1
  Ir  Ir27  1  0.999382  0.999235  0.503215  1
