# generated using pymatgen
data_Y5Co16(MoAs4)3
_symmetry_space_group_name_H-M   'P 1'
_cell_length_a   12.51777400
_cell_length_b   12.51777339
_cell_length_c   3.83335800
_cell_angle_alpha   90.00000000
_cell_angle_beta   90.00000000
_cell_angle_gamma   120.00000690
_symmetry_Int_Tables_number   1
_chemical_formula_structural   Y5Co16(MoAs4)3
_chemical_formula_sum   'Y5 Co16 Mo3 As12'
_cell_volume   520.19260414
_cell_formula_units_Z   1
loop_
 _symmetry_equiv_pos_site_id
 _symmetry_equiv_pos_as_xyz
  1  'x, y, z'
loop_
 _atom_site_type_symbol
 _atom_site_label
 _atom_site_symmetry_multiplicity
 _atom_site_fract_x
 _atom_site_fract_y
 _atom_site_fract_z
 _atom_site_occupancy
  Y  Y0  1  0.185595  0.185595  0.500000  1
  Y  Y1  1  0.814405  0.000000  0.500000  1
  Y  Y2  1  0.000000  0.814405  0.500000  1
  Y  Y3  1  0.333333  0.666667  0.000000  1
  Y  Y4  1  0.666667  0.333333  0.000000  1
  Co  Co5  1  0.718275  0.718275  0.500000  1
  Co  Co6  1  0.281725  0.000000  0.500000  1
  Co  Co7  1  0.000000  0.281725  0.500000  1
  Co  Co8  1  0.176840  0.375814  0.000000  1
  Co  Co9  1  0.624186  0.801025  0.000000  1
  Co  Co10  1  0.198975  0.823160  0.000000  1
  Co  Co11  1  0.801025  0.624186  0.000000  1
  Co  Co12  1  0.823160  0.198975  0.000000  1
  Co  Co13  1  0.375814  0.176840  0.000000  1
  Co  Co14  1  0.355984  0.481055  0.500000  1
  Co  Co15  1  0.518945  0.874929  0.500000  1
  Co  Co16  1  0.125071  0.644016  0.500000  1
  Co  Co17  1  0.874929  0.518945  0.500000  1
  Co  Co18  1  0.644016  0.125071  0.500000  1
  Co  Co19  1  0.481055  0.355984  0.500000  1
  Co  Co20  1  0.000000  0.000000  0.000000  1
  Mo  Mo21  1  0.556667  0.556667  0.000000  1
  Mo  Mo22  1  0.443333  0.000000  0.000000  1
  Mo  Mo23  1  0.000000  0.443333  0.000000  1
  As  As24  1  0.822127  0.822127  0.000000  1
  As  As25  1  0.177873  0.000000  0.000000  1
  As  As26  1  0.000000  0.177873  0.000000  1
  As  As27  1  0.166758  0.481567  0.500000  1
  As  As28  1  0.518433  0.685192  0.500000  1
  As  As29  1  0.314808  0.833242  0.500000  1
  As  As30  1  0.685192  0.518433  0.500000  1
  As  As31  1  0.833242  0.314808  0.500000  1
  As  As32  1  0.481567  0.166758  0.500000  1
  As  As33  1  0.360727  0.360727  0.000000  1
  As  As34  1  0.639273  0.000000  0.000000  1
  As  As35  1  0.000000  0.639273  0.000000  1
