# generated using pymatgen
data_Ce4Sc4Re3B24W
_symmetry_space_group_name_H-M   'P 1'
_cell_length_a   3.63432700
_cell_length_b   9.06672011
_cell_length_c   11.47479314
_cell_angle_alpha   89.98234524
_cell_angle_beta   90.00000000
_cell_angle_gamma   90.00000000
_symmetry_Int_Tables_number   1
_chemical_formula_structural   Ce4Sc4Re3B24W
_chemical_formula_sum   'Ce4 Sc4 Re3 B24 W1'
_cell_volume   378.11077537
_cell_formula_units_Z   1
loop_
 _symmetry_equiv_pos_site_id
 _symmetry_equiv_pos_as_xyz
  1  'x, y, z'
loop_
 _atom_site_type_symbol
 _atom_site_label
 _atom_site_symmetry_multiplicity
 _atom_site_fract_x
 _atom_site_fract_y
 _atom_site_fract_z
 _atom_site_occupancy
  Ce  Ce0  1  0.000000  0.319760  0.414624  1
  Ce  Ce1  1  0.000000  0.679238  0.586234  1
  Ce  Ce2  1  0.000000  0.821478  0.084819  1
  Ce  Ce3  1  0.000000  0.178772  0.914661  1
  Sc  Sc4  1  0.000000  0.946386  0.373237  1
  Sc  Sc5  1  0.000000  0.055248  0.627533  1
  Sc  Sc6  1  0.000000  0.444559  0.126367  1
  Sc  Sc7  1  0.000000  0.554839  0.872413  1
  Re  Re8  1  0.000000  0.358749  0.682116  1
  Re  Re9  1  0.000000  0.140776  0.181132  1
  Re  Re10  1  0.000000  0.859153  0.818291  1
  B  B11  1  0.500000  0.553408  0.433406  1
  B  B12  1  0.500000  0.444124  0.569370  1
  B  B13  1  0.500000  0.055791  0.068678  1
  B  B14  1  0.500000  0.944449  0.930997  1
  B  B15  1  0.500000  0.756131  0.419640  1
  B  B16  1  0.500000  0.246486  0.582663  1
  B  B17  1  0.500000  0.253487  0.082228  1
  B  B18  1  0.500000  0.746398  0.917340  1
  B  B19  1  0.500000  0.797062  0.264200  1
  B  B20  1  0.500000  0.205741  0.734935  1
  B  B21  1  0.500000  0.293315  0.234553  1
  B  B22  1  0.500000  0.705950  0.765157  1
  B  B23  1  0.500000  0.628955  0.181213  1
  B  B24  1  0.500000  0.370585  0.816584  1
  B  B25  1  0.500000  0.129135  0.316246  1
  B  B26  1  0.500000  0.871145  0.683756  1
  B  B27  1  0.500000  0.983145  0.214192  1
  B  B28  1  0.500000  0.017604  0.785569  1
  B  B29  1  0.500000  0.479104  0.284613  1
  B  B30  1  0.500000  0.517305  0.714749  1
  B  B31  1  0.500000  0.597613  0.025526  1
  B  B32  1  0.500000  0.402278  0.973224  1
  B  B33  1  0.500000  0.098035  0.473755  1
  B  B34  1  0.500000  0.903212  0.527248  1
  W  W35  1  0.000000  0.640582  0.318732  1
