# generated using pymatgen
data_Tb3YGa18(RuPt2)2
_symmetry_space_group_name_H-M   'P 1'
_cell_length_a   7.62966000
_cell_length_b   7.62973234
_cell_length_c   9.51469000
_cell_angle_alpha   90.00000000
_cell_angle_beta   90.00000000
_cell_angle_gamma   119.64457292
_symmetry_Int_Tables_number   1
_chemical_formula_structural   Tb3YGa18(RuPt2)2
_chemical_formula_sum   'Tb3 Y1 Ga18 Ru2 Pt4'
_cell_volume   481.37560899
_cell_formula_units_Z   1
loop_
 _symmetry_equiv_pos_site_id
 _symmetry_equiv_pos_as_xyz
  1  'x, y, z'
loop_
 _atom_site_type_symbol
 _atom_site_label
 _atom_site_symmetry_multiplicity
 _atom_site_fract_x
 _atom_site_fract_y
 _atom_site_fract_z
 _atom_site_occupancy
  Tb  Tb0  1  0.998014  0.668234  0.250000  1
  Tb  Tb1  1  0.002000  0.331769  0.750000  1
  Tb  Tb2  1  0.668233  0.998008  0.250000  1
  Y  Y3  1  0.331776  0.001998  0.750000  1
  Ga  Ga4  1  0.120313  0.120312  0.250000  1
  Ga  Ga5  1  0.879699  0.879703  0.750000  1
  Ga  Ga6  1  0.999739  0.329339  0.081222  1
  Ga  Ga7  1  0.000272  0.670673  0.918779  1
  Ga  Ga8  1  0.000272  0.670673  0.581221  1
  Ga  Ga9  1  0.329336  0.999735  0.418780  1
  Ga  Ga10  1  0.999739  0.329339  0.418778  1
  Ga  Ga11  1  0.670649  0.000260  0.581222  1
  Ga  Ga12  1  0.670649  0.000260  0.918778  1
  Ga  Ga13  1  0.329336  0.999735  0.081220  1
  Ga  Ga14  1  0.324919  0.324909  0.566249  1
  Ga  Ga15  1  0.675082  0.675082  0.433755  1
  Ga  Ga16  1  0.675082  0.675082  0.066245  1
  Ga  Ga17  1  0.324919  0.324909  0.933751  1
  Ga  Ga18  1  0.343010  0.544288  0.250000  1
  Ga  Ga19  1  0.657003  0.455712  0.750000  1
  Ga  Ga20  1  0.544284  0.343009  0.250000  1
  Ga  Ga21  1  0.455696  0.656972  0.750000  1
  Ru  Ru22  1  0.999993  0.000001  0.999993  1
  Ru  Ru23  1  0.999993  0.000001  0.500007  1
  Pt  Pt24  1  0.671598  0.328397  0.999997  1
  Pt  Pt25  1  0.328396  0.671601  0.999998  1
  Pt  Pt26  1  0.328396  0.671601  0.500002  1
  Pt  Pt27  1  0.671598  0.328397  0.500003  1
