# generated using pymatgen
data_Ho4Al14Ga3SiIr6
_symmetry_space_group_name_H-M   'P 1'
_cell_length_a   7.53561901
_cell_length_b   7.53561099
_cell_length_c   9.45285000
_cell_angle_alpha   90.00000000
_cell_angle_beta   90.00000000
_cell_angle_gamma   119.68409092
_symmetry_Int_Tables_number   1
_chemical_formula_structural   Ho4Al14Ga3SiIr6
_chemical_formula_sum   'Ho4 Al14 Ga3 Si1 Ir6'
_cell_volume   466.34198024
_cell_formula_units_Z   1
loop_
 _symmetry_equiv_pos_site_id
 _symmetry_equiv_pos_as_xyz
  1  'x, y, z'
loop_
 _atom_site_type_symbol
 _atom_site_label
 _atom_site_symmetry_multiplicity
 _atom_site_fract_x
 _atom_site_fract_y
 _atom_site_fract_z
 _atom_site_occupancy
  Ho  Ho0  1  0.996241  0.676162  0.250000  1
  Ho  Ho1  1  0.003620  0.331216  0.750000  1
  Ho  Ho2  1  0.676162  0.996241  0.250000  1
  Ho  Ho3  1  0.331216  0.003619  0.750000  1
  Al  Al4  1  0.000357  0.337028  0.077118  1
  Al  Al5  1  0.997476  0.665890  0.926586  1
  Al  Al6  1  0.997476  0.665890  0.573414  1
  Al  Al7  1  0.337027  0.000357  0.422882  1
  Al  Al8  1  0.000357  0.337028  0.422882  1
  Al  Al9  1  0.665891  0.997477  0.573414  1
  Al  Al10  1  0.665891  0.997477  0.926586  1
  Al  Al11  1  0.337027  0.000357  0.077118  1
  Al  Al12  1  0.332567  0.332567  0.553562  1
  Al  Al13  1  0.663285  0.663285  0.440694  1
  Al  Al14  1  0.663285  0.663285  0.059306  1
  Al  Al15  1  0.332567  0.332567  0.946438  1
  Al  Al16  1  0.335690  0.549222  0.250000  1
  Al  Al17  1  0.549223  0.335691  0.250000  1
  Ga  Ga18  1  0.877482  0.877482  0.750000  1
  Ga  Ga19  1  0.660312  0.452420  0.750000  1
  Ga  Ga20  1  0.452421  0.660312  0.750000  1
  Si  Si21  1  0.131653  0.131653  0.250000  1
  Ir  Ir22  1  0.670003  0.326546  0.001740  1
  Ir  Ir23  1  0.326546  0.670002  0.001739  1
  Ir  Ir24  1  0.326546  0.670002  0.498261  1
  Ir  Ir25  1  0.670003  0.326546  0.498260  1
  Ir  Ir26  1  0.999837  0.999837  0.010434  1
  Ir  Ir27  1  0.999837  0.999837  0.489566  1
