# generated using pymatgen
data_NdDy9Sb9Te
_symmetry_space_group_name_H-M   'P 1'
_cell_length_a   7.60657881
_cell_length_b   8.85314033
_cell_length_c   9.83706486
_cell_angle_alpha   103.03853598
_cell_angle_beta   97.34190806
_cell_angle_gamma   106.93291064
_symmetry_Int_Tables_number   1
_chemical_formula_structural   NdDy9Sb9Te
_chemical_formula_sum   'Nd1 Dy9 Sb9 Te1'
_cell_volume   603.93750736
_cell_formula_units_Z   1
loop_
 _symmetry_equiv_pos_site_id
 _symmetry_equiv_pos_as_xyz
  1  'x, y, z'
loop_
 _atom_site_type_symbol
 _atom_site_label
 _atom_site_symmetry_multiplicity
 _atom_site_fract_x
 _atom_site_fract_y
 _atom_site_fract_z
 _atom_site_occupancy
  Nd  Nd0  1  0.899396  0.052037  0.805091  1
  Dy  Dy1  1  0.901476  0.550043  0.800131  1
  Dy  Dy2  1  0.693276  0.152538  0.399962  1
  Dy  Dy3  1  0.502936  0.750954  0.001954  1
  Dy  Dy4  1  0.695141  0.643934  0.397875  1
  Dy  Dy5  1  0.301982  0.354951  0.600947  1
  Dy  Dy6  1  0.101294  0.947778  0.193876  1
  Dy  Dy7  1  0.499445  0.250033  0.999426  1
  Dy  Dy8  1  0.305949  0.847559  0.601123  1
  Dy  Dy9  1  0.098684  0.450416  0.200250  1
  Sb  Sb10  1  0.800107  0.600462  0.100990  1
  Sb  Sb11  1  0.594856  0.201280  0.698751  1
  Sb  Sb12  1  0.400610  0.800614  0.300273  1
  Sb  Sb13  1  0.799626  0.101120  0.106298  1
  Sb  Sb14  1  0.204521  0.404320  0.900598  1
  Sb  Sb15  1  0.598521  0.696462  0.698424  1
  Sb  Sb16  1  0.397439  0.298833  0.299765  1
  Sb  Sb17  1  0.204003  0.897829  0.899179  1
  Sb  Sb18  1  0.999514  0.500117  0.499905  1
  Te  Te19  1  0.001224  0.998722  0.495181  1
