# generated using pymatgen
data_SmSi2(AsRh3)2
_symmetry_space_group_name_H-M   'P 1'
_cell_length_a   7.16432400
_cell_length_b   7.15558917
_cell_length_c   3.82422000
_cell_angle_alpha   90.00000000
_cell_angle_beta   90.00000000
_cell_angle_gamma   120.04037940
_symmetry_Int_Tables_number   1
_chemical_formula_structural   SmSi2(AsRh3)2
_chemical_formula_sum   'Sm1 Si2 As2 Rh6'
_cell_volume   169.71384106
_cell_formula_units_Z   1
loop_
 _symmetry_equiv_pos_site_id
 _symmetry_equiv_pos_as_xyz
  1  'x, y, z'
loop_
 _atom_site_type_symbol
 _atom_site_label
 _atom_site_symmetry_multiplicity
 _atom_site_fract_x
 _atom_site_fract_y
 _atom_site_fract_z
 _atom_site_occupancy
  Sm  Sm0  1  0.995666  0.991332  0.000000  1
  Si  Si1  1  0.803045  0.606089  0.500000  1
  Si  Si2  1  0.334029  0.668059  0.000000  1
  As  As3  1  0.385282  0.194779  0.500000  1
  As  As4  1  0.809498  0.194779  0.500000  1
  Rh  Rh5  1  0.531234  0.062467  0.000000  1
  Rh  Rh6  1  0.601257  0.796012  0.500000  1
  Rh  Rh7  1  0.204314  0.408627  0.500000  1
  Rh  Rh8  1  0.540637  0.474255  0.000000  1
  Rh  Rh9  1  0.194755  0.796012  0.500000  1
  Rh  Rh10  1  0.933618  0.474255  0.000000  1
