# generated using pymatgen
data_AgOsF6
_symmetry_space_group_name_H-M   'P 1'
_cell_length_a   5.06908700
_cell_length_b   5.06908700
_cell_length_c   9.60901400
_cell_angle_alpha   90.00000000
_cell_angle_beta   90.00000000
_cell_angle_gamma   90.00000000
_symmetry_Int_Tables_number   1
_chemical_formula_structural   AgOsF6
_chemical_formula_sum   'Ag2 Os2 F12'
_cell_volume   246.90979346
_cell_formula_units_Z   2
loop_
 _symmetry_equiv_pos_site_id
 _symmetry_equiv_pos_as_xyz
  1  'x, y, z'
loop_
 _atom_site_type_symbol
 _atom_site_label
 _atom_site_symmetry_multiplicity
 _atom_site_fract_x
 _atom_site_fract_y
 _atom_site_fract_z
 _atom_site_occupancy
  Ag  Ag0  1  0.500000  0.500000  0.250000  1
  Ag  Ag1  1  0.500000  0.500000  0.750000  1
  Os  Os2  1  0.000000  0.000000  0.000000  1
  Os  Os3  1  0.000000  0.000000  0.500000  1
  F  F4  1  0.808972  0.191028  0.859989  1
  F  F5  1  0.191028  0.808972  0.859989  1
  F  F6  1  0.191028  0.808972  0.140011  1
  F  F7  1  0.191028  0.191028  0.359989  1
  F  F8  1  0.732251  0.732251  0.000000  1
  F  F9  1  0.267749  0.732251  0.500000  1
  F  F10  1  0.732251  0.267749  0.500000  1
  F  F11  1  0.267749  0.267749  0.000000  1
  F  F12  1  0.808972  0.191028  0.140011  1
  F  F13  1  0.808972  0.808972  0.640011  1
  F  F14  1  0.191028  0.191028  0.640011  1
  F  F15  1  0.808972  0.808972  0.359989  1
