# generated using pymatgen
data_CaTbU6(ReB6)4
_symmetry_space_group_name_H-M   'P 1'
_cell_length_a   3.64214400
_cell_length_b   9.30077860
_cell_length_c   11.40106315
_cell_angle_alpha   89.95363637
_cell_angle_beta   90.00000000
_cell_angle_gamma   90.00000000
_symmetry_Int_Tables_number   1
_chemical_formula_structural   CaTbU6(ReB6)4
_chemical_formula_sum   'Ca1 Tb1 U6 Re4 B24'
_cell_volume   386.20832233
_cell_formula_units_Z   1
loop_
 _symmetry_equiv_pos_site_id
 _symmetry_equiv_pos_as_xyz
  1  'x, y, z'
loop_
 _atom_site_type_symbol
 _atom_site_label
 _atom_site_symmetry_multiplicity
 _atom_site_fract_x
 _atom_site_fract_y
 _atom_site_fract_z
 _atom_site_occupancy
  Ca  Ca0  1  0.000000  0.337081  0.408214  1
  Tb  Tb1  1  0.000000  0.663248  0.591824  1
  U  U2  1  0.000000  0.836288  0.092962  1
  U  U3  1  0.000000  0.163658  0.907322  1
  U  U4  1  0.000000  0.957135  0.396326  1
  U  U5  1  0.000000  0.044452  0.603171  1
  U  U6  1  0.000000  0.457213  0.103994  1
  U  U7  1  0.000000  0.542275  0.896790  1
  Re  Re8  1  0.000000  0.649172  0.315429  1
  Re  Re9  1  0.000000  0.351963  0.685230  1
  Re  Re10  1  0.000000  0.142820  0.176648  1
  Re  Re11  1  0.000000  0.856541  0.822361  1
  B  B12  1  0.500000  0.552386  0.430302  1
  B  B13  1  0.500000  0.447323  0.569624  1
  B  B14  1  0.500000  0.049870  0.067347  1
  B  B15  1  0.500000  0.950012  0.932509  1
  B  B16  1  0.500000  0.742926  0.423018  1
  B  B17  1  0.500000  0.257069  0.577412  1
  B  B18  1  0.500000  0.242860  0.076166  1
  B  B19  1  0.500000  0.756943  0.923767  1
  B  B20  1  0.500000  0.804099  0.273548  1
  B  B21  1  0.500000  0.196180  0.726561  1
  B  B22  1  0.500000  0.301515  0.224604  1
  B  B23  1  0.500000  0.697740  0.774904  1
  B  B24  1  0.500000  0.645506  0.187780  1
  B  B25  1  0.500000  0.354575  0.812431  1
  B  B26  1  0.500000  0.144004  0.310908  1
  B  B27  1  0.500000  0.855461  0.688585  1
  B  B28  1  0.500000  0.987538  0.218923  1
  B  B29  1  0.500000  0.012709  0.780927  1
  B  B30  1  0.500000  0.489434  0.280695  1
  B  B31  1  0.500000  0.511161  0.719304  1
  B  B32  1  0.500000  0.643371  0.039452  1
  B  B33  1  0.500000  0.356532  0.960773  1
  B  B34  1  0.500000  0.138608  0.461197  1
  B  B35  1  0.500000  0.860332  0.538989  1
