# generated using pymatgen
data_Ho2Sc3Ga3Pb
_symmetry_space_group_name_H-M   'P 1'
_cell_length_a   7.30780993
_cell_length_b   7.68226991
_cell_length_c   14.61537100
_cell_angle_alpha   89.95663812
_cell_angle_beta   89.61041790
_cell_angle_gamma   89.89966335
_symmetry_Int_Tables_number   1
_chemical_formula_structural   Ho2Sc3Ga3Pb
_chemical_formula_sum   'Ho8 Sc12 Ga12 Pb4'
_cell_volume   820.49478137
_cell_formula_units_Z   4
loop_
 _symmetry_equiv_pos_site_id
 _symmetry_equiv_pos_as_xyz
  1  'x, y, z'
loop_
 _atom_site_type_symbol
 _atom_site_label
 _atom_site_symmetry_multiplicity
 _atom_site_fract_x
 _atom_site_fract_y
 _atom_site_fract_z
 _atom_site_occupancy
  Ho  Ho0  1  0.011275  0.174341  0.091733  1
  Ho  Ho1  1  0.997963  0.825167  0.904308  1
  Ho  Ho2  1  0.487895  0.683753  0.905269  1
  Ho  Ho3  1  0.991746  0.824651  0.603119  1
  Ho  Ho4  1  0.495713  0.311269  0.093989  1
  Ho  Ho5  1  0.992519  0.178707  0.397894  1
  Ho  Ho6  1  0.500540  0.313139  0.396584  1
  Ho  Ho7  1  0.505289  0.689062  0.606242  1
  Sc  Sc8  1  0.168964  0.502277  0.756628  1
  Sc  Sc9  1  0.829394  0.499163  0.247424  1
  Sc  Sc10  1  0.324849  0.002595  0.244083  1
  Sc  Sc11  1  0.674261  0.994458  0.753925  1
  Sc  Sc12  1  0.349910  0.162597  0.635466  1
  Sc  Sc13  1  0.667294  0.845126  0.367989  1
  Sc  Sc14  1  0.163290  0.665345  0.364871  1
  Sc  Sc15  1  0.659460  0.843390  0.124979  1
  Sc  Sc16  1  0.827955  0.323320  0.631987  1
  Sc  Sc17  1  0.333197  0.169762  0.876879  1
  Sc  Sc18  1  0.835295  0.318571  0.873219  1
  Sc  Sc19  1  0.179301  0.672357  0.122674  1
  Ga  Ga20  1  0.038181  0.114120  0.750411  1
  Ga  Ga21  1  0.964280  0.883149  0.244578  1
  Ga  Ga22  1  0.467815  0.616994  0.248925  1
  Ga  Ga23  1  0.534201  0.387233  0.756178  1
  Ga  Ga24  1  0.289534  0.869849  0.752793  1
  Ga  Ga25  1  0.711071  0.134852  0.246498  1
  Ga  Ga26  1  0.207543  0.368956  0.247430  1
  Ga  Ga27  1  0.792082  0.626205  0.753449  1
  Ga  Ga28  1  0.677186  0.041735  0.542013  1
  Ga  Ga29  1  0.172963  0.461272  0.957119  1
  Ga  Ga30  1  0.664201  0.035334  0.958537  1
  Ga  Ga31  1  0.336757  0.961733  0.038618  1
  Pb  Pb32  1  0.187210  0.456708  0.542569  1
  Pb  Pb33  1  0.813476  0.546122  0.460403  1
  Pb  Pb34  1  0.322289  0.956575  0.462335  1
  Pb  Pb35  1  0.825104  0.540113  0.038880  1
