# generated using pymatgen
data_GdHo2Sn3HgRh2
_symmetry_space_group_name_H-M   'P 1'
_cell_length_a   7.71791400
_cell_length_b   7.71519012
_cell_length_c   3.90213400
_cell_angle_alpha   90.00000000
_cell_angle_beta   90.00000000
_cell_angle_gamma   119.87536820
_symmetry_Int_Tables_number   1
_chemical_formula_structural   GdHo2Sn3HgRh2
_chemical_formula_sum   'Gd1 Ho2 Sn3 Hg1 Rh2'
_cell_volume   201.47605006
_cell_formula_units_Z   1
loop_
 _symmetry_equiv_pos_site_id
 _symmetry_equiv_pos_as_xyz
  1  'x, y, z'
loop_
 _atom_site_type_symbol
 _atom_site_label
 _atom_site_symmetry_multiplicity
 _atom_site_fract_x
 _atom_site_fract_y
 _atom_site_fract_z
 _atom_site_occupancy
  Gd  Gd0  1  0.020971  0.412534  0.000000  1
  Ho  Ho1  1  0.588270  0.611326  0.000000  1
  Ho  Ho2  1  0.389705  0.977478  0.000000  1
  Sn  Sn3  1  0.250746  0.256249  0.500000  1
  Sn  Sn4  1  0.006967  0.749958  0.500000  1
  Sn  Sn5  1  0.742438  0.992513  0.500000  1
  Hg  Hg6  1  0.664091  0.332651  0.500000  1
  Rh  Rh7  1  0.336844  0.669215  0.500000  1
  Rh  Rh8  1  0.999968  0.998075  0.000000  1
