# generated using pymatgen
data_LaNd(FeB)8
_symmetry_space_group_name_H-M   'P 1'
_cell_length_a   7.08460300
_cell_length_b   7.08460300
_cell_length_c   3.81605800
_cell_angle_alpha   90.00000000
_cell_angle_beta   90.00000000
_cell_angle_gamma   90.00000000
_symmetry_Int_Tables_number   1
_chemical_formula_structural   LaNd(FeB)8
_chemical_formula_sum   'La1 Nd1 Fe8 B8'
_cell_volume   191.53405544
_cell_formula_units_Z   1
loop_
 _symmetry_equiv_pos_site_id
 _symmetry_equiv_pos_as_xyz
  1  'x, y, z'
loop_
 _atom_site_type_symbol
 _atom_site_label
 _atom_site_symmetry_multiplicity
 _atom_site_fract_x
 _atom_site_fract_y
 _atom_site_fract_z
 _atom_site_occupancy
  La  La0  1  0.000000  0.000000  0.000000  1
  Nd  Nd1  1  0.500000  0.500000  0.500000  1
  Fe  Fe2  1  0.132213  0.388209  0.893820  1
  Fe  Fe3  1  0.867787  0.611791  0.893820  1
  Fe  Fe4  1  0.887284  0.369802  0.392855  1
  Fe  Fe5  1  0.112716  0.630198  0.392855  1
  Fe  Fe6  1  0.369802  0.112716  0.607145  1
  Fe  Fe7  1  0.630198  0.887284  0.607145  1
  Fe  Fe8  1  0.611791  0.132213  0.106180  1
  Fe  Fe9  1  0.388209  0.867787  0.106180  1
  B  B10  1  0.664552  0.797149  0.106595  1
  B  B11  1  0.335448  0.202851  0.106595  1
  B  B12  1  0.301006  0.833498  0.604966  1
  B  B13  1  0.698994  0.166502  0.604966  1
  B  B14  1  0.833498  0.698994  0.395034  1
  B  B15  1  0.166502  0.301006  0.395034  1
  B  B16  1  0.202851  0.664552  0.893405  1
  B  B17  1  0.797149  0.335448  0.893405  1
