# generated using pymatgen
data_SrAl4Cu9
_symmetry_space_group_name_H-M   'P 1'
_cell_length_a   8.36358033
_cell_length_b   8.36357968
_cell_length_c   8.36357972
_cell_angle_alpha   119.89895026
_cell_angle_beta   119.89894197
_cell_angle_gamma   90.17511272
_symmetry_Int_Tables_number   1
_chemical_formula_structural   SrAl4Cu9
_chemical_formula_sum   'Sr2 Al8 Cu18'
_cell_volume   414.30703843
_cell_formula_units_Z   2
loop_
 _symmetry_equiv_pos_site_id
 _symmetry_equiv_pos_as_xyz
  1  'x, y, z'
loop_
 _atom_site_type_symbol
 _atom_site_label
 _atom_site_symmetry_multiplicity
 _atom_site_fract_x
 _atom_site_fract_y
 _atom_site_fract_z
 _atom_site_occupancy
  Sr  Sr0  1  0.250000  0.250000  0.000000  1
  Sr  Sr1  1  0.750000  0.750000  0.000000  1
  Al  Al2  1  0.799465  0.299465  0.861578  1
  Al  Al3  1  0.562113  0.062113  0.861578  1
  Al  Al4  1  0.200535  0.700535  0.138422  1
  Al  Al5  1  0.700535  0.562113  0.500000  1
  Al  Al6  1  0.062113  0.200535  0.500000  1
  Al  Al7  1  0.299465  0.437887  0.500000  1
  Al  Al8  1  0.937887  0.799465  0.500000  1
  Al  Al9  1  0.437887  0.937887  0.138422  1
  Cu  Cu10  1  0.064105  0.564105  0.269528  1
  Cu  Cu11  1  0.705422  0.205422  0.269528  1
  Cu  Cu12  1  0.935895  0.435895  0.730472  1
  Cu  Cu13  1  0.435895  0.705422  0.500000  1
  Cu  Cu14  1  0.205422  0.935895  0.500000  1
  Cu  Cu15  1  0.564105  0.294578  0.500000  1
  Cu  Cu16  1  0.794578  0.064105  0.500000  1
  Cu  Cu17  1  0.294578  0.794578  0.730472  1
  Cu  Cu18  1  0.438865  0.296035  0.734901  1
  Cu  Cu19  1  0.796035  0.938865  0.734901  1
  Cu  Cu20  1  0.000000  0.500000  0.500000  1
  Cu  Cu21  1  0.500000  0.000000  0.500000  1
  Cu  Cu22  1  0.561135  0.703965  0.265099  1
  Cu  Cu23  1  0.703965  0.438865  0.142830  1
  Cu  Cu24  1  0.296035  0.561135  0.857170  1
  Cu  Cu25  1  0.938865  0.203965  0.142830  1
  Cu  Cu26  1  0.061135  0.796035  0.857170  1
  Cu  Cu27  1  0.203965  0.061135  0.265099  1
