# generated using pymatgen
data_Tm5Bi2Pt
_symmetry_space_group_name_H-M   'P 1'
_cell_length_a   7.97294800
_cell_length_b   8.98102600
_cell_length_c   12.21507000
_cell_angle_alpha   90.00000000
_cell_angle_beta   90.00000000
_cell_angle_gamma   90.00000000
_symmetry_Int_Tables_number   1
_chemical_formula_structural   Tm5Bi2Pt
_chemical_formula_sum   'Tm20 Bi8 Pt4'
_cell_volume   874.66318124
_cell_formula_units_Z   4
loop_
 _symmetry_equiv_pos_site_id
 _symmetry_equiv_pos_as_xyz
  1  'x, y, z'
loop_
 _atom_site_type_symbol
 _atom_site_label
 _atom_site_symmetry_multiplicity
 _atom_site_fract_x
 _atom_site_fract_y
 _atom_site_fract_z
 _atom_site_occupancy
  Tm  Tm0  1  0.165946  0.750000  0.211299  1
  Tm  Tm1  1  0.334054  0.750000  0.711299  1
  Tm  Tm2  1  0.834054  0.250000  0.788701  1
  Tm  Tm3  1  0.665946  0.250000  0.288701  1
  Tm  Tm4  1  0.449369  0.750000  0.000601  1
  Tm  Tm5  1  0.050631  0.750000  0.500601  1
  Tm  Tm6  1  0.550631  0.250000  0.999399  1
  Tm  Tm7  1  0.949369  0.250000  0.499399  1
  Tm  Tm8  1  0.626265  0.750000  0.303134  1
  Tm  Tm9  1  0.873735  0.750000  0.803134  1
  Tm  Tm10  1  0.373735  0.250000  0.696866  1
  Tm  Tm11  1  0.126265  0.250000  0.196866  1
  Tm  Tm12  1  0.823723  0.548207  0.066176  1
  Tm  Tm13  1  0.676277  0.951793  0.566176  1
  Tm  Tm14  1  0.176277  0.048207  0.933824  1
  Tm  Tm15  1  0.323723  0.451793  0.433824  1
  Tm  Tm16  1  0.176277  0.451793  0.933824  1
  Tm  Tm17  1  0.323723  0.048207  0.433824  1
  Tm  Tm18  1  0.823723  0.951793  0.066176  1
  Tm  Tm19  1  0.676277  0.548207  0.566176  1
  Bi  Bi20  1  0.932700  0.510484  0.327582  1
  Bi  Bi21  1  0.567300  0.989516  0.827582  1
  Bi  Bi22  1  0.067300  0.010484  0.672418  1
  Bi  Bi23  1  0.432700  0.489516  0.172418  1
  Bi  Bi24  1  0.067300  0.489516  0.672418  1
  Bi  Bi25  1  0.432700  0.010484  0.172418  1
  Bi  Bi26  1  0.932700  0.989516  0.327582  1
  Bi  Bi27  1  0.567300  0.510484  0.827582  1
  Pt  Pt28  1  0.419806  0.750000  0.487824  1
  Pt  Pt29  1  0.080194  0.750000  0.987824  1
  Pt  Pt30  1  0.580194  0.250000  0.512176  1
  Pt  Pt31  1  0.919806  0.250000  0.012176  1
