# generated using pymatgen
data_NdEu7(Ho3Sn4)4
_symmetry_space_group_name_H-M   'P 1'
_cell_length_a   8.07245862
_cell_length_b   8.23040518
_cell_length_c   15.53378800
_cell_angle_alpha   90.01990983
_cell_angle_beta   89.96370953
_cell_angle_gamma   90.06733706
_symmetry_Int_Tables_number   1
_chemical_formula_structural   NdEu7(Ho3Sn4)4
_chemical_formula_sum   'Nd1 Eu7 Ho12 Sn16'
_cell_volume   1032.05776056
_cell_formula_units_Z   1
loop_
 _symmetry_equiv_pos_site_id
 _symmetry_equiv_pos_as_xyz
  1  'x, y, z'
loop_
 _atom_site_type_symbol
 _atom_site_label
 _atom_site_symmetry_multiplicity
 _atom_site_fract_x
 _atom_site_fract_y
 _atom_site_fract_z
 _atom_site_occupancy
  Nd  Nd0  1  0.498780  0.323427  0.904806  1
  Eu  Eu1  1  0.001534  0.174630  0.594532  1
  Eu  Eu2  1  0.499345  0.673648  0.407553  1
  Eu  Eu3  1  0.999656  0.823557  0.091842  1
  Eu  Eu4  1  0.499322  0.676168  0.092086  1
  Eu  Eu5  1  0.999465  0.825681  0.407503  1
  Eu  Eu6  1  0.502005  0.325925  0.594631  1
  Eu  Eu7  1  0.002477  0.175006  0.906502  1
  Ho  Ho8  1  0.334633  0.835239  0.874923  1
  Ho  Ho9  1  0.834141  0.665408  0.625728  1
  Ho  Ho10  1  0.664919  0.165835  0.375792  1
  Ho  Ho11  1  0.163607  0.335666  0.123670  1
  Ho  Ho12  1  0.664928  0.163938  0.124683  1
  Ho  Ho13  1  0.165166  0.333566  0.376092  1
  Ho  Ho14  1  0.334033  0.835399  0.626104  1
  Ho  Ho15  1  0.835316  0.665964  0.875376  1
  Ho  Ho16  1  0.170488  0.496166  0.749098  1
  Ho  Ho17  1  0.672891  0.004304  0.749735  1
  Ho  Ho18  1  0.827253  0.504870  0.249730  1
  Ho  Ho19  1  0.327780  0.994423  0.249772  1
  Sn  Sn20  1  0.331482  0.043602  0.040044  1
  Sn  Sn21  1  0.831859  0.460079  0.458450  1
  Sn  Sn22  1  0.668590  0.960145  0.542358  1
  Sn  Sn23  1  0.172239  0.537670  0.956635  1
  Sn  Sn24  1  0.669111  0.964436  0.956685  1
  Sn  Sn25  1  0.168584  0.539805  0.542184  1
  Sn  Sn26  1  0.332132  0.038998  0.458386  1
  Sn  Sn27  1  0.826665  0.457403  0.040226  1
  Sn  Sn28  1  0.532916  0.620628  0.751432  1
  Sn  Sn29  1  0.033533  0.878375  0.750895  1
  Sn  Sn30  1  0.464416  0.378701  0.249728  1
  Sn  Sn31  1  0.965349  0.120474  0.249728  1
  Sn  Sn32  1  0.308393  0.141782  0.751234  1
  Sn  Sn33  1  0.804409  0.359818  0.752070  1
  Sn  Sn34  1  0.696756  0.861847  0.250226  1
  Sn  Sn35  1  0.195829  0.637420  0.249562  1
