# generated using pymatgen
data_La3Nd2In2Ru3
_symmetry_space_group_name_H-M   'P 1'
_cell_length_a   8.78469399
_cell_length_b   8.73199316
_cell_length_c   8.72854900
_cell_angle_alpha   109.58969317
_cell_angle_beta   109.61928703
_cell_angle_gamma   109.69574575
_symmetry_Int_Tables_number   1
_chemical_formula_structural   La3Nd2In2Ru3
_chemical_formula_sum   'La6 Nd4 In4 Ru6'
_cell_volume   512.27092745
_cell_formula_units_Z   2
loop_
 _symmetry_equiv_pos_site_id
 _symmetry_equiv_pos_as_xyz
  1  'x, y, z'
loop_
 _atom_site_type_symbol
 _atom_site_label
 _atom_site_symmetry_multiplicity
 _atom_site_fract_x
 _atom_site_fract_y
 _atom_site_fract_z
 _atom_site_occupancy
  La  La0  1  0.061312  0.747259  0.810771  1
  La  La1  1  0.812640  0.063976  0.749853  1
  La  La2  1  0.204879  0.202650  0.204831  1
  La  La3  1  0.500076  0.002981  0.294412  1
  La  La4  1  0.292061  0.499385  0.001405  1
  La  La5  1  0.002139  0.293463  0.498482  1
  Nd  Nd6  1  0.249082  0.683630  0.432096  1
  Nd  Nd7  1  0.747641  0.814295  0.066142  1
  Nd  Nd8  1  0.433797  0.250544  0.685936  1
  Nd  Nd9  1  0.683102  0.433447  0.248770  1
  In  In10  1  0.499659  0.997838  0.905282  1
  In  In11  1  0.588501  0.590212  0.590911  1
  In  In12  1  0.903607  0.502375  0.002297  1
  In  In13  1  0.000861  0.905605  0.498019  1
  Ru  Ru14  1  0.251494  0.132417  0.890065  1
  Ru  Ru15  1  0.758354  0.373381  0.616014  1
  Ru  Ru16  1  0.888382  0.246996  0.130279  1
  Ru  Ru17  1  0.141669  0.892121  0.254039  1
  Ru  Ru18  1  0.617647  0.758343  0.370749  1
  Ru  Ru19  1  0.363096  0.609086  0.749645  1
