# generated using pymatgen
data_Ti6Ga6PdPt5
_symmetry_space_group_name_H-M   'P 1'
_cell_length_a   7.05076400
_cell_length_b   7.05076423
_cell_length_c   6.72610900
_cell_angle_alpha   90.00000000
_cell_angle_beta   90.00000000
_cell_angle_gamma   119.99999894
_symmetry_Int_Tables_number   1
_chemical_formula_structural   Ti6Ga6PdPt5
_chemical_formula_sum   'Ti6 Ga6 Pd1 Pt5'
_cell_volume   289.57889596
_cell_formula_units_Z   1
loop_
 _symmetry_equiv_pos_site_id
 _symmetry_equiv_pos_as_xyz
  1  'x, y, z'
loop_
 _atom_site_type_symbol
 _atom_site_label
 _atom_site_symmetry_multiplicity
 _atom_site_fract_x
 _atom_site_fract_y
 _atom_site_fract_z
 _atom_site_occupancy
  Ti  Ti0  1  0.389091  0.418962  0.750000  1
  Ti  Ti1  1  0.029871  0.610909  0.750000  1
  Ti  Ti2  1  0.581038  0.970129  0.750000  1
  Ti  Ti3  1  0.618263  0.027434  0.250000  1
  Ti  Ti4  1  0.972566  0.590828  0.250000  1
  Ti  Ti5  1  0.409172  0.381737  0.250000  1
  Ga  Ga6  1  0.274007  0.999379  0.998163  1
  Ga  Ga7  1  0.725371  0.725993  0.998163  1
  Ga  Ga8  1  0.000621  0.274629  0.998163  1
  Ga  Ga9  1  0.725371  0.725993  0.501837  1
  Ga  Ga10  1  0.274007  0.999379  0.501837  1
  Ga  Ga11  1  0.000621  0.274629  0.501837  1
  Pd  Pd12  1  0.000000  0.000000  0.750000  1
  Pt  Pt13  1  0.666667  0.333333  0.964549  1
  Pt  Pt14  1  0.666667  0.333333  0.535451  1
  Pt  Pt15  1  0.333333  0.666667  0.461751  1
  Pt  Pt16  1  0.333333  0.666667  0.038249  1
  Pt  Pt17  1  0.000000  0.000000  0.250000  1
