# generated using pymatgen
data_DyCoSi2IrRh
_symmetry_space_group_name_H-M   'P 1'
_cell_length_a   6.47950650
_cell_length_b   6.62801724
_cell_length_c   6.47950727
_cell_angle_alpha   131.18125388
_cell_angle_beta   113.43567292
_cell_angle_gamma   86.00567879
_symmetry_Int_Tables_number   1
_chemical_formula_structural   DyCoSi2IrRh
_chemical_formula_sum   'Dy2 Co2 Si4 Ir2 Rh2'
_cell_volume   184.56357333
_cell_formula_units_Z   2
loop_
 _symmetry_equiv_pos_site_id
 _symmetry_equiv_pos_as_xyz
  1  'x, y, z'
loop_
 _atom_site_type_symbol
 _atom_site_label
 _atom_site_symmetry_multiplicity
 _atom_site_fract_x
 _atom_site_fract_y
 _atom_site_fract_z
 _atom_site_occupancy
  Dy  Dy0  1  0.754222  0.036237  0.282016  1
  Dy  Dy1  1  0.245778  0.963763  0.717984  1
  Co  Co2  1  0.220903  0.500000  0.720903  1
  Co  Co3  1  0.779097  0.500000  0.279097  1
  Si  Si4  1  0.575962  0.386687  0.810726  1
  Si  Si5  1  0.926479  0.712624  0.786143  1
  Si  Si6  1  0.424038  0.613313  0.189274  1
  Si  Si7  1  0.073521  0.287376  0.213857  1
  Ir  Ir8  1  0.718927  0.000000  0.718927  1
  Ir  Ir9  1  0.281073  0.000000  0.281073  1
  Rh  Rh10  1  0.500000  0.500000  0.500000  1
  Rh  Rh11  1  0.000000  0.500000  0.000000  1
