# generated using pymatgen
data_Ho8Ta12Si15Ni
_symmetry_space_group_name_H-M   'P 1'
_cell_length_a   7.06207031
_cell_length_b   7.05555150
_cell_length_c   13.02584000
_cell_angle_alpha   89.86967131
_cell_angle_beta   89.90207399
_cell_angle_gamma   89.91765304
_symmetry_Int_Tables_number   1
_chemical_formula_structural   Ho8Ta12Si15Ni
_chemical_formula_sum   'Ho8 Ta12 Si15 Ni1'
_cell_volume   649.03264127
_cell_formula_units_Z   1
loop_
 _symmetry_equiv_pos_site_id
 _symmetry_equiv_pos_as_xyz
  1  'x, y, z'
loop_
 _atom_site_type_symbol
 _atom_site_label
 _atom_site_symmetry_multiplicity
 _atom_site_fract_x
 _atom_site_fract_y
 _atom_site_fract_z
 _atom_site_occupancy
  Ho  Ho0  1  0.998668  0.659625  0.031877  1
  Ho  Ho1  1  0.000115  0.342529  0.531832  1
  Ho  Ho2  1  0.659911  0.999160  0.968085  1
  Ho  Ho3  1  0.159083  0.500122  0.782348  1
  Ho  Ho4  1  0.843094  0.501195  0.284131  1
  Ho  Ho5  1  0.501862  0.158693  0.217475  1
  Ho  Ho6  1  0.497357  0.837955  0.717859  1
  Ho  Ho7  1  0.340098  0.999953  0.466551  1
  Ta  Ta8  1  0.345818  0.511611  0.375506  1
  Ta  Ta9  1  0.848411  0.986188  0.374202  1
  Ta  Ta10  1  0.008556  0.153148  0.126053  1
  Ta  Ta11  1  0.990331  0.844600  0.625405  1
  Ta  Ta12  1  0.653281  0.492037  0.876420  1
  Ta  Ta13  1  0.506427  0.348747  0.624115  1
  Ta  Ta14  1  0.491702  0.653889  0.123407  1
  Ta  Ta15  1  0.153774  0.007550  0.873100  1
  Ta  Ta16  1  0.670218  0.669866  0.500080  1
  Ta  Ta17  1  0.828738  0.171633  0.750169  1
  Ta  Ta18  1  0.172721  0.827945  0.249727  1
  Ta  Ta19  1  0.328509  0.329489  0.000223  1
  Si  Si20  1  0.955158  0.294677  0.936486  1
  Si  Si21  1  0.703734  0.044385  0.563350  1
  Si  Si22  1  0.205730  0.455525  0.186551  1
  Si  Si23  1  0.794197  0.544315  0.686122  1
  Si  Si24  1  0.455468  0.205446  0.813395  1
  Si  Si25  1  0.545106  0.795626  0.313600  1
  Si  Si26  1  0.295728  0.956082  0.063785  1
  Si  Si27  1  0.866097  0.797380  0.818262  1
  Si  Si28  1  0.133122  0.204130  0.318132  1
  Si  Si29  1  0.795957  0.866617  0.181290  1
  Si  Si30  1  0.291467  0.634664  0.565807  1
  Si  Si31  1  0.705833  0.367858  0.069479  1
  Si  Si32  1  0.633536  0.295382  0.432086  1
  Si  Si33  1  0.366414  0.705012  0.931380  1
  Si  Si34  1  0.204794  0.131366  0.680774  1
  Ni  Ni35  1  0.048984  0.705598  0.440935  1
