# generated using pymatgen
data_Li5P12Ir16Rh3
_symmetry_space_group_name_H-M   'P 1'
_cell_length_a   12.53826700
_cell_length_b   12.53826611
_cell_length_c   3.91461900
_cell_angle_alpha   90.00000000
_cell_angle_beta   90.00000000
_cell_angle_gamma   119.99999972
_symmetry_Int_Tables_number   1
_chemical_formula_structural   Li5P12Ir16Rh3
_chemical_formula_sum   'Li5 P12 Ir16 Rh3'
_cell_volume   532.96063077
_cell_formula_units_Z   1
loop_
 _symmetry_equiv_pos_site_id
 _symmetry_equiv_pos_as_xyz
  1  'x, y, z'
loop_
 _atom_site_type_symbol
 _atom_site_label
 _atom_site_symmetry_multiplicity
 _atom_site_fract_x
 _atom_site_fract_y
 _atom_site_fract_z
 _atom_site_occupancy
  Li  Li0  1  0.333333  0.666667  0.500000  1
  Li  Li1  1  0.666667  0.333333  0.500000  1
  Li  Li2  1  0.000000  0.832289  0.000000  1
  Li  Li3  1  0.167711  0.167711  0.000000  1
  Li  Li4  1  0.832289  0.000000  0.000000  1
  P  P5  1  0.000000  0.638487  0.500000  1
  P  P6  1  0.361513  0.361513  0.500000  1
  P  P7  1  0.638487  0.000000  0.500000  1
  P  P8  1  0.513782  0.687921  0.000000  1
  P  P9  1  0.312079  0.825861  0.000000  1
  P  P10  1  0.174139  0.486218  0.000000  1
  P  P11  1  0.486218  0.174139  0.000000  1
  P  P12  1  0.687921  0.513782  0.000000  1
  P  P13  1  0.825861  0.312079  0.000000  1
  P  P14  1  0.000000  0.178411  0.500000  1
  P  P15  1  0.821589  0.821589  0.500000  1
  P  P16  1  0.178411  0.000000  0.500000  1
  Ir  Ir17  1  0.510012  0.869867  0.000000  1
  Ir  Ir18  1  0.130133  0.640146  0.000000  1
  Ir  Ir19  1  0.359854  0.489988  0.000000  1
  Ir  Ir20  1  0.489988  0.359854  0.000000  1
  Ir  Ir21  1  0.869867  0.510012  0.000000  1
  Ir  Ir22  1  0.640146  0.130133  0.000000  1
  Ir  Ir23  1  0.000000  0.286831  0.000000  1
  Ir  Ir24  1  0.713169  0.713169  0.000000  1
  Ir  Ir25  1  0.286831  0.000000  0.000000  1
  Ir  Ir26  1  0.624325  0.806885  0.500000  1
  Ir  Ir27  1  0.193115  0.817440  0.500000  1
  Ir  Ir28  1  0.182560  0.375675  0.500000  1
  Ir  Ir29  1  0.375675  0.182560  0.500000  1
  Ir  Ir30  1  0.806885  0.624325  0.500000  1
  Ir  Ir31  1  0.817440  0.193115  0.500000  1
  Ir  Ir32  1  0.000000  0.000000  0.500000  1
  Rh  Rh33  1  0.000000  0.455903  0.500000  1
  Rh  Rh34  1  0.544097  0.544097  0.500000  1
  Rh  Rh35  1  0.455903  0.000000  0.500000  1
