# generated using pymatgen
data_Mo2RhN
_symmetry_space_group_name_H-M   'P 1'
_cell_length_a   2.86097200
_cell_length_b   2.86097299
_cell_length_c   7.16068900
_cell_angle_alpha   90.00000000
_cell_angle_beta   90.00000000
_cell_angle_gamma   120.00001165
_symmetry_Int_Tables_number   1
_chemical_formula_structural   Mo2RhN
_chemical_formula_sum   'Mo2 Rh1 N1'
_cell_volume   50.75896503
_cell_formula_units_Z   1
loop_
 _symmetry_equiv_pos_site_id
 _symmetry_equiv_pos_as_xyz
  1  'x, y, z'
loop_
 _atom_site_type_symbol
 _atom_site_label
 _atom_site_symmetry_multiplicity
 _atom_site_fract_x
 _atom_site_fract_y
 _atom_site_fract_z
 _atom_site_occupancy
  Mo  Mo0  1  0.333333  0.666667  0.195863  1
  Mo  Mo1  1  0.333333  0.666667  0.804137  1
  Rh  Rh2  1  0.666667  0.333333  0.500000  1
  N  N3  1  0.666667  0.333333  0.000000  1
