# generated using pymatgen
data_Pr4Mn3CoF28
_symmetry_space_group_name_H-M   'P 1'
_cell_length_a   5.57798800
_cell_length_b   9.06976615
_cell_length_c   12.10986400
_cell_angle_alpha   61.88867453
_cell_angle_beta   90.00135587
_cell_angle_gamma   89.97799792
_symmetry_Int_Tables_number   1
_chemical_formula_structural   Pr4Mn3CoF28
_chemical_formula_sum   'Pr4 Mn3 Co1 F28'
_cell_volume   540.37853325
_cell_formula_units_Z   1
loop_
 _symmetry_equiv_pos_site_id
 _symmetry_equiv_pos_as_xyz
  1  'x, y, z'
loop_
 _atom_site_type_symbol
 _atom_site_label
 _atom_site_symmetry_multiplicity
 _atom_site_fract_x
 _atom_site_fract_y
 _atom_site_fract_z
 _atom_site_occupancy
  Pr  Pr0  1  0.761497  0.807762  0.764186  1
  Pr  Pr1  1  0.260859  0.192314  0.737662  1
  Pr  Pr2  1  0.237929  0.192461  0.234517  1
  Pr  Pr3  1  0.739491  0.807947  0.264430  1
  Mn  Mn4  1  0.257172  0.725715  0.542581  1
  Mn  Mn5  1  0.243397  0.725700  0.042140  1
  Mn  Mn6  1  0.742579  0.274109  0.457738  1
  Co  Co7  1  0.756950  0.274352  0.957509  1
  F  F8  1  0.428135  0.708952  0.922856  1
  F  F9  1  0.927051  0.290648  0.577288  1
  F  F10  1  0.577039  0.290897  0.075475  1
  F  F11  1  0.073036  0.709161  0.422891  1
  F  F12  1  0.464481  0.282758  0.538046  1
  F  F13  1  0.965482  0.716820  0.962088  1
  F  F14  1  0.535361  0.716957  0.462456  1
  F  F15  1  0.029694  0.283210  0.037133  1
  F  F16  1  0.767053  0.500009  0.866971  1
  F  F17  1  0.265582  0.495287  0.634602  1
  F  F18  1  0.234893  0.495432  0.134498  1
  F  F19  1  0.733999  0.504681  0.365469  1
  F  F20  1  0.758507  0.049860  0.043399  1
  F  F21  1  0.260266  0.954784  0.453793  1
  F  F22  1  0.239509  0.954803  0.953739  1
  F  F23  1  0.739564  0.044823  0.546316  1
  F  F24  1  0.983740  0.728909  0.627110  1
  F  F25  1  0.487680  0.270802  0.874560  1
  F  F26  1  0.016088  0.270685  0.373122  1
  F  F27  1  0.516687  0.729819  0.126483  1
  F  F28  1  0.060071  0.739747  0.164617  1
  F  F29  1  0.560030  0.260839  0.334562  1
  F  F30  1  0.935358  0.261611  0.835969  1
  F  F31  1  0.439831  0.738687  0.665556  1
  F  F32  1  0.396759  0.965753  0.226080  1
  F  F33  1  0.896527  0.033274  0.274467  1
  F  F34  1  0.603597  0.033988  0.773301  1
  F  F35  1  0.104109  0.966442  0.726389  1
