# generated using pymatgen
data_HoTm7B24Os3W
_symmetry_space_group_name_H-M   'P 1'
_cell_length_a   3.60877000
_cell_length_b   9.11771537
_cell_length_c   11.50598500
_cell_angle_alpha   89.90044497
_cell_angle_beta   90.00000000
_cell_angle_gamma   90.00000000
_symmetry_Int_Tables_number   1
_chemical_formula_structural   HoTm7B24Os3W
_chemical_formula_sum   'Ho1 Tm7 B24 Os3 W1'
_cell_volume   378.58934082
_cell_formula_units_Z   1
loop_
 _symmetry_equiv_pos_site_id
 _symmetry_equiv_pos_as_xyz
  1  'x, y, z'
loop_
 _atom_site_type_symbol
 _atom_site_label
 _atom_site_symmetry_multiplicity
 _atom_site_fract_x
 _atom_site_fract_y
 _atom_site_fract_z
 _atom_site_occupancy
  Ho  Ho0  1  0.000000  0.320717  0.413480  1
  Tm  Tm1  1  0.000000  0.678224  0.585650  1
  Tm  Tm2  1  0.000000  0.819906  0.086948  1
  Tm  Tm3  1  0.000000  0.177795  0.914522  1
  Tm  Tm4  1  0.000000  0.945782  0.373716  1
  Tm  Tm5  1  0.000000  0.057206  0.628174  1
  Tm  Tm6  1  0.000000  0.442903  0.125449  1
  Tm  Tm7  1  0.000000  0.556689  0.872003  1
  B  B8  1  0.500000  0.550132  0.436886  1
  B  B9  1  0.500000  0.446307  0.568501  1
  B  B10  1  0.500000  0.053499  0.066185  1
  B  B11  1  0.500000  0.946676  0.933505  1
  B  B12  1  0.500000  0.752342  0.423198  1
  B  B13  1  0.500000  0.251432  0.581298  1
  B  B14  1  0.500000  0.248547  0.079341  1
  B  B15  1  0.500000  0.751285  0.919435  1
  B  B16  1  0.500000  0.796078  0.263774  1
  B  B17  1  0.500000  0.208236  0.734568  1
  B  B18  1  0.500000  0.290629  0.232004  1
  B  B19  1  0.500000  0.709075  0.765890  1
  B  B20  1  0.500000  0.632075  0.181425  1
  B  B21  1  0.500000  0.368157  0.815362  1
  B  B22  1  0.500000  0.131236  0.314032  1
  B  B23  1  0.500000  0.869456  0.685359  1
  B  B24  1  0.500000  0.983037  0.212531  1
  B  B25  1  0.500000  0.018022  0.788084  1
  B  B26  1  0.500000  0.476613  0.285904  1
  B  B27  1  0.500000  0.517330  0.713397  1
  B  B28  1  0.500000  0.606016  0.027557  1
  B  B29  1  0.500000  0.392888  0.969493  1
  B  B30  1  0.500000  0.106718  0.471274  1
  B  B31  1  0.500000  0.896347  0.530751  1
  Os  Os32  1  0.000000  0.361490  0.680441  1
  Os  Os33  1  0.000000  0.136954  0.177317  1
  Os  Os34  1  0.000000  0.862611  0.821111  1
  W  W35  1  0.000000  0.637589  0.321436  1
