# generated using pymatgen
data_Y4Sn2Sb4Rh7
_symmetry_space_group_name_H-M   'P 1'
_cell_length_a   7.61738697
_cell_length_b   7.61738728
_cell_length_c   7.61795154
_cell_angle_alpha   109.50299392
_cell_angle_beta   109.50299619
_cell_angle_gamma   109.40469521
_symmetry_Int_Tables_number   1
_chemical_formula_structural   Y4Sn2Sb4Rh7
_chemical_formula_sum   'Y4 Sn2 Sb4 Rh7'
_cell_volume   340.28593865
_cell_formula_units_Z   1
loop_
 _symmetry_equiv_pos_site_id
 _symmetry_equiv_pos_as_xyz
  1  'x, y, z'
loop_
 _atom_site_type_symbol
 _atom_site_label
 _atom_site_symmetry_multiplicity
 _atom_site_fract_x
 _atom_site_fract_y
 _atom_site_fract_z
 _atom_site_occupancy
  Y  Y0  1  0.507531  0.999458  0.000000  1
  Y  Y1  1  0.000542  0.492469  0.000000  1
  Y  Y2  1  0.000973  0.999027  0.500000  1
  Y  Y3  1  0.500973  0.499027  0.500000  1
  Sn  Sn4  1  0.311800  0.996883  0.308683  1
  Sn  Sn5  1  0.003117  0.688200  0.691317  1
  Sb  Sb6  1  0.686389  0.680845  0.000000  1
  Sb  Sb7  1  0.675425  0.996948  0.672374  1
  Sb  Sb8  1  0.003052  0.324575  0.327626  1
  Sb  Sb9  1  0.319155  0.313611  0.000000  1
  Rh  Rh10  1  0.253472  0.501657  0.755130  1
  Rh  Rh11  1  0.498480  0.249152  0.747632  1
  Rh  Rh12  1  0.748666  0.251334  0.500000  1
  Rh  Rh13  1  0.498343  0.746528  0.244870  1
  Rh  Rh14  1  0.992568  0.007432  0.000000  1
  Rh  Rh15  1  0.248666  0.751334  0.500000  1
  Rh  Rh16  1  0.750848  0.501520  0.252368  1
