# generated using pymatgen
data_Tb2Nd8B2Br15
_symmetry_space_group_name_H-M   'P 1'
_cell_length_a   9.35317368
_cell_length_b   10.16218034
_cell_length_c   11.00479233
_cell_angle_alpha   91.29062932
_cell_angle_beta   114.50445425
_cell_angle_gamma   110.80233033
_symmetry_Int_Tables_number   1
_chemical_formula_structural   Tb2Nd8B2Br15
_chemical_formula_sum   'Tb2 Nd8 B2 Br15'
_cell_volume   871.81912139
_cell_formula_units_Z   1
loop_
 _symmetry_equiv_pos_site_id
 _symmetry_equiv_pos_as_xyz
  1  'x, y, z'
loop_
 _atom_site_type_symbol
 _atom_site_label
 _atom_site_symmetry_multiplicity
 _atom_site_fract_x
 _atom_site_fract_y
 _atom_site_fract_z
 _atom_site_occupancy
  Tb  Tb0  1  0.718118  0.073140  0.047218  1
  Tb  Tb1  1  0.281882  0.926860  0.952782  1
  Nd  Nd2  1  0.801420  0.408669  0.275807  1
  Nd  Nd3  1  0.198580  0.591331  0.724193  1
  Nd  Nd4  1  0.675848  0.747750  0.821581  1
  Nd  Nd5  1  0.324152  0.252250  0.178419  1
  Nd  Nd6  1  0.526335  0.704958  0.096967  1
  Nd  Nd7  1  0.473665  0.295042  0.903033  1
  Nd  Nd8  1  0.586730  0.038050  0.325392  1
  Nd  Nd9  1  0.413270  0.961950  0.674608  1
  B  B10  1  0.467779  0.823232  0.878646  1
  B  B11  1  0.532221  0.176768  0.121354  1
  Br  Br12  1  0.000000  0.000000  0.000000  1
  Br  Br13  1  0.637541  0.882474  0.583293  1
  Br  Br14  1  0.362459  0.117526  0.416707  1
  Br  Br15  1  0.883896  0.298980  0.529144  1
  Br  Br16  1  0.116104  0.701020  0.470856  1
  Br  Br17  1  0.283133  0.764893  0.171923  1
  Br  Br18  1  0.716867  0.235107  0.828077  1
  Br  Br19  1  0.047150  0.333780  0.220464  1
  Br  Br20  1  0.160150  0.051257  0.708681  1
  Br  Br21  1  0.839850  0.948743  0.291319  1
  Br  Br22  1  0.229773  0.409676  0.943645  1
  Br  Br23  1  0.770227  0.590324  0.056355  1
  Br  Br24  1  0.408173  0.463396  0.658870  1
  Br  Br25  1  0.591827  0.536604  0.341130  1
  Br  Br26  1  0.952850  0.666220  0.779536  1
