# generated using pymatgen
data_Ho7Lu5GaCo4Pb
_symmetry_space_group_name_H-M   'P 1'
_cell_length_a   8.25858557
_cell_length_b   8.22714570
_cell_length_c   8.22504494
_cell_angle_alpha   111.70350235
_cell_angle_beta   109.49781185
_cell_angle_gamma   107.10541108
_symmetry_Int_Tables_number   1
_chemical_formula_structural   Ho7Lu5GaCo4Pb
_chemical_formula_sum   'Ho7 Lu5 Ga1 Co4 Pb1'
_cell_volume   430.24732425
_cell_formula_units_Z   1
loop_
 _symmetry_equiv_pos_site_id
 _symmetry_equiv_pos_as_xyz
  1  'x, y, z'
loop_
 _atom_site_type_symbol
 _atom_site_label
 _atom_site_symmetry_multiplicity
 _atom_site_fract_x
 _atom_site_fract_y
 _atom_site_fract_z
 _atom_site_occupancy
  Ho  Ho0  1  0.676872  0.488787  0.815937  1
  Ho  Ho1  1  0.565238  0.267497  0.296334  1
  Ho  Ho2  1  0.433630  0.733011  0.702563  1
  Ho  Ho3  1  0.180917  0.779590  0.961515  1
  Ho  Ho4  1  0.820604  0.782020  0.598649  1
  Ho  Ho5  1  0.178719  0.218324  0.400505  1
  Ho  Ho6  1  0.820251  0.220848  0.039329  1
  Lu  Lu7  1  0.971064  0.267086  0.702870  1
  Lu  Lu8  1  0.030771  0.733778  0.299260  1
  Lu  Lu9  1  0.676533  0.859327  0.186844  1
  Lu  Lu10  1  0.323652  0.509261  0.181820  1
  Lu  Lu11  1  0.322945  0.141100  0.814016  1
  Ga  Ga12  1  0.999702  0.499837  0.500224  1
  Co  Co13  1  0.114720  0.116200  0.997935  1
  Co  Co14  1  0.886531  0.885228  0.002240  1
  Co  Co15  1  0.659006  0.501417  0.159363  1
  Co  Co16  1  0.339782  0.499273  0.842298  1
  Pb  Pb17  1  0.499064  0.997416  0.498299  1
