# generated using pymatgen
data_ReBr35
_symmetry_space_group_name_H-M   'P 1'
_cell_length_a   15.98197694
_cell_length_b   11.40028128
_cell_length_c   10.79188300
_cell_angle_alpha   88.81408278
_cell_angle_beta   66.02770512
_cell_angle_gamma   92.31545406
_symmetry_Int_Tables_number   1
_chemical_formula_structural   ReBr35
_chemical_formula_sum   'Re1 Br35'
_cell_volume   1793.71352310
_cell_formula_units_Z   1
loop_
 _symmetry_equiv_pos_site_id
 _symmetry_equiv_pos_as_xyz
  1  'x, y, z'
loop_
 _atom_site_type_symbol
 _atom_site_label
 _atom_site_symmetry_multiplicity
 _atom_site_fract_x
 _atom_site_fract_y
 _atom_site_fract_z
 _atom_site_occupancy
  Re  Re0  1  0.232560  0.442044  0.456221  1
  Br  Br1  1  0.514363  0.261850  0.517105  1
  Br  Br2  1  0.766782  0.577435  0.557400  1
  Br  Br3  1  0.491436  0.681101  0.744793  1
  Br  Br4  1  0.051725  0.887922  0.865551  1
  Br  Br5  1  0.892701  0.160526  0.005662  1
  Br  Br6  1  0.647769  0.321534  0.291326  1
  Br  Br7  1  0.614557  0.343580  0.842392  1
  Br  Br8  1  0.350512  0.750254  0.711612  1
  Br  Br9  1  0.334498  0.584940  0.234874  1
  Br  Br10  1  0.645872  0.141868  0.807766  1
  Br  Br11  1  0.908512  0.539966  0.355141  1
  Br  Br12  1  0.057730  0.953401  0.637313  1
  Br  Br13  1  0.893252  0.108418  0.245756  1
  Br  Br14  1  0.891198  0.217186  0.784330  1
  Br  Br15  1  0.649291  0.046278  0.224837  1
  Br  Br16  1  0.022013  0.817412  0.111337  1
  Br  Br17  1  0.366702  0.972543  0.722513  1
  Br  Br18  1  0.898496  0.317728  0.308366  1
  Br  Br19  1  0.873186  0.930029  0.713728  1
  Br  Br20  1  0.897505  0.665000  0.794709  1
  Br  Br21  1  0.310522  0.025900  0.302945  1
  Br  Br22  1  0.338166  0.315159  0.291579  1
  Br  Br23  1  0.627164  0.613171  0.786894  1
  Br  Br24  1  0.120918  0.404093  0.356531  1
  Br  Br25  1  0.707039  0.908048  0.791574  1
  Br  Br26  1  0.878081  0.455049  0.799315  1
  Br  Br27  1  0.488145  0.037559  0.262860  1
  Br  Br28  1  0.152193  0.299758  0.637073  1
  Br  Br29  1  0.673594  0.772078  0.266578  1
  Br  Br30  1  0.847819  0.797770  0.191873  1
  Br  Br31  1  0.378803  0.195967  0.738150  1
  Br  Br32  1  0.347010  0.482591  0.549956  1
  Br  Br33  1  0.654739  0.546592  0.273261  1
  Br  Br34  1  0.160293  0.621093  0.546243  1
  Br  Br35  1  0.314857  0.804157  0.272439  1
