# generated using pymatgen
data_Y4FeMoOs6
_symmetry_space_group_name_H-M   'P 1'
_cell_length_a   5.26450208
_cell_length_b   5.26450193
_cell_length_c   8.90340700
_cell_angle_alpha   90.00000000
_cell_angle_beta   90.00000000
_cell_angle_gamma   118.00041683
_symmetry_Int_Tables_number   1
_chemical_formula_structural   Y4FeMoOs6
_chemical_formula_sum   'Y4 Fe1 Mo1 Os6'
_cell_volume   217.87332645
_cell_formula_units_Z   1
loop_
 _symmetry_equiv_pos_site_id
 _symmetry_equiv_pos_as_xyz
  1  'x, y, z'
loop_
 _atom_site_type_symbol
 _atom_site_label
 _atom_site_symmetry_multiplicity
 _atom_site_fract_x
 _atom_site_fract_y
 _atom_site_fract_z
 _atom_site_occupancy
  Y  Y0  1  0.328215  0.671785  0.439789  1
  Y  Y1  1  0.667368  0.332632  0.566752  1
  Y  Y2  1  0.667368  0.332632  0.933248  1
  Y  Y3  1  0.328215  0.671785  0.060211  1
  Fe  Fe4  1  0.170941  0.829059  0.750000  1
  Mo  Mo5  1  0.836905  0.163095  0.250000  1
  Os  Os6  1  0.996052  0.003948  0.504365  1
  Os  Os7  1  0.996052  0.003948  0.995635  1
  Os  Os8  1  0.824243  0.652314  0.250000  1
  Os  Os9  1  0.347686  0.175757  0.250000  1
  Os  Os10  1  0.178053  0.341098  0.750000  1
  Os  Os11  1  0.658902  0.821947  0.750000  1
