# generated using pymatgen
data_Dy5Y5IrPt5
_symmetry_space_group_name_H-M   'P 1'
_cell_length_a   11.06752866
_cell_length_b   11.06608600
_cell_length_c   6.43235796
_cell_angle_alpha   90.00000000
_cell_angle_beta   90.06268781
_cell_angle_gamma   90.00000000
_symmetry_Int_Tables_number   1
_chemical_formula_structural   Dy5Y5IrPt5
_chemical_formula_sum   'Dy10 Y10 Ir2 Pt10'
_cell_volume   787.79757788
_cell_formula_units_Z   2
loop_
 _symmetry_equiv_pos_site_id
 _symmetry_equiv_pos_as_xyz
  1  'x, y, z'
loop_
 _atom_site_type_symbol
 _atom_site_label
 _atom_site_symmetry_multiplicity
 _atom_site_fract_x
 _atom_site_fract_y
 _atom_site_fract_z
 _atom_site_occupancy
  Dy  Dy0  1  0.795435  0.412187  0.123505  1
  Dy  Dy1  1  0.795435  0.587813  0.623505  1
  Dy  Dy2  1  0.912150  0.704510  0.123444  1
  Dy  Dy3  1  0.912150  0.295490  0.623444  1
  Dy  Dy4  1  0.087769  0.704414  0.623312  1
  Dy  Dy5  1  0.087769  0.295586  0.123312  1
  Dy  Dy6  1  0.000019  0.000047  0.500861  1
  Dy  Dy7  1  0.000019  0.999953  0.000861  1
  Dy  Dy8  1  0.500080  0.499982  0.000613  1
  Dy  Dy9  1  0.500080  0.500018  0.500613  1
  Y  Y10  1  0.292478  0.088642  0.376700  1
  Y  Y11  1  0.292478  0.911358  0.876700  1
  Y  Y12  1  0.707508  0.088656  0.876698  1
  Y  Y13  1  0.707508  0.911344  0.376698  1
  Y  Y14  1  0.588590  0.792402  0.876784  1
  Y  Y15  1  0.588590  0.207598  0.376784  1
  Y  Y16  1  0.411339  0.792539  0.376671  1
  Y  Y17  1  0.411339  0.207461  0.876671  1
  Y  Y18  1  0.205089  0.412074  0.623627  1
  Y  Y19  1  0.205089  0.587926  0.123627  1
  Ir  Ir20  1  0.999088  0.499998  0.878035  1
  Ir  Ir21  1  0.999088  0.500002  0.378035  1
  Pt  Pt22  1  0.846827  0.153219  0.250301  1
  Pt  Pt23  1  0.846827  0.846781  0.750301  1
  Pt  Pt24  1  0.153129  0.152734  0.750561  1
  Pt  Pt25  1  0.153129  0.847266  0.250561  1
  Pt  Pt26  1  0.653257  0.346825  0.750365  1
  Pt  Pt27  1  0.653257  0.653175  0.250365  1
  Pt  Pt28  1  0.347245  0.346540  0.249638  1
  Pt  Pt29  1  0.347245  0.653460  0.749638  1
  Pt  Pt30  1  0.499996  0.000033  0.118888  1
  Pt  Pt31  1  0.499996  0.999967  0.618888  1
