# generated using pymatgen
data_Pr5YU4O20
_symmetry_space_group_name_H-M   'P 1'
_cell_length_a   6.78647209
_cell_length_b   7.72658838
_cell_length_c   8.64346446
_cell_angle_alpha   101.57526728
_cell_angle_beta   97.70757286
_cell_angle_gamma   107.17121070
_symmetry_Int_Tables_number   1
_chemical_formula_structural   Pr5YU4O20
_chemical_formula_sum   'Pr5 Y1 U4 O20'
_cell_volume   415.07175169
_cell_formula_units_Z   1
loop_
 _symmetry_equiv_pos_site_id
 _symmetry_equiv_pos_as_xyz
  1  'x, y, z'
loop_
 _atom_site_type_symbol
 _atom_site_label
 _atom_site_symmetry_multiplicity
 _atom_site_fract_x
 _atom_site_fract_y
 _atom_site_fract_z
 _atom_site_occupancy
  Pr  Pr0  1  0.612218  0.703856  0.699596  1
  Pr  Pr1  1  0.387782  0.296144  0.300404  1
  Pr  Pr2  1  0.199038  0.897949  0.892898  1
  Pr  Pr3  1  0.000000  0.500000  0.500000  1
  Pr  Pr4  1  0.800962  0.102051  0.107102  1
  Y  Y5  1  0.000000  0.000000  0.500000  1
  U  U6  1  0.401857  0.804361  0.302256  1
  U  U7  1  0.198398  0.401232  0.900982  1
  U  U8  1  0.801602  0.598768  0.099018  1
  U  U9  1  0.598143  0.195639  0.697744  1
  O  O10  1  0.438184  0.534492  0.132472  1
  O  O11  1  0.557460  0.994628  0.836684  1
  O  O12  1  0.273684  0.152153  0.742251  1
  O  O13  1  0.360335  0.600479  0.437202  1
  O  O14  1  0.055230  0.733752  0.326038  1
  O  O15  1  0.442540  0.005372  0.163316  1
  O  O16  1  0.150270  0.190387  0.028374  1
  O  O17  1  0.561816  0.465508  0.867528  1
  O  O18  1  0.855473  0.342317  0.948937  1
  O  O19  1  0.254626  0.600600  0.763990  1
  O  O20  1  0.955082  0.779975  0.646322  1
  O  O21  1  0.353964  0.056898  0.456178  1
  O  O22  1  0.646036  0.943102  0.543822  1
  O  O23  1  0.044918  0.220025  0.353678  1
  O  O24  1  0.745374  0.399400  0.236010  1
  O  O25  1  0.144527  0.657683  0.051063  1
  O  O26  1  0.849730  0.809613  0.971626  1
  O  O27  1  0.944770  0.266248  0.673962  1
  O  O28  1  0.639665  0.399521  0.562798  1
  O  O29  1  0.726316  0.847847  0.257749  1
