# generated using pymatgen
data_SmPu(Ga4Ni)2
_symmetry_space_group_name_H-M   'P 1'
_cell_length_a   4.12796238
_cell_length_b   6.49594000
_cell_length_c   8.03731611
_cell_angle_alpha   90.00000000
_cell_angle_beta   104.88026045
_cell_angle_gamma   90.00000000
_symmetry_Int_Tables_number   1
_chemical_formula_structural   SmPu(Ga4Ni)2
_chemical_formula_sum   'Sm1 Pu1 Ga8 Ni2'
_cell_volume   208.29303152
_cell_formula_units_Z   1
loop_
 _symmetry_equiv_pos_site_id
 _symmetry_equiv_pos_as_xyz
  1  'x, y, z'
loop_
 _atom_site_type_symbol
 _atom_site_label
 _atom_site_symmetry_multiplicity
 _atom_site_fract_x
 _atom_site_fract_y
 _atom_site_fract_z
 _atom_site_occupancy
  Sm  Sm0  1  0.115567  0.250000  0.231135  1
  Pu  Pu1  1  0.885179  0.750000  0.770357  1
  Ga  Ga2  1  0.497834  0.508372  0.995668  1
  Ga  Ga3  1  0.497834  0.991628  0.995668  1
  Ga  Ga4  1  0.072041  0.750000  0.144082  1
  Ga  Ga5  1  0.926497  0.250000  0.852994  1
  Ga  Ga6  1  0.687735  0.551021  0.375469  1
  Ga  Ga7  1  0.314854  0.452031  0.629708  1
  Ga  Ga8  1  0.687735  0.948979  0.375469  1
  Ga  Ga9  1  0.314854  0.047969  0.629708  1
  Ni  Ni10  1  0.223007  0.750000  0.446014  1
  Ni  Ni11  1  0.776864  0.250000  0.553728  1
