# generated using pymatgen
data_Er5Lu5(RuRh)2
_symmetry_space_group_name_H-M   'P 1'
_cell_length_a   6.31354008
_cell_length_b   7.21324889
_cell_length_c   8.38039500
_cell_angle_alpha   96.81575674
_cell_angle_beta   112.42067248
_cell_angle_gamma   90.01765551
_symmetry_Int_Tables_number   1
_chemical_formula_structural   Er5Lu5(RuRh)2
_chemical_formula_sum   'Er5 Lu5 Ru2 Rh2'
_cell_volume   349.87767399
_cell_formula_units_Z   1
loop_
 _symmetry_equiv_pos_site_id
 _symmetry_equiv_pos_as_xyz
  1  'x, y, z'
loop_
 _atom_site_type_symbol
 _atom_site_label
 _atom_site_symmetry_multiplicity
 _atom_site_fract_x
 _atom_site_fract_y
 _atom_site_fract_z
 _atom_site_occupancy
  Er  Er0  1  0.524898  0.080889  0.815117  1
  Er  Er1  1  0.476087  0.918409  0.185220  1
  Er  Er2  1  0.711936  0.416327  0.188679  1
  Er  Er3  1  0.287504  0.584406  0.811422  1
  Er  Er4  1  0.290462  0.312333  0.435565  1
  Lu  Lu5  1  0.709965  0.687722  0.565361  1
  Lu  Lu6  1  0.858593  0.182114  0.563246  1
  Lu  Lu7  1  0.141156  0.817403  0.436969  1
  Lu  Lu8  1  0.077874  0.247683  0.998373  1
  Lu  Lu9  1  0.921496  0.751816  0.000531  1
  Ru  Ru10  1  0.103310  0.923764  0.781626  1
  Ru  Ru11  1  0.895369  0.075533  0.217431  1
  Rh  Rh12  1  0.321988  0.575665  0.223009  1
  Rh  Rh13  1  0.679362  0.425937  0.777453  1
