# generated using pymatgen
data_RbScBeS3
_symmetry_space_group_name_H-M   'P 1'
_cell_length_a   7.63299601
_cell_length_b   7.63299674
_cell_length_c   9.92275700
_cell_angle_alpha   90.00000000
_cell_angle_beta   90.00000000
_cell_angle_gamma   151.72725542
_symmetry_Int_Tables_number   1
_chemical_formula_structural   RbScBeS3
_chemical_formula_sum   'Rb2 Sc2 Be2 S6'
_cell_volume   273.84052550
_cell_formula_units_Z   2
loop_
 _symmetry_equiv_pos_site_id
 _symmetry_equiv_pos_as_xyz
  1  'x, y, z'
loop_
 _atom_site_type_symbol
 _atom_site_label
 _atom_site_symmetry_multiplicity
 _atom_site_fract_x
 _atom_site_fract_y
 _atom_site_fract_z
 _atom_site_occupancy
  Rb  Rb0  1  0.740474  0.259527  0.250000  1
  Rb  Rb1  1  0.259527  0.740474  0.750000  1
  Sc  Sc2  1  0.000000  0.000000  0.000000  1
  Sc  Sc3  1  0.000000  0.000000  0.500000  1
  Be  Be4  1  0.463460  0.536541  0.250000  1
  Be  Be5  1  0.536541  0.463460  0.750000  1
  S  S6  1  0.389008  0.610993  0.070558  1
  S  S7  1  0.049493  0.950509  0.250000  1
  S  S8  1  0.389008  0.610993  0.429442  1
  S  S9  1  0.610993  0.389008  0.570558  1
  S  S10  1  0.950509  0.049493  0.750000  1
  S  S11  1  0.610993  0.389008  0.929441  1
