# generated using pymatgen
data_Pr4Y6Ir2Br15
_symmetry_space_group_name_H-M   'P 1'
_cell_length_a   9.60307889
_cell_length_b   10.28108172
_cell_length_c   11.12540700
_cell_angle_alpha   91.58302025
_cell_angle_beta   114.00016281
_cell_angle_gamma   110.97176251
_symmetry_Int_Tables_number   1
_chemical_formula_structural   Pr4Y6Ir2Br15
_chemical_formula_sum   'Pr4 Y6 Ir2 Br15'
_cell_volume   917.45924586
_cell_formula_units_Z   1
loop_
 _symmetry_equiv_pos_site_id
 _symmetry_equiv_pos_as_xyz
  1  'x, y, z'
loop_
 _atom_site_type_symbol
 _atom_site_label
 _atom_site_symmetry_multiplicity
 _atom_site_fract_x
 _atom_site_fract_y
 _atom_site_fract_z
 _atom_site_occupancy
  Pr  Pr0  1  0.807532  0.412606  0.279978  1
  Pr  Pr1  1  0.192468  0.587394  0.720022  1
  Pr  Pr2  1  0.677214  0.748492  0.815566  1
  Pr  Pr3  1  0.322786  0.251508  0.184434  1
  Y  Y4  1  0.527130  0.704319  0.101730  1
  Y  Y5  1  0.472870  0.295681  0.898270  1
  Y  Y6  1  0.589450  0.038976  0.336799  1
  Y  Y7  1  0.410550  0.961024  0.663201  1
  Y  Y8  1  0.729470  0.079293  0.048951  1
  Y  Y9  1  0.270530  0.920707  0.951049  1
  Ir  Ir10  1  0.468412  0.828796  0.880237  1
  Ir  Ir11  1  0.531588  0.171204  0.119763  1
  Br  Br12  1  0.000000  0.000000  0.000000  1
  Br  Br13  1  0.630148  0.892626  0.577799  1
  Br  Br14  1  0.369852  0.107374  0.422201  1
  Br  Br15  1  0.877748  0.289916  0.527997  1
  Br  Br16  1  0.122252  0.710084  0.472003  1
  Br  Br17  1  0.308464  0.763056  0.188162  1
  Br  Br18  1  0.691536  0.236944  0.811838  1
  Br  Br19  1  0.049749  0.335710  0.218663  1
  Br  Br20  1  0.182120  0.064333  0.702126  1
  Br  Br21  1  0.817880  0.935667  0.297874  1
  Br  Br22  1  0.255083  0.416173  0.949909  1
  Br  Br23  1  0.744917  0.583827  0.050091  1
  Br  Br24  1  0.408973  0.456472  0.667473  1
  Br  Br25  1  0.591027  0.543528  0.332527  1
  Br  Br26  1  0.950251  0.664290  0.781337  1
