# generated using pymatgen
data_Tb3Fe2P6Ir7
_symmetry_space_group_name_H-M   'P 1'
_cell_length_a   3.90888400
_cell_length_b   11.18724800
_cell_length_c   12.54043500
_cell_angle_alpha   90.00000000
_cell_angle_beta   90.00000000
_cell_angle_gamma   90.00000000
_symmetry_Int_Tables_number   1
_chemical_formula_structural   Tb3Fe2P6Ir7
_chemical_formula_sum   'Tb6 Fe4 P12 Ir14'
_cell_volume   548.38889248
_cell_formula_units_Z   2
loop_
 _symmetry_equiv_pos_site_id
 _symmetry_equiv_pos_as_xyz
  1  'x, y, z'
loop_
 _atom_site_type_symbol
 _atom_site_label
 _atom_site_symmetry_multiplicity
 _atom_site_fract_x
 _atom_site_fract_y
 _atom_site_fract_z
 _atom_site_occupancy
  Tb  Tb0  1  0.000000  0.500000  0.522622  1
  Tb  Tb1  1  0.500000  0.000000  0.477069  1
  Tb  Tb2  1  0.500000  0.818613  0.198335  1
  Tb  Tb3  1  0.500000  0.181387  0.198335  1
  Tb  Tb4  1  0.000000  0.674099  0.802812  1
  Tb  Tb5  1  0.000000  0.325901  0.802812  1
  Fe  Fe6  1  0.000000  0.500000  0.995277  1
  Fe  Fe7  1  0.500000  0.000000  0.000895  1
  Fe  Fe8  1  0.500000  0.337451  0.997536  1
  Fe  Fe9  1  0.500000  0.662549  0.997536  1
  P  P10  1  0.500000  0.500000  0.896083  1
  P  P11  1  0.000000  0.000000  0.112719  1
  P  P12  1  0.500000  0.500000  0.350637  1
  P  P13  1  0.000000  0.000000  0.647201  1
  P  P14  1  0.500000  0.314687  0.621730  1
  P  P15  1  0.500000  0.685313  0.621730  1
  P  P16  1  0.000000  0.186006  0.379115  1
  P  P17  1  0.000000  0.813994  0.379115  1
  P  P18  1  0.500000  0.834756  0.900119  1
  P  P19  1  0.500000  0.165244  0.900119  1
  P  P20  1  0.000000  0.654391  0.096780  1
  P  P21  1  0.000000  0.345609  0.096780  1
  Ir  Ir22  1  0.500000  0.500000  0.162071  1
  Ir  Ir23  1  0.000000  0.000000  0.832659  1
  Ir  Ir24  1  0.500000  0.500000  0.704957  1
  Ir  Ir25  1  0.000000  0.000000  0.296740  1
  Ir  Ir26  1  0.000000  0.165967  0.003998  1
  Ir  Ir27  1  0.000000  0.834033  0.003998  1
  Ir  Ir28  1  0.500000  0.296508  0.428353  1
  Ir  Ir29  1  0.500000  0.703492  0.428353  1
  Ir  Ir30  1  0.000000  0.205241  0.572179  1
  Ir  Ir31  1  0.000000  0.794759  0.572179  1
  Ir  Ir32  1  0.500000  0.870760  0.717954  1
  Ir  Ir33  1  0.500000  0.129240  0.717954  1
  Ir  Ir34  1  0.000000  0.628069  0.281624  1
  Ir  Ir35  1  0.000000  0.371931  0.281624  1
