# generated using pymatgen
data_BaZn4Ir
_symmetry_space_group_name_H-M   'P 1'
_cell_length_a   6.90485655
_cell_length_b   6.90485729
_cell_length_c   5.25169600
_cell_angle_alpha   90.00000000
_cell_angle_beta   90.00000000
_cell_angle_gamma   103.57983563
_symmetry_Int_Tables_number   1
_chemical_formula_structural   BaZn4Ir
_chemical_formula_sum   'Ba2 Zn8 Ir2'
_cell_volume   243.38551818
_cell_formula_units_Z   2
loop_
 _symmetry_equiv_pos_site_id
 _symmetry_equiv_pos_as_xyz
  1  'x, y, z'
loop_
 _atom_site_type_symbol
 _atom_site_label
 _atom_site_symmetry_multiplicity
 _atom_site_fract_x
 _atom_site_fract_y
 _atom_site_fract_z
 _atom_site_occupancy
  Ba  Ba0  1  0.667558  0.667558  0.250000  1
  Ba  Ba1  1  0.332442  0.332442  0.750000  1
  Zn  Zn2  1  0.933209  0.933209  0.750000  1
  Zn  Zn3  1  0.066791  0.066791  0.250000  1
  Zn  Zn4  1  0.530985  0.930711  0.751411  1
  Zn  Zn5  1  0.469015  0.069289  0.251411  1
  Zn  Zn6  1  0.930711  0.530985  0.748589  1
  Zn  Zn7  1  0.069289  0.469015  0.248589  1
  Zn  Zn8  1  0.790879  0.209121  0.000000  1
  Zn  Zn9  1  0.209121  0.790879  0.500000  1
  Ir  Ir10  1  0.798564  0.201436  0.500000  1
  Ir  Ir11  1  0.201436  0.798564  0.000000  1
