# generated using pymatgen
data_Zr5Pa3(CdPd2)4
_symmetry_space_group_name_H-M   'P 1'
_cell_length_a   7.56278094
_cell_length_b   7.56278047
_cell_length_c   7.14535600
_cell_angle_alpha   90.00000000
_cell_angle_beta   90.00000000
_cell_angle_gamma   88.45258176
_symmetry_Int_Tables_number   1
_chemical_formula_structural   Zr5Pa3(CdPd2)4
_chemical_formula_sum   'Zr5 Pa3 Cd4 Pd8'
_cell_volume   408.53425602
_cell_formula_units_Z   1
loop_
 _symmetry_equiv_pos_site_id
 _symmetry_equiv_pos_as_xyz
  1  'x, y, z'
loop_
 _atom_site_type_symbol
 _atom_site_label
 _atom_site_symmetry_multiplicity
 _atom_site_fract_x
 _atom_site_fract_y
 _atom_site_fract_z
 _atom_site_occupancy
  Zr  Zr0  1  0.812704  0.185964  0.500000  1
  Zr  Zr1  1  0.686006  0.686006  0.000000  1
  Zr  Zr2  1  0.185964  0.812704  0.500000  1
  Zr  Zr3  1  0.314814  0.314814  0.000000  1
  Zr  Zr4  1  0.347419  0.347419  0.500000  1
  Pa  Pa5  1  0.647168  0.647168  0.500000  1
  Pa  Pa6  1  0.858378  0.147306  0.000000  1
  Pa  Pa7  1  0.147306  0.858378  0.000000  1
  Cd  Cd8  1  0.005378  0.497530  0.254896  1
  Cd  Cd9  1  0.497530  0.005378  0.745104  1
  Cd  Cd10  1  0.497530  0.005378  0.254896  1
  Cd  Cd11  1  0.005378  0.497530  0.745104  1
  Pd  Pd12  1  0.634512  0.367430  0.210900  1
  Pd  Pd13  1  0.367430  0.634512  0.789100  1
  Pd  Pd14  1  0.863814  0.863814  0.709430  1
  Pd  Pd15  1  0.634512  0.367430  0.789100  1
  Pd  Pd16  1  0.367430  0.634512  0.210900  1
  Pd  Pd17  1  0.131456  0.131456  0.292103  1
  Pd  Pd18  1  0.863814  0.863814  0.290570  1
  Pd  Pd19  1  0.131456  0.131456  0.707897  1
