# generated using pymatgen
data_HfZn4Ru
_symmetry_space_group_name_H-M   'P 1'
_cell_length_a   4.99569357
_cell_length_b   4.99569273
_cell_length_c   4.99569500
_cell_angle_alpha   60.00000484
_cell_angle_beta   60.00001043
_cell_angle_gamma   59.99999754
_symmetry_Int_Tables_number   1
_chemical_formula_structural   HfZn4Ru
_chemical_formula_sum   'Hf1 Zn4 Ru1'
_cell_volume   88.16018040
_cell_formula_units_Z   1
loop_
 _symmetry_equiv_pos_site_id
 _symmetry_equiv_pos_as_xyz
  1  'x, y, z'
loop_
 _atom_site_type_symbol
 _atom_site_label
 _atom_site_symmetry_multiplicity
 _atom_site_fract_x
 _atom_site_fract_y
 _atom_site_fract_z
 _atom_site_occupancy
  Hf  Hf0  1  0.500000  0.500000  0.500000  1
  Zn  Zn1  1  0.124516  0.626450  0.124516  1
  Zn  Zn2  1  0.124516  0.124516  0.626450  1
  Zn  Zn3  1  0.626450  0.124516  0.124516  1
  Zn  Zn4  1  0.124516  0.124516  0.124516  1
  Ru  Ru5  1  0.750000  0.750000  0.750000  1
