# generated using pymatgen
data_Yb3Ho(IrO4)4
_symmetry_space_group_name_H-M   'P 1'
_cell_length_a   5.33211278
_cell_length_b   7.39502245
_cell_length_c   7.62916905
_cell_angle_alpha   80.27439583
_cell_angle_beta   90.34128350
_cell_angle_gamma   90.03977026
_symmetry_Int_Tables_number   1
_chemical_formula_structural   Yb3Ho(IrO4)4
_chemical_formula_sum   'Yb3 Ho1 Ir4 O16'
_cell_volume   296.49774946
_cell_formula_units_Z   1
loop_
 _symmetry_equiv_pos_site_id
 _symmetry_equiv_pos_as_xyz
  1  'x, y, z'
loop_
 _atom_site_type_symbol
 _atom_site_label
 _atom_site_symmetry_multiplicity
 _atom_site_fract_x
 _atom_site_fract_y
 _atom_site_fract_z
 _atom_site_occupancy
  Yb  Yb0  1  0.715928  0.892114  0.348993  1
  Yb  Yb1  1  0.280049  0.110907  0.648430  1
  Yb  Yb2  1  0.784666  0.391314  0.345924  1
  Ho  Ho3  1  0.212974  0.608960  0.647178  1
  Ir  Ir4  1  0.769960  0.298921  0.835477  1
  Ir  Ir5  1  0.232012  0.699302  0.164119  1
  Ir  Ir6  1  0.270972  0.198622  0.166875  1
  Ir  Ir7  1  0.729692  0.801464  0.836432  1
  O  O8  1  0.907906  0.801495  0.059292  1
  O  O9  1  0.087559  0.196581  0.945660  1
  O  O10  1  0.373748  0.946888  0.161587  1
  O  O11  1  0.629604  0.054047  0.830502  1
  O  O12  1  0.130194  0.445831  0.167219  1
  O  O13  1  0.878013  0.553942  0.835751  1
  O  O14  1  0.590611  0.302211  0.056738  1
  O  O15  1  0.405434  0.694589  0.940270  1
  O  O16  1  0.971944  0.328863  0.618501  1
  O  O17  1  0.032750  0.680418  0.384520  1
  O  O18  1  0.471063  0.179305  0.381357  1
  O  O19  1  0.526152  0.814915  0.618446  1
  O  O20  1  0.509061  0.621744  0.310874  1
  O  O21  1  0.483951  0.382139  0.694168  1
  O  O22  1  0.992396  0.121122  0.309890  1
  O  O23  1  0.013362  0.874304  0.691795  1
