# generated using pymatgen
data_Li4Ho(ThSn2)2
_symmetry_space_group_name_H-M   'P 1'
_cell_length_a   8.69901864
_cell_length_b   8.69901823
_cell_length_c   8.69901943
_cell_angle_alpha   148.55502403
_cell_angle_beta   131.80962573
_cell_angle_gamma   58.68122526
_symmetry_Int_Tables_number   1
_chemical_formula_structural   Li4Ho(ThSn2)2
_chemical_formula_sum   'Li4 Ho1 Th2 Sn4'
_cell_volume   253.92973967
_cell_formula_units_Z   1
loop_
 _symmetry_equiv_pos_site_id
 _symmetry_equiv_pos_as_xyz
  1  'x, y, z'
loop_
 _atom_site_type_symbol
 _atom_site_label
 _atom_site_symmetry_multiplicity
 _atom_site_fract_x
 _atom_site_fract_y
 _atom_site_fract_z
 _atom_site_occupancy
  Li  Li0  1  0.986185  0.672545  0.313639  1
  Li  Li1  1  0.013815  0.327455  0.686361  1
  Li  Li2  1  0.358906  0.672545  0.686361  1
  Li  Li3  1  0.641094  0.327455  0.313639  1
  Ho  Ho4  1  0.000000  0.000000  0.000000  1
  Th  Th5  1  0.374379  0.874379  0.500000  1
  Th  Th6  1  0.625621  0.125621  0.500000  1
  Sn  Sn7  1  0.708616  0.500000  0.208616  1
  Sn  Sn8  1  0.291384  0.500000  0.791384  1
  Sn  Sn9  1  0.213788  0.213788  0.000000  1
  Sn  Sn10  1  0.786212  0.786212  0.000000  1
