# generated using pymatgen
data_Pr3Nd7(SnBi)4
_symmetry_space_group_name_H-M   'P 1'
_cell_length_a   8.45051000
_cell_length_b   8.50433012
_cell_length_c   16.20100222
_cell_angle_alpha   90.01892646
_cell_angle_beta   90.00000000
_cell_angle_gamma   90.00000000
_symmetry_Int_Tables_number   1
_chemical_formula_structural   Pr3Nd7(SnBi)4
_chemical_formula_sum   'Pr6 Nd14 Sn8 Bi8'
_cell_volume   1164.29997437
_cell_formula_units_Z   2
loop_
 _symmetry_equiv_pos_site_id
 _symmetry_equiv_pos_as_xyz
  1  'x, y, z'
loop_
 _atom_site_type_symbol
 _atom_site_label
 _atom_site_symmetry_multiplicity
 _atom_site_fract_x
 _atom_site_fract_y
 _atom_site_fract_z
 _atom_site_occupancy
  Pr  Pr0  1  0.451371  0.674336  0.390536  1
  Pr  Pr1  1  0.951371  0.825664  0.109464  1
  Pr  Pr2  1  0.451391  0.674348  0.109467  1
  Pr  Pr3  1  0.951391  0.825652  0.390533  1
  Pr  Pr4  1  0.548599  0.325602  0.609443  1
  Pr  Pr5  1  0.048599  0.174398  0.890557  1
  Nd  Nd6  1  0.391221  0.835363  0.879045  1
  Nd  Nd7  1  0.891221  0.664637  0.620955  1
  Nd  Nd8  1  0.608798  0.164707  0.379040  1
  Nd  Nd9  1  0.108798  0.335293  0.120960  1
  Nd  Nd10  1  0.608794  0.164698  0.120906  1
  Nd  Nd11  1  0.108794  0.335302  0.379094  1
  Nd  Nd12  1  0.391143  0.835405  0.620995  1
  Nd  Nd13  1  0.891143  0.664595  0.879005  1
  Nd  Nd14  1  0.548707  0.325863  0.890203  1
  Nd  Nd15  1  0.048707  0.174137  0.609797  1
  Nd  Nd16  1  0.217727  0.496247  0.750001  1
  Nd  Nd17  1  0.717727  0.003753  0.749999  1
  Nd  Nd18  1  0.782291  0.503605  0.249993  1
  Nd  Nd19  1  0.282291  0.996395  0.250007  1
  Sn  Sn20  1  0.589846  0.622700  0.750107  1
  Sn  Sn21  1  0.089846  0.877300  0.749893  1
  Sn  Sn22  1  0.410066  0.377115  0.249993  1
  Sn  Sn23  1  0.910066  0.122885  0.250007  1
  Sn  Sn24  1  0.349752  0.136589  0.750108  1
  Sn  Sn25  1  0.849752  0.363411  0.749892  1
  Sn  Sn26  1  0.650327  0.863753  0.250010  1
  Sn  Sn27  1  0.150327  0.636247  0.249990  1
  Bi  Bi28  1  0.269385  0.020077  0.044947  1
  Bi  Bi29  1  0.769385  0.479923  0.455053  1
  Bi  Bi30  1  0.731097  0.980254  0.545058  1
  Bi  Bi31  1  0.231097  0.519746  0.954942  1
  Bi  Bi32  1  0.730366  0.980265  0.954973  1
  Bi  Bi33  1  0.230366  0.519735  0.545027  1
  Bi  Bi34  1  0.269120  0.020332  0.455272  1
  Bi  Bi35  1  0.769120  0.479668  0.044728  1
