# generated using pymatgen
data_TmNbB6Ru
_symmetry_space_group_name_H-M   'P 1'
_cell_length_a   3.47143000
_cell_length_b   8.99441400
_cell_length_c   11.26187100
_cell_angle_alpha   90.00000000
_cell_angle_beta   90.00000000
_cell_angle_gamma   90.00000000
_symmetry_Int_Tables_number   1
_chemical_formula_structural   TmNbB6Ru
_chemical_formula_sum   'Tm4 Nb4 B24 Ru4'
_cell_volume   351.63478807
_cell_formula_units_Z   4
loop_
 _symmetry_equiv_pos_site_id
 _symmetry_equiv_pos_as_xyz
  1  'x, y, z'
loop_
 _atom_site_type_symbol
 _atom_site_label
 _atom_site_symmetry_multiplicity
 _atom_site_fract_x
 _atom_site_fract_y
 _atom_site_fract_z
 _atom_site_occupancy
  Tm  Tm0  1  0.000000  0.323071  0.412878  1
  Tm  Tm1  1  0.000000  0.676929  0.587122  1
  Tm  Tm2  1  0.000000  0.823071  0.087122  1
  Tm  Tm3  1  0.000000  0.176929  0.912878  1
  Nb  Nb4  1  0.000000  0.945844  0.375205  1
  Nb  Nb5  1  0.000000  0.054156  0.624795  1
  Nb  Nb6  1  0.000000  0.445844  0.124795  1
  Nb  Nb7  1  0.000000  0.554156  0.875205  1
  B  B8  1  0.500000  0.554065  0.434881  1
  B  B9  1  0.500000  0.445935  0.565119  1
  B  B10  1  0.500000  0.054065  0.065119  1
  B  B11  1  0.500000  0.945935  0.934881  1
  B  B12  1  0.500000  0.753587  0.419562  1
  B  B13  1  0.500000  0.246413  0.580438  1
  B  B14  1  0.500000  0.253587  0.080438  1
  B  B15  1  0.500000  0.746413  0.919562  1
  B  B16  1  0.500000  0.797981  0.262648  1
  B  B17  1  0.500000  0.202019  0.737352  1
  B  B18  1  0.500000  0.297981  0.237352  1
  B  B19  1  0.500000  0.702019  0.762648  1
  B  B20  1  0.500000  0.629819  0.181468  1
  B  B21  1  0.500000  0.370181  0.818532  1
  B  B22  1  0.500000  0.129819  0.318532  1
  B  B23  1  0.500000  0.870181  0.681468  1
  B  B24  1  0.500000  0.980231  0.213161  1
  B  B25  1  0.500000  0.019769  0.786839  1
  B  B26  1  0.500000  0.480231  0.286839  1
  B  B27  1  0.500000  0.519769  0.713161  1
  B  B28  1  0.500000  0.600901  0.026890  1
  B  B29  1  0.500000  0.399099  0.973110  1
  B  B30  1  0.500000  0.100901  0.473110  1
  B  B31  1  0.500000  0.899099  0.526890  1
  Ru  Ru32  1  0.000000  0.642902  0.318196  1
  Ru  Ru33  1  0.000000  0.357098  0.681804  1
  Ru  Ru34  1  0.000000  0.142902  0.181804  1
  Ru  Ru35  1  0.000000  0.857098  0.818196  1
