# generated using pymatgen
data_YbHo6PtI12
_symmetry_space_group_name_H-M   'P 1'
_cell_length_a   9.76532081
_cell_length_b   9.76532160
_cell_length_c   9.76532139
_cell_angle_alpha   107.00775824
_cell_angle_beta   107.00776038
_cell_angle_gamma   107.00776533
_symmetry_Int_Tables_number   1
_chemical_formula_structural   YbHo6PtI12
_chemical_formula_sum   'Yb1 Ho6 Pt1 I12'
_cell_volume   775.37773034
_cell_formula_units_Z   1
loop_
 _symmetry_equiv_pos_site_id
 _symmetry_equiv_pos_as_xyz
  1  'x, y, z'
loop_
 _atom_site_type_symbol
 _atom_site_label
 _atom_site_symmetry_multiplicity
 _atom_site_fract_x
 _atom_site_fract_y
 _atom_site_fract_z
 _atom_site_occupancy
  Yb  Yb0  1  0.000000  0.000000  0.000000  1
  Ho  Ho1  1  0.401162  0.471918  0.198116  1
  Ho  Ho2  1  0.198116  0.401162  0.471918  1
  Ho  Ho3  1  0.471918  0.198116  0.401162  1
  Ho  Ho4  1  0.598838  0.528082  0.801884  1
  Ho  Ho5  1  0.801884  0.598838  0.528082  1
  Ho  Ho6  1  0.528082  0.801884  0.598838  1
  Pt  Pt7  1  0.500000  0.500000  0.500000  1
  I  I8  1  0.038750  0.347545  0.116630  1
  I  I9  1  0.116630  0.038750  0.347545  1
  I  I10  1  0.347545  0.116630  0.038750  1
  I  I11  1  0.961250  0.652455  0.883370  1
  I  I12  1  0.883370  0.961250  0.652455  1
  I  I13  1  0.652455  0.883370  0.961250  1
  I  I14  1  0.723740  0.573818  0.178269  1
  I  I15  1  0.178269  0.723740  0.573818  1
  I  I16  1  0.573818  0.178269  0.723740  1
  I  I17  1  0.276260  0.426182  0.821731  1
  I  I18  1  0.821731  0.276260  0.426182  1
  I  I19  1  0.426182  0.821731  0.276260  1
