# generated using pymatgen
data_RbY5Er(CBr6)2
_symmetry_space_group_name_H-M   'P 1'
_cell_length_a   8.89013619
_cell_length_b   8.86182145
_cell_length_c   9.40284596
_cell_angle_alpha   72.46020515
_cell_angle_beta   71.10246566
_cell_angle_gamma   72.93832705
_symmetry_Int_Tables_number   1
_chemical_formula_structural   RbY5Er(CBr6)2
_chemical_formula_sum   'Rb1 Y5 Er1 C2 Br12'
_cell_volume   652.33987762
_cell_formula_units_Z   1
loop_
 _symmetry_equiv_pos_site_id
 _symmetry_equiv_pos_as_xyz
  1  'x, y, z'
loop_
 _atom_site_type_symbol
 _atom_site_label
 _atom_site_symmetry_multiplicity
 _atom_site_fract_x
 _atom_site_fract_y
 _atom_site_fract_z
 _atom_site_occupancy
  Rb  Rb0  1  0.999571  0.500100  0.000071  1
  Y  Y1  1  0.474079  0.116132  0.182723  1
  Y  Y2  1  0.777504  0.032954  0.406695  1
  Y  Y3  1  0.593168  0.724565  0.475486  1
  Y  Y4  1  0.406657  0.275416  0.524129  1
  Y  Y5  1  0.222573  0.966925  0.593652  1
  Er  Er6  1  0.526366  0.884125  0.815391  1
  C  C7  1  0.492686  0.025886  0.423105  1
  C  C8  1  0.507390  0.973529  0.577700  1
  Br  Br9  1  0.797923  0.159828  0.082298  1
  Br  Br10  1  0.583853  0.785933  0.136958  1
  Br  Br11  1  0.350430  0.433660  0.223680  1
  Br  Br12  1  0.134295  0.070474  0.296424  1
  Br  Br13  1  0.922757  0.721737  0.353753  1
  Br  Br14  1  0.713559  0.365943  0.431194  1
  Br  Br15  1  0.286079  0.634214  0.569427  1
  Br  Br16  1  0.076952  0.278117  0.646225  1
  Br  Br17  1  0.862847  0.928955  0.705590  1
  Br  Br18  1  0.648091  0.569319  0.777458  1
  Br  Br19  1  0.417048  0.211401  0.860596  1
  Br  Br20  1  0.206174  0.840788  0.917444  1
