# generated using pymatgen
data_Dy2CoTcB8
_symmetry_space_group_name_H-M   'P 1'
_cell_length_a   3.49806900
_cell_length_b   5.93399080
_cell_length_c   11.48267449
_cell_angle_alpha   90.08929616
_cell_angle_beta   90.00000000
_cell_angle_gamma   90.00000000
_symmetry_Int_Tables_number   1
_chemical_formula_structural   Dy2CoTcB8
_chemical_formula_sum   'Dy4 Co2 Tc2 B16'
_cell_volume   238.35143262
_cell_formula_units_Z   2
loop_
 _symmetry_equiv_pos_site_id
 _symmetry_equiv_pos_as_xyz
  1  'x, y, z'
loop_
 _atom_site_type_symbol
 _atom_site_label
 _atom_site_symmetry_multiplicity
 _atom_site_fract_x
 _atom_site_fract_y
 _atom_site_fract_z
 _atom_site_occupancy
  Dy  Dy0  1  0.500000  0.374024  0.145279  1
  Dy  Dy1  1  0.500000  0.625976  0.854721  1
  Dy  Dy2  1  0.500000  0.128879  0.654001  1
  Dy  Dy3  1  0.500000  0.871121  0.345999  1
  Co  Co4  1  0.500000  0.133826  0.910639  1
  Co  Co5  1  0.500000  0.866174  0.089361  1
  Tc  Tc6  1  0.500000  0.367311  0.411407  1
  Tc  Tc7  1  0.500000  0.632689  0.588593  1
  B  B8  1  0.000000  0.111705  0.046060  1
  B  B9  1  0.000000  0.888295  0.953940  1
  B  B10  1  0.000000  0.386494  0.547154  1
  B  B11  1  0.000000  0.613506  0.452846  1
  B  B12  1  0.000000  0.134415  0.468558  1
  B  B13  1  0.000000  0.865585  0.531442  1
  B  B14  1  0.000000  0.359973  0.968179  1
  B  B15  1  0.000000  0.640027  0.031821  1
  B  B16  1  0.000000  0.020951  0.189321  1
  B  B17  1  0.000000  0.979049  0.810679  1
  B  B18  1  0.000000  0.473359  0.694577  1
  B  B19  1  0.000000  0.526641  0.305423  1
  B  B20  1  0.000000  0.212291  0.311709  1
  B  B21  1  0.000000  0.787709  0.688291  1
  B  B22  1  0.000000  0.283019  0.818040  1
  B  B23  1  0.000000  0.716981  0.181960  1
