# generated using pymatgen
data_Tb4Ho2CoBr10
_symmetry_space_group_name_H-M   'P 1'
_cell_length_a   7.39094091
_cell_length_b   9.22358379
_cell_length_c   9.20891815
_cell_angle_alpha   107.30923749
_cell_angle_beta   96.76130173
_cell_angle_gamma   105.29341440
_symmetry_Int_Tables_number   1
_chemical_formula_structural   Tb4Ho2CoBr10
_chemical_formula_sum   'Tb4 Ho2 Co1 Br10'
_cell_volume   564.85146279
_cell_formula_units_Z   1
loop_
 _symmetry_equiv_pos_site_id
 _symmetry_equiv_pos_as_xyz
  1  'x, y, z'
loop_
 _atom_site_type_symbol
 _atom_site_label
 _atom_site_symmetry_multiplicity
 _atom_site_fract_x
 _atom_site_fract_y
 _atom_site_fract_z
 _atom_site_occupancy
  Tb  Tb0  1  0.880662  0.954215  0.734149  1
  Tb  Tb1  1  0.119338  0.045785  0.265851  1
  Tb  Tb2  1  0.354056  0.131446  0.676528  1
  Tb  Tb3  1  0.645944  0.868554  0.323472  1
  Ho  Ho4  1  0.029616  0.707939  0.409294  1
  Ho  Ho5  1  0.970384  0.292061  0.590706  1
  Co  Co6  1  0.000000  0.000000  0.500000  1
  Br  Br7  1  0.455720  0.823248  0.584804  1
  Br  Br8  1  0.544280  0.176752  0.415196  1
  Br  Br9  1  0.915659  0.628786  0.669203  1
  Br  Br10  1  0.084341  0.371214  0.330797  1
  Br  Br11  1  0.246594  0.082944  0.955813  1
  Br  Br12  1  0.753406  0.917056  0.044187  1
  Br  Br13  1  0.346516  0.450223  0.769796  1
  Br  Br14  1  0.653484  0.549777  0.230204  1
  Br  Br15  1  0.786452  0.254208  0.841152  1
  Br  Br16  1  0.213548  0.745792  0.158848  1
