# generated using pymatgen
data_Tm3Si3Os2
_symmetry_space_group_name_H-M   'P 1'
_cell_length_a   5.68630881
_cell_length_b   5.68630870
_cell_length_c   13.56245000
_cell_angle_alpha   90.00000000
_cell_angle_beta   90.00000000
_cell_angle_gamma   137.01442079
_symmetry_Int_Tables_number   1
_chemical_formula_structural   Tm3Si3Os2
_chemical_formula_sum   'Tm6 Si6 Os4'
_cell_volume   298.99581322
_cell_formula_units_Z   2
loop_
 _symmetry_equiv_pos_site_id
 _symmetry_equiv_pos_as_xyz
  1  'x, y, z'
loop_
 _atom_site_type_symbol
 _atom_site_label
 _atom_site_symmetry_multiplicity
 _atom_site_fract_x
 _atom_site_fract_y
 _atom_site_fract_z
 _atom_site_occupancy
  Tm  Tm0  1  0.640980  0.359020  0.250000  1
  Tm  Tm1  1  0.359020  0.640980  0.750000  1
  Tm  Tm2  1  0.924128  0.075872  0.115519  1
  Tm  Tm3  1  0.075872  0.924128  0.884481  1
  Tm  Tm4  1  0.075872  0.924128  0.615519  1
  Tm  Tm5  1  0.924128  0.075872  0.384481  1
  Si  Si6  1  0.327510  0.672490  0.250000  1
  Si  Si7  1  0.672490  0.327510  0.750000  1
  Si  Si8  1  0.614917  0.385083  0.037928  1
  Si  Si9  1  0.385083  0.614917  0.962072  1
  Si  Si10  1  0.385083  0.614917  0.537928  1
  Si  Si11  1  0.614917  0.385083  0.462072  1
  Os  Os12  1  0.787942  0.212058  0.582672  1
  Os  Os13  1  0.212058  0.787942  0.417328  1
  Os  Os14  1  0.212058  0.787942  0.082672  1
  Os  Os15  1  0.787942  0.212058  0.917328  1
