# generated using pymatgen
data_Y8Lu12Si15Bi
_symmetry_space_group_name_H-M   'P 1'
_cell_length_a   7.40325890
_cell_length_b   7.60777930
_cell_length_c   14.43560700
_cell_angle_alpha   90.07641167
_cell_angle_beta   87.15623163
_cell_angle_gamma   90.14308233
_symmetry_Int_Tables_number   1
_chemical_formula_structural   Y8Lu12Si15Bi
_chemical_formula_sum   'Y8 Lu12 Si15 Bi1'
_cell_volume   812.04307960
_cell_formula_units_Z   1
loop_
 _symmetry_equiv_pos_site_id
 _symmetry_equiv_pos_as_xyz
  1  'x, y, z'
loop_
 _atom_site_type_symbol
 _atom_site_label
 _atom_site_symmetry_multiplicity
 _atom_site_fract_x
 _atom_site_fract_y
 _atom_site_fract_z
 _atom_site_occupancy
  Y  Y0  1  0.017428  0.179314  0.097912  1
  Y  Y1  1  0.982978  0.822082  0.902414  1
  Y  Y2  1  0.483635  0.678089  0.902307  1
  Y  Y3  1  0.998407  0.829866  0.600094  1
  Y  Y4  1  0.517487  0.321081  0.099101  1
  Y  Y5  1  0.995875  0.172781  0.398544  1
  Y  Y6  1  0.509597  0.314868  0.396680  1
  Y  Y7  1  0.515588  0.686755  0.602860  1
  Lu  Lu8  1  0.167286  0.504550  0.754465  1
  Lu  Lu9  1  0.830925  0.494682  0.252573  1
  Lu  Lu10  1  0.330892  0.007284  0.251788  1
  Lu  Lu11  1  0.671898  0.994082  0.750173  1
  Lu  Lu12  1  0.355412  0.151621  0.627033  1
  Lu  Lu13  1  0.649453  0.830574  0.377006  1
  Lu  Lu14  1  0.145013  0.681844  0.370044  1
  Lu  Lu15  1  0.670412  0.821926  0.122176  1
  Lu  Lu16  1  0.834323  0.329662  0.624246  1
  Lu  Lu17  1  0.327543  0.175921  0.877169  1
  Lu  Lu18  1  0.827189  0.323114  0.877038  1
  Lu  Lu19  1  0.171262  0.677715  0.123230  1
  Si  Si20  1  0.040675  0.115892  0.751752  1
  Si  Si21  1  0.955921  0.890464  0.245545  1
  Si  Si22  1  0.457837  0.611822  0.247565  1
  Si  Si23  1  0.537536  0.387986  0.752788  1
  Si  Si24  1  0.292027  0.864842  0.754216  1
  Si  Si25  1  0.711460  0.128268  0.245785  1
  Si  Si26  1  0.210207  0.371785  0.247533  1
  Si  Si27  1  0.793226  0.631620  0.752743  1
  Si  Si28  1  0.801121  0.537164  0.456712  1
  Si  Si29  1  0.306934  0.965509  0.457063  1
  Si  Si30  1  0.849110  0.530756  0.040386  1
  Si  Si31  1  0.694053  0.035375  0.541964  1
  Si  Si32  1  0.150039  0.468952  0.960618  1
  Si  Si33  1  0.650156  0.030919  0.959876  1
  Si  Si34  1  0.348664  0.970202  0.040929  1
  Bi  Bi35  1  0.198431  0.460635  0.537678  1
