# generated using pymatgen
data_Nd10(IrRh)3
_symmetry_space_group_name_H-M   'P 1'
_cell_length_a   11.23613628
_cell_length_b   11.23629800
_cell_length_c   6.61489916
_cell_angle_alpha   90.00000000
_cell_angle_beta   89.97442857
_cell_angle_gamma   90.00000000
_symmetry_Int_Tables_number   1
_chemical_formula_structural   Nd10(IrRh)3
_chemical_formula_sum   'Nd20 Ir6 Rh6'
_cell_volume   835.14797376
_cell_formula_units_Z   2
loop_
 _symmetry_equiv_pos_site_id
 _symmetry_equiv_pos_as_xyz
  1  'x, y, z'
loop_
 _atom_site_type_symbol
 _atom_site_label
 _atom_site_symmetry_multiplicity
 _atom_site_fract_x
 _atom_site_fract_y
 _atom_site_fract_z
 _atom_site_occupancy
  Nd  Nd0  1  0.089454  0.290563  0.116068  1
  Nd  Nd1  1  0.790880  0.409123  0.116040  1
  Nd  Nd2  1  0.208738  0.590790  0.115803  1
  Nd  Nd3  1  0.907768  0.708481  0.115790  1
  Nd  Nd4  1  0.410546  0.790563  0.383932  1
  Nd  Nd5  1  0.592232  0.208481  0.384210  1
  Nd  Nd6  1  0.291262  0.090790  0.384197  1
  Nd  Nd7  1  0.709120  0.909123  0.383960  1
  Nd  Nd8  1  0.409672  0.208416  0.882688  1
  Nd  Nd9  1  0.709124  0.090739  0.883603  1
  Nd  Nd10  1  0.291720  0.909657  0.882479  1
  Nd  Nd11  1  0.590756  0.790991  0.883429  1
  Nd  Nd12  1  0.090328  0.708416  0.617312  1
  Nd  Nd13  1  0.909244  0.290991  0.616571  1
  Nd  Nd14  1  0.208280  0.409657  0.617521  1
  Nd  Nd15  1  0.790876  0.590739  0.616397  1
  Nd  Nd16  1  0.999921  0.999942  0.000124  1
  Nd  Nd17  1  0.500029  0.500327  0.000133  1
  Nd  Nd18  1  0.500079  0.499942  0.499876  1
  Nd  Nd19  1  0.999971  0.000327  0.499867  1
  Ir  Ir20  1  0.654030  0.654288  0.250057  1
  Ir  Ir21  1  0.845970  0.154288  0.249943  1
  Ir  Ir22  1  0.345537  0.654041  0.750127  1
  Ir  Ir23  1  0.154463  0.154041  0.749873  1
  Ir  Ir24  1  0.846523  0.846134  0.750126  1
  Ir  Ir25  1  0.653477  0.346134  0.749874  1
  Rh  Rh26  1  0.154093  0.846114  0.250046  1
  Rh  Rh27  1  0.345907  0.346114  0.249954  1
  Rh  Rh28  1  0.000983  0.500327  0.379131  1
  Rh  Rh29  1  0.499017  0.000327  0.120869  1
  Rh  Rh30  1  0.499384  0.000066  0.620144  1
  Rh  Rh31  1  0.000616  0.500066  0.879856  1
