# generated using pymatgen
data_HfNb2(FeSi2)3
_symmetry_space_group_name_H-M   'P 1'
_cell_length_a   9.51328930
_cell_length_b   9.51328906
_cell_length_c   9.51328871
_cell_angle_alpha   148.73294595
_cell_angle_beta   133.12734874
_cell_angle_gamma   57.42659996
_symmetry_Int_Tables_number   1
_chemical_formula_structural   HfNb2(FeSi2)3
_chemical_formula_sum   'Hf2 Nb4 Fe6 Si12'
_cell_volume   323.73435758
_cell_formula_units_Z   2
loop_
 _symmetry_equiv_pos_site_id
 _symmetry_equiv_pos_as_xyz
  1  'x, y, z'
loop_
 _atom_site_type_symbol
 _atom_site_label
 _atom_site_symmetry_multiplicity
 _atom_site_fract_x
 _atom_site_fract_y
 _atom_site_fract_z
 _atom_site_occupancy
  Hf  Hf0  1  0.141694  0.141694  0.000000  1
  Hf  Hf1  1  0.858306  0.858306  0.000000  1
  Nb  Nb2  1  0.852577  0.593375  0.259203  1
  Nb  Nb3  1  0.147423  0.406625  0.740797  1
  Nb  Nb4  1  0.665828  0.406625  0.259203  1
  Nb  Nb5  1  0.334172  0.593375  0.740797  1
  Fe  Fe6  1  0.749702  0.000000  0.749702  1
  Fe  Fe7  1  0.000000  0.000000  0.500000  1
  Fe  Fe8  1  0.500000  0.500000  0.500000  1
  Fe  Fe9  1  0.500000  0.000000  0.000000  1
  Fe  Fe10  1  0.250298  0.000000  0.250298  1
  Fe  Fe11  1  0.000000  0.500000  0.000000  1
  Si  Si12  1  0.485446  0.137171  0.348274  1
  Si  Si13  1  0.514554  0.862829  0.651726  1
  Si  Si14  1  0.211102  0.862829  0.348274  1
  Si  Si15  1  0.788898  0.137171  0.651726  1
  Si  Si16  1  0.698841  0.698841  0.000000  1
  Si  Si17  1  0.301159  0.301159  0.000000  1
  Si  Si18  1  0.500000  0.738992  0.238992  1
  Si  Si19  1  0.500000  0.261008  0.761008  1
  Si  Si20  1  0.000000  0.263927  0.263927  1
  Si  Si21  1  0.211769  0.711769  0.500000  1
  Si  Si22  1  0.000000  0.736073  0.736073  1
  Si  Si23  1  0.788231  0.288231  0.500000  1
