# generated using pymatgen
data_CaCeTmAs3
_symmetry_space_group_name_H-M   'P 1'
_cell_length_a   7.21330917
_cell_length_b   7.21330840
_cell_length_c   7.21330836
_cell_angle_alpha   146.19541752
_cell_angle_beta   131.93518223
_cell_angle_gamma   60.05097402
_symmetry_Int_Tables_number   1
_chemical_formula_structural   CaCeTmAs3
_chemical_formula_sum   'Ca1 Ce1 Tm1 As3'
_cell_volume   153.90497966
_cell_formula_units_Z   1
loop_
 _symmetry_equiv_pos_site_id
 _symmetry_equiv_pos_as_xyz
  1  'x, y, z'
loop_
 _atom_site_type_symbol
 _atom_site_label
 _atom_site_symmetry_multiplicity
 _atom_site_fract_x
 _atom_site_fract_y
 _atom_site_fract_z
 _atom_site_occupancy
  Ca  Ca0  1  0.667419  0.667419  0.000000  1
  Ce  Ce1  1  0.002038  0.002038  0.000000  1
  Tm  Tm2  1  0.332719  0.332719  0.000000  1
  As  As3  1  0.489909  0.989909  0.500000  1
  As  As4  1  0.166934  0.666934  0.500000  1
  As  As5  1  0.840982  0.340982  0.500000  1
