# generated using pymatgen
data_LuMg3(ZnPt)4
_symmetry_space_group_name_H-M   'P 1'
_cell_length_a   3.99114100
_cell_length_b   6.67007472
_cell_length_c   7.96906670
_cell_angle_alpha   91.51527222
_cell_angle_beta   90.00000000
_cell_angle_gamma   90.00000000
_symmetry_Int_Tables_number   1
_chemical_formula_structural   LuMg3(ZnPt)4
_chemical_formula_sum   'Lu1 Mg3 Zn4 Pt4'
_cell_volume   212.07200271
_cell_formula_units_Z   1
loop_
 _symmetry_equiv_pos_site_id
 _symmetry_equiv_pos_as_xyz
  1  'x, y, z'
loop_
 _atom_site_type_symbol
 _atom_site_label
 _atom_site_symmetry_multiplicity
 _atom_site_fract_x
 _atom_site_fract_y
 _atom_site_fract_z
 _atom_site_occupancy
  Lu  Lu0  1  0.250000  0.037207  0.327521  1
  Mg  Mg1  1  0.250000  0.539912  0.165940  1
  Mg  Mg2  1  0.750000  0.464444  0.826373  1
  Mg  Mg3  1  0.750000  0.960717  0.678350  1
  Zn  Zn4  1  0.250000  0.640932  0.560987  1
  Zn  Zn5  1  0.750000  0.362170  0.444834  1
  Zn  Zn6  1  0.750000  0.856759  0.059100  1
  Zn  Zn7  1  0.250000  0.137633  0.936608  1
  Pt  Pt8  1  0.250000  0.754720  0.870375  1
  Pt  Pt9  1  0.750000  0.247956  0.129657  1
  Pt  Pt10  1  0.750000  0.737972  0.366894  1
  Pt  Pt11  1  0.250000  0.259578  0.633360  1
