# generated using pymatgen
data_Lu4Ta(ReTc)12
_symmetry_space_group_name_H-M   'P 1'
_cell_length_a   8.49097742
_cell_length_b   8.49097713
_cell_length_c   8.49097800
_cell_angle_alpha   109.47788616
_cell_angle_beta   109.47788547
_cell_angle_gamma   109.47789223
_symmetry_Int_Tables_number   1
_chemical_formula_structural   Lu4Ta(ReTc)12
_chemical_formula_sum   'Lu4 Ta1 Re12 Tc12'
_cell_volume   471.13343933
_cell_formula_units_Z   1
loop_
 _symmetry_equiv_pos_site_id
 _symmetry_equiv_pos_as_xyz
  1  'x, y, z'
loop_
 _atom_site_type_symbol
 _atom_site_label
 _atom_site_symmetry_multiplicity
 _atom_site_fract_x
 _atom_site_fract_y
 _atom_site_fract_z
 _atom_site_occupancy
  Lu  Lu0  1  0.000337  0.000337  0.000337  1
  Lu  Lu1  1  0.626532  0.000713  0.000713  1
  Lu  Lu2  1  0.000713  0.626532  0.000713  1
  Lu  Lu3  1  0.000713  0.000713  0.626532  1
  Ta  Ta4  1  0.374316  0.374316  0.374316  1
  Re  Re5  1  0.378816  0.197001  0.003075  1
  Re  Re6  1  0.185890  0.808830  0.808830  1
  Re  Re7  1  0.378816  0.003075  0.197001  1
  Re  Re8  1  0.197001  0.378816  0.003075  1
  Re  Re9  1  0.003075  0.378816  0.197001  1
  Re  Re10  1  0.808830  0.185890  0.808830  1
  Re  Re11  1  0.808830  0.808830  0.185890  1
  Re  Re12  1  0.003075  0.197001  0.378816  1
  Re  Re13  1  0.197001  0.003075  0.378816  1
  Re  Re14  1  0.621509  0.621509  0.814978  1
  Re  Re15  1  0.814978  0.621509  0.621509  1
  Re  Re16  1  0.621509  0.814978  0.621509  1
  Tc  Tc17  1  0.393799  0.671904  0.997121  1
  Tc  Tc18  1  0.722507  0.326898  0.326898  1
  Tc  Tc19  1  0.393799  0.997121  0.671904  1
  Tc  Tc20  1  0.671904  0.393799  0.997121  1
  Tc  Tc21  1  0.997121  0.393799  0.671904  1
  Tc  Tc22  1  0.326898  0.722507  0.326898  1
  Tc  Tc23  1  0.326898  0.326898  0.722507  1
  Tc  Tc24  1  0.997121  0.671904  0.393799  1
  Tc  Tc25  1  0.671904  0.997121  0.393799  1
  Tc  Tc26  1  0.598544  0.598544  0.279021  1
  Tc  Tc27  1  0.279021  0.598544  0.598544  1
  Tc  Tc28  1  0.598544  0.279021  0.598544  1
