# generated using pymatgen
data_Sm4Gd(OsO6)2
_symmetry_space_group_name_H-M   'P 1'
_cell_length_a   6.97239483
_cell_length_b   6.97239477
_cell_length_c   7.59156000
_cell_angle_alpha   73.84813858
_cell_angle_beta   73.84814727
_cell_angle_gamma   48.51038456
_symmetry_Int_Tables_number   1
_chemical_formula_structural   Sm4Gd(OsO6)2
_chemical_formula_sum   'Sm4 Gd1 Os2 O12'
_cell_volume   263.26982516
_cell_formula_units_Z   1
loop_
 _symmetry_equiv_pos_site_id
 _symmetry_equiv_pos_as_xyz
  1  'x, y, z'
loop_
 _atom_site_type_symbol
 _atom_site_label
 _atom_site_symmetry_multiplicity
 _atom_site_fract_x
 _atom_site_fract_y
 _atom_site_fract_z
 _atom_site_occupancy
  Sm  Sm0  1  0.802550  0.802550  0.356352  1
  Sm  Sm1  1  0.197450  0.197450  0.643648  1
  Sm  Sm2  1  0.186884  0.186884  0.170253  1
  Sm  Sm3  1  0.813116  0.813116  0.829747  1
  Gd  Gd4  1  0.500000  0.500000  0.500000  1
  Os  Os5  1  0.281541  0.718459  0.000000  1
  Os  Os6  1  0.718459  0.281541  0.000000  1
  O  O7  1  0.414291  0.913887  0.916219  1
  O  O8  1  0.086113  0.585709  0.083781  1
  O  O9  1  0.585709  0.086113  0.083781  1
  O  O10  1  0.913887  0.414291  0.916219  1
  O  O11  1  0.599188  0.097774  0.572051  1
  O  O12  1  0.902226  0.400812  0.427949  1
  O  O13  1  0.400812  0.902226  0.427949  1
  O  O14  1  0.001536  0.001536  0.831300  1
  O  O15  1  0.998464  0.998464  0.168700  1
  O  O16  1  0.498873  0.498873  0.799443  1
  O  O17  1  0.501127  0.501127  0.200557  1
  O  O18  1  0.097774  0.599188  0.572051  1
