# generated using pymatgen
data_Sr3Zn3Ir2
_symmetry_space_group_name_H-M   'P 1'
_cell_length_a   6.05328800
_cell_length_b   8.31585600
_cell_length_c   15.51514500
_cell_angle_alpha   90.00000000
_cell_angle_beta   90.00000000
_cell_angle_gamma   90.00000000
_symmetry_Int_Tables_number   1
_chemical_formula_structural   Sr3Zn3Ir2
_chemical_formula_sum   'Sr12 Zn12 Ir8'
_cell_volume   781.00557880
_cell_formula_units_Z   4
loop_
 _symmetry_equiv_pos_site_id
 _symmetry_equiv_pos_as_xyz
  1  'x, y, z'
loop_
 _atom_site_type_symbol
 _atom_site_label
 _atom_site_symmetry_multiplicity
 _atom_site_fract_x
 _atom_site_fract_y
 _atom_site_fract_z
 _atom_site_occupancy
  Sr  Sr0  1  0.119379  0.546086  0.604004  1
  Sr  Sr1  1  0.620876  0.690998  0.750000  1
  Sr  Sr2  1  0.619379  0.953914  0.104004  1
  Sr  Sr3  1  0.380621  0.046086  0.895996  1
  Sr  Sr4  1  0.619379  0.953914  0.395996  1
  Sr  Sr5  1  0.879124  0.190998  0.750000  1
  Sr  Sr6  1  0.379124  0.309002  0.250000  1
  Sr  Sr7  1  0.380621  0.046086  0.604004  1
  Sr  Sr8  1  0.880621  0.453914  0.104004  1
  Sr  Sr9  1  0.119379  0.546086  0.895996  1
  Sr  Sr10  1  0.120876  0.809002  0.250000  1
  Sr  Sr11  1  0.880621  0.453914  0.395996  1
  Zn  Zn12  1  0.069783  0.852149  0.750000  1
  Zn  Zn13  1  0.879993  0.173962  0.962052  1
  Zn  Zn14  1  0.930217  0.147851  0.250000  1
  Zn  Zn15  1  0.569783  0.647851  0.250000  1
  Zn  Zn16  1  0.120007  0.826038  0.462052  1
  Zn  Zn17  1  0.379993  0.326038  0.037948  1
  Zn  Zn18  1  0.620007  0.673962  0.537948  1
  Zn  Zn19  1  0.620007  0.673962  0.962052  1
  Zn  Zn20  1  0.379993  0.326038  0.462052  1
  Zn  Zn21  1  0.120007  0.826038  0.037948  1
  Zn  Zn22  1  0.430217  0.352149  0.750000  1
  Zn  Zn23  1  0.879993  0.173962  0.537948  1
  Ir  Ir24  1  0.887140  0.887497  0.601330  1
  Ir  Ir25  1  0.612860  0.387497  0.898670  1
  Ir  Ir26  1  0.887140  0.887497  0.898670  1
  Ir  Ir27  1  0.387140  0.612503  0.101330  1
  Ir  Ir28  1  0.112860  0.112503  0.398670  1
  Ir  Ir29  1  0.387140  0.612503  0.398670  1
  Ir  Ir30  1  0.612860  0.387497  0.601330  1
  Ir  Ir31  1  0.112860  0.112503  0.101330  1
