# generated using pymatgen
data_Sm3Gd5Ho2(SiB4)4
_symmetry_space_group_name_H-M   'P 1'
_cell_length_a   7.29175455
_cell_length_b   7.29183055
_cell_length_c   8.22433500
_cell_angle_alpha   89.99936562
_cell_angle_beta   89.99880390
_cell_angle_gamma   90.07461550
_symmetry_Int_Tables_number   1
_chemical_formula_structural   Sm3Gd5Ho2(SiB4)4
_chemical_formula_sum   'Sm3 Gd5 Ho2 Si4 B16'
_cell_volume   437.28948283
_cell_formula_units_Z   1
loop_
 _symmetry_equiv_pos_site_id
 _symmetry_equiv_pos_as_xyz
  1  'x, y, z'
loop_
 _atom_site_type_symbol
 _atom_site_label
 _atom_site_symmetry_multiplicity
 _atom_site_fract_x
 _atom_site_fract_y
 _atom_site_fract_z
 _atom_site_occupancy
  Sm  Sm0  1  0.680451  0.180443  0.226574  1
  Sm  Sm1  1  0.319635  0.819644  0.773221  1
  Sm  Sm2  1  0.319632  0.819626  0.226752  1
  Gd  Gd3  1  0.819514  0.680429  0.224748  1
  Gd  Gd4  1  0.819429  0.680503  0.775376  1
  Gd  Gd5  1  0.680619  0.180628  0.775078  1
  Gd  Gd6  1  0.180514  0.319423  0.775426  1
  Gd  Gd7  1  0.180428  0.319517  0.224750  1
  Ho  Ho8  1  0.999687  0.000152  0.500255  1
  Ho  Ho9  1  0.500144  0.499683  0.500257  1
  Si  Si10  1  0.113967  0.613957  0.500054  1
  Si  Si11  1  0.885397  0.385388  0.500875  1
  Si  Si12  1  0.385248  0.115517  0.500680  1
  Si  Si13  1  0.615509  0.885255  0.500684  1
  B  B14  1  0.172040  0.039896  0.999813  1
  B  B15  1  0.827602  0.960565  0.999538  1
  B  B16  1  0.960990  0.172514  0.999682  1
  B  B17  1  0.327780  0.538534  0.999850  1
  B  B18  1  0.038540  0.827785  0.999852  1
  B  B19  1  0.672507  0.460981  0.999685  1
  B  B20  1  0.539888  0.672041  0.999814  1
  B  B21  1  0.460560  0.327601  0.999536  1
  B  B22  1  0.089908  0.589902  0.999857  1
  B  B23  1  0.910040  0.410034  0.999836  1
  B  B24  1  0.409520  0.090820  0.999398  1
  B  B25  1  0.590817  0.909522  0.999401  1
  B  B26  1  0.999925  0.000067  0.158915  1
  B  B27  1  0.999153  0.000505  0.840589  1
  B  B28  1  0.500473  0.499126  0.840588  1
  B  B29  1  0.500080  0.499942  0.158914  1
