# generated using pymatgen
data_PrFePdO5
_symmetry_space_group_name_H-M   'P 1'
_cell_length_a   6.01676900
_cell_length_b   7.59730700
_cell_length_c   8.93422300
_cell_angle_alpha   90.00000000
_cell_angle_beta   90.00000000
_cell_angle_gamma   90.00000000
_symmetry_Int_Tables_number   1
_chemical_formula_structural   PrFePdO5
_chemical_formula_sum   'Pr4 Fe4 Pd4 O20'
_cell_volume   408.39442285
_cell_formula_units_Z   4
loop_
 _symmetry_equiv_pos_site_id
 _symmetry_equiv_pos_as_xyz
  1  'x, y, z'
loop_
 _atom_site_type_symbol
 _atom_site_label
 _atom_site_symmetry_multiplicity
 _atom_site_fract_x
 _atom_site_fract_y
 _atom_site_fract_z
 _atom_site_occupancy
  Pr  Pr0  1  0.000000  0.633547  0.330075  1
  Pr  Pr1  1  0.000000  0.366453  0.669925  1
  Pr  Pr2  1  0.000000  0.133547  0.169925  1
  Pr  Pr3  1  0.000000  0.866453  0.830075  1
  Fe  Fe4  1  0.500000  0.895449  0.142963  1
  Fe  Fe5  1  0.500000  0.104551  0.857037  1
  Fe  Fe6  1  0.500000  0.395449  0.357037  1
  Fe  Fe7  1  0.500000  0.604551  0.642963  1
  Pd  Pd8  1  0.252233  0.500000  0.000000  1
  Pd  Pd9  1  0.747767  0.000000  0.500000  1
  Pd  Pd10  1  0.747767  0.500000  0.000000  1
  Pd  Pd11  1  0.252233  0.000000  0.500000  1
  O  O12  1  0.000000  0.664585  0.056309  1
  O  O13  1  0.000000  0.335415  0.943691  1
  O  O14  1  0.000000  0.164585  0.443691  1
  O  O15  1  0.000000  0.835415  0.556309  1
  O  O16  1  0.276471  0.500000  0.500000  1
  O  O17  1  0.723529  0.000000  0.000000  1
  O  O18  1  0.723529  0.500000  0.500000  1
  O  O19  1  0.276471  0.000000  0.000000  1
  O  O20  1  0.500000  0.657938  0.067381  1
  O  O21  1  0.500000  0.342062  0.932619  1
  O  O22  1  0.500000  0.157938  0.432619  1
  O  O23  1  0.500000  0.842062  0.567381  1
  O  O24  1  0.245730  0.899302  0.287193  1
  O  O25  1  0.245730  0.100698  0.712807  1
  O  O26  1  0.754270  0.399302  0.212807  1
  O  O27  1  0.754270  0.600698  0.787193  1
  O  O28  1  0.754270  0.100698  0.712807  1
  O  O29  1  0.754270  0.899302  0.287193  1
  O  O30  1  0.245730  0.600698  0.787193  1
  O  O31  1  0.245730  0.399302  0.212807  1
