# generated using pymatgen
data_Pr3Dy2P12Ir9Ru10
_symmetry_space_group_name_H-M   'P 1'
_cell_length_a   12.68523612
_cell_length_b   12.65081588
_cell_length_c   3.99823700
_cell_angle_alpha   90.00000000
_cell_angle_beta   90.00000000
_cell_angle_gamma   119.84546075
_symmetry_Int_Tables_number   1
_chemical_formula_structural   Pr3Dy2P12Ir9Ru10
_chemical_formula_sum   'Pr3 Dy2 P12 Ir9 Ru10'
_cell_volume   556.53239977
_cell_formula_units_Z   1
loop_
 _symmetry_equiv_pos_site_id
 _symmetry_equiv_pos_as_xyz
  1  'x, y, z'
loop_
 _atom_site_type_symbol
 _atom_site_label
 _atom_site_symmetry_multiplicity
 _atom_site_fract_x
 _atom_site_fract_y
 _atom_site_fract_z
 _atom_site_occupancy
  Pr  Pr0  1  0.812527  0.000698  0.500000  1
  Pr  Pr1  1  0.185489  0.187661  0.500000  1
  Pr  Pr2  1  0.000426  0.813795  0.500000  1
  Dy  Dy3  1  0.667432  0.332510  0.000000  1
  Dy  Dy4  1  0.333486  0.666776  0.000000  1
  P  P5  1  0.628602  0.996808  0.000000  1
  P  P6  1  0.366854  0.373485  0.000000  1
  P  P7  1  0.006919  0.633252  0.000000  1
  P  P8  1  0.690495  0.518512  0.500000  1
  P  P9  1  0.828001  0.305976  0.500000  1
  P  P10  1  0.312186  0.828522  0.500000  1
  P  P11  1  0.516350  0.687634  0.500000  1
  P  P12  1  0.184377  0.001553  0.000000  1
  P  P13  1  0.815457  0.815424  0.000000  1
  P  P14  1  0.996741  0.185258  0.000000  1
  P  P15  1  0.480848  0.169578  0.500000  1
  P  P16  1  0.171924  0.484262  0.500000  1
  Ir  Ir17  1  0.619702  0.799846  0.000000  1
  Ir  Ir18  1  0.181205  0.381044  0.000000  1
  Ir  Ir19  1  0.379011  0.184842  0.000000  1
  Ir  Ir20  1  0.199810  0.820751  0.000000  1
  Ir  Ir21  1  0.805737  0.620739  0.000000  1
  Ir  Ir22  1  0.868652  0.504143  0.500000  1
  Ir  Ir23  1  0.495138  0.362325  0.500000  1
  Ir  Ir24  1  0.635355  0.128257  0.500000  1
  Ir  Ir25  1  0.999378  0.000252  0.000000  1
  Ru  Ru26  1  0.127173  0.638617  0.500000  1
  Ru  Ru27  1  0.362876  0.489318  0.500000  1
  Ru  Ru28  1  0.509494  0.871152  0.500000  1
  Ru  Ru29  1  0.711557  0.709926  0.500000  1
  Ru  Ru30  1  0.000753  0.289777  0.500000  1
  Ru  Ru31  1  0.450795  0.001610  0.000000  1
  Ru  Ru32  1  0.551449  0.546938  0.000000  1
  Ru  Ru33  1  0.998505  0.450101  0.000000  1
  Ru  Ru34  1  0.815961  0.197000  0.000000  1
  Ru  Ru35  1  0.289334  0.001658  0.500000  1
