# generated using pymatgen
data_EuYOsC2
_symmetry_space_group_name_H-M   'P 1'
_cell_length_a   5.26831700
_cell_length_b   6.53032300
_cell_length_c   10.06808300
_cell_angle_alpha   90.00000000
_cell_angle_beta   90.00000000
_cell_angle_gamma   90.00000000
_symmetry_Int_Tables_number   1
_chemical_formula_structural   EuYOsC2
_chemical_formula_sum   'Eu4 Y4 Os4 C8'
_cell_volume   346.38043147
_cell_formula_units_Z   4
loop_
 _symmetry_equiv_pos_site_id
 _symmetry_equiv_pos_as_xyz
  1  'x, y, z'
loop_
 _atom_site_type_symbol
 _atom_site_label
 _atom_site_symmetry_multiplicity
 _atom_site_fract_x
 _atom_site_fract_y
 _atom_site_fract_z
 _atom_site_occupancy
  Eu  Eu0  1  0.250000  0.527727  0.215266  1
  Eu  Eu1  1  0.750000  0.472273  0.784734  1
  Eu  Eu2  1  0.750000  0.972273  0.715266  1
  Eu  Eu3  1  0.250000  0.027727  0.284734  1
  Y  Y4  1  0.250000  0.681920  0.556448  1
  Y  Y5  1  0.750000  0.318080  0.443552  1
  Y  Y6  1  0.750000  0.818080  0.056448  1
  Y  Y7  1  0.250000  0.181920  0.943552  1
  Os  Os8  1  0.250000  0.728211  0.859846  1
  Os  Os9  1  0.750000  0.271789  0.140154  1
  Os  Os10  1  0.750000  0.771789  0.359846  1
  Os  Os11  1  0.250000  0.228211  0.640154  1
  C  C12  1  0.250000  0.462908  0.759351  1
  C  C13  1  0.750000  0.537092  0.240649  1
  C  C14  1  0.750000  0.037092  0.259351  1
  C  C15  1  0.250000  0.962908  0.740649  1
  C  C16  1  0.250000  0.819972  0.038496  1
  C  C17  1  0.750000  0.180028  0.961504  1
  C  C18  1  0.750000  0.680028  0.538496  1
  C  C19  1  0.250000  0.319972  0.461504  1
