# generated using pymatgen
data_Tb5Tm11In4RuRh3
_symmetry_space_group_name_H-M   'P 1'
_cell_length_a   9.59698273
_cell_length_b   9.58816569
_cell_length_c   9.58996389
_cell_angle_alpha   59.97637246
_cell_angle_beta   59.86564052
_cell_angle_gamma   59.80461667
_symmetry_Int_Tables_number   1
_chemical_formula_structural   Tb5Tm11In4RuRh3
_chemical_formula_sum   'Tb5 Tm11 In4 Ru1 Rh3'
_cell_volume   622.31170202
_cell_formula_units_Z   1
loop_
 _symmetry_equiv_pos_site_id
 _symmetry_equiv_pos_as_xyz
  1  'x, y, z'
loop_
 _atom_site_type_symbol
 _atom_site_label
 _atom_site_symmetry_multiplicity
 _atom_site_fract_x
 _atom_site_fract_y
 _atom_site_fract_z
 _atom_site_occupancy
  Tb  Tb0  1  0.060093  0.060160  0.437734  1
  Tb  Tb1  1  0.441565  0.061801  0.435048  1
  Tb  Tb2  1  0.062351  0.437782  0.061318  1
  Tb  Tb3  1  0.045881  0.651648  0.650449  1
  Tb  Tb4  1  0.438115  0.436526  0.062189  1
  Tm  Tm5  1  0.651524  0.045716  0.648289  1
  Tm  Tm6  1  0.188357  0.811153  0.191906  1
  Tm  Tm7  1  0.190476  0.190174  0.810504  1
  Tm  Tm8  1  0.808799  0.809674  0.193703  1
  Tm  Tm9  1  0.442482  0.057208  0.056211  1
  Tm  Tm10  1  0.811191  0.188160  0.192519  1
  Tm  Tm11  1  0.057692  0.444937  0.439038  1
  Tm  Tm12  1  0.808926  0.191985  0.809324  1
  Tm  Tm13  1  0.191482  0.810476  0.810328  1
  Tm  Tm14  1  0.650945  0.648562  0.047918  1
  Tm  Tm15  1  0.651169  0.653190  0.651211  1
  In  In16  1  0.417108  0.417474  0.418402  1
  In  In17  1  0.749716  0.417531  0.416869  1
  In  In18  1  0.418758  0.748238  0.415683  1
  In  In19  1  0.419638  0.417314  0.745982  1
  Ru  Ru20  1  0.857501  0.856938  0.423359  1
  Rh  Rh21  1  0.854637  0.861714  0.862975  1
  Rh  Rh22  1  0.424105  0.859400  0.860244  1
  Rh  Rh23  1  0.857486  0.422241  0.858798  1
