# generated using pymatgen
data_Zr12GeSe3
_symmetry_space_group_name_H-M   'P 1'
_cell_length_a   11.00194356
_cell_length_b   11.04666556
_cell_length_c   5.50459700
_cell_angle_alpha   90.00000000
_cell_angle_beta   90.00000000
_cell_angle_gamma   89.96355692
_symmetry_Int_Tables_number   1
_chemical_formula_structural   Zr12GeSe3
_chemical_formula_sum   'Zr24 Ge2 Se6'
_cell_volume   668.99991040
_cell_formula_units_Z   2
loop_
 _symmetry_equiv_pos_site_id
 _symmetry_equiv_pos_as_xyz
  1  'x, y, z'
loop_
 _atom_site_type_symbol
 _atom_site_label
 _atom_site_symmetry_multiplicity
 _atom_site_fract_x
 _atom_site_fract_y
 _atom_site_fract_z
 _atom_site_occupancy
  Zr  Zr0  1  0.915430  0.604471  0.544302  1
  Zr  Zr1  1  0.084570  0.395529  0.544302  1
  Zr  Zr2  1  0.897058  0.414728  0.038038  1
  Zr  Zr3  1  0.102942  0.585272  0.038038  1
  Zr  Zr4  1  0.584670  0.897567  0.958516  1
  Zr  Zr5  1  0.415330  0.102433  0.958516  1
  Zr  Zr6  1  0.603658  0.084549  0.459843  1
  Zr  Zr7  1  0.396342  0.915451  0.459843  1
  Zr  Zr8  1  0.859220  0.974113  0.717399  1
  Zr  Zr9  1  0.140780  0.025887  0.717399  1
  Zr  Zr10  1  0.526497  0.360609  0.216276  1
  Zr  Zr11  1  0.473503  0.639391  0.216276  1
  Zr  Zr12  1  0.639455  0.525303  0.782813  1
  Zr  Zr13  1  0.360545  0.474697  0.782813  1
  Zr  Zr14  1  0.973216  0.140667  0.283402  1
  Zr  Zr15  1  0.026784  0.859333  0.283402  1
  Zr  Zr16  1  0.817297  0.715195  0.013099  1
  Zr  Zr17  1  0.182703  0.284805  0.013099  1
  Zr  Zr18  1  0.785619  0.319496  0.513341  1
  Zr  Zr19  1  0.214381  0.680504  0.513341  1
  Zr  Zr20  1  0.680925  0.785578  0.487708  1
  Zr  Zr21  1  0.319075  0.214422  0.487708  1
  Zr  Zr22  1  0.714743  0.181643  0.985778  1
  Zr  Zr23  1  0.285257  0.818357  0.985778  1
  Ge  Ge24  1  0.961352  0.204562  0.788883  1
  Ge  Ge25  1  0.038648  0.795438  0.788883  1
  Se  Se26  1  0.793363  0.961183  0.211575  1
  Se  Se27  1  0.206637  0.038817  0.211575  1
  Se  Se28  1  0.538076  0.292185  0.711139  1
  Se  Se29  1  0.461924  0.707815  0.711139  1
  Se  Se30  1  0.707895  0.538616  0.287885  1
  Se  Se31  1  0.292105  0.461384  0.287885  1
