# generated using pymatgen
data_MnAg2TeO6
_symmetry_space_group_name_H-M   'P 1'
_cell_length_a   5.22393431
_cell_length_b   6.39635744
_cell_length_c   5.22427902
_cell_angle_alpha   114.09310498
_cell_angle_beta   59.99130791
_cell_angle_gamma   114.07385382
_symmetry_Int_Tables_number   1
_chemical_formula_structural   MnAg2TeO6
_chemical_formula_sum   'Mn1 Ag2 Te1 O6'
_cell_volume   133.33297220
_cell_formula_units_Z   1
loop_
 _symmetry_equiv_pos_site_id
 _symmetry_equiv_pos_as_xyz
  1  'x, y, z'
loop_
 _atom_site_type_symbol
 _atom_site_label
 _atom_site_symmetry_multiplicity
 _atom_site_fract_x
 _atom_site_fract_y
 _atom_site_fract_z
 _atom_site_occupancy
  Mn  Mn0  1  0.663968  0.991979  0.664067  1
  Ag  Ag1  1  0.141183  0.423958  0.141362  1
  Ag  Ag2  1  0.859565  0.578412  0.859449  1
  Te  Te3  1  0.336047  0.008141  0.336033  1
  O  O4  1  0.057702  0.194438  0.449952  1
  O  O5  1  0.549328  0.804727  0.316857  1
  O  O6  1  0.316987  0.804790  0.938686  1
  O  O7  1  0.686629  0.194395  0.057784  1
  O  O8  1  0.449828  0.194443  0.686699  1
  O  O9  1  0.938762  0.804717  0.549112  1
