# generated using pymatgen
data_Nd2Zn3Ag4
_symmetry_space_group_name_H-M   'P 1'
_cell_length_a   5.42198519
_cell_length_b   5.42198483
_cell_length_c   14.20369100
_cell_angle_alpha   90.00000000
_cell_angle_beta   90.00000000
_cell_angle_gamma   119.78945739
_symmetry_Int_Tables_number   1
_chemical_formula_structural   Nd2Zn3Ag4
_chemical_formula_sum   'Nd4 Zn6 Ag8'
_cell_volume   362.38144549
_cell_formula_units_Z   2
loop_
 _symmetry_equiv_pos_site_id
 _symmetry_equiv_pos_as_xyz
  1  'x, y, z'
loop_
 _atom_site_type_symbol
 _atom_site_label
 _atom_site_symmetry_multiplicity
 _atom_site_fract_x
 _atom_site_fract_y
 _atom_site_fract_z
 _atom_site_occupancy
  Nd  Nd0  1  0.821319  0.821319  0.119505  1
  Nd  Nd1  1  0.178681  0.178681  0.880495  1
  Nd  Nd2  1  0.821319  0.821319  0.380495  1
  Nd  Nd3  1  0.178681  0.178681  0.619505  1
  Zn  Zn4  1  0.169844  0.675064  0.750000  1
  Zn  Zn5  1  0.675064  0.169844  0.750000  1
  Zn  Zn6  1  0.676451  0.676451  0.750000  1
  Zn  Zn7  1  0.324936  0.830156  0.250000  1
  Zn  Zn8  1  0.830156  0.324936  0.250000  1
  Zn  Zn9  1  0.323549  0.323549  0.250000  1
  Ag  Ag10  1  0.162604  0.491193  0.078636  1
  Ag  Ag11  1  0.508807  0.837396  0.921364  1
  Ag  Ag12  1  0.491193  0.162604  0.078636  1
  Ag  Ag13  1  0.837396  0.508807  0.578636  1
  Ag  Ag14  1  0.491193  0.162604  0.421364  1
  Ag  Ag15  1  0.837396  0.508807  0.921364  1
  Ag  Ag16  1  0.508807  0.837396  0.578636  1
  Ag  Ag17  1  0.162604  0.491193  0.421364  1
