# generated using pymatgen
data_PaIn(Br2Cl)2
_symmetry_space_group_name_H-M   'P 1'
_cell_length_a   7.56145993
_cell_length_b   7.64862415
_cell_length_c   7.87048500
_cell_angle_alpha   90.21884236
_cell_angle_beta   118.58000265
_cell_angle_gamma   119.57389177
_symmetry_Int_Tables_number   1
_chemical_formula_structural   PaIn(Br2Cl)2
_chemical_formula_sum   'Pa1 In1 Br4 Cl2'
_cell_volume   330.04775680
_cell_formula_units_Z   1
loop_
 _symmetry_equiv_pos_site_id
 _symmetry_equiv_pos_as_xyz
  1  'x, y, z'
loop_
 _atom_site_type_symbol
 _atom_site_label
 _atom_site_symmetry_multiplicity
 _atom_site_fract_x
 _atom_site_fract_y
 _atom_site_fract_z
 _atom_site_occupancy
  Pa  Pa0  1  0.584320  0.292789  0.872932  1
  In  In1  1  0.246117  0.625756  0.865727  1
  Br  Br2  1  0.466824  0.081693  0.119625  1
  Br  Br3  1  0.124019  0.199703  0.631942  1
  Br  Br4  1  0.707511  0.509001  0.631067  1
  Br  Br5  1  0.440226  0.926748  0.637590  1
  Cl  Cl6  1  0.712719  0.628995  0.095631  1
  Cl  Cl7  1  0.017262  0.384816  0.093986  1
