# generated using pymatgen
data_DyEr3Tc5Os3
_symmetry_space_group_name_H-M   'P 1'
_cell_length_a   5.31423067
_cell_length_b   5.24362239
_cell_length_c   9.01724100
_cell_angle_alpha   90.00000143
_cell_angle_beta   89.99683444
_cell_angle_gamma   119.56145403
_symmetry_Int_Tables_number   1
_chemical_formula_structural   DyEr3Tc5Os3
_chemical_formula_sum   'Dy1 Er3 Tc5 Os3'
_cell_volume   218.56387835
_cell_formula_units_Z   1
loop_
 _symmetry_equiv_pos_site_id
 _symmetry_equiv_pos_as_xyz
  1  'x, y, z'
loop_
 _atom_site_type_symbol
 _atom_site_label
 _atom_site_symmetry_multiplicity
 _atom_site_fract_x
 _atom_site_fract_y
 _atom_site_fract_z
 _atom_site_occupancy
  Dy  Dy0  1  0.332090  0.666046  0.437693  1
  Er  Er1  1  0.669817  0.334907  0.564727  1
  Er  Er2  1  0.669926  0.334962  0.935540  1
  Er  Er3  1  0.331984  0.665992  0.062326  1
  Tc  Tc4  1  0.828258  0.171521  0.249393  1
  Tc  Tc5  1  0.828258  0.656737  0.249393  1
  Tc  Tc6  1  0.341432  0.170716  0.249327  1
  Tc  Tc7  1  0.170316  0.830244  0.750478  1
  Tc  Tc8  1  0.170316  0.340071  0.750478  1
  Os  Os9  1  0.002009  0.001005  0.500854  1
  Os  Os10  1  0.002279  0.001139  0.999220  1
  Os  Os11  1  0.653315  0.826658  0.750570  1
