# generated using pymatgen
data_Zr3Sc(Fe3Si)2
_symmetry_space_group_name_H-M   'P 1'
_cell_length_a   4.98396000
_cell_length_b   4.98396089
_cell_length_c   8.01540400
_cell_angle_alpha   90.00000000
_cell_angle_beta   90.00000000
_cell_angle_gamma   119.99999409
_symmetry_Int_Tables_number   1
_chemical_formula_structural   Zr3Sc(Fe3Si)2
_chemical_formula_sum   'Zr3 Sc1 Fe6 Si2'
_cell_volume   172.42699059
_cell_formula_units_Z   1
loop_
 _symmetry_equiv_pos_site_id
 _symmetry_equiv_pos_as_xyz
  1  'x, y, z'
loop_
 _atom_site_type_symbol
 _atom_site_label
 _atom_site_symmetry_multiplicity
 _atom_site_fract_x
 _atom_site_fract_y
 _atom_site_fract_z
 _atom_site_occupancy
  Zr  Zr0  1  0.333333  0.666667  0.434925  1
  Zr  Zr1  1  0.666667  0.333333  0.567858  1
  Zr  Zr2  1  0.333333  0.666667  0.059770  1
  Sc  Sc3  1  0.666667  0.333333  0.939184  1
  Fe  Fe4  1  0.169687  0.830313  0.749782  1
  Fe  Fe5  1  0.660627  0.830313  0.749782  1
  Fe  Fe6  1  0.829886  0.170114  0.250022  1
  Fe  Fe7  1  0.169687  0.339373  0.749782  1
  Fe  Fe8  1  0.829886  0.659774  0.250022  1
  Fe  Fe9  1  0.340226  0.170114  0.250022  1
  Si  Si10  1  0.000000  0.000000  0.499638  1
  Si  Si11  1  0.000000  0.000000  0.999215  1
