# generated using pymatgen
data_LiTa6Ti5Ru12
_symmetry_space_group_name_H-M   'P 1'
_cell_length_a   4.41838600
_cell_length_b   6.24155100
_cell_length_c   13.26526900
_cell_angle_alpha   90.00000000
_cell_angle_beta   90.00028518
_cell_angle_gamma   90.00000000
_symmetry_Int_Tables_number   1
_chemical_formula_structural   LiTa6Ti5Ru12
_chemical_formula_sum   'Li1 Ta6 Ti5 Ru12'
_cell_volume   365.82403772
_cell_formula_units_Z   1
loop_
 _symmetry_equiv_pos_site_id
 _symmetry_equiv_pos_as_xyz
  1  'x, y, z'
loop_
 _atom_site_type_symbol
 _atom_site_label
 _atom_site_symmetry_multiplicity
 _atom_site_fract_x
 _atom_site_fract_y
 _atom_site_fract_z
 _atom_site_occupancy
  Li  Li0  1  0.500566  0.500000  0.833360  1
  Ta  Ta1  1  0.999937  0.500000  0.994501  1
  Ta  Ta2  1  0.499638  0.000000  0.165170  1
  Ta  Ta3  1  0.999672  0.500000  0.333313  1
  Ta  Ta4  1  0.500021  0.000000  0.501496  1
  Ta  Ta5  1  0.000332  0.500000  0.672157  1
  Ta  Ta6  1  0.500349  0.000000  0.833311  1
  Ti  Ti7  1  0.999989  0.000000  0.997644  1
  Ti  Ti8  1  0.499609  0.500000  0.165731  1
  Ti  Ti9  1  0.999631  0.000000  0.333336  1
  Ti  Ti10  1  0.499986  0.500000  0.500915  1
  Ti  Ti11  1  0.000381  0.000000  0.668994  1
  Ru  Ru12  1  0.499964  0.250088  0.000971  1
  Ru  Ru13  1  0.499964  0.749913  0.000971  1
  Ru  Ru14  1  0.999632  0.250589  0.166132  1
  Ru  Ru15  1  0.999632  0.749412  0.166132  1
  Ru  Ru16  1  0.499626  0.251016  0.333320  1
  Ru  Ru17  1  0.499626  0.748984  0.333320  1
  Ru  Ru18  1  0.000016  0.250593  0.500527  1
  Ru  Ru19  1  0.000016  0.749406  0.500527  1
  Ru  Ru20  1  0.500306  0.250094  0.665774  1
  Ru  Ru21  1  0.500306  0.749906  0.665774  1
  Ru  Ru22  1  0.000401  0.248715  0.833311  1
  Ru  Ru23  1  0.000401  0.751286  0.833311  1
