# generated using pymatgen
data_Tm2OsRu2W
_symmetry_space_group_name_H-M   'P 1'
_cell_length_a   5.46260006
_cell_length_b   5.55266105
_cell_length_c   8.25708500
_cell_angle_alpha   90.00000000
_cell_angle_beta   90.00000000
_cell_angle_gamma   119.46627949
_symmetry_Int_Tables_number   1
_chemical_formula_structural   Tm2OsRu2W
_chemical_formula_sum   'Tm4 Os2 Ru4 W2'
_cell_volume   218.05628585
_cell_formula_units_Z   2
loop_
 _symmetry_equiv_pos_site_id
 _symmetry_equiv_pos_as_xyz
  1  'x, y, z'
loop_
 _atom_site_type_symbol
 _atom_site_label
 _atom_site_symmetry_multiplicity
 _atom_site_fract_x
 _atom_site_fract_y
 _atom_site_fract_z
 _atom_site_occupancy
  Tm  Tm0  1  0.667099  0.334214  0.562844  1
  Tm  Tm1  1  0.332971  0.665921  0.439344  1
  Tm  Tm2  1  0.332971  0.665921  0.060656  1
  Tm  Tm3  1  0.667099  0.334214  0.937156  1
  Os  Os4  1  0.822774  0.170769  0.250000  1
  Os  Os5  1  0.347980  0.170750  0.250000  1
  Ru  Ru6  1  0.169752  0.339529  0.750000  1
  Ru  Ru7  1  0.174383  0.826778  0.750000  1
  Ru  Ru8  1  0.652416  0.826848  0.750000  1
  Ru  Ru9  1  0.830802  0.661552  0.250000  1
  W  W10  1  0.000876  0.001753  0.501024  1
  W  W11  1  0.000876  0.001753  0.998976  1
