# generated using pymatgen
data_Tb3Dy3YRhI12
_symmetry_space_group_name_H-M   'P 1'
_cell_length_a   9.82479919
_cell_length_b   9.82479873
_cell_length_c   9.82479925
_cell_angle_alpha   106.92840968
_cell_angle_beta   106.92841471
_cell_angle_gamma   106.92841223
_symmetry_Int_Tables_number   1
_chemical_formula_structural   Tb3Dy3YRhI12
_chemical_formula_sum   'Tb3 Dy3 Y1 Rh1 I12'
_cell_volume   791.33656792
_cell_formula_units_Z   1
loop_
 _symmetry_equiv_pos_site_id
 _symmetry_equiv_pos_as_xyz
  1  'x, y, z'
loop_
 _atom_site_type_symbol
 _atom_site_label
 _atom_site_symmetry_multiplicity
 _atom_site_fract_x
 _atom_site_fract_y
 _atom_site_fract_z
 _atom_site_occupancy
  Tb  Tb0  1  0.094734  0.022780  0.296227  1
  Tb  Tb1  1  0.022780  0.296227  0.094734  1
  Tb  Tb2  1  0.296227  0.094734  0.022780  1
  Dy  Dy3  1  0.905265  0.976755  0.704748  1
  Dy  Dy4  1  0.976755  0.704748  0.905265  1
  Dy  Dy5  1  0.704748  0.905265  0.976755  1
  Y  Y6  1  0.499960  0.499960  0.499960  1
  Rh  Rh7  1  0.999769  0.999769  0.999769  1
  I  I8  1  0.535955  0.837286  0.612975  1
  I  I9  1  0.837286  0.612975  0.535955  1
  I  I10  1  0.612975  0.535955  0.837286  1
  I  I11  1  0.464480  0.162702  0.387293  1
  I  I12  1  0.162702  0.387293  0.464480  1
  I  I13  1  0.387293  0.464480  0.162702  1
  I  I14  1  0.676064  0.223967  0.070529  1
  I  I15  1  0.223967  0.070529  0.676064  1
  I  I16  1  0.070529  0.676064  0.223967  1
  I  I17  1  0.323863  0.775330  0.929318  1
  I  I18  1  0.775330  0.929318  0.323863  1
  I  I19  1  0.929318  0.323863  0.775330  1
