# generated using pymatgen
data_Mg2Pa(Co3B2)3
_symmetry_space_group_name_H-M   'P 1'
_cell_length_a   5.72852505
_cell_length_b   5.72852636
_cell_length_c   5.72852500
_cell_angle_alpha   95.60230823
_cell_angle_beta   95.60231939
_cell_angle_gamma   95.60232659
_symmetry_Int_Tables_number   1
_chemical_formula_structural   Mg2Pa(Co3B2)3
_chemical_formula_sum   'Mg2 Pa1 Co9 B6'
_cell_volume   185.10292983
_cell_formula_units_Z   1
loop_
 _symmetry_equiv_pos_site_id
 _symmetry_equiv_pos_as_xyz
  1  'x, y, z'
loop_
 _atom_site_type_symbol
 _atom_site_label
 _atom_site_symmetry_multiplicity
 _atom_site_fract_x
 _atom_site_fract_y
 _atom_site_fract_z
 _atom_site_occupancy
  Mg  Mg0  1  0.987153  0.987153  0.987153  1
  Mg  Mg1  1  0.679641  0.679641  0.679641  1
  Pa  Pa2  1  0.325228  0.325228  0.325228  1
  Co  Co3  1  0.995079  0.995079  0.497817  1
  Co  Co4  1  0.497817  0.995079  0.995079  1
  Co  Co5  1  0.995079  0.497817  0.995079  1
  Co  Co6  1  0.700269  0.208087  0.700269  1
  Co  Co7  1  0.700269  0.700269  0.208087  1
  Co  Co8  1  0.208087  0.700269  0.700269  1
  Co  Co9  1  0.298216  0.800965  0.298216  1
  Co  Co10  1  0.298216  0.298216  0.800965  1
  Co  Co11  1  0.800965  0.298216  0.298216  1
  B  B12  1  0.623761  0.388963  0.994265  1
  B  B13  1  0.994265  0.623761  0.388963  1
  B  B14  1  0.388963  0.994265  0.623761  1
  B  B15  1  0.994265  0.388963  0.623761  1
  B  B16  1  0.623761  0.994265  0.388963  1
  B  B17  1  0.388963  0.623761  0.994265  1
