# generated using pymatgen
data_Hf2ZrNb3Al16Ir7
_symmetry_space_group_name_H-M   'P 1'
_cell_length_a   8.64297122
_cell_length_b   8.66969948
_cell_length_c   8.68871056
_cell_angle_alpha   59.72388318
_cell_angle_beta   60.02876370
_cell_angle_gamma   60.24734819
_symmetry_Int_Tables_number   1
_chemical_formula_structural   Hf2ZrNb3Al16Ir7
_chemical_formula_sum   'Hf2 Zr1 Nb3 Al16 Ir7'
_cell_volume   460.35106543
_cell_formula_units_Z   1
loop_
 _symmetry_equiv_pos_site_id
 _symmetry_equiv_pos_as_xyz
  1  'x, y, z'
loop_
 _atom_site_type_symbol
 _atom_site_label
 _atom_site_symmetry_multiplicity
 _atom_site_fract_x
 _atom_site_fract_y
 _atom_site_fract_z
 _atom_site_occupancy
  Hf  Hf0  1  0.316799  0.317910  0.682090  1
  Hf  Hf1  1  0.682090  0.683201  0.316799  1
  Zr  Zr2  1  0.686724  0.313276  0.686724  1
  Nb  Nb3  1  0.680698  0.319302  0.317893  1
  Nb  Nb4  1  0.317893  0.682107  0.680698  1
  Nb  Nb5  1  0.323393  0.676607  0.323393  1
  Al  Al6  1  0.338914  0.340115  0.336201  1
  Al  Al7  1  0.659187  0.663558  0.662424  1
  Al  Al8  1  0.336442  0.340813  0.985169  1
  Al  Al9  1  0.336201  0.984772  0.338914  1
  Al  Al10  1  0.659885  0.661086  0.015228  1
  Al  Al11  1  0.662424  0.014831  0.659187  1
  Al  Al12  1  0.985169  0.337576  0.336442  1
  Al  Al13  1  0.015228  0.663799  0.659885  1
  Al  Al14  1  0.118806  0.118256  0.121247  1
  Al  Al15  1  0.882301  0.878198  0.879008  1
  Al  Al16  1  0.121802  0.117699  0.639507  1
  Al  Al17  1  0.121247  0.641690  0.118806  1
  Al  Al18  1  0.881744  0.881194  0.358310  1
  Al  Al19  1  0.879008  0.360493  0.882301  1
  Al  Al20  1  0.639507  0.120992  0.121802  1
  Al  Al21  1  0.358310  0.878753  0.881744  1
  Ir  Ir22  1  0.498968  0.998783  0.001217  1
  Ir  Ir23  1  0.001217  0.501032  0.498968  1
  Ir  Ir24  1  0.998600  0.501400  0.998600  1
  Ir  Ir25  1  0.498600  0.001400  0.498600  1
  Ir  Ir26  1  0.001098  0.998902  0.498820  1
  Ir  Ir27  1  0.498820  0.501180  0.001098  1
  Ir  Ir28  1  0.998923  0.001077  0.998923  1
