# generated using pymatgen
data_ZnFe2Co4Si
_symmetry_space_group_name_H-M   'P 1'
_cell_length_a   6.93739587
_cell_length_b   6.93739533
_cell_length_c   6.93739601
_cell_angle_alpha   33.56673534
_cell_angle_beta   33.56673825
_cell_angle_gamma   33.56674077
_symmetry_Int_Tables_number   1
_chemical_formula_structural   ZnFe2Co4Si
_chemical_formula_sum   'Zn1 Fe2 Co4 Si1'
_cell_volume   90.91691616
_cell_formula_units_Z   1
loop_
 _symmetry_equiv_pos_site_id
 _symmetry_equiv_pos_as_xyz
  1  'x, y, z'
loop_
 _atom_site_type_symbol
 _atom_site_label
 _atom_site_symmetry_multiplicity
 _atom_site_fract_x
 _atom_site_fract_y
 _atom_site_fract_z
 _atom_site_occupancy
  Zn  Zn0  1  0.000000  0.000000  0.000000  1
  Fe  Fe1  1  0.251826  0.251826  0.251826  1
  Fe  Fe2  1  0.748174  0.748174  0.748174  1
  Co  Co3  1  0.871407  0.871407  0.871407  1
  Co  Co4  1  0.378986  0.378986  0.378986  1
  Co  Co5  1  0.128593  0.128593  0.128593  1
  Co  Co6  1  0.621014  0.621014  0.621014  1
  Si  Si7  1  0.500000  0.500000  0.500000  1
