# generated using pymatgen
data_Er5Zr5(Co2Si5)4
_symmetry_space_group_name_H-M   'P 1'
_cell_length_a   12.17192700
_cell_length_b   12.17192700
_cell_length_c   3.98303000
_cell_angle_alpha   90.00000000
_cell_angle_beta   90.00000000
_cell_angle_gamma   90.00000000
_symmetry_Int_Tables_number   1
_chemical_formula_structural   Er5Zr5(Co2Si5)4
_chemical_formula_sum   'Er5 Zr5 Co8 Si20'
_cell_volume   590.10902353
_cell_formula_units_Z   1
loop_
 _symmetry_equiv_pos_site_id
 _symmetry_equiv_pos_as_xyz
  1  'x, y, z'
loop_
 _atom_site_type_symbol
 _atom_site_label
 _atom_site_symmetry_multiplicity
 _atom_site_fract_x
 _atom_site_fract_y
 _atom_site_fract_z
 _atom_site_occupancy
  Er  Er0  1  0.000000  0.000000  0.000000  1
  Er  Er1  1  0.885685  0.386701  0.500000  1
  Er  Er2  1  0.114315  0.613299  0.500000  1
  Er  Er3  1  0.386701  0.114315  0.500000  1
  Er  Er4  1  0.613299  0.885685  0.500000  1
  Zr  Zr5  1  0.500000  0.500000  0.000000  1
  Zr  Zr6  1  0.676299  0.176996  0.500000  1
  Zr  Zr7  1  0.323701  0.823004  0.500000  1
  Zr  Zr8  1  0.176996  0.323701  0.500000  1
  Zr  Zr9  1  0.823004  0.676299  0.500000  1
  Co  Co10  1  0.742640  0.524085  0.000000  1
  Co  Co11  1  0.257360  0.475915  0.000000  1
  Co  Co12  1  0.245347  0.975950  0.000000  1
  Co  Co13  1  0.754653  0.024050  0.000000  1
  Co  Co14  1  0.475915  0.742640  0.000000  1
  Co  Co15  1  0.524085  0.257360  0.000000  1
  Co  Co16  1  0.024050  0.245347  0.000000  1
  Co  Co17  1  0.975950  0.754653  0.000000  1
  Si  Si18  1  0.568674  0.069552  0.000000  1
  Si  Si19  1  0.431326  0.930448  0.000000  1
  Si  Si20  1  0.069552  0.431326  0.000000  1
  Si  Si21  1  0.930448  0.568674  0.000000  1
  Si  Si22  1  0.656602  0.695823  0.000000  1
  Si  Si23  1  0.343398  0.304177  0.000000  1
  Si  Si24  1  0.156906  0.803545  0.000000  1
  Si  Si25  1  0.843094  0.196455  0.000000  1
  Si  Si26  1  0.304177  0.656602  0.000000  1
  Si  Si27  1  0.695823  0.343398  0.000000  1
  Si  Si28  1  0.196455  0.156906  0.000000  1
  Si  Si29  1  0.803545  0.843094  0.000000  1
  Si  Si30  1  0.662740  0.505794  0.500000  1
  Si  Si31  1  0.337260  0.494206  0.500000  1
  Si  Si32  1  0.166265  0.994843  0.500000  1
  Si  Si33  1  0.833735  0.005157  0.500000  1
  Si  Si34  1  0.494206  0.662740  0.500000  1
  Si  Si35  1  0.505794  0.337260  0.500000  1
  Si  Si36  1  0.005157  0.166265  0.500000  1
  Si  Si37  1  0.994843  0.833735  0.500000  1
