# generated using pymatgen
data_Er6Tm2Ti11Si16Pt
_symmetry_space_group_name_H-M   'P 1'
_cell_length_a   7.02073817
_cell_length_b   7.02088390
_cell_length_c   12.80731803
_cell_angle_alpha   90.16949818
_cell_angle_beta   89.83924993
_cell_angle_gamma   89.71528317
_symmetry_Int_Tables_number   1
_chemical_formula_structural   Er6Tm2Ti11Si16Pt
_chemical_formula_sum   'Er6 Tm2 Ti11 Si16 Pt1'
_cell_volume   631.28253207
_cell_formula_units_Z   1
loop_
 _symmetry_equiv_pos_site_id
 _symmetry_equiv_pos_as_xyz
  1  'x, y, z'
loop_
 _atom_site_type_symbol
 _atom_site_label
 _atom_site_symmetry_multiplicity
 _atom_site_fract_x
 _atom_site_fract_y
 _atom_site_fract_z
 _atom_site_occupancy
  Er  Er0  1  0.501449  0.156757  0.214405  1
  Er  Er1  1  0.842124  0.496725  0.282251  1
  Er  Er2  1  0.156897  0.501618  0.785608  1
  Er  Er3  1  0.656038  0.999048  0.968606  1
  Er  Er4  1  0.003376  0.340747  0.532962  1
  Er  Er5  1  0.999074  0.656070  0.031299  1
  Tm  Tm6  1  0.340915  0.003132  0.467067  1
  Tm  Tm7  1  0.496798  0.842169  0.717725  1
  Ti  Ti8  1  0.175903  0.825849  0.248522  1
  Ti  Ti9  1  0.825755  0.175833  0.751507  1
  Ti  Ti10  1  0.673347  0.673545  0.500041  1
  Ti  Ti11  1  0.147972  0.003983  0.876510  1
  Ti  Ti12  1  0.494681  0.654291  0.124048  1
  Ti  Ti13  1  0.506473  0.351085  0.627296  1
  Ti  Ti14  1  0.654235  0.494730  0.875930  1
  Ti  Ti15  1  0.351018  0.506555  0.372711  1
  Ti  Ti16  1  0.850502  0.993553  0.374550  1
  Ti  Ti17  1  0.004082  0.147863  0.123446  1
  Ti  Ti18  1  0.993661  0.850474  0.625467  1
  Si  Si19  1  0.202077  0.133962  0.685046  1
  Si  Si20  1  0.372348  0.710182  0.931295  1
  Si  Si21  1  0.631683  0.294432  0.433125  1
  Si  Si22  1  0.710139  0.372325  0.068589  1
  Si  Si23  1  0.294723  0.632135  0.566951  1
  Si  Si24  1  0.797302  0.866441  0.182975  1
  Si  Si25  1  0.134245  0.201746  0.315004  1
  Si  Si26  1  0.866223  0.797293  0.816990  1
  Si  Si27  1  0.285934  0.944695  0.064422  1
  Si  Si28  1  0.547550  0.791991  0.315210  1
  Si  Si29  1  0.449497  0.209251  0.815477  1
  Si  Si30  1  0.791746  0.547835  0.684878  1
  Si  Si31  1  0.209485  0.449496  0.184467  1
  Si  Si32  1  0.707589  0.048054  0.565444  1
  Si  Si33  1  0.944684  0.285949  0.935589  1
  Si  Si34  1  0.048354  0.708038  0.434568  1
  Pt  Pt35  1  0.332125  0.332149  0.000019  1
