# generated using pymatgen
data_PrLu2MoO7
_symmetry_space_group_name_H-M   'P 1'
_cell_length_a   6.42852700
_cell_length_b   6.42852850
_cell_length_c   7.55060500
_cell_angle_alpha   90.00000000
_cell_angle_beta   90.00000000
_cell_angle_gamma   109.16208738
_symmetry_Int_Tables_number   1
_chemical_formula_structural   PrLu2MoO7
_chemical_formula_sum   'Pr2 Lu4 Mo2 O14'
_cell_volume   294.74732762
_cell_formula_units_Z   2
loop_
 _symmetry_equiv_pos_site_id
 _symmetry_equiv_pos_as_xyz
  1  'x, y, z'
loop_
 _atom_site_type_symbol
 _atom_site_label
 _atom_site_symmetry_multiplicity
 _atom_site_fract_x
 _atom_site_fract_y
 _atom_site_fract_z
 _atom_site_occupancy
  Pr  Pr0  1  0.500000  0.500000  0.500000  1
  Pr  Pr1  1  0.500000  0.500000  0.000000  1
  Lu  Lu2  1  0.533531  0.002526  0.750000  1
  Lu  Lu3  1  0.002526  0.533531  0.250000  1
  Lu  Lu4  1  0.466469  0.997474  0.250000  1
  Lu  Lu5  1  0.997474  0.466469  0.750000  1
  Mo  Mo6  1  0.000000  0.000000  0.500000  1
  Mo  Mo7  1  0.000000  0.000000  0.000000  1
  O  O8  1  0.676873  0.929951  0.468428  1
  O  O9  1  0.929951  0.676873  0.531572  1
  O  O10  1  0.676873  0.929951  0.031572  1
  O  O11  1  0.929951  0.676873  0.968428  1
  O  O12  1  0.323127  0.070049  0.531572  1
  O  O13  1  0.070049  0.323127  0.468428  1
  O  O14  1  0.323127  0.070049  0.968428  1
  O  O15  1  0.070049  0.323127  0.031572  1
  O  O16  1  0.926127  0.073873  0.750000  1
  O  O17  1  0.073873  0.926127  0.250000  1
  O  O18  1  0.357204  0.642796  0.750000  1
  O  O19  1  0.642796  0.357204  0.250000  1
  O  O20  1  0.646485  0.353515  0.750000  1
  O  O21  1  0.353515  0.646485  0.250000  1
