# generated using pymatgen
data_Tm9Th3Tc3Os
_symmetry_space_group_name_H-M   'P 1'
_cell_length_a   7.30886978
_cell_length_b   9.21729900
_cell_length_c   6.31572226
_cell_angle_alpha   90.00000000
_cell_angle_beta   89.85355325
_cell_angle_gamma   90.00000000
_symmetry_Int_Tables_number   1
_chemical_formula_structural   Tm9Th3Tc3Os
_chemical_formula_sum   'Tm9 Th3 Tc3 Os1'
_cell_volume   425.47642817
_cell_formula_units_Z   1
loop_
 _symmetry_equiv_pos_site_id
 _symmetry_equiv_pos_as_xyz
  1  'x, y, z'
loop_
 _atom_site_type_symbol
 _atom_site_label
 _atom_site_symmetry_multiplicity
 _atom_site_fract_x
 _atom_site_fract_y
 _atom_site_fract_z
 _atom_site_occupancy
  Tm  Tm0  1  0.537783  0.250000  0.871584  1
  Tm  Tm1  1  0.175907  0.066899  0.161527  1
  Tm  Tm2  1  0.820803  0.938106  0.836918  1
  Tm  Tm3  1  0.327504  0.936176  0.662891  1
  Tm  Tm4  1  0.820803  0.561894  0.836918  1
  Tm  Tm5  1  0.676991  0.068964  0.331922  1
  Tm  Tm6  1  0.175907  0.433101  0.161527  1
  Tm  Tm7  1  0.676991  0.431036  0.331922  1
  Tm  Tm8  1  0.327504  0.563824  0.662891  1
  Th  Th9  1  0.048338  0.250000  0.637515  1
  Th  Th10  1  0.951965  0.750000  0.366589  1
  Th  Th11  1  0.451612  0.750000  0.135366  1
  Tc  Tc12  1  0.368643  0.250000  0.472608  1
  Tc  Tc13  1  0.628656  0.750000  0.519163  1
  Tc  Tc14  1  0.129157  0.750000  0.977642  1
  Os  Os15  1  0.881434  0.250000  0.033017  1
