# generated using pymatgen
data_Sm2MgSi4(PPd10)2
_symmetry_space_group_name_H-M   'P 1'
_cell_length_a   8.69263411
_cell_length_b   8.69457960
_cell_length_c   8.69457922
_cell_angle_alpha   59.98518712
_cell_angle_beta   60.00740136
_cell_angle_gamma   60.00740062
_symmetry_Int_Tables_number   1
_chemical_formula_structural   Sm2MgSi4(PPd10)2
_chemical_formula_sum   'Sm2 Mg1 Si4 P2 Pd20'
_cell_volume   464.65806465
_cell_formula_units_Z   1
loop_
 _symmetry_equiv_pos_site_id
 _symmetry_equiv_pos_as_xyz
  1  'x, y, z'
loop_
 _atom_site_type_symbol
 _atom_site_label
 _atom_site_symmetry_multiplicity
 _atom_site_fract_x
 _atom_site_fract_y
 _atom_site_fract_z
 _atom_site_occupancy
  Sm  Sm0  1  0.250000  0.250000  0.250000  1
  Sm  Sm1  1  0.750000  0.750000  0.750000  1
  Mg  Mg2  1  0.000000  0.000000  0.000000  1
  Si  Si3  1  0.264321  0.735679  0.264321  1
  Si  Si4  1  0.735679  0.264321  0.735679  1
  Si  Si5  1  0.264321  0.264321  0.735679  1
  Si  Si6  1  0.735679  0.735679  0.264321  1
  P  P7  1  0.735703  0.264297  0.264297  1
  P  P8  1  0.264297  0.735703  0.735703  1
  Pd  Pd9  1  0.386719  0.384482  0.384482  1
  Pd  Pd10  1  0.613281  0.615518  0.615518  1
  Pd  Pd11  1  0.384482  0.386719  0.844316  1
  Pd  Pd12  1  0.384482  0.844316  0.386719  1
  Pd  Pd13  1  0.615518  0.613281  0.155684  1
  Pd  Pd14  1  0.615518  0.155684  0.613281  1
  Pd  Pd15  1  0.844316  0.384482  0.384482  1
  Pd  Pd16  1  0.155684  0.615518  0.615518  1
  Pd  Pd17  1  0.345390  0.000000  0.000000  1
  Pd  Pd18  1  0.654610  0.000000  0.000000  1
  Pd  Pd19  1  0.000000  0.345390  0.654610  1
  Pd  Pd20  1  0.000000  0.654610  0.345390  1
  Pd  Pd21  1  0.997826  0.343590  0.002174  1
  Pd  Pd22  1  0.656410  0.002174  0.343590  1
  Pd  Pd23  1  0.002174  0.656410  0.997826  1
  Pd  Pd24  1  0.343590  0.997826  0.656410  1
  Pd  Pd25  1  0.997826  0.002174  0.343590  1
  Pd  Pd26  1  0.002174  0.997826  0.656410  1
  Pd  Pd27  1  0.656410  0.343590  0.002174  1
  Pd  Pd28  1  0.343590  0.656410  0.997826  1
