# generated using pymatgen
data_CaYb9In3GaSb12
_symmetry_space_group_name_H-M   'P 1'
_cell_length_a   4.56652400
_cell_length_b   12.09906546
_cell_length_c   14.22897754
_cell_angle_alpha   89.92171088
_cell_angle_beta   90.00000000
_cell_angle_gamma   90.00000000
_symmetry_Int_Tables_number   1
_chemical_formula_structural   CaYb9In3GaSb12
_chemical_formula_sum   'Ca1 Yb9 In3 Ga1 Sb12'
_cell_volume   786.15984835
_cell_formula_units_Z   1
loop_
 _symmetry_equiv_pos_site_id
 _symmetry_equiv_pos_as_xyz
  1  'x, y, z'
loop_
 _atom_site_type_symbol
 _atom_site_label
 _atom_site_symmetry_multiplicity
 _atom_site_fract_x
 _atom_site_fract_y
 _atom_site_fract_z
 _atom_site_occupancy
  Ca  Ca0  1  0.500000  0.497404  0.000902  1
  Yb  Yb1  1  0.500000  0.673125  0.482220  1
  Yb  Yb2  1  0.500000  0.325626  0.515822  1
  Yb  Yb3  1  0.500000  0.829265  0.983437  1
  Yb  Yb4  1  0.500000  0.170539  0.023275  1
  Yb  Yb5  1  0.500000  0.002174  0.497435  1
  Yb  Yb6  1  0.500000  0.908721  0.253445  1
  Yb  Yb7  1  0.500000  0.088836  0.746463  1
  Yb  Yb8  1  0.500000  0.410816  0.247018  1
  Yb  Yb9  1  0.500000  0.589193  0.754061  1
  In  In10  1  0.000000  0.334967  0.714086  1
  In  In11  1  0.000000  0.665243  0.285850  1
  In  In12  1  0.000000  0.834452  0.785913  1
  Ga  Ga13  1  0.000000  0.168179  0.211923  1
  Sb  Sb14  1  0.000000  0.972161  0.100937  1
  Sb  Sb15  1  0.000000  0.036916  0.903826  1
  Sb  Sb16  1  0.000000  0.462233  0.402769  1
  Sb  Sb17  1  0.000000  0.537464  0.596918  1
  Sb  Sb18  1  0.500000  0.163086  0.321327  1
  Sb  Sb19  1  0.500000  0.836101  0.666967  1
  Sb  Sb20  1  0.500000  0.665139  0.166935  1
  Sb  Sb21  1  0.500000  0.333345  0.832866  1
  Sb  Sb22  1  0.000000  0.345338  0.094957  1
  Sb  Sb23  1  0.000000  0.649572  0.911150  1
  Sb  Sb24  1  0.000000  0.850119  0.410728  1
  Sb  Sb25  1  0.000000  0.149985  0.588770  1
