# generated using pymatgen
data_KP2OsPd
_symmetry_space_group_name_H-M   'P 1'
_cell_length_a   7.18998380
_cell_length_b   7.18998281
_cell_length_c   7.18998283
_cell_angle_alpha   147.85972828
_cell_angle_beta   147.85972919
_cell_angle_gamma   46.09247686
_symmetry_Int_Tables_number   1
_chemical_formula_structural   KP2OsPd
_chemical_formula_sum   'K1 P2 Os1 Pd1'
_cell_volume   104.83258962
_cell_formula_units_Z   1
loop_
 _symmetry_equiv_pos_site_id
 _symmetry_equiv_pos_as_xyz
  1  'x, y, z'
loop_
 _atom_site_type_symbol
 _atom_site_label
 _atom_site_symmetry_multiplicity
 _atom_site_fract_x
 _atom_site_fract_y
 _atom_site_fract_z
 _atom_site_occupancy
  K  K0  1  0.000000  0.000000  0.000000  1
  P  P1  1  0.348415  0.348415  0.000000  1
  P  P2  1  0.651585  0.651585  0.000000  1
  Os  Os3  1  0.750000  0.250000  0.500000  1
  Pd  Pd4  1  0.250000  0.750000  0.500000  1
