# generated using pymatgen
data_Tb2YEr3(Al3Os)8
_symmetry_space_group_name_H-M   'P 1'
_cell_length_a   8.81420632
_cell_length_b   8.80859244
_cell_length_c   9.58930400
_cell_angle_alpha   90.00000000
_cell_angle_beta   90.00000000
_cell_angle_gamma   119.93795809
_symmetry_Int_Tables_number   1
_chemical_formula_structural   Tb2YEr3(Al3Os)8
_chemical_formula_sum   'Tb2 Y1 Er3 Al24 Os8'
_cell_volume   645.17661514
_cell_formula_units_Z   1
loop_
 _symmetry_equiv_pos_site_id
 _symmetry_equiv_pos_as_xyz
  1  'x, y, z'
loop_
 _atom_site_type_symbol
 _atom_site_label
 _atom_site_symmetry_multiplicity
 _atom_site_fract_x
 _atom_site_fract_y
 _atom_site_fract_z
 _atom_site_occupancy
  Tb  Tb0  1  0.191948  0.385319  0.250000  1
  Tb  Tb1  1  0.807572  0.614466  0.750000  1
  Y  Y2  1  0.613174  0.807036  0.250000  1
  Er  Er3  1  0.389618  0.194332  0.750000  1
  Er  Er4  1  0.193379  0.805643  0.250000  1
  Er  Er5  1  0.805923  0.194072  0.750000  1
  Al  Al6  1  0.333076  0.666888  0.018017  1
  Al  Al7  1  0.666796  0.333052  0.981301  1
  Al  Al8  1  0.666796  0.333052  0.518699  1
  Al  Al9  1  0.333076  0.666888  0.481983  1
  Al  Al10  1  0.164262  0.327285  0.575625  1
  Al  Al11  1  0.835755  0.672160  0.424919  1
  Al  Al12  1  0.672164  0.835884  0.575504  1
  Al  Al13  1  0.835755  0.672160  0.075081  1
  Al  Al14  1  0.327505  0.163996  0.425382  1
  Al  Al15  1  0.164262  0.327285  0.924375  1
  Al  Al16  1  0.164033  0.836631  0.573271  1
  Al  Al17  1  0.327505  0.163996  0.074618  1
  Al  Al18  1  0.835816  0.163826  0.427247  1
  Al  Al19  1  0.672164  0.835884  0.924496  1
  Al  Al20  1  0.835816  0.163826  0.072753  1
  Al  Al21  1  0.164033  0.836631  0.926729  1
  Al  Al22  1  0.560278  0.122812  0.250000  1
  Al  Al23  1  0.439215  0.877412  0.750000  1
  Al  Al24  1  0.876887  0.439186  0.250000  1
  Al  Al25  1  0.122899  0.560652  0.750000  1
  Al  Al26  1  0.561205  0.438318  0.250000  1
  Al  Al27  1  0.438339  0.560931  0.750000  1
  Al  Al28  1  0.000022  0.998960  0.250000  1
  Al  Al29  1  0.002023  0.001988  0.750000  1
  Os  Os30  1  0.499622  0.000090  0.999786  1
  Os  Os31  1  0.000188  0.499962  0.000219  1
  Os  Os32  1  0.499622  0.000090  0.500214  1
  Os  Os33  1  0.499892  0.499814  0.999843  1
  Os  Os34  1  0.000188  0.499962  0.499781  1
  Os  Os35  1  0.499892  0.499814  0.500157  1
  Os  Os36  1  0.999648  0.999850  0.999915  1
  Os  Os37  1  0.999648  0.999850  0.500085  1
