# generated using pymatgen
data_Dy3PaIn2Rh3
_symmetry_space_group_name_H-M   'P 1'
_cell_length_a   7.49844062
_cell_length_b   7.39480923
_cell_length_c   4.18210600
_cell_angle_alpha   90.00000000
_cell_angle_beta   90.00000000
_cell_angle_gamma   119.54385865
_symmetry_Int_Tables_number   1
_chemical_formula_structural   Dy3PaIn2Rh3
_chemical_formula_sum   'Dy3 Pa1 In2 Rh3'
_cell_volume   201.74439981
_cell_formula_units_Z   1
loop_
 _symmetry_equiv_pos_site_id
 _symmetry_equiv_pos_as_xyz
  1  'x, y, z'
loop_
 _atom_site_type_symbol
 _atom_site_label
 _atom_site_symmetry_multiplicity
 _atom_site_fract_x
 _atom_site_fract_y
 _atom_site_fract_z
 _atom_site_occupancy
  Dy  Dy0  1  0.000000  0.628224  0.500000  1
  Dy  Dy1  1  0.564558  0.972414  0.500000  1
  Dy  Dy2  1  0.435442  0.407856  0.500000  1
  Pa  Pa3  1  0.000000  0.267752  0.000000  1
  In  In4  1  0.258463  0.003915  0.000000  1
  In  In5  1  0.741537  0.745452  0.000000  1
  Rh  Rh6  1  0.000000  0.021560  0.500000  1
  Rh  Rh7  1  0.692491  0.322658  0.000000  1
  Rh  Rh8  1  0.307509  0.630168  0.000000  1
