# generated using pymatgen
data_La4Nd2Al2SiSe14
_symmetry_space_group_name_H-M   'P 1'
_cell_length_a   10.59648872
_cell_length_b   10.56392745
_cell_length_c   6.28538729
_cell_angle_alpha   89.99314369
_cell_angle_beta   90.08780099
_cell_angle_gamma   119.88667008
_symmetry_Int_Tables_number   1
_chemical_formula_structural   La4Nd2Al2SiSe14
_chemical_formula_sum   'La4 Nd2 Al2 Si1 Se14'
_cell_volume   610.02026466
_cell_formula_units_Z   1
loop_
 _symmetry_equiv_pos_site_id
 _symmetry_equiv_pos_as_xyz
  1  'x, y, z'
loop_
 _atom_site_type_symbol
 _atom_site_label
 _atom_site_symmetry_multiplicity
 _atom_site_fract_x
 _atom_site_fract_y
 _atom_site_fract_z
 _atom_site_occupancy
  La  La0  1  0.302286  0.109105  0.520532  1
  La  La1  1  0.518674  0.965185  0.038801  1
  La  La2  1  0.447325  0.482359  0.038335  1
  La  La3  1  0.034364  0.552393  0.037888  1
  Nd  Nd4  1  0.807404  0.698857  0.518874  1
  Nd  Nd5  1  0.891663  0.192858  0.518737  1
  Al  Al6  1  0.667677  0.333936  0.329513  1
  Al  Al7  1  0.333642  0.666158  0.445026  1
  Si  Si8  1  0.999052  0.999727  0.939846  1
  Se  Se9  1  0.997546  0.998999  0.303290  1
  Se  Se10  1  0.333095  0.666753  0.820821  1
  Se  Se11  1  0.083754  0.855146  0.799083  1
  Se  Se12  1  0.771112  0.913945  0.795821  1
  Se  Se13  1  0.140275  0.229369  0.799746  1
  Se  Se14  1  0.237359  0.812261  0.301382  1
  Se  Se15  1  0.575447  0.762842  0.302421  1
  Se  Se16  1  0.187543  0.423707  0.302271  1
  Se  Se17  1  0.907997  0.481346  0.553706  1
  Se  Se18  1  0.575922  0.092660  0.552046  1
  Se  Se19  1  0.520938  0.429056  0.553356  1
  Se  Se20  1  0.432709  0.195590  0.087281  1
  Se  Se21  1  0.763007  0.567849  0.091748  1
  Se  Se22  1  0.804543  0.236565  0.091484  1
