# generated using pymatgen
data_TbY3Ga12Ni
_symmetry_space_group_name_H-M   'P 1'
_cell_length_a   7.49155705
_cell_length_b   7.49155561
_cell_length_c   7.49155600
_cell_angle_alpha   109.50826747
_cell_angle_beta   109.50827305
_cell_angle_gamma   109.50827803
_symmetry_Int_Tables_number   1
_chemical_formula_structural   TbY3Ga12Ni
_chemical_formula_sum   'Tb1 Y3 Ga12 Ni1'
_cell_volume   323.21911024
_cell_formula_units_Z   1
loop_
 _symmetry_equiv_pos_site_id
 _symmetry_equiv_pos_as_xyz
  1  'x, y, z'
loop_
 _atom_site_type_symbol
 _atom_site_label
 _atom_site_symmetry_multiplicity
 _atom_site_fract_x
 _atom_site_fract_y
 _atom_site_fract_z
 _atom_site_occupancy
  Tb  Tb0  1  0.500000  0.500000  0.500000  1
  Y  Y1  1  0.000000  0.000000  0.500000  1
  Y  Y2  1  0.000000  0.500000  0.000000  1
  Y  Y3  1  0.500000  0.000000  0.000000  1
  Ga  Ga4  1  0.749960  0.250040  0.500000  1
  Ga  Ga5  1  0.749960  0.500000  0.250040  1
  Ga  Ga6  1  0.500000  0.250040  0.749960  1
  Ga  Ga7  1  0.250040  0.500000  0.749960  1
  Ga  Ga8  1  0.250040  0.749960  0.500000  1
  Ga  Ga9  1  0.500000  0.749960  0.250040  1
  Ga  Ga10  1  0.711776  0.711776  0.999475  1
  Ga  Ga11  1  0.288224  0.000525  0.288224  1
  Ga  Ga12  1  0.000525  0.288224  0.288224  1
  Ga  Ga13  1  0.288224  0.288224  0.000525  1
  Ga  Ga14  1  0.711776  0.999475  0.711776  1
  Ga  Ga15  1  0.999475  0.711776  0.711776  1
  Ni  Ni16  1  0.000000  0.000000  0.000000  1
