# generated using pymatgen
data_La5GeBi3
_symmetry_space_group_name_H-M   'P 1'
_cell_length_a   9.87809200
_cell_length_b   9.87820777
_cell_length_c   6.85835100
_cell_angle_alpha   90.00000000
_cell_angle_beta   90.00000000
_cell_angle_gamma   120.00013191
_symmetry_Int_Tables_number   1
_chemical_formula_structural   La5GeBi3
_chemical_formula_sum   'La10 Ge2 Bi6'
_cell_volume   579.56344517
_cell_formula_units_Z   2
loop_
 _symmetry_equiv_pos_site_id
 _symmetry_equiv_pos_as_xyz
  1  'x, y, z'
loop_
 _atom_site_type_symbol
 _atom_site_label
 _atom_site_symmetry_multiplicity
 _atom_site_fract_x
 _atom_site_fract_y
 _atom_site_fract_z
 _atom_site_occupancy
  La  La0  1  0.666673  0.333336  0.999995  1
  La  La1  1  0.333330  0.666645  0.000001  1
  La  La2  1  0.250170  0.999994  0.250006  1
  La  La3  1  0.000001  0.250170  0.250004  1
  La  La4  1  0.749823  0.749820  0.249992  1
  La  La5  1  0.666671  0.333356  0.500000  1
  La  La6  1  0.333327  0.666664  0.499994  1
  La  La7  1  0.749830  0.000006  0.750007  1
  La  La8  1  0.250177  0.250180  0.749993  1
  La  La9  1  0.999999  0.749831  0.750005  1
  Ge  Ge10  1  0.000001  0.000000  0.999996  1
  Ge  Ge11  1  0.999999  0.000000  0.499995  1
  Bi  Bi12  1  0.608846  0.000000  0.250002  1
  Bi  Bi13  1  0.000002  0.608846  0.250001  1
  Bi  Bi14  1  0.391147  0.391148  0.250002  1
  Bi  Bi15  1  0.391154  0.000000  0.750001  1
  Bi  Bi16  1  0.999999  0.391154  0.750000  1
  Bi  Bi17  1  0.608853  0.608852  0.750002  1
