# generated using pymatgen
data_Th3In3PtRh2
_symmetry_space_group_name_H-M   'P 1'
_cell_length_a   7.69093300
_cell_length_b   7.69080864
_cell_length_c   4.06373900
_cell_angle_alpha   90.00000000
_cell_angle_beta   90.00000000
_cell_angle_gamma   120.00064298
_symmetry_Int_Tables_number   1
_chemical_formula_structural   Th3In3PtRh2
_chemical_formula_sum   'Th3 In3 Pt1 Rh2'
_cell_volume   208.16353673
_cell_formula_units_Z   1
loop_
 _symmetry_equiv_pos_site_id
 _symmetry_equiv_pos_as_xyz
  1  'x, y, z'
loop_
 _atom_site_type_symbol
 _atom_site_label
 _atom_site_symmetry_multiplicity
 _atom_site_fract_x
 _atom_site_fract_y
 _atom_site_fract_z
 _atom_site_occupancy
  Th  Th0  1  0.586867  0.995581  0.500000  1
  Th  Th1  1  0.004413  0.591297  0.500000  1
  Th  Th2  1  0.408706  0.413105  0.500000  1
  In  In3  1  0.246373  0.997797  0.000000  1
  In  In4  1  0.002163  0.248608  0.000000  1
  In  In5  1  0.751407  0.753620  0.000000  1
  Pt  Pt6  1  0.666658  0.333326  0.000000  1
  Rh  Rh7  1  0.999987  0.000005  0.500000  1
  Rh  Rh8  1  0.333329  0.666662  0.000000  1
