# generated using pymatgen
data_Sm5Tm11(MgSn4)4
_symmetry_space_group_name_H-M   'P 1'
_cell_length_a   7.70135972
_cell_length_b   8.25390155
_cell_length_c   15.26977700
_cell_angle_alpha   89.96528476
_cell_angle_beta   89.97515141
_cell_angle_gamma   89.99436914
_symmetry_Int_Tables_number   1
_chemical_formula_structural   Sm5Tm11(MgSn4)4
_chemical_formula_sum   'Sm5 Tm11 Mg4 Sn16'
_cell_volume   970.64241718
_cell_formula_units_Z   1
loop_
 _symmetry_equiv_pos_site_id
 _symmetry_equiv_pos_as_xyz
  1  'x, y, z'
loop_
 _atom_site_type_symbol
 _atom_site_label
 _atom_site_symmetry_multiplicity
 _atom_site_fract_x
 _atom_site_fract_y
 _atom_site_fract_z
 _atom_site_occupancy
  Sm  Sm0  1  0.999634  0.182398  0.093894  1
  Sm  Sm1  1  0.000960  0.817790  0.905380  1
  Sm  Sm2  1  0.500090  0.681723  0.907222  1
  Sm  Sm3  1  0.000703  0.816192  0.591394  1
  Sm  Sm4  1  0.500112  0.317751  0.093870  1
  Tm  Tm5  1  0.998169  0.185026  0.408190  1
  Tm  Tm6  1  0.496911  0.315793  0.408282  1
  Tm  Tm7  1  0.501444  0.683904  0.590742  1
  Tm  Tm8  1  0.336783  0.169234  0.627010  1
  Tm  Tm9  1  0.664135  0.830380  0.372532  1
  Tm  Tm10  1  0.164078  0.668648  0.372522  1
  Tm  Tm11  1  0.664746  0.830298  0.129921  1
  Tm  Tm12  1  0.836108  0.330847  0.626785  1
  Tm  Tm13  1  0.335759  0.169493  0.871214  1
  Tm  Tm14  1  0.834950  0.330154  0.871171  1
  Tm  Tm15  1  0.164717  0.669655  0.129752  1
  Mg  Mg16  1  0.160882  0.504256  0.749388  1
  Mg  Mg17  1  0.839733  0.495746  0.251020  1
  Mg  Mg18  1  0.339939  0.004747  0.250759  1
  Mg  Mg19  1  0.661669  0.996218  0.749582  1
  Sn  Sn20  1  0.025084  0.100040  0.748713  1
  Sn  Sn21  1  0.976909  0.903351  0.252002  1
  Sn  Sn22  1  0.476662  0.596574  0.251942  1
  Sn  Sn23  1  0.523165  0.401602  0.748069  1
  Sn  Sn24  1  0.183952  0.461069  0.538439  1
  Sn  Sn25  1  0.815613  0.534723  0.459805  1
  Sn  Sn26  1  0.318010  0.964458  0.459282  1
  Sn  Sn27  1  0.821803  0.540000  0.038406  1
  Sn  Sn28  1  0.678988  0.039097  0.537895  1
  Sn  Sn29  1  0.178138  0.460621  0.962012  1
  Sn  Sn30  1  0.678894  0.038934  0.962154  1
  Sn  Sn31  1  0.321452  0.960585  0.038722  1
  Sn  Sn32  1  0.305398  0.851805  0.747275  1
  Sn  Sn33  1  0.697801  0.149333  0.253588  1
  Sn  Sn34  1  0.197256  0.351103  0.253164  1
  Sn  Sn35  1  0.799353  0.646449  0.747898  1
