# generated using pymatgen
data_Hf6Al16Cu2Ir4Pt
_symmetry_space_group_name_H-M   'P 1'
_cell_length_a   8.67683881
_cell_length_b   8.69735637
_cell_length_c   8.67682478
_cell_angle_alpha   59.92099149
_cell_angle_beta   60.15843322
_cell_angle_gamma   59.92083542
_symmetry_Int_Tables_number   1
_chemical_formula_structural   Hf6Al16Cu2Ir4Pt
_chemical_formula_sum   'Hf6 Al16 Cu2 Ir4 Pt1'
_cell_volume   463.01013249
_cell_formula_units_Z   1
loop_
 _symmetry_equiv_pos_site_id
 _symmetry_equiv_pos_as_xyz
  1  'x, y, z'
loop_
 _atom_site_type_symbol
 _atom_site_label
 _atom_site_symmetry_multiplicity
 _atom_site_fract_x
 _atom_site_fract_y
 _atom_site_fract_z
 _atom_site_occupancy
  Hf  Hf0  1  0.690040  0.309965  0.309976  1
  Hf  Hf1  1  0.309960  0.690035  0.690024  1
  Hf  Hf2  1  0.327405  0.672605  0.327405  1
  Hf  Hf3  1  0.672595  0.327395  0.672595  1
  Hf  Hf4  1  0.309977  0.309965  0.690039  1
  Hf  Hf5  1  0.690023  0.690035  0.309961  1
  Al  Al6  1  0.338505  0.331017  0.338505  1
  Al  Al7  1  0.661495  0.668983  0.661495  1
  Al  Al8  1  0.331002  0.338500  0.992004  1
  Al  Al9  1  0.338485  0.992029  0.338485  1
  Al  Al10  1  0.668998  0.661500  0.007996  1
  Al  Al11  1  0.661515  0.007971  0.661515  1
  Al  Al12  1  0.992004  0.338500  0.331002  1
  Al  Al13  1  0.007996  0.661500  0.668998  1
  Al  Al14  1  0.125958  0.110752  0.125958  1
  Al  Al15  1  0.874042  0.889248  0.874042  1
  Al  Al16  1  0.110738  0.125983  0.637323  1
  Al  Al17  1  0.125975  0.637321  0.125975  1
  Al  Al18  1  0.889262  0.874017  0.362677  1
  Al  Al19  1  0.874025  0.362679  0.874025  1
  Al  Al20  1  0.637323  0.125983  0.110739  1
  Al  Al21  1  0.362677  0.874017  0.889261  1
  Cu  Cu22  1  0.000000  0.500000  0.000000  1
  Cu  Cu23  1  0.500000  0.000000  0.500000  1
  Ir  Ir24  1  0.500000  0.000000  0.000000  1
  Ir  Ir25  1  0.000000  0.500000  0.500000  1
  Ir  Ir26  1  0.000000  0.000000  0.500000  1
  Ir  Ir27  1  0.500000  0.500000  0.000000  1
  Pt  Pt28  1  0.000000  0.000000  0.000000  1
