# generated using pymatgen
data_Tb12ErTmRh6
_symmetry_space_group_name_H-M   'P 1'
_cell_length_a   9.83399600
_cell_length_b   9.83399569
_cell_length_c   6.18275200
_cell_angle_alpha   90.00000000
_cell_angle_beta   90.00000000
_cell_angle_gamma   120.00000104
_symmetry_Int_Tables_number   1
_chemical_formula_structural   Tb12ErTmRh6
_chemical_formula_sum   'Tb12 Er1 Tm1 Rh6'
_cell_volume   517.81245782
_cell_formula_units_Z   1
loop_
 _symmetry_equiv_pos_site_id
 _symmetry_equiv_pos_as_xyz
  1  'x, y, z'
loop_
 _atom_site_type_symbol
 _atom_site_label
 _atom_site_symmetry_multiplicity
 _atom_site_fract_x
 _atom_site_fract_y
 _atom_site_fract_z
 _atom_site_occupancy
  Tb  Tb0  1  0.751984  0.875992  0.992098  1
  Tb  Tb1  1  0.875851  0.124149  0.492043  1
  Tb  Tb2  1  0.541098  0.458902  0.797752  1
  Tb  Tb3  1  0.081883  0.540941  0.297847  1
  Tb  Tb4  1  0.459059  0.918117  0.297847  1
  Tb  Tb5  1  0.541098  0.082195  0.797752  1
  Tb  Tb6  1  0.917805  0.458902  0.797752  1
  Tb  Tb7  1  0.459059  0.540941  0.297847  1
  Tb  Tb8  1  0.124008  0.248016  0.992098  1
  Tb  Tb9  1  0.875851  0.751703  0.492043  1
  Tb  Tb10  1  0.248297  0.124149  0.492043  1
  Tb  Tb11  1  0.124008  0.875992  0.992098  1
  Er  Er12  1  0.333333  0.666667  0.784083  1
  Tm  Tm13  1  0.666667  0.333333  0.282047  1
  Rh  Rh14  1  0.190444  0.809556  0.562973  1
  Rh  Rh15  1  0.381271  0.190635  0.063246  1
  Rh  Rh16  1  0.809365  0.618729  0.063246  1
  Rh  Rh17  1  0.190444  0.380888  0.562973  1
  Rh  Rh18  1  0.619112  0.809556  0.562973  1
  Rh  Rh19  1  0.809365  0.190635  0.063246  1
