# generated using pymatgen
data_La16Pr4Si15Au
_symmetry_space_group_name_H-M   'P 1'
_cell_length_a   8.02280676
_cell_length_b   8.02560481
_cell_length_c   15.51083283
_cell_angle_alpha   90.02467286
_cell_angle_beta   89.56916537
_cell_angle_gamma   90.05216585
_symmetry_Int_Tables_number   1
_chemical_formula_structural   La16Pr4Si15Au
_chemical_formula_sum   'La16 Pr4 Si15 Au1'
_cell_volume   998.68085067
_cell_formula_units_Z   1
loop_
 _symmetry_equiv_pos_site_id
 _symmetry_equiv_pos_as_xyz
  1  'x, y, z'
loop_
 _atom_site_type_symbol
 _atom_site_label
 _atom_site_symmetry_multiplicity
 _atom_site_fract_x
 _atom_site_fract_y
 _atom_site_fract_z
 _atom_site_occupancy
  La  La0  1  0.308515  0.307167  0.999656  1
  La  La1  1  0.193500  0.808460  0.249393  1
  La  La2  1  0.803834  0.186085  0.752277  1
  La  La3  1  0.692935  0.685703  0.498127  1
  La  La4  1  0.374086  0.011966  0.447005  1
  La  La5  1  0.491934  0.870247  0.698492  1
  La  La6  1  0.511037  0.122751  0.198239  1
  La  La7  1  0.877948  0.488134  0.301322  1
  La  La8  1  0.121033  0.517009  0.802421  1
  La  La9  1  0.627557  0.987396  0.950501  1
  La  La10  1  0.001012  0.381824  0.548706  1
  La  La11  1  0.990192  0.624481  0.053841  1
  La  La12  1  0.133252  0.985678  0.877632  1
  La  La13  1  0.517943  0.630527  0.127721  1
  La  La14  1  0.481519  0.371896  0.626352  1
  La  La15  1  0.629270  0.519579  0.875506  1
  Pr  Pr16  1  0.372199  0.483730  0.372357  1
  Pr  Pr17  1  0.872452  0.018156  0.375729  1
  Pr  Pr18  1  0.982760  0.126933  0.125433  1
  Pr  Pr19  1  0.013973  0.868268  0.620492  1
  Si  Si20  1  0.332179  0.697358  0.953121  1
  Si  Si21  1  0.661592  0.300488  0.450353  1
  Si  Si22  1  0.700215  0.334028  0.049879  1
  Si  Si23  1  0.302049  0.669420  0.545902  1
  Si  Si24  1  0.806155  0.832946  0.204100  1
  Si  Si25  1  0.167061  0.197977  0.299057  1
  Si  Si26  1  0.836280  0.803363  0.796330  1
  Si  Si27  1  0.288160  0.922290  0.059745  1
  Si  Si28  1  0.580935  0.789470  0.309917  1
  Si  Si29  1  0.431897  0.209340  0.813129  1
  Si  Si30  1  0.788367  0.580192  0.690853  1
  Si  Si31  1  0.210859  0.419153  0.191227  1
  Si  Si32  1  0.705859  0.076870  0.557230  1
  Si  Si33  1  0.921350  0.288980  0.942926  1
  Si  Si34  1  0.079796  0.713479  0.439824  1
  Au  Au35  1  0.190299  0.168660  0.695206  1
