# generated using pymatgen
data_Yb(PaH4)3
_symmetry_space_group_name_H-M   'P 1'
_cell_length_a   6.56255900
_cell_length_b   6.56255900
_cell_length_c   6.56255900
_cell_angle_alpha   90.00000000
_cell_angle_beta   90.00000000
_cell_angle_gamma   90.00000000
_symmetry_Int_Tables_number   1
_chemical_formula_structural   Yb(PaH4)3
_chemical_formula_sum   'Yb2 Pa6 H24'
_cell_volume   282.63091384
_cell_formula_units_Z   2
loop_
 _symmetry_equiv_pos_site_id
 _symmetry_equiv_pos_as_xyz
  1  'x, y, z'
loop_
 _atom_site_type_symbol
 _atom_site_label
 _atom_site_symmetry_multiplicity
 _atom_site_fract_x
 _atom_site_fract_y
 _atom_site_fract_z
 _atom_site_occupancy
  Yb  Yb0  1  0.000000  0.000000  0.000000  1
  Yb  Yb1  1  0.500000  0.500000  0.500000  1
  Pa  Pa2  1  0.250000  0.000000  0.500000  1
  Pa  Pa3  1  0.750000  0.000000  0.500000  1
  Pa  Pa4  1  0.000000  0.500000  0.250000  1
  Pa  Pa5  1  0.000000  0.500000  0.750000  1
  Pa  Pa6  1  0.500000  0.750000  0.000000  1
  Pa  Pa7  1  0.500000  0.250000  0.000000  1
  H  H8  1  0.000000  0.155734  0.309037  1
  H  H9  1  0.500000  0.190963  0.655734  1
  H  H10  1  0.500000  0.809037  0.344266  1
  H  H11  1  0.809037  0.655734  0.500000  1
  H  H12  1  0.190963  0.655734  0.500000  1
  H  H13  1  0.344266  0.500000  0.809037  1
  H  H14  1  0.655734  0.500000  0.809037  1
  H  H15  1  0.309037  0.000000  0.155734  1
  H  H16  1  0.155734  0.309037  0.000000  1
  H  H17  1  0.844266  0.690963  0.000000  1
  H  H18  1  0.309037  0.000000  0.844266  1
  H  H19  1  0.844266  0.309037  0.000000  1
  H  H20  1  0.690963  0.000000  0.155734  1
  H  H21  1  0.690963  0.000000  0.844266  1
  H  H22  1  0.155734  0.690963  0.000000  1
  H  H23  1  0.000000  0.844266  0.690963  1
  H  H24  1  0.000000  0.155734  0.690963  1
  H  H25  1  0.000000  0.844266  0.309037  1
  H  H26  1  0.655734  0.500000  0.190963  1
  H  H27  1  0.344266  0.500000  0.190963  1
  H  H28  1  0.809037  0.344266  0.500000  1
  H  H29  1  0.190963  0.344266  0.500000  1
  H  H30  1  0.500000  0.809037  0.655734  1
  H  H31  1  0.500000  0.190963  0.344266  1
