# generated using pymatgen
data_TbYBr6
_symmetry_space_group_name_H-M   'P 1'
_cell_length_a   7.29337100
_cell_length_b   7.29364278
_cell_length_c   23.21477401
_cell_angle_alpha   89.99839901
_cell_angle_beta   90.00264695
_cell_angle_gamma   119.99949614
_symmetry_Int_Tables_number   1
_chemical_formula_structural   TbYBr6
_chemical_formula_sum   'Tb3 Y3 Br18'
_cell_volume   1069.47365610
_cell_formula_units_Z   3
loop_
 _symmetry_equiv_pos_site_id
 _symmetry_equiv_pos_as_xyz
  1  'x, y, z'
loop_
 _atom_site_type_symbol
 _atom_site_label
 _atom_site_symmetry_multiplicity
 _atom_site_fract_x
 _atom_site_fract_y
 _atom_site_fract_z
 _atom_site_occupancy
  Tb  Tb0  1  0.221657  0.110822  0.999982  1
  Tb  Tb1  1  0.555175  0.777572  0.999983  1
  Tb  Tb2  1  0.222390  0.444881  0.333408  1
  Y  Y3  1  0.889165  0.778467  0.333428  1
  Y  Y4  1  0.889199  0.110711  0.666588  1
  Y  Y5  1  0.222291  0.777523  0.666608  1
  Br  Br6  1  0.519713  0.444215  0.070199  1
  Br  Br7  1  0.888441  0.075609  0.070144  1
  Br  Br8  1  0.257073  0.812878  0.070302  1
  Br  Br9  1  0.186152  0.743511  0.263433  1
  Br  Br10  1  0.923677  0.110215  0.263624  1
  Br  Br11  1  0.557224  0.481220  0.263561  1
  Br  Br12  1  0.923950  0.481195  0.403303  1
  Br  Br13  1  0.186822  0.110273  0.403179  1
  Br  Br14  1  0.557168  0.743795  0.403374  1
  Br  Br15  1  0.555740  0.813298  0.596926  1
  Br  Br16  1  0.186606  0.074960  0.597065  1
  Br  Br17  1  0.925110  0.444126  0.597016  1
  Br  Br18  1  0.555725  0.074542  0.736166  1
  Br  Br19  1  0.925151  0.813608  0.736160  1
  Br  Br20  1  0.186319  0.444101  0.736300  1
  Br  Br21  1  0.257061  0.444181  0.929664  1
  Br  Br22  1  0.888451  0.812810  0.929818  1
  Br  Br23  1  0.519739  0.075490  0.929768  1
