# generated using pymatgen
data_Rb3TbIr2O9
_symmetry_space_group_name_H-M   'P 1'
_cell_length_a   6.09781100
_cell_length_b   6.09789781
_cell_length_c   14.78687800
_cell_angle_alpha   90.00234498
_cell_angle_beta   89.99818516
_cell_angle_gamma   120.00127630
_symmetry_Int_Tables_number   1
_chemical_formula_structural   Rb3TbIr2O9
_chemical_formula_sum   'Rb6 Tb2 Ir4 O18'
_cell_volume   476.16299096
_cell_formula_units_Z   2
loop_
 _symmetry_equiv_pos_site_id
 _symmetry_equiv_pos_as_xyz
  1  'x, y, z'
loop_
 _atom_site_type_symbol
 _atom_site_label
 _atom_site_symmetry_multiplicity
 _atom_site_fract_x
 _atom_site_fract_y
 _atom_site_fract_z
 _atom_site_occupancy
  Rb  Rb0  1  0.666676  0.333362  0.099378  1
  Rb  Rb1  1  0.000007  0.000013  0.249907  1
  Rb  Rb2  1  0.666679  0.333345  0.400571  1
  Rb  Rb3  1  0.333313  0.666616  0.599647  1
  Rb  Rb4  1  0.999980  0.999966  0.750053  1
  Rb  Rb5  1  0.333316  0.666659  0.900452  1
  Tb  Tb6  1  0.000001  0.000009  0.000026  1
  Tb  Tb7  1  0.000002  0.999993  0.500127  1
  Ir  Ir8  1  0.333332  0.666686  0.154355  1
  Ir  Ir9  1  0.333341  0.666680  0.345682  1
  Ir  Ir10  1  0.666632  0.333252  0.654492  1
  Ir  Ir11  1  0.666644  0.333303  0.845418  1
  O  O12  1  0.179221  0.820817  0.085983  1
  O  O13  1  0.641608  0.820820  0.085980  1
  O  O14  1  0.179207  0.358409  0.085983  1
  O  O15  1  0.063339  0.531681  0.250161  1
  O  O16  1  0.468359  0.531685  0.250156  1
  O  O17  1  0.468366  0.936714  0.250158  1
  O  O18  1  0.179366  0.358713  0.414030  1
  O  O19  1  0.179376  0.820684  0.414026  1
  O  O20  1  0.641328  0.820685  0.414026  1
  O  O21  1  0.357966  0.178953  0.586364  1
  O  O22  1  0.821001  0.178952  0.586368  1
  O  O23  1  0.821014  0.642016  0.586360  1
  O  O24  1  0.531503  0.063022  0.750007  1
  O  O25  1  0.531508  0.468450  0.750000  1
  O  O26  1  0.936934  0.468454  0.750000  1
  O  O27  1  0.820864  0.641749  0.913425  1
  O  O28  1  0.358297  0.179156  0.913432  1
  O  O29  1  0.820832  0.179158  0.913432  1
