# generated using pymatgen
data_Nd3Sn2Hg3
_symmetry_space_group_name_H-M   'P 1'
_cell_length_a   6.46967168
_cell_length_b   6.46967213
_cell_length_c   10.77020700
_cell_angle_alpha   90.00000000
_cell_angle_beta   90.00000000
_cell_angle_gamma   101.56992192
_symmetry_Int_Tables_number   1
_chemical_formula_structural   Nd3Sn2Hg3
_chemical_formula_sum   'Nd6 Sn4 Hg6'
_cell_volume   441.64478268
_cell_formula_units_Z   2
loop_
 _symmetry_equiv_pos_site_id
 _symmetry_equiv_pos_as_xyz
  1  'x, y, z'
loop_
 _atom_site_type_symbol
 _atom_site_label
 _atom_site_symmetry_multiplicity
 _atom_site_fract_x
 _atom_site_fract_y
 _atom_site_fract_z
 _atom_site_occupancy
  Nd  Nd0  1  0.634493  0.634493  0.250000  1
  Nd  Nd1  1  0.365507  0.365507  0.750000  1
  Nd  Nd2  1  0.200233  0.799767  0.500000  1
  Nd  Nd3  1  0.200233  0.799767  0.000000  1
  Nd  Nd4  1  0.799767  0.200233  0.500000  1
  Nd  Nd5  1  0.799767  0.200233  0.000000  1
  Sn  Sn6  1  0.316236  0.316236  0.045513  1
  Sn  Sn7  1  0.683764  0.683764  0.954487  1
  Sn  Sn8  1  0.316236  0.316236  0.454487  1
  Sn  Sn9  1  0.683764  0.683764  0.545513  1
  Hg  Hg10  1  0.017348  0.017348  0.250000  1
  Hg  Hg11  1  0.982652  0.982652  0.750000  1
  Hg  Hg12  1  0.507645  0.080285  0.250000  1
  Hg  Hg13  1  0.919715  0.492355  0.750000  1
  Hg  Hg14  1  0.492355  0.919715  0.750000  1
  Hg  Hg15  1  0.080285  0.507645  0.250000  1
