# generated using pymatgen
data_RbMnTe2O7
_symmetry_space_group_name_H-M   'P 1'
_cell_length_a   5.54430400
_cell_length_b   7.29097548
_cell_length_c   9.22104398
_cell_angle_alpha   66.71665406
_cell_angle_beta   90.00053074
_cell_angle_gamma   90.00000867
_symmetry_Int_Tables_number   1
_chemical_formula_structural   RbMnTe2O7
_chemical_formula_sum   'Rb2 Mn2 Te4 O14'
_cell_volume   342.38987817
_cell_formula_units_Z   2
loop_
 _symmetry_equiv_pos_site_id
 _symmetry_equiv_pos_as_xyz
  1  'x, y, z'
loop_
 _atom_site_type_symbol
 _atom_site_label
 _atom_site_symmetry_multiplicity
 _atom_site_fract_x
 _atom_site_fract_y
 _atom_site_fract_z
 _atom_site_occupancy
  Rb  Rb0  1  0.750000  0.655175  0.430246  1
  Rb  Rb1  1  0.250000  0.085433  0.569782  1
  Mn  Mn2  1  0.750006  0.243006  0.233108  1
  Mn  Mn3  1  0.249996  0.476201  0.766848  1
  Te  Te4  1  0.250006  0.559665  0.137087  1
  Te  Te5  1  0.250001  0.038236  0.140715  1
  Te  Te6  1  0.749997  0.178776  0.859395  1
  Te  Te7  1  0.749999  0.696731  0.862827  1
  O  O8  1  0.000030  0.992118  0.000010  1
  O  O9  1  0.499967  0.992117  0.000009  1
  O  O10  1  0.249999  0.327208  0.023130  1
  O  O11  1  0.250001  0.743418  0.253294  1
  O  O12  1  0.512657  0.424234  0.265337  1
  O  O13  1  0.987356  0.424233  0.265339  1
  O  O14  1  0.999048  0.042598  0.284218  1
  O  O15  1  0.500966  0.042599  0.284216  1
  O  O16  1  0.499145  0.326746  0.715807  1
  O  O17  1  0.000848  0.326744  0.715805  1
  O  O18  1  0.012724  0.689521  0.734629  1
  O  O19  1  0.487266  0.689521  0.734628  1
  O  O20  1  0.749998  0.996694  0.746686  1
  O  O21  1  0.750000  0.350267  0.976883  1
