# generated using pymatgen
data_Ac3Pr4Nd13Rh16
_symmetry_space_group_name_H-M   'P 1'
_cell_length_a   7.76309401
_cell_length_b   7.89940505
_cell_length_c   15.00751500
_cell_angle_alpha   90.05587848
_cell_angle_beta   90.17207003
_cell_angle_gamma   89.69027375
_symmetry_Int_Tables_number   1
_chemical_formula_structural   Ac3Pr4Nd13Rh16
_chemical_formula_sum   'Ac3 Pr4 Nd13 Rh16'
_cell_volume   920.30018865
_cell_formula_units_Z   1
loop_
 _symmetry_equiv_pos_site_id
 _symmetry_equiv_pos_as_xyz
  1  'x, y, z'
loop_
 _atom_site_type_symbol
 _atom_site_label
 _atom_site_symmetry_multiplicity
 _atom_site_fract_x
 _atom_site_fract_y
 _atom_site_fract_z
 _atom_site_occupancy
  Ac  Ac0  1  0.976935  0.179246  0.596863  1
  Ac  Ac1  1  0.522926  0.679678  0.403976  1
  Ac  Ac2  1  0.021548  0.820579  0.095709  1
  Pr  Pr3  1  0.525888  0.680471  0.097564  1
  Pr  Pr4  1  0.026367  0.816877  0.399453  1
  Pr  Pr5  1  0.473717  0.316405  0.600880  1
  Pr  Pr6  1  0.973209  0.185480  0.900701  1
  Nd  Nd7  1  0.326084  0.830860  0.879961  1
  Nd  Nd8  1  0.826748  0.669132  0.621213  1
  Nd  Nd9  1  0.674647  0.169014  0.379772  1
  Nd  Nd10  1  0.176407  0.330612  0.118825  1
  Nd  Nd11  1  0.671635  0.171633  0.119534  1
  Nd  Nd12  1  0.173867  0.329309  0.377854  1
  Nd  Nd13  1  0.325129  0.829459  0.623038  1
  Nd  Nd14  1  0.821978  0.666437  0.878679  1
  Nd  Nd15  1  0.473080  0.317469  0.901917  1
  Nd  Nd16  1  0.164510  0.494646  0.751716  1
  Nd  Nd17  1  0.660954  0.006465  0.751888  1
  Nd  Nd18  1  0.838259  0.504275  0.249013  1
  Nd  Nd19  1  0.338030  0.995048  0.249364  1
  Rh  Rh20  1  0.341500  0.031345  0.043183  1
  Rh  Rh21  1  0.842768  0.471698  0.454376  1
  Rh  Rh22  1  0.657167  0.971525  0.546132  1
  Rh  Rh23  1  0.166177  0.525828  0.953793  1
  Rh  Rh24  1  0.666221  0.973681  0.954677  1
  Rh  Rh25  1  0.168764  0.529508  0.544230  1
  Rh  Rh26  1  0.332484  0.029214  0.456852  1
  Rh  Rh27  1  0.835414  0.471339  0.044122  1
  Rh  Rh28  1  0.527713  0.614298  0.751099  1
  Rh  Rh29  1  0.029999  0.883837  0.751339  1
  Rh  Rh30  1  0.470289  0.382523  0.248804  1
  Rh  Rh31  1  0.970066  0.117705  0.249784  1
  Rh  Rh32  1  0.284240  0.138729  0.752776  1
  Rh  Rh33  1  0.777722  0.363956  0.752181  1
  Rh  Rh34  1  0.718470  0.864639  0.248970  1
  Rh  Rh35  1  0.219090  0.637081  0.249767  1
