# generated using pymatgen
data_Tb4TmIr2Ru
_symmetry_space_group_name_H-M   'P 1'
_cell_length_a   10.86786700
_cell_length_b   10.86786700
_cell_length_c   6.42559900
_cell_angle_alpha   90.00000000
_cell_angle_beta   90.00000000
_cell_angle_gamma   90.00000000
_symmetry_Int_Tables_number   1
_chemical_formula_structural   Tb4TmIr2Ru
_chemical_formula_sum   'Tb16 Tm4 Ir8 Ru4'
_cell_volume   758.93092357
_cell_formula_units_Z   4
loop_
 _symmetry_equiv_pos_site_id
 _symmetry_equiv_pos_as_xyz
  1  'x, y, z'
loop_
 _atom_site_type_symbol
 _atom_site_label
 _atom_site_symmetry_multiplicity
 _atom_site_fract_x
 _atom_site_fract_y
 _atom_site_fract_z
 _atom_site_occupancy
  Tb  Tb0  1  0.292491  0.086594  0.378948  1
  Tb  Tb1  1  0.292491  0.913406  0.878948  1
  Tb  Tb2  1  0.707509  0.086594  0.878948  1
  Tb  Tb3  1  0.707509  0.913406  0.378948  1
  Tb  Tb4  1  0.586594  0.792491  0.878948  1
  Tb  Tb5  1  0.586594  0.207509  0.378948  1
  Tb  Tb6  1  0.413406  0.792491  0.378948  1
  Tb  Tb7  1  0.413406  0.207509  0.878948  1
  Tb  Tb8  1  0.207509  0.413406  0.621052  1
  Tb  Tb9  1  0.207509  0.586594  0.121052  1
  Tb  Tb10  1  0.792491  0.413406  0.121052  1
  Tb  Tb11  1  0.792491  0.586594  0.621052  1
  Tb  Tb12  1  0.913406  0.707509  0.121052  1
  Tb  Tb13  1  0.913406  0.292491  0.621052  1
  Tb  Tb14  1  0.086594  0.707509  0.621052  1
  Tb  Tb15  1  0.086594  0.292491  0.121052  1
  Tm  Tm16  1  0.000000  0.000000  0.500000  1
  Tm  Tm17  1  0.000000  0.000000  0.000000  1
  Tm  Tm18  1  0.500000  0.500000  0.000000  1
  Tm  Tm19  1  0.500000  0.500000  0.500000  1
  Ir  Ir20  1  0.849478  0.150522  0.250000  1
  Ir  Ir21  1  0.849478  0.849478  0.750000  1
  Ir  Ir22  1  0.150522  0.150522  0.750000  1
  Ir  Ir23  1  0.150522  0.849478  0.250000  1
  Ir  Ir24  1  0.650522  0.349478  0.750000  1
  Ir  Ir25  1  0.650522  0.650522  0.250000  1
  Ir  Ir26  1  0.349478  0.349478  0.250000  1
  Ir  Ir27  1  0.349478  0.650522  0.750000  1
  Ru  Ru28  1  0.500000  0.000000  0.121941  1
  Ru  Ru29  1  0.500000  0.000000  0.621941  1
  Ru  Ru30  1  0.000000  0.500000  0.878059  1
  Ru  Ru31  1  0.000000  0.500000  0.378059  1
