# generated using pymatgen
data_La8Hg2IrRh
_symmetry_space_group_name_H-M   'P 1'
_cell_length_a   10.08931065
_cell_length_b   10.08930985
_cell_length_c   10.08396000
_cell_angle_alpha   60.01753895
_cell_angle_beta   60.01754157
_cell_angle_gamma   60.15548302
_symmetry_Int_Tables_number   1
_chemical_formula_structural   La8Hg2IrRh
_chemical_formula_sum   'La16 Hg4 Ir2 Rh2'
_cell_volume   726.87905854
_cell_formula_units_Z   2
loop_
 _symmetry_equiv_pos_site_id
 _symmetry_equiv_pos_as_xyz
  1  'x, y, z'
loop_
 _atom_site_type_symbol
 _atom_site_label
 _atom_site_symmetry_multiplicity
 _atom_site_fract_x
 _atom_site_fract_y
 _atom_site_fract_z
 _atom_site_occupancy
  La  La0  1  0.598388  0.598388  0.598068  1
  La  La1  1  0.598388  0.598388  0.205157  1
  La  La2  1  0.599420  0.202883  0.598849  1
  La  La3  1  0.202883  0.599420  0.598849  1
  La  La4  1  0.059070  0.440839  0.440605  1
  La  La5  1  0.440839  0.059070  0.059486  1
  La  La6  1  0.440839  0.059070  0.440605  1
  La  La7  1  0.059070  0.440839  0.059486  1
  La  La8  1  0.440742  0.440742  0.059258  1
  La  La9  1  0.058963  0.058963  0.441037  1
  La  La10  1  0.190084  0.811235  0.810141  1
  La  La11  1  0.811235  0.190084  0.188540  1
  La  La12  1  0.811235  0.190084  0.810141  1
  La  La13  1  0.190084  0.811235  0.188540  1
  La  La14  1  0.810413  0.810413  0.189587  1
  La  La15  1  0.188971  0.188971  0.811029  1
  Hg  Hg16  1  0.833043  0.833043  0.832478  1
  Hg  Hg17  1  0.833043  0.833043  0.501433  1
  Hg  Hg18  1  0.833457  0.500314  0.833114  1
  Hg  Hg19  1  0.500314  0.833457  0.833114  1
  Ir  Ir20  1  0.391744  0.825987  0.391135  1
  Ir  Ir21  1  0.825987  0.391744  0.391135  1
  Rh  Rh22  1  0.390894  0.390894  0.390776  1
  Rh  Rh23  1  0.390894  0.390894  0.827437  1
