# generated using pymatgen
data_Dy2HoEr2CoBi2
_symmetry_space_group_name_H-M   'P 1'
_cell_length_a   7.94729600
_cell_length_b   8.88756700
_cell_length_c   12.36642700
_cell_angle_alpha   90.00000000
_cell_angle_beta   90.00000000
_cell_angle_gamma   90.00000000
_symmetry_Int_Tables_number   1
_chemical_formula_structural   Dy2HoEr2CoBi2
_chemical_formula_sum   'Dy8 Ho4 Er8 Co4 Bi8'
_cell_volume   873.46702594
_cell_formula_units_Z   4
loop_
 _symmetry_equiv_pos_site_id
 _symmetry_equiv_pos_as_xyz
  1  'x, y, z'
loop_
 _atom_site_type_symbol
 _atom_site_label
 _atom_site_symmetry_multiplicity
 _atom_site_fract_x
 _atom_site_fract_y
 _atom_site_fract_z
 _atom_site_occupancy
  Dy  Dy0  1  0.346798  0.750000  0.699882  1
  Dy  Dy1  1  0.653202  0.250000  0.300118  1
  Dy  Dy2  1  0.846798  0.250000  0.800118  1
  Dy  Dy3  1  0.153202  0.750000  0.199882  1
  Dy  Dy4  1  0.884878  0.750000  0.811135  1
  Dy  Dy5  1  0.115122  0.250000  0.188865  1
  Dy  Dy6  1  0.384878  0.250000  0.688865  1
  Dy  Dy7  1  0.615122  0.750000  0.311135  1
  Ho  Ho8  1  0.052788  0.750000  0.497926  1
  Ho  Ho9  1  0.947212  0.250000  0.502074  1
  Ho  Ho10  1  0.552788  0.250000  0.002074  1
  Ho  Ho11  1  0.447212  0.750000  0.997926  1
  Er  Er12  1  0.674981  0.538309  0.562901  1
  Er  Er13  1  0.325019  0.461691  0.437099  1
  Er  Er14  1  0.174981  0.461691  0.937099  1
  Er  Er15  1  0.325019  0.038309  0.437099  1
  Er  Er16  1  0.825019  0.538309  0.062901  1
  Er  Er17  1  0.674981  0.961691  0.562901  1
  Er  Er18  1  0.825019  0.961691  0.062901  1
  Er  Er19  1  0.174981  0.038309  0.937099  1
  Co  Co20  1  0.066116  0.750000  0.991900  1
  Co  Co21  1  0.933884  0.250000  0.008100  1
  Co  Co22  1  0.566116  0.250000  0.508100  1
  Co  Co23  1  0.433884  0.750000  0.491900  1
  Bi  Bi24  1  0.571456  0.509696  0.826795  1
  Bi  Bi25  1  0.428544  0.490304  0.173205  1
  Bi  Bi26  1  0.071456  0.490304  0.673205  1
  Bi  Bi27  1  0.428544  0.009696  0.173205  1
  Bi  Bi28  1  0.928544  0.509696  0.326795  1
  Bi  Bi29  1  0.571456  0.990304  0.826795  1
  Bi  Bi30  1  0.928544  0.990304  0.326795  1
  Bi  Bi31  1  0.071456  0.009696  0.673205  1
