# generated using pymatgen
data_Pr8Si12Ir3Ru
_symmetry_space_group_name_H-M   'P 1'
_cell_length_a   8.28607000
_cell_length_b   8.28607126
_cell_length_c   8.53752700
_cell_angle_alpha   90.00000000
_cell_angle_beta   90.00000000
_cell_angle_gamma   120.00000294
_symmetry_Int_Tables_number   1
_chemical_formula_structural   Pr8Si12Ir3Ru
_chemical_formula_sum   'Pr8 Si12 Ir3 Ru1'
_cell_volume   507.64483399
_cell_formula_units_Z   1
loop_
 _symmetry_equiv_pos_site_id
 _symmetry_equiv_pos_as_xyz
  1  'x, y, z'
loop_
 _atom_site_type_symbol
 _atom_site_label
 _atom_site_symmetry_multiplicity
 _atom_site_fract_x
 _atom_site_fract_y
 _atom_site_fract_z
 _atom_site_occupancy
  Pr  Pr0  1  0.500242  0.499758  0.747726  1
  Pr  Pr1  1  0.500792  0.499208  0.252181  1
  Pr  Pr2  1  0.999514  0.499758  0.747726  1
  Pr  Pr3  1  0.998417  0.499208  0.252181  1
  Pr  Pr4  1  0.500242  0.000486  0.747726  1
  Pr  Pr5  1  0.500792  0.001583  0.252181  1
  Pr  Pr6  1  0.000000  0.000000  0.750210  1
  Pr  Pr7  1  0.000000  0.000000  0.249931  1
  Si  Si8  1  0.833044  0.166956  0.000143  1
  Si  Si9  1  0.167075  0.832925  0.999952  1
  Si  Si10  1  0.333912  0.166956  0.000143  1
  Si  Si11  1  0.166410  0.833590  0.499981  1
  Si  Si12  1  0.665850  0.832925  0.999952  1
  Si  Si13  1  0.832192  0.167808  0.499891  1
  Si  Si14  1  0.833044  0.666088  0.000143  1
  Si  Si15  1  0.667180  0.833590  0.499981  1
  Si  Si16  1  0.167075  0.334150  0.999952  1
  Si  Si17  1  0.335615  0.167808  0.499891  1
  Si  Si18  1  0.166410  0.332820  0.499981  1
  Si  Si19  1  0.832192  0.664385  0.499891  1
  Ir  Ir20  1  0.666667  0.333333  0.998862  1
  Ir  Ir21  1  0.333333  0.666667  0.000652  1
  Ir  Ir22  1  0.333333  0.666667  0.498559  1
  Ru  Ru23  1  0.666667  0.333333  0.502165  1
