# generated using pymatgen
data_Tm2V3Co3Ni6As7
_symmetry_space_group_name_H-M   'P 1'
_cell_length_a   3.78291700
_cell_length_b   9.42405335
_cell_length_c   9.42405400
_cell_angle_alpha   119.99999525
_cell_angle_beta   90.00000000
_cell_angle_gamma   90.00000000
_symmetry_Int_Tables_number   1
_chemical_formula_structural   Tm2V3Co3Ni6As7
_chemical_formula_sum   'Tm2 V3 Co3 Ni6 As7'
_cell_volume   290.95978505
_cell_formula_units_Z   1
loop_
 _symmetry_equiv_pos_site_id
 _symmetry_equiv_pos_as_xyz
  1  'x, y, z'
loop_
 _atom_site_type_symbol
 _atom_site_label
 _atom_site_symmetry_multiplicity
 _atom_site_fract_x
 _atom_site_fract_y
 _atom_site_fract_z
 _atom_site_occupancy
  Tm  Tm0  1  0.000000  0.666667  0.333333  1
  Tm  Tm1  1  0.500000  0.333333  0.666667  1
  V  V2  1  0.500000  0.783584  0.899247  1
  V  V3  1  0.500000  0.115664  0.216416  1
  V  V4  1  0.500000  0.100753  0.884336  1
  Co  Co5  1  0.000000  0.874704  0.154240  1
  Co  Co6  1  0.000000  0.279537  0.125296  1
  Co  Co7  1  0.000000  0.845760  0.720463  1
  Ni  Ni8  1  0.000000  0.567100  0.938188  1
  Ni  Ni9  1  0.000000  0.371087  0.432900  1
  Ni  Ni10  1  0.000000  0.061812  0.628913  1
  Ni  Ni11  1  0.500000  0.945905  0.381725  1
  Ni  Ni12  1  0.500000  0.435819  0.054095  1
  Ni  Ni13  1  0.500000  0.618275  0.564181  1
  As  As14  1  0.000000  0.000000  0.000000  1
  As  As15  1  0.500000  0.710052  0.116468  1
  As  As16  1  0.500000  0.406416  0.289948  1
  As  As17  1  0.500000  0.883532  0.593584  1
  As  As18  1  0.000000  0.590988  0.705179  1
  As  As19  1  0.000000  0.114192  0.409012  1
  As  As20  1  0.000000  0.294821  0.885808  1
