# generated using pymatgen
data_Tb4Nd2Mg4Pt13
_symmetry_space_group_name_H-M   'P 1'
_cell_length_a   8.34162629
_cell_length_b   8.34162823
_cell_length_c   8.34194900
_cell_angle_alpha   109.55226272
_cell_angle_beta   109.55226019
_cell_angle_gamma   109.30770443
_symmetry_Int_Tables_number   1
_chemical_formula_structural   Tb4Nd2Mg4Pt13
_chemical_formula_sum   'Tb4 Nd2 Mg4 Pt13'
_cell_volume   446.84089303
_cell_formula_units_Z   1
loop_
 _symmetry_equiv_pos_site_id
 _symmetry_equiv_pos_as_xyz
  1  'x, y, z'
loop_
 _atom_site_type_symbol
 _atom_site_label
 _atom_site_symmetry_multiplicity
 _atom_site_fract_x
 _atom_site_fract_y
 _atom_site_fract_z
 _atom_site_occupancy
  Tb  Tb0  1  0.696600  0.696600  0.999175  1
  Tb  Tb1  1  0.305861  0.999218  0.305080  1
  Tb  Tb2  1  0.999218  0.305861  0.305080  1
  Tb  Tb3  1  0.302575  0.302575  0.999175  1
  Nd  Nd4  1  0.701534  0.999471  0.701004  1
  Nd  Nd5  1  0.999471  0.701534  0.701004  1
  Mg  Mg6  1  0.999959  0.999959  0.494376  1
  Mg  Mg7  1  0.999747  0.499747  0.999495  1
  Mg  Mg8  1  0.499747  0.999747  0.999495  1
  Mg  Mg9  1  0.494417  0.494417  0.494376  1
  Pt  Pt10  1  0.334253  0.334253  0.668507  1
  Pt  Pt11  1  0.667430  0.000195  0.331388  1
  Pt  Pt12  1  0.000195  0.667430  0.331388  1
  Pt  Pt13  1  0.664770  0.336227  0.000997  1
  Pt  Pt14  1  0.331193  0.663959  0.331388  1
  Pt  Pt15  1  0.000913  0.333460  0.665977  1
  Pt  Pt16  1  0.336227  0.664770  0.000997  1
  Pt  Pt17  1  0.333460  0.000913  0.665977  1
  Pt  Pt18  1  0.663959  0.331193  0.331388  1
  Pt  Pt19  1  0.662750  0.662750  0.325498  1
  Pt  Pt20  1  0.665064  0.332516  0.665977  1
  Pt  Pt21  1  0.332516  0.665064  0.665977  1
  Pt  Pt22  1  0.008140  0.008140  0.016281  1
