# generated using pymatgen
data_TbTm2(Ni3P2)3
_symmetry_space_group_name_H-M   'P 1'
_cell_length_a   3.76901600
_cell_length_b   10.40168900
_cell_length_c   12.29373000
_cell_angle_alpha   90.00000000
_cell_angle_beta   90.00000000
_cell_angle_gamma   90.00000000
_symmetry_Int_Tables_number   1
_chemical_formula_structural   TbTm2(Ni3P2)3
_chemical_formula_sum   'Tb2 Tm4 Ni18 P12'
_cell_volume   481.96501699
_cell_formula_units_Z   2
loop_
 _symmetry_equiv_pos_site_id
 _symmetry_equiv_pos_as_xyz
  1  'x, y, z'
loop_
 _atom_site_type_symbol
 _atom_site_label
 _atom_site_symmetry_multiplicity
 _atom_site_fract_x
 _atom_site_fract_y
 _atom_site_fract_z
 _atom_site_occupancy
  Tb  Tb0  1  0.751860  0.000000  0.478927  1
  Tb  Tb1  1  0.251860  0.500000  0.521073  1
  Tm  Tm2  1  0.251796  0.683030  0.794302  1
  Tm  Tm3  1  0.251796  0.316970  0.794302  1
  Tm  Tm4  1  0.751796  0.816970  0.205698  1
  Tm  Tm5  1  0.751796  0.183030  0.205698  1
  Ni  Ni6  1  0.751611  0.000000  0.017074  1
  Ni  Ni7  1  0.251611  0.500000  0.982926  1
  Ni  Ni8  1  0.252144  0.199665  0.571805  1
  Ni  Ni9  1  0.252144  0.800335  0.571805  1
  Ni  Ni10  1  0.752144  0.300335  0.428195  1
  Ni  Ni11  1  0.752144  0.699665  0.428195  1
  Ni  Ni12  1  0.251818  0.621327  0.287608  1
  Ni  Ni13  1  0.251818  0.378673  0.287608  1
  Ni  Ni14  1  0.751818  0.878673  0.712392  1
  Ni  Ni15  1  0.751818  0.121327  0.712392  1
  Ni  Ni16  1  0.251513  0.167154  0.004343  1
  Ni  Ni17  1  0.251513  0.832846  0.004343  1
  Ni  Ni18  1  0.751513  0.332846  0.995657  1
  Ni  Ni19  1  0.751513  0.667154  0.995657  1
  Ni  Ni20  1  0.252055  0.000000  0.842014  1
  Ni  Ni21  1  0.752055  0.500000  0.157986  1
  Ni  Ni22  1  0.252013  0.000000  0.299466  1
  Ni  Ni23  1  0.752013  0.500000  0.700534  1
  P  P24  1  0.251949  0.187172  0.384829  1
  P  P25  1  0.251949  0.812828  0.384829  1
  P  P26  1  0.751949  0.312828  0.615171  1
  P  P27  1  0.751949  0.687172  0.615171  1
  P  P28  1  0.251758  0.000000  0.124155  1
  P  P29  1  0.751758  0.500000  0.875845  1
  P  P30  1  0.251632  0.652661  0.107504  1
  P  P31  1  0.251632  0.347339  0.107504  1
  P  P32  1  0.751632  0.847339  0.892496  1
  P  P33  1  0.751632  0.152661  0.892496  1
  P  P34  1  0.251800  0.000000  0.656761  1
  P  P35  1  0.751800  0.500000  0.343239  1
