# generated using pymatgen
data_Dy4Y12Cd3AgIr4
_symmetry_space_group_name_H-M   'P 1'
_cell_length_a   9.65923008
_cell_length_b   9.65923052
_cell_length_c   9.65923095
_cell_angle_alpha   59.97204713
_cell_angle_beta   59.97204827
_cell_angle_gamma   59.97205113
_symmetry_Int_Tables_number   1
_chemical_formula_structural   Dy4Y12Cd3AgIr4
_chemical_formula_sum   'Dy4 Y12 Cd3 Ag1 Ir4'
_cell_volume   636.85012181
_cell_formula_units_Z   1
loop_
 _symmetry_equiv_pos_site_id
 _symmetry_equiv_pos_as_xyz
  1  'x, y, z'
loop_
 _atom_site_type_symbol
 _atom_site_label
 _atom_site_symmetry_multiplicity
 _atom_site_fract_x
 _atom_site_fract_y
 _atom_site_fract_z
 _atom_site_occupancy
  Dy  Dy0  1  0.348934  0.348934  0.348934  1
  Dy  Dy1  1  0.349624  0.349624  0.953459  1
  Dy  Dy2  1  0.349624  0.953459  0.349624  1
  Dy  Dy3  1  0.953459  0.349624  0.349624  1
  Y  Y4  1  0.809410  0.189698  0.189698  1
  Y  Y5  1  0.187785  0.809544  0.809544  1
  Y  Y6  1  0.189698  0.809410  0.189698  1
  Y  Y7  1  0.809544  0.187785  0.809544  1
  Y  Y8  1  0.189698  0.189698  0.809410  1
  Y  Y9  1  0.809544  0.809544  0.187785  1
  Y  Y10  1  0.937141  0.561038  0.561038  1
  Y  Y11  1  0.561720  0.936795  0.936795  1
  Y  Y12  1  0.561038  0.937141  0.561038  1
  Y  Y13  1  0.936795  0.561720  0.936795  1
  Y  Y14  1  0.561038  0.561038  0.937141  1
  Y  Y15  1  0.936795  0.936795  0.561720  1
  Cd  Cd16  1  0.581362  0.581362  0.258820  1
  Cd  Cd17  1  0.581362  0.258820  0.581362  1
  Cd  Cd18  1  0.258820  0.581362  0.581362  1
  Ag  Ag19  1  0.582750  0.582750  0.582750  1
  Ir  Ir20  1  0.142175  0.142175  0.142175  1
  Ir  Ir21  1  0.143700  0.143700  0.574288  1
  Ir  Ir22  1  0.143700  0.574288  0.143700  1
  Ir  Ir23  1  0.574288  0.143700  0.143700  1
