# generated using pymatgen
data_Hf3Ga3CuIrRh
_symmetry_space_group_name_H-M   'P 1'
_cell_length_a   7.29176700
_cell_length_b   7.29176635
_cell_length_c   3.26869400
_cell_angle_alpha   90.00000000
_cell_angle_beta   90.00000000
_cell_angle_gamma   119.99999841
_symmetry_Int_Tables_number   1
_chemical_formula_structural   Hf3Ga3CuIrRh
_chemical_formula_sum   'Hf3 Ga3 Cu1 Ir1 Rh1'
_cell_volume   150.51175908
_cell_formula_units_Z   1
loop_
 _symmetry_equiv_pos_site_id
 _symmetry_equiv_pos_as_xyz
  1  'x, y, z'
loop_
 _atom_site_type_symbol
 _atom_site_label
 _atom_site_symmetry_multiplicity
 _atom_site_fract_x
 _atom_site_fract_y
 _atom_site_fract_z
 _atom_site_occupancy
  Hf  Hf0  1  0.391548  0.000993  0.500000  1
  Hf  Hf1  1  0.999007  0.390554  0.500000  1
  Hf  Hf2  1  0.609446  0.608452  0.500000  1
  Ga  Ga3  1  0.734667  0.002268  0.000000  1
  Ga  Ga4  1  0.997732  0.732399  0.000000  1
  Ga  Ga5  1  0.267601  0.265333  0.000000  1
  Cu  Cu6  1  0.000000  0.000000  0.500000  1
  Ir  Ir7  1  0.333333  0.666667  0.000000  1
  Rh  Rh8  1  0.666667  0.333333  0.000000  1
