# generated using pymatgen
data_NdZn(GaNi)2
_symmetry_space_group_name_H-M   'P 1'
_cell_length_a   9.02696900
_cell_length_b   9.02696971
_cell_length_c   4.18163400
_cell_angle_alpha   90.00000000
_cell_angle_beta   90.00000000
_cell_angle_gamma   120.00000108
_symmetry_Int_Tables_number   1
_chemical_formula_structural   NdZn(GaNi)2
_chemical_formula_sum   'Nd3 Zn3 Ga6 Ni6'
_cell_volume   295.09413725
_cell_formula_units_Z   3
loop_
 _symmetry_equiv_pos_site_id
 _symmetry_equiv_pos_as_xyz
  1  'x, y, z'
loop_
 _atom_site_type_symbol
 _atom_site_label
 _atom_site_symmetry_multiplicity
 _atom_site_fract_x
 _atom_site_fract_y
 _atom_site_fract_z
 _atom_site_occupancy
  Nd  Nd0  1  0.333333  0.666667  0.500000  1
  Nd  Nd1  1  0.666667  0.333333  0.500000  1
  Nd  Nd2  1  0.000000  0.000000  0.000000  1
  Zn  Zn3  1  0.292284  0.000000  0.500000  1
  Zn  Zn4  1  0.000000  0.292284  0.500000  1
  Zn  Zn5  1  0.707716  0.707716  0.500000  1
  Ga  Ga6  1  0.486353  0.000000  0.000000  1
  Ga  Ga7  1  0.000000  0.486353  0.000000  1
  Ga  Ga8  1  0.513647  0.513647  0.000000  1
  Ga  Ga9  1  0.711298  0.000000  0.500000  1
  Ga  Ga10  1  0.000000  0.711298  0.500000  1
  Ga  Ga11  1  0.288702  0.288702  0.500000  1
  Ni  Ni12  1  0.195962  0.369957  0.000000  1
  Ni  Ni13  1  0.630043  0.826005  0.000000  1
  Ni  Ni14  1  0.173995  0.804038  0.000000  1
  Ni  Ni15  1  0.826005  0.630043  0.000000  1
  Ni  Ni16  1  0.804038  0.173995  0.000000  1
  Ni  Ni17  1  0.369957  0.195962  0.000000  1
