# generated using pymatgen
data_Pr5RuAu2
_symmetry_space_group_name_H-M   'P 1'
_cell_length_a   8.63443400
_cell_length_b   8.68530000
_cell_length_c   12.27565600
_cell_angle_alpha   90.00000000
_cell_angle_beta   90.00000000
_cell_angle_gamma   90.00000000
_symmetry_Int_Tables_number   1
_chemical_formula_structural   Pr5RuAu2
_chemical_formula_sum   'Pr20 Ru4 Au8'
_cell_volume   920.58396927
_cell_formula_units_Z   4
loop_
 _symmetry_equiv_pos_site_id
 _symmetry_equiv_pos_as_xyz
  1  'x, y, z'
loop_
 _atom_site_type_symbol
 _atom_site_label
 _atom_site_symmetry_multiplicity
 _atom_site_fract_x
 _atom_site_fract_y
 _atom_site_fract_z
 _atom_site_occupancy
  Pr  Pr0  1  0.844876  0.750000  0.785220  1
  Pr  Pr1  1  0.155124  0.250000  0.214780  1
  Pr  Pr2  1  0.344876  0.250000  0.714780  1
  Pr  Pr3  1  0.655124  0.750000  0.285220  1
  Pr  Pr4  1  0.387900  0.750000  0.702604  1
  Pr  Pr5  1  0.612100  0.250000  0.297396  1
  Pr  Pr6  1  0.887900  0.250000  0.797396  1
  Pr  Pr7  1  0.112100  0.750000  0.202604  1
  Pr  Pr8  1  0.949138  0.750000  0.494417  1
  Pr  Pr9  1  0.050862  0.250000  0.505583  1
  Pr  Pr10  1  0.449138  0.250000  0.005583  1
  Pr  Pr11  1  0.550862  0.750000  0.994417  1
  Pr  Pr12  1  0.676460  0.039061  0.576232  1
  Pr  Pr13  1  0.323540  0.960939  0.423768  1
  Pr  Pr14  1  0.176460  0.960939  0.923768  1
  Pr  Pr15  1  0.323540  0.539061  0.423768  1
  Pr  Pr16  1  0.823540  0.039061  0.076232  1
  Pr  Pr17  1  0.676460  0.460939  0.576232  1
  Pr  Pr18  1  0.823540  0.460939  0.076232  1
  Pr  Pr19  1  0.176460  0.539061  0.923768  1
  Ru  Ru20  1  0.564225  0.750000  0.509797  1
  Ru  Ru21  1  0.435775  0.250000  0.490203  1
  Ru  Ru22  1  0.064225  0.250000  0.990203  1
  Ru  Ru23  1  0.935775  0.750000  0.009797  1
  Au  Au24  1  0.575548  0.478666  0.829626  1
  Au  Au25  1  0.424452  0.521334  0.170374  1
  Au  Au26  1  0.075548  0.521334  0.670374  1
  Au  Au27  1  0.424452  0.978666  0.170374  1
  Au  Au28  1  0.924452  0.478666  0.329626  1
  Au  Au29  1  0.575548  0.021334  0.829626  1
  Au  Au30  1  0.924452  0.021334  0.329626  1
  Au  Au31  1  0.075548  0.978666  0.670374  1
