# generated using pymatgen
data_LiY6Er10Cd3Ir3Pd
_symmetry_space_group_name_H-M   'P 1'
_cell_length_a   9.60246570
_cell_length_b   9.60347812
_cell_length_c   9.60240200
_cell_angle_alpha   60.14594250
_cell_angle_beta   60.14251651
_cell_angle_gamma   60.14613061
_symmetry_Int_Tables_number   1
_chemical_formula_structural   LiY6Er10Cd3Ir3Pd
_chemical_formula_sum   'Li1 Y6 Er10 Cd3 Ir3 Pd1'
_cell_volume   628.20148800
_cell_formula_units_Z   1
loop_
 _symmetry_equiv_pos_site_id
 _symmetry_equiv_pos_as_xyz
  1  'x, y, z'
loop_
 _atom_site_type_symbol
 _atom_site_label
 _atom_site_symmetry_multiplicity
 _atom_site_fract_x
 _atom_site_fract_y
 _atom_site_fract_z
 _atom_site_occupancy
  Li  Li0  1  0.572009  0.571807  0.571897  1
  Y  Y1  1  0.941080  0.562229  0.561725  1
  Y  Y2  1  0.565834  0.937074  0.937154  1
  Y  Y3  1  0.562496  0.940672  0.562243  1
  Y  Y4  1  0.936677  0.566606  0.937084  1
  Y  Y5  1  0.561359  0.561615  0.941634  1
  Y  Y6  1  0.936874  0.937205  0.565724  1
  Er  Er7  1  0.348133  0.347631  0.348251  1
  Er  Er8  1  0.351707  0.351697  0.951837  1
  Er  Er9  1  0.351798  0.952350  0.351888  1
  Er  Er10  1  0.951981  0.351701  0.351813  1
  Er  Er11  1  0.804931  0.189979  0.190606  1
  Er  Er12  1  0.184426  0.813406  0.813144  1
  Er  Er13  1  0.190369  0.804643  0.190573  1
  Er  Er14  1  0.813214  0.184427  0.813082  1
  Er  Er15  1  0.190685  0.190220  0.804634  1
  Er  Er16  1  0.813283  0.813412  0.184429  1
  Cd  Cd17  1  0.581835  0.581875  0.257792  1
  Cd  Cd18  1  0.581611  0.258099  0.581633  1
  Cd  Cd19  1  0.257928  0.581827  0.581751  1
  Ir  Ir20  1  0.142005  0.142415  0.574179  1
  Ir  Ir21  1  0.142419  0.574048  0.142091  1
  Ir  Ir22  1  0.574287  0.142527  0.141795  1
  Pd  Pd23  1  0.143060  0.142536  0.143045  1
