# generated using pymatgen
data_Tb2Nd3P12Ru9Rh10
_symmetry_space_group_name_H-M   'P 1'
_cell_length_a   3.97304900
_cell_length_b   12.68266120
_cell_length_c   12.68235009
_cell_angle_alpha   120.00081542
_cell_angle_beta   90.00000000
_cell_angle_gamma   90.00000000
_symmetry_Int_Tables_number   1
_chemical_formula_structural   Tb2Nd3P12Ru9Rh10
_chemical_formula_sum   'Tb2 Nd3 P12 Ru9 Rh10'
_cell_volume   553.42798080
_cell_formula_units_Z   1
loop_
 _symmetry_equiv_pos_site_id
 _symmetry_equiv_pos_as_xyz
  1  'x, y, z'
loop_
 _atom_site_type_symbol
 _atom_site_label
 _atom_site_symmetry_multiplicity
 _atom_site_fract_x
 _atom_site_fract_y
 _atom_site_fract_z
 _atom_site_occupancy
  Tb  Tb0  1  0.000000  0.333339  0.666675  1
  Tb  Tb1  1  0.000000  0.666665  0.333325  1
  Nd  Nd2  1  0.500000  0.999992  0.185946  1
  Nd  Nd3  1  0.500000  0.185937  0.000000  1
  Nd  Nd4  1  0.500000  0.814047  0.814054  1
  P  P5  1  0.000000  0.999999  0.814545  1
  P  P6  1  0.000000  0.814533  0.000000  1
  P  P7  1  0.000000  0.185453  0.185455  1
  P  P8  1  0.500000  0.310361  0.483715  1
  P  P9  1  0.500000  0.173358  0.689649  1
  P  P10  1  0.500000  0.516276  0.826643  1
  P  P11  1  0.500000  0.826646  0.516285  1
  P  P12  1  0.500000  0.483708  0.310351  1
  P  P13  1  0.500000  0.689634  0.173357  1
  P  P14  1  0.000000  0.000000  0.371842  1
  P  P15  1  0.000000  0.371829  0.000000  1
  P  P16  1  0.000000  0.628158  0.628158  1
  Ru  Ru17  1  0.500000  0.999993  0.711864  1
  Ru  Ru18  1  0.500000  0.711849  0.000000  1
  Ru  Ru19  1  0.500000  0.288130  0.288136  1
  Ru  Ru20  1  0.500000  0.126650  0.489311  1
  Ru  Ru21  1  0.500000  0.362651  0.873349  1
  Ru  Ru22  1  0.500000  0.510689  0.637334  1
  Ru  Ru23  1  0.500000  0.637338  0.510689  1
  Ru  Ru24  1  0.500000  0.489303  0.126651  1
  Ru  Ru25  1  0.500000  0.873356  0.362666  1
  Rh  Rh26  1  0.000000  0.000002  0.550724  1
  Rh  Rh27  1  0.000000  0.550720  0.000000  1
  Rh  Rh28  1  0.000000  0.449278  0.449276  1
  Rh  Rh29  1  0.000000  0.195526  0.378354  1
  Rh  Rh30  1  0.000000  0.182849  0.804500  1
  Rh  Rh31  1  0.000000  0.621642  0.817161  1
  Rh  Rh32  1  0.000000  0.817171  0.621646  1
  Rh  Rh33  1  0.000000  0.378350  0.195500  1
  Rh  Rh34  1  0.000000  0.804481  0.182839  1
  Rh  Rh35  1  0.000000  0.999984  0.000000  1
