# generated using pymatgen
data_La2B2PtRh5Au2
_symmetry_space_group_name_H-M   'P 1'
_cell_length_a   5.56219435
_cell_length_b   5.56219352
_cell_length_c   7.54056800
_cell_angle_alpha   90.00000000
_cell_angle_beta   90.00000000
_cell_angle_gamma   119.77893001
_symmetry_Int_Tables_number   1
_chemical_formula_structural   La2B2PtRh5Au2
_chemical_formula_sum   'La2 B2 Pt1 Rh5 Au2'
_cell_volume   202.48371393
_cell_formula_units_Z   1
loop_
 _symmetry_equiv_pos_site_id
 _symmetry_equiv_pos_as_xyz
  1  'x, y, z'
loop_
 _atom_site_type_symbol
 _atom_site_label
 _atom_site_symmetry_multiplicity
 _atom_site_fract_x
 _atom_site_fract_y
 _atom_site_fract_z
 _atom_site_occupancy
  La  La0  1  0.000000  0.000000  0.497988  1
  La  La1  1  0.000000  0.000000  0.003164  1
  B  B2  1  0.331485  0.668515  0.001780  1
  B  B3  1  0.668515  0.331485  0.001780  1
  Pt  Pt4  1  0.500000  0.500000  0.805020  1
  Rh  Rh5  1  0.500000  0.000000  0.191238  1
  Rh  Rh6  1  0.500000  0.000000  0.808985  1
  Rh  Rh7  1  0.000000  0.500000  0.191238  1
  Rh  Rh8  1  0.000000  0.500000  0.808985  1
  Rh  Rh9  1  0.500000  0.500000  0.192844  1
  Au  Au10  1  0.331644  0.668356  0.498489  1
  Au  Au11  1  0.668356  0.331644  0.498489  1
