# generated using pymatgen
data_Li4Dy16Si15As
_symmetry_space_group_name_H-M   'P 1'
_cell_length_a   7.06141103
_cell_length_b   7.63299626
_cell_length_c   14.58870584
_cell_angle_alpha   90.10345228
_cell_angle_beta   89.60283116
_cell_angle_gamma   90.15955424
_symmetry_Int_Tables_number   1
_chemical_formula_structural   Li4Dy16Si15As
_chemical_formula_sum   'Li4 Dy16 Si15 As1'
_cell_volume   786.30402309
_cell_formula_units_Z   1
loop_
 _symmetry_equiv_pos_site_id
 _symmetry_equiv_pos_as_xyz
  1  'x, y, z'
loop_
 _atom_site_type_symbol
 _atom_site_label
 _atom_site_symmetry_multiplicity
 _atom_site_fract_x
 _atom_site_fract_y
 _atom_site_fract_z
 _atom_site_occupancy
  Li  Li0  1  0.663377  0.972047  0.247906  1
  Li  Li1  1  0.164923  0.528096  0.248980  1
  Li  Li2  1  0.834529  0.470841  0.745399  1
  Li  Li3  1  0.336526  0.028103  0.751552  1
  Dy  Dy4  1  0.987607  0.810818  0.098741  1
  Dy  Dy5  1  0.481620  0.688356  0.400126  1
  Dy  Dy6  1  0.512545  0.314488  0.901539  1
  Dy  Dy7  1  0.016826  0.186520  0.598781  1
  Dy  Dy8  1  0.015312  0.188335  0.902608  1
  Dy  Dy9  1  0.517490  0.311704  0.599682  1
  Dy  Dy10  1  0.483646  0.688396  0.099061  1
  Dy  Dy11  1  0.982685  0.812514  0.400926  1
  Dy  Dy12  1  0.665826  0.819251  0.870128  1
  Dy  Dy13  1  0.169367  0.681128  0.629729  1
  Dy  Dy14  1  0.835807  0.320433  0.127986  1
  Dy  Dy15  1  0.329870  0.180956  0.371476  1
  Dy  Dy16  1  0.332444  0.180203  0.129621  1
  Dy  Dy17  1  0.830377  0.319583  0.370958  1
  Dy  Dy18  1  0.165820  0.679745  0.872069  1
  Dy  Dy19  1  0.670314  0.819372  0.628913  1
  Si  Si20  1  0.778918  0.630559  0.249402  1
  Si  Si21  1  0.279001  0.871399  0.250012  1
  Si  Si22  1  0.720032  0.129251  0.750849  1
  Si  Si23  1  0.219765  0.368981  0.750627  1
  Si  Si24  1  0.024585  0.078065  0.249917  1
  Si  Si25  1  0.526323  0.422114  0.250901  1
  Si  Si26  1  0.472930  0.578050  0.749382  1
  Si  Si27  1  0.974122  0.921432  0.751369  1
  Si  Si28  1  0.342707  0.966766  0.534289  1
  Si  Si29  1  0.660727  0.033778  0.032560  1
  Si  Si30  1  0.157044  0.468306  0.466521  1
  Si  Si31  1  0.181780  0.463691  0.032691  1
  Si  Si32  1  0.657583  0.033058  0.466303  1
  Si  Si33  1  0.340545  0.966024  0.966795  1
  Si  Si34  1  0.843374  0.531369  0.534449  1
  As  As35  1  0.823654  0.536269  0.967753  1
