# generated using pymatgen
data_PuPS
_symmetry_space_group_name_H-M   'P 1'
_cell_length_a   5.35721100
_cell_length_b   5.44223005
_cell_length_c   16.14127879
_cell_angle_alpha   90.01003656
_cell_angle_beta   90.00000000
_cell_angle_gamma   90.00000000
_symmetry_Int_Tables_number   1
_chemical_formula_structural   PuPS
_chemical_formula_sum   'Pu8 P8 S8'
_cell_volume   470.60179568
_cell_formula_units_Z   8
loop_
 _symmetry_equiv_pos_site_id
 _symmetry_equiv_pos_as_xyz
  1  'x, y, z'
loop_
 _atom_site_type_symbol
 _atom_site_label
 _atom_site_symmetry_multiplicity
 _atom_site_fract_x
 _atom_site_fract_y
 _atom_site_fract_z
 _atom_site_occupancy
  Pu  Pu0  1  0.250000  0.516731  0.851796  1
  Pu  Pu1  1  0.750000  0.983517  0.351040  1
  Pu  Pu2  1  0.750000  0.483775  0.149479  1
  Pu  Pu3  1  0.250000  0.486292  0.364642  1
  Pu  Pu4  1  0.250000  0.986393  0.135138  1
  Pu  Pu5  1  0.750000  0.513915  0.635047  1
  Pu  Pu6  1  0.750000  0.013879  0.865498  1
  Pu  Pu7  1  0.250000  0.017054  0.648135  1
  P  P8  1  0.032532  0.292705  0.998057  1
  P  P9  1  0.466107  0.790865  0.502119  1
  P  P10  1  0.532921  0.706420  0.002645  1
  P  P11  1  0.966013  0.208564  0.497607  1
  P  P12  1  0.967079  0.706420  0.002645  1
  P  P13  1  0.533987  0.208564  0.497607  1
  P  P14  1  0.467468  0.292705  0.998057  1
  P  P15  1  0.033893  0.790865  0.502119  1
  S  S16  1  0.250000  0.488181  0.185223  1
  S  S17  1  0.250000  0.987999  0.314761  1
  S  S18  1  0.750000  0.512843  0.814280  1
  S  S19  1  0.750000  0.012311  0.684717  1
  S  S20  1  0.250000  0.012461  0.822865  1
  S  S21  1  0.250000  0.512945  0.676675  1
  S  S22  1  0.750000  0.987369  0.176426  1
  S  S23  1  0.750000  0.487225  0.323420  1
