# generated using pymatgen
data_Li4Th4Si5Ge
_symmetry_space_group_name_H-M   'P 1'
_cell_length_a   9.47219766
_cell_length_b   9.47219854
_cell_length_c   6.75206900
_cell_angle_alpha   90.00000000
_cell_angle_beta   90.00000000
_cell_angle_gamma   152.86788039
_symmetry_Int_Tables_number   1
_chemical_formula_structural   Li4Th4Si5Ge
_chemical_formula_sum   'Li4 Th4 Si5 Ge1'
_cell_volume   276.27720294
_cell_formula_units_Z   1
loop_
 _symmetry_equiv_pos_site_id
 _symmetry_equiv_pos_as_xyz
  1  'x, y, z'
loop_
 _atom_site_type_symbol
 _atom_site_label
 _atom_site_symmetry_multiplicity
 _atom_site_fract_x
 _atom_site_fract_y
 _atom_site_fract_z
 _atom_site_occupancy
  Li  Li0  1  0.812270  0.187730  0.566019  1
  Li  Li1  1  0.187751  0.812249  0.434913  1
  Li  Li2  1  0.187751  0.812249  0.065087  1
  Li  Li3  1  0.812270  0.187730  0.933981  1
  Th  Th4  1  0.549005  0.450995  0.250000  1
  Th  Th5  1  0.450485  0.549515  0.750000  1
  Th  Th6  1  0.344221  0.655779  0.250000  1
  Th  Th7  1  0.656315  0.343685  0.750000  1
  Si  Si8  1  0.939508  0.060492  0.070335  1
  Si  Si9  1  0.060496  0.939504  0.929727  1
  Si  Si10  1  0.060496  0.939504  0.570273  1
  Si  Si11  1  0.939508  0.060492  0.429665  1
  Si  Si12  1  0.279432  0.720568  0.750000  1
  Ge  Ge13  1  0.720493  0.279507  0.250000  1
