# generated using pymatgen
data_Tb5LuTh2(MgRh)2
_symmetry_space_group_name_H-M   'P 1'
_cell_length_a   9.78017028
_cell_length_b   9.79330669
_cell_length_c   9.79330680
_cell_angle_alpha   59.91127169
_cell_angle_beta   60.04436174
_cell_angle_gamma   60.04436009
_symmetry_Int_Tables_number   1
_chemical_formula_structural   Tb5LuTh2(MgRh)2
_chemical_formula_sum   'Tb10 Lu2 Th4 Mg4 Rh4'
_cell_volume   663.26724682
_cell_formula_units_Z   2
loop_
 _symmetry_equiv_pos_site_id
 _symmetry_equiv_pos_as_xyz
  1  'x, y, z'
loop_
 _atom_site_type_symbol
 _atom_site_label
 _atom_site_symmetry_multiplicity
 _atom_site_fract_x
 _atom_site_fract_y
 _atom_site_fract_z
 _atom_site_occupancy
  Tb  Tb0  1  0.185551  0.814449  0.185551  1
  Tb  Tb1  1  0.814449  0.185551  0.814449  1
  Tb  Tb2  1  0.185551  0.185551  0.814449  1
  Tb  Tb3  1  0.814449  0.814449  0.185551  1
  Tb  Tb4  1  0.934880  0.565120  0.565120  1
  Tb  Tb5  1  0.565120  0.934880  0.934880  1
  Tb  Tb6  1  0.565302  0.934698  0.565302  1
  Tb  Tb7  1  0.934698  0.565302  0.934698  1
  Tb  Tb8  1  0.565302  0.565302  0.934698  1
  Tb  Tb9  1  0.934698  0.934698  0.565302  1
  Lu  Lu10  1  0.812336  0.187664  0.187664  1
  Lu  Lu11  1  0.187664  0.812336  0.812336  1
  Th  Th12  1  0.349719  0.347764  0.347764  1
  Th  Th13  1  0.347764  0.349719  0.954753  1
  Th  Th14  1  0.347764  0.954753  0.349719  1
  Th  Th15  1  0.954753  0.347764  0.347764  1
  Mg  Mg16  1  0.579348  0.580408  0.580408  1
  Mg  Mg17  1  0.580408  0.579348  0.259836  1
  Mg  Mg18  1  0.580408  0.259836  0.579348  1
  Mg  Mg19  1  0.259836  0.580408  0.580408  1
  Rh  Rh20  1  0.141328  0.145588  0.145588  1
  Rh  Rh21  1  0.145588  0.141328  0.567493  1
  Rh  Rh22  1  0.145588  0.567493  0.141328  1
  Rh  Rh23  1  0.567493  0.145588  0.145588  1
