# generated using pymatgen
data_La2In3Ag
_symmetry_space_group_name_H-M   'P 1'
_cell_length_a   6.32566975
_cell_length_b   6.25753079
_cell_length_c   6.25752939
_cell_angle_alpha   132.68964411
_cell_angle_beta   102.48626439
_cell_angle_gamma   95.87159696
_symmetry_Int_Tables_number   1
_chemical_formula_structural   La2In3Ag
_chemical_formula_sum   'La2 In3 Ag1'
_cell_volume   166.72407866
_cell_formula_units_Z   1
loop_
 _symmetry_equiv_pos_site_id
 _symmetry_equiv_pos_as_xyz
  1  'x, y, z'
loop_
 _atom_site_type_symbol
 _atom_site_label
 _atom_site_symmetry_multiplicity
 _atom_site_fract_x
 _atom_site_fract_y
 _atom_site_fract_z
 _atom_site_occupancy
  La  La0  1  0.219939  0.470879  0.749060  1
  La  La1  1  0.786925  0.532995  0.253929  1
  In  In2  1  0.392253  0.838785  0.553469  1
  In  In3  1  0.622240  0.170970  0.451269  1
  In  In4  1  0.198987  0.155025  0.043962  1
  Ag  Ag5  1  0.779656  0.831346  0.948311  1
