# generated using pymatgen
data_Tb16Cd4AgOs3
_symmetry_space_group_name_H-M   'P 1'
_cell_length_a   9.63421434
_cell_length_b   9.81801169
_cell_length_c   9.81801200
_cell_angle_alpha   59.99999896
_cell_angle_beta   59.36688576
_cell_angle_gamma   59.36688524
_symmetry_Int_Tables_number   1
_chemical_formula_structural   Tb16Cd4AgOs3
_chemical_formula_sum   'Tb16 Cd4 Ag1 Os3'
_cell_volume   650.31750297
_cell_formula_units_Z   1
loop_
 _symmetry_equiv_pos_site_id
 _symmetry_equiv_pos_as_xyz
  1  'x, y, z'
loop_
 _atom_site_type_symbol
 _atom_site_label
 _atom_site_symmetry_multiplicity
 _atom_site_fract_x
 _atom_site_fract_y
 _atom_site_fract_z
 _atom_site_occupancy
  Tb  Tb0  1  0.342894  0.356367  0.356367  1
  Tb  Tb1  1  0.342894  0.356367  0.944373  1
  Tb  Tb2  1  0.342894  0.944373  0.356367  1
  Tb  Tb3  1  0.971594  0.342802  0.342802  1
  Tb  Tb4  1  0.820996  0.190970  0.190970  1
  Tb  Tb5  1  0.185874  0.811285  0.811285  1
  Tb  Tb6  1  0.185874  0.811285  0.191557  1
  Tb  Tb7  1  0.820996  0.190970  0.797063  1
  Tb  Tb8  1  0.185874  0.191557  0.811285  1
  Tb  Tb9  1  0.820996  0.797063  0.190970  1
  Tb  Tb10  1  0.932117  0.564621  0.564621  1
  Tb  Tb11  1  0.550636  0.940232  0.940232  1
  Tb  Tb12  1  0.550636  0.940232  0.568898  1
  Tb  Tb13  1  0.932117  0.564621  0.938640  1
  Tb  Tb14  1  0.550636  0.568898  0.940232  1
  Tb  Tb15  1  0.932117  0.938640  0.564621  1
  Cd  Cd16  1  0.581822  0.578566  0.578566  1
  Cd  Cd17  1  0.581822  0.578566  0.261046  1
  Cd  Cd18  1  0.581822  0.261046  0.578566  1
  Cd  Cd19  1  0.255239  0.581587  0.581587  1
  Ag  Ag20  1  0.571133  0.142956  0.142956  1
  Os  Os21  1  0.153006  0.135827  0.135827  1
  Os  Os22  1  0.153006  0.135827  0.575342  1
  Os  Os23  1  0.153006  0.575342  0.135827  1
