# generated using pymatgen
data_Tb3Yb12Dy5Ge16
_symmetry_space_group_name_H-M   'P 1'
_cell_length_a   7.45311901
_cell_length_b   7.88714901
_cell_length_c   15.21125401
_cell_angle_alpha   89.99937132
_cell_angle_beta   90.00445546
_cell_angle_gamma   89.99545074
_symmetry_Int_Tables_number   1
_chemical_formula_structural   Tb3Yb12Dy5Ge16
_chemical_formula_sum   'Tb3 Yb12 Dy5 Ge16'
_cell_volume   894.17622380
_cell_formula_units_Z   1
loop_
 _symmetry_equiv_pos_site_id
 _symmetry_equiv_pos_as_xyz
  1  'x, y, z'
loop_
 _atom_site_type_symbol
 _atom_site_label
 _atom_site_symmetry_multiplicity
 _atom_site_fract_x
 _atom_site_fract_y
 _atom_site_fract_z
 _atom_site_occupancy
  Tb  Tb0  1  0.817309  0.327563  0.121322  1
  Tb  Tb1  1  0.182683  0.672428  0.621312  1
  Tb  Tb2  1  0.682684  0.827570  0.878686  1
  Yb  Yb3  1  0.977673  0.812774  0.404570  1
  Yb  Yb4  1  0.477651  0.687241  0.095430  1
  Yb  Yb5  1  0.522334  0.312752  0.595415  1
  Yb  Yb6  1  0.022347  0.187241  0.904574  1
  Yb  Yb7  1  0.022292  0.187226  0.595418  1
  Yb  Yb8  1  0.522279  0.312766  0.904575  1
  Yb  Yb9  1  0.477703  0.687245  0.404575  1
  Yb  Yb10  1  0.977727  0.812772  0.095430  1
  Yb  Yb11  1  0.346554  0.020018  0.750006  1
  Yb  Yb12  1  0.846557  0.479986  0.749995  1
  Yb  Yb13  1  0.153454  0.519988  0.250006  1
  Yb  Yb14  1  0.653419  0.980000  0.250017  1
  Dy  Dy15  1  0.317297  0.172360  0.121327  1
  Dy  Dy16  1  0.817291  0.327619  0.378683  1
  Dy  Dy17  1  0.182711  0.672348  0.878693  1
  Dy  Dy18  1  0.682700  0.827656  0.621297  1
  Dy  Dy19  1  0.317321  0.172385  0.378676  1
  Ge  Ge20  1  0.846772  0.533196  0.540242  1
  Ge  Ge21  1  0.346766  0.966790  0.959758  1
  Ge  Ge22  1  0.653128  0.033256  0.459729  1
  Ge  Ge23  1  0.153232  0.466794  0.040243  1
  Ge  Ge24  1  0.153079  0.466694  0.459670  1
  Ge  Ge25  1  0.652978  0.033232  0.040292  1
  Ge  Ge26  1  0.346997  0.966843  0.540234  1
  Ge  Ge27  1  0.847029  0.533228  0.959706  1
  Ge  Ge28  1  0.978900  0.882324  0.749976  1
  Ge  Ge29  1  0.478902  0.617680  0.750024  1
  Ge  Ge30  1  0.521026  0.382243  0.250049  1
  Ge  Ge31  1  0.021170  0.117711  0.250023  1
  Ge  Ge32  1  0.237317  0.384692  0.750034  1
  Ge  Ge33  1  0.737316  0.115313  0.749965  1
  Ge  Ge34  1  0.262723  0.884755  0.250008  1
  Ge  Ge35  1  0.762680  0.615311  0.250043  1
