# generated using pymatgen
data_Y7Pu3(SiB4)4
_symmetry_space_group_name_H-M   'P 1'
_cell_length_a   7.23282230
_cell_length_b   7.23282230
_cell_length_c   8.10885964
_cell_angle_alpha   89.96784873
_cell_angle_beta   89.96784873
_cell_angle_gamma   89.82942678
_symmetry_Int_Tables_number   1
_chemical_formula_structural   Y7Pu3(SiB4)4
_chemical_formula_sum   'Y7 Pu3 Si4 B16'
_cell_volume   424.20258641
_cell_formula_units_Z   1
loop_
 _symmetry_equiv_pos_site_id
 _symmetry_equiv_pos_as_xyz
  1  'x, y, z'
loop_
 _atom_site_type_symbol
 _atom_site_label
 _atom_site_symmetry_multiplicity
 _atom_site_fract_x
 _atom_site_fract_y
 _atom_site_fract_z
 _atom_site_occupancy
  Y  Y0  1  0.818256  0.681410  0.222726  1
  Y  Y1  1  0.818400  0.681544  0.777086  1
  Y  Y2  1  0.681661  0.181661  0.775610  1
  Y  Y3  1  0.181544  0.318400  0.777086  1
  Y  Y4  1  0.181410  0.318256  0.222726  1
  Y  Y5  1  0.002660  0.998801  0.498265  1
  Y  Y6  1  0.498801  0.502660  0.498265  1
  Pu  Pu7  1  0.683374  0.183374  0.229544  1
  Pu  Pu8  1  0.315920  0.815920  0.771119  1
  Pu  Pu9  1  0.316944  0.816944  0.228971  1
  Si  Si10  1  0.114498  0.614498  0.501296  1
  Si  Si11  1  0.883724  0.383724  0.498249  1
  Si  Si12  1  0.385871  0.115261  0.498968  1
  Si  Si13  1  0.615261  0.885871  0.498968  1
  B  B14  1  0.173963  0.038136  0.999493  1
  B  B15  1  0.826847  0.961420  0.000410  1
  B  B16  1  0.959341  0.172395  0.000130  1
  B  B17  1  0.327190  0.541599  0.999455  1
  B  B18  1  0.041599  0.827190  0.999455  1
  B  B19  1  0.672395  0.459341  0.000130  1
  B  B20  1  0.538136  0.673963  0.999493  1
  B  B21  1  0.461420  0.326847  0.000410  1
  B  B22  1  0.090573  0.590573  0.999770  1
  B  B23  1  0.909246  0.409246  0.001542  1
  B  B24  1  0.410577  0.089582  0.000711  1
  B  B25  1  0.589582  0.910577  0.000711  1
  B  B26  1  0.999871  0.999872  0.160849  1
  B  B27  1  0.001719  0.999344  0.838859  1
  B  B28  1  0.499344  0.501719  0.838859  1
  B  B29  1  0.499872  0.499871  0.160849  1
