# generated using pymatgen
data_Zr17Ta3Si15Sn
_symmetry_space_group_name_H-M   'P 1'
_cell_length_a   7.08412805
_cell_length_b   7.05778675
_cell_length_c   12.86964100
_cell_angle_alpha   89.91790980
_cell_angle_beta   89.72592400
_cell_angle_gamma   90.14747688
_symmetry_Int_Tables_number   1
_chemical_formula_structural   Zr17Ta3Si15Sn
_chemical_formula_sum   'Zr17 Ta3 Si15 Sn1'
_cell_volume   643.44955697
_cell_formula_units_Z   1
loop_
 _symmetry_equiv_pos_site_id
 _symmetry_equiv_pos_as_xyz
  1  'x, y, z'
loop_
 _atom_site_type_symbol
 _atom_site_label
 _atom_site_symmetry_multiplicity
 _atom_site_fract_x
 _atom_site_fract_y
 _atom_site_fract_z
 _atom_site_occupancy
  Zr  Zr0  1  0.181231  0.172986  0.998006  1
  Zr  Zr1  1  0.499246  0.152477  0.533774  1
  Zr  Zr2  1  0.495611  0.841045  0.031024  1
  Zr  Zr3  1  0.650098  0.996958  0.289551  1
  Zr  Zr4  1  0.346418  0.996754  0.780579  1
  Zr  Zr5  1  0.847469  0.510317  0.962528  1
  Zr  Zr6  1  0.153556  0.499468  0.467006  1
  Zr  Zr7  1  0.999420  0.652450  0.714767  1
  Zr  Zr8  1  0.010451  0.356346  0.224404  1
  Zr  Zr9  1  0.488665  0.363584  0.126703  1
  Zr  Zr10  1  0.501817  0.644978  0.625619  1
  Zr  Zr11  1  0.853357  0.000018  0.870767  1
  Zr  Zr12  1  0.147740  0.997405  0.377768  1
  Zr  Zr13  1  0.646144  0.503293  0.374601  1
  Zr  Zr14  1  0.353331  0.498068  0.871121  1
  Zr  Zr15  1  0.013402  0.842630  0.128056  1
  Zr  Zr16  1  0.997065  0.146287  0.622629  1
  Ta  Ta17  1  0.675304  0.324961  0.747764  1
  Ta  Ta18  1  0.325507  0.674973  0.251982  1
  Ta  Ta19  1  0.824190  0.825188  0.500605  1
  Si  Si20  1  0.202397  0.853487  0.572450  1
  Si  Si21  1  0.643569  0.703606  0.820031  1
  Si  Si22  1  0.357233  0.296296  0.323956  1
  Si  Si23  1  0.854677  0.203512  0.428332  1
  Si  Si24  1  0.143533  0.794493  0.926500  1
  Si  Si25  1  0.703570  0.648004  0.178543  1
  Si  Si26  1  0.296385  0.352552  0.676915  1
  Si  Si27  1  0.545569  0.198453  0.929947  1
  Si  Si28  1  0.449888  0.798893  0.437322  1
  Si  Si29  1  0.697580  0.952507  0.683623  1
  Si  Si30  1  0.306434  0.046952  0.187663  1
  Si  Si31  1  0.801200  0.452781  0.564169  1
  Si  Si32  1  0.196881  0.548478  0.062355  1
  Si  Si33  1  0.951069  0.701486  0.317711  1
  Si  Si34  1  0.044405  0.303654  0.812199  1
  Sn  Sn35  1  0.795585  0.144658  0.079029  1
