# generated using pymatgen
data_Eu2Al4CuSi3
_symmetry_space_group_name_H-M   'P 1'
_cell_length_a   4.18817300
_cell_length_b   4.18817300
_cell_length_c   10.76197500
_cell_angle_alpha   90.00000000
_cell_angle_beta   90.00000000
_cell_angle_gamma   90.00000000
_symmetry_Int_Tables_number   1
_chemical_formula_structural   Eu2Al4CuSi3
_chemical_formula_sum   'Eu2 Al4 Cu1 Si3'
_cell_volume   188.77357658
_cell_formula_units_Z   1
loop_
 _symmetry_equiv_pos_site_id
 _symmetry_equiv_pos_as_xyz
  1  'x, y, z'
loop_
 _atom_site_type_symbol
 _atom_site_label
 _atom_site_symmetry_multiplicity
 _atom_site_fract_x
 _atom_site_fract_y
 _atom_site_fract_z
 _atom_site_occupancy
  Eu  Eu0  1  0.000000  0.000000  0.997267  1
  Eu  Eu1  1  0.500000  0.500000  0.494412  1
  Al  Al2  1  0.000000  0.500000  0.240241  1
  Al  Al3  1  0.500000  0.000000  0.755525  1
  Al  Al4  1  0.500000  0.000000  0.240241  1
  Al  Al5  1  0.000000  0.500000  0.755525  1
  Cu  Cu6  1  0.500000  0.500000  0.117252  1
  Si  Si7  1  0.000000  0.000000  0.617088  1
  Si  Si8  1  0.000000  0.000000  0.384755  1
  Si  Si9  1  0.500000  0.500000  0.897691  1
