# generated using pymatgen
data_Tb2Tm2TcB12Ru
_symmetry_space_group_name_H-M   'P 1'
_cell_length_a   3.65692400
_cell_length_b   9.12166313
_cell_length_c   11.52009400
_cell_angle_alpha   89.86654078
_cell_angle_beta   90.00000000
_cell_angle_gamma   90.00000000
_symmetry_Int_Tables_number   1
_chemical_formula_structural   Tb2Tm2TcB12Ru
_chemical_formula_sum   'Tb4 Tm4 Tc2 B24 Ru2'
_cell_volume   384.27736911
_cell_formula_units_Z   2
loop_
 _symmetry_equiv_pos_site_id
 _symmetry_equiv_pos_as_xyz
  1  'x, y, z'
loop_
 _atom_site_type_symbol
 _atom_site_label
 _atom_site_symmetry_multiplicity
 _atom_site_fract_x
 _atom_site_fract_y
 _atom_site_fract_z
 _atom_site_occupancy
  Tb  Tb0  1  0.000000  0.324334  0.415370  1
  Tb  Tb1  1  0.000000  0.675666  0.584630  1
  Tb  Tb2  1  0.000000  0.821004  0.087267  1
  Tb  Tb3  1  0.000000  0.178996  0.912733  1
  Tm  Tm4  1  0.000000  0.942170  0.370645  1
  Tm  Tm5  1  0.000000  0.057830  0.629355  1
  Tm  Tm6  1  0.000000  0.443226  0.130025  1
  Tm  Tm7  1  0.000000  0.556774  0.869975  1
  Tc  Tc8  1  0.000000  0.639001  0.319495  1
  Tc  Tc9  1  0.000000  0.360999  0.680505  1
  B  B10  1  0.500000  0.553541  0.432510  1
  B  B11  1  0.500000  0.446459  0.567490  1
  B  B12  1  0.500000  0.054264  0.067463  1
  B  B13  1  0.500000  0.945736  0.932537  1
  B  B14  1  0.500000  0.749454  0.418402  1
  B  B15  1  0.500000  0.250546  0.581598  1
  B  B16  1  0.500000  0.249485  0.081701  1
  B  B17  1  0.500000  0.750515  0.918299  1
  B  B18  1  0.500000  0.791806  0.265389  1
  B  B19  1  0.500000  0.208194  0.734611  1
  B  B20  1  0.500000  0.290887  0.234131  1
  B  B21  1  0.500000  0.709113  0.765869  1
  B  B22  1  0.500000  0.630435  0.184929  1
  B  B23  1  0.500000  0.369565  0.815071  1
  B  B24  1  0.500000  0.130112  0.314303  1
  B  B25  1  0.500000  0.869888  0.685697  1
  B  B26  1  0.500000  0.983045  0.212400  1
  B  B27  1  0.500000  0.016955  0.787600  1
  B  B28  1  0.500000  0.482462  0.287067  1
  B  B29  1  0.500000  0.517538  0.712933  1
  B  B30  1  0.500000  0.601545  0.027842  1
  B  B31  1  0.500000  0.398455  0.972158  1
  B  B32  1  0.500000  0.101564  0.471757  1
  B  B33  1  0.500000  0.898436  0.528243  1
  Ru  Ru34  1  0.000000  0.138256  0.179272  1
  Ru  Ru35  1  0.000000  0.861744  0.820728  1
