# generated using pymatgen
data_Y9HoAg3Pt
_symmetry_space_group_name_H-M   'P 1'
_cell_length_a   9.53977300
_cell_length_b   9.53977295
_cell_length_c   9.69604700
_cell_angle_alpha   90.00000000
_cell_angle_beta   90.00000000
_cell_angle_gamma   119.99999669
_symmetry_Int_Tables_number   1
_chemical_formula_structural   Y9HoAg3Pt
_chemical_formula_sum   'Y18 Ho2 Ag6 Pt2'
_cell_volume   764.19015351
_cell_formula_units_Z   2
loop_
 _symmetry_equiv_pos_site_id
 _symmetry_equiv_pos_as_xyz
  1  'x, y, z'
loop_
 _atom_site_type_symbol
 _atom_site_label
 _atom_site_symmetry_multiplicity
 _atom_site_fract_x
 _atom_site_fract_y
 _atom_site_fract_z
 _atom_site_occupancy
  Y  Y0  1  0.207421  0.792579  0.444654  1
  Y  Y1  1  0.207421  0.414842  0.444654  1
  Y  Y2  1  0.585158  0.792579  0.444654  1
  Y  Y3  1  0.792579  0.207421  0.555346  1
  Y  Y4  1  0.792579  0.585158  0.555346  1
  Y  Y5  1  0.414842  0.207421  0.555346  1
  Y  Y6  1  0.792579  0.207421  0.944654  1
  Y  Y7  1  0.792579  0.585158  0.944654  1
  Y  Y8  1  0.414842  0.207421  0.944654  1
  Y  Y9  1  0.207421  0.792579  0.055346  1
  Y  Y10  1  0.207421  0.414842  0.055346  1
  Y  Y11  1  0.585158  0.792579  0.055346  1
  Y  Y12  1  0.542525  0.457475  0.250000  1
  Y  Y13  1  0.542525  0.085048  0.250000  1
  Y  Y14  1  0.914952  0.457475  0.250000  1
  Y  Y15  1  0.457475  0.542525  0.750000  1
  Y  Y16  1  0.457475  0.914952  0.750000  1
  Y  Y17  1  0.085048  0.542525  0.750000  1
  Ho  Ho18  1  0.000000  0.000000  0.500000  1
  Ho  Ho19  1  0.000000  0.000000  0.000000  1
  Ag  Ag20  1  0.884530  0.115470  0.250000  1
  Ag  Ag21  1  0.884530  0.769062  0.250000  1
  Ag  Ag22  1  0.230938  0.115470  0.250000  1
  Ag  Ag23  1  0.115470  0.884530  0.750000  1
  Ag  Ag24  1  0.115470  0.230938  0.750000  1
  Ag  Ag25  1  0.769062  0.884530  0.750000  1
  Pt  Pt26  1  0.333333  0.666667  0.250000  1
  Pt  Pt27  1  0.666667  0.333333  0.750000  1
