# generated using pymatgen
data_CoSbI18
_symmetry_space_group_name_H-M   'P 1'
_cell_length_a   10.11013346
_cell_length_b   10.11594747
_cell_length_c   10.12235772
_cell_angle_alpha   95.00742796
_cell_angle_beta   95.11250098
_cell_angle_gamma   95.08761637
_symmetry_Int_Tables_number   1
_chemical_formula_structural   CoSbI18
_chemical_formula_sum   'Co1 Sb1 I18'
_cell_volume   1022.33048700
_cell_formula_units_Z   1
loop_
 _symmetry_equiv_pos_site_id
 _symmetry_equiv_pos_as_xyz
  1  'x, y, z'
loop_
 _atom_site_type_symbol
 _atom_site_label
 _atom_site_symmetry_multiplicity
 _atom_site_fract_x
 _atom_site_fract_y
 _atom_site_fract_z
 _atom_site_occupancy
  Co  Co0  1  0.000000  0.000000  0.000000  1
  Sb  Sb1  1  0.500000  0.500000  0.500000  1
  I  I2  1  0.802469  0.483420  0.532585  1
  I  I3  1  0.532341  0.802193  0.481929  1
  I  I4  1  0.483788  0.533388  0.802182  1
  I  I5  1  0.197531  0.516580  0.467415  1
  I  I6  1  0.467659  0.197807  0.518071  1
  I  I7  1  0.516212  0.466612  0.197818  1
  I  I8  1  0.905508  0.361510  0.772298  1
  I  I9  1  0.772446  0.905157  0.360708  1
  I  I10  1  0.361547  0.772595  0.905235  1
  I  I11  1  0.094492  0.638490  0.227702  1
  I  I12  1  0.227554  0.094843  0.639292  1
  I  I13  1  0.638453  0.227405  0.094765  1
  I  I14  1  0.992408  0.966911  0.740331  1
  I  I15  1  0.739994  0.992693  0.966956  1
  I  I16  1  0.966662  0.740124  0.992854  1
  I  I17  1  0.007592  0.033089  0.259669  1
  I  I18  1  0.260006  0.007307  0.033044  1
  I  I19  1  0.033338  0.259876  0.007146  1
