# generated using pymatgen
data_YPa3(NbN2)4
_symmetry_space_group_name_H-M   'P 1'
_cell_length_a   3.31360400
_cell_length_b   5.73084738
_cell_length_c   10.99482048
_cell_angle_alpha   90.12442623
_cell_angle_beta   90.00000000
_cell_angle_gamma   90.00000000
_symmetry_Int_Tables_number   1
_chemical_formula_structural   YPa3(NbN2)4
_chemical_formula_sum   'Y1 Pa3 Nb4 N8'
_cell_volume   208.78849662
_cell_formula_units_Z   1
loop_
 _symmetry_equiv_pos_site_id
 _symmetry_equiv_pos_as_xyz
  1  'x, y, z'
loop_
 _atom_site_type_symbol
 _atom_site_label
 _atom_site_symmetry_multiplicity
 _atom_site_fract_x
 _atom_site_fract_y
 _atom_site_fract_z
 _atom_site_occupancy
  Y  Y0  1  0.250000  0.578067  0.853900  1
  Pa  Pa1  1  0.750000  0.426352  0.139793  1
  Pa  Pa2  1  0.750000  0.923587  0.355769  1
  Pa  Pa3  1  0.250000  0.078832  0.647656  1
  Nb  Nb4  1  0.250000  0.923192  0.096740  1
  Nb  Nb5  1  0.750000  0.071824  0.905741  1
  Nb  Nb6  1  0.750000  0.576204  0.598317  1
  Nb  Nb7  1  0.250000  0.424715  0.402851  1
  N  N8  1  0.250000  0.659806  0.245779  1
  N  N9  1  0.750000  0.332681  0.750955  1
  N  N10  1  0.750000  0.845838  0.743551  1
  N  N11  1  0.250000  0.158438  0.255475  1
  N  N12  1  0.250000  0.766716  0.504854  1
  N  N13  1  0.750000  0.233949  0.496353  1
  N  N14  1  0.750000  0.733312  0.003821  1
  N  N15  1  0.250000  0.266485  0.998444  1
