# generated using pymatgen
data_Y2Ho18Cd6TcRu
_symmetry_space_group_name_H-M   'P 1'
_cell_length_a   9.53781370
_cell_length_b   9.53781288
_cell_length_c   9.87206600
_cell_angle_alpha   90.00000000
_cell_angle_beta   90.00000000
_cell_angle_gamma   120.04379438
_symmetry_Int_Tables_number   1
_chemical_formula_structural   Y2Ho18Cd6TcRu
_chemical_formula_sum   'Y2 Ho18 Cd6 Tc1 Ru1'
_cell_volume   777.39991833
_cell_formula_units_Z   1
loop_
 _symmetry_equiv_pos_site_id
 _symmetry_equiv_pos_as_xyz
  1  'x, y, z'
loop_
 _atom_site_type_symbol
 _atom_site_label
 _atom_site_symmetry_multiplicity
 _atom_site_fract_x
 _atom_site_fract_y
 _atom_site_fract_z
 _atom_site_occupancy
  Y  Y0  1  0.540011  0.080172  0.250000  1
  Y  Y1  1  0.919828  0.459989  0.250000  1
  Ho  Ho2  1  0.000005  0.999995  0.500148  1
  Ho  Ho3  1  0.000005  0.999995  0.999852  1
  Ho  Ho4  1  0.210039  0.789961  0.441406  1
  Ho  Ho5  1  0.210197  0.420059  0.441348  1
  Ho  Ho6  1  0.579941  0.789803  0.441348  1
  Ho  Ho7  1  0.789837  0.210163  0.559439  1
  Ho  Ho8  1  0.789677  0.579587  0.559274  1
  Ho  Ho9  1  0.420413  0.210323  0.559274  1
  Ho  Ho10  1  0.789837  0.210163  0.940561  1
  Ho  Ho11  1  0.789677  0.579587  0.940726  1
  Ho  Ho12  1  0.420413  0.210323  0.940726  1
  Ho  Ho13  1  0.210039  0.789961  0.058594  1
  Ho  Ho14  1  0.210197  0.420059  0.058652  1
  Ho  Ho15  1  0.579941  0.789803  0.058652  1
  Ho  Ho16  1  0.539814  0.460186  0.250000  1
  Ho  Ho17  1  0.458748  0.541252  0.750000  1
  Ho  Ho18  1  0.458794  0.917525  0.750000  1
  Ho  Ho19  1  0.082475  0.541206  0.750000  1
  Cd  Cd20  1  0.885535  0.114465  0.250000  1
  Cd  Cd21  1  0.885369  0.770915  0.250000  1
  Cd  Cd22  1  0.229085  0.114631  0.250000  1
  Cd  Cd23  1  0.114438  0.885562  0.750000  1
  Cd  Cd24  1  0.114398  0.228856  0.750000  1
  Cd  Cd25  1  0.771144  0.885602  0.750000  1
  Tc  Tc26  1  0.333493  0.666507  0.250000  1
  Ru  Ru27  1  0.666651  0.333349  0.750000  1
