# generated using pymatgen
data_YbDy2HoB16
_symmetry_space_group_name_H-M   'P 1'
_cell_length_a   7.10335323
_cell_length_b   7.10337139
_cell_length_c   4.02120000
_cell_angle_alpha   90.00000000
_cell_angle_beta   90.00000000
_cell_angle_gamma   89.92160651
_symmetry_Int_Tables_number   1
_chemical_formula_structural   YbDy2HoB16
_chemical_formula_sum   'Yb1 Dy2 Ho1 B16'
_cell_volume   202.90053906
_cell_formula_units_Z   1
loop_
 _symmetry_equiv_pos_site_id
 _symmetry_equiv_pos_as_xyz
  1  'x, y, z'
loop_
 _atom_site_type_symbol
 _atom_site_label
 _atom_site_symmetry_multiplicity
 _atom_site_fract_x
 _atom_site_fract_y
 _atom_site_fract_z
 _atom_site_occupancy
  Yb  Yb0  1  0.682801  0.817213  0.000000  1
  Dy  Dy1  1  0.182357  0.682547  0.000000  1
  Dy  Dy2  1  0.318726  0.181290  0.000000  1
  Ho  Ho3  1  0.817456  0.317668  0.000000  1
  B  B4  1  0.500665  0.501513  0.797196  1
  B  B5  1  0.998308  0.999600  0.797193  1
  B  B6  1  0.500665  0.501513  0.202804  1
  B  B7  1  0.998308  0.999600  0.202807  1
  B  B8  1  0.913380  0.586434  0.500000  1
  B  B9  1  0.086957  0.412866  0.500000  1
  B  B10  1  0.412995  0.913631  0.500000  1
  B  B11  1  0.586390  0.087014  0.500000  1
  B  B12  1  0.676119  0.538080  0.500000  1
  B  B13  1  0.324612  0.461179  0.500000  1
  B  B14  1  0.176497  0.962145  0.500000  1
  B  B15  1  0.823434  0.038293  0.500000  1
  B  B16  1  0.461893  0.676452  0.500000  1
  B  B17  1  0.538069  0.323397  0.500000  1
  B  B18  1  0.038651  0.175530  0.500000  1
  B  B19  1  0.961718  0.824033  0.500000  1
