# generated using pymatgen
data_Li3ZnIr2
_symmetry_space_group_name_H-M   'P 1'
_cell_length_a   4.61776200
_cell_length_b   4.61776300
_cell_length_c   4.42401000
_cell_angle_alpha   89.99998112
_cell_angle_beta   89.99997464
_cell_angle_gamma   59.99988676
_symmetry_Int_Tables_number   1
_chemical_formula_structural   Li3ZnIr2
_chemical_formula_sum   'Li3 Zn1 Ir2'
_cell_volume   81.69762301
_cell_formula_units_Z   1
loop_
 _symmetry_equiv_pos_site_id
 _symmetry_equiv_pos_as_xyz
  1  'x, y, z'
loop_
 _atom_site_type_symbol
 _atom_site_label
 _atom_site_symmetry_multiplicity
 _atom_site_fract_x
 _atom_site_fract_y
 _atom_site_fract_z
 _atom_site_occupancy
  Li  Li0  1  0.666641  0.030495  0.500000  1
  Li  Li1  1  0.030499  0.302854  0.500000  1
  Li  Li2  1  0.302862  0.666640  0.499999  1
  Zn  Zn3  1  0.666664  0.666667  0.999999  1
  Ir  Ir4  1  0.999996  0.000000  0.999999  1
  Ir  Ir5  1  0.333332  0.333334  0.000000  1
