# generated using pymatgen
data_ReTcOsRu5
_symmetry_space_group_name_H-M   'P 1'
_cell_length_a   5.49387000
_cell_length_b   5.48484764
_cell_length_c   4.33651700
_cell_angle_alpha   90.00000000
_cell_angle_beta   90.00000000
_cell_angle_gamma   120.05442982
_symmetry_Int_Tables_number   1
_chemical_formula_structural   ReTcOsRu5
_chemical_formula_sum   'Re1 Tc1 Os1 Ru5'
_cell_volume   113.10353326
_cell_formula_units_Z   1
loop_
 _symmetry_equiv_pos_site_id
 _symmetry_equiv_pos_as_xyz
  1  'x, y, z'
loop_
 _atom_site_type_symbol
 _atom_site_label
 _atom_site_symmetry_multiplicity
 _atom_site_fract_x
 _atom_site_fract_y
 _atom_site_fract_z
 _atom_site_occupancy
  Re  Re0  1  0.333555  0.667111  0.750000  1
  Tc  Tc1  1  0.668303  0.336604  0.250000  1
  Os  Os2  1  0.165935  0.331871  0.250000  1
  Ru  Ru3  1  0.668709  0.830806  0.250000  1
  Ru  Ru4  1  0.162097  0.830806  0.250000  1
  Ru  Ru5  1  0.831932  0.663865  0.750000  1
  Ru  Ru6  1  0.337470  0.169469  0.750000  1
  Ru  Ru7  1  0.831999  0.169469  0.750000  1
