# generated using pymatgen
data_Ho16In3HgIrPt3
_symmetry_space_group_name_H-M   'P 1'
_cell_length_a   9.62315842
_cell_length_b   9.62315830
_cell_length_c   9.63013050
_cell_angle_alpha   60.45486259
_cell_angle_beta   60.45487334
_cell_angle_gamma   60.37155668
_symmetry_Int_Tables_number   1
_chemical_formula_structural   Ho16In3HgIrPt3
_chemical_formula_sum   'Ho16 In3 Hg1 Ir1 Pt3'
_cell_volume   636.68654426
_cell_formula_units_Z   1
loop_
 _symmetry_equiv_pos_site_id
 _symmetry_equiv_pos_as_xyz
  1  'x, y, z'
loop_
 _atom_site_type_symbol
 _atom_site_label
 _atom_site_symmetry_multiplicity
 _atom_site_fract_x
 _atom_site_fract_y
 _atom_site_fract_z
 _atom_site_occupancy
  Ho  Ho0  1  0.436106  0.436106  0.066250  1
  Ho  Ho1  1  0.646081  0.646081  0.060356  1
  Ho  Ho2  1  0.187265  0.809182  0.193409  1
  Ho  Ho3  1  0.062360  0.438348  0.061225  1
  Ho  Ho4  1  0.191562  0.808727  0.807787  1
  Ho  Ho5  1  0.065810  0.437879  0.434364  1
  Ho  Ho6  1  0.809182  0.187265  0.193409  1
  Ho  Ho7  1  0.653711  0.653711  0.648796  1
  Ho  Ho8  1  0.808727  0.191562  0.807787  1
  Ho  Ho9  1  0.191007  0.191007  0.807929  1
  Ho  Ho10  1  0.055323  0.648936  0.644866  1
  Ho  Ho11  1  0.438348  0.062360  0.061225  1
  Ho  Ho12  1  0.061255  0.061255  0.436512  1
  Ho  Ho13  1  0.648936  0.055323  0.644866  1
  Ho  Ho14  1  0.809221  0.809221  0.193550  1
  Ho  Ho15  1  0.437879  0.065810  0.434364  1
  In  In16  1  0.417413  0.417413  0.747855  1
  In  In17  1  0.417477  0.747412  0.417876  1
  In  In18  1  0.747412  0.417477  0.417876  1
  Hg  Hg19  1  0.412998  0.412998  0.413589  1
  Ir  Ir20  1  0.859910  0.859910  0.426429  1
  Pt  Pt21  1  0.427323  0.858674  0.860645  1
  Pt  Pt22  1  0.856022  0.856022  0.858391  1
  Pt  Pt23  1  0.858674  0.427323  0.860645  1
