# generated using pymatgen
data_Dy16In4Ir2PtRh
_symmetry_space_group_name_H-M   'P 1'
_cell_length_a   9.67627979
_cell_length_b   9.67622087
_cell_length_c   9.69843824
_cell_angle_alpha   60.04014081
_cell_angle_beta   60.07555087
_cell_angle_gamma   59.99979815
_symmetry_Int_Tables_number   1
_chemical_formula_structural   Dy16In4Ir2PtRh
_chemical_formula_sum   'Dy16 In4 Ir2 Pt1 Rh1'
_cell_volume   642.65726109
_cell_formula_units_Z   1
loop_
 _symmetry_equiv_pos_site_id
 _symmetry_equiv_pos_as_xyz
  1  'x, y, z'
loop_
 _atom_site_type_symbol
 _atom_site_label
 _atom_site_symmetry_multiplicity
 _atom_site_fract_x
 _atom_site_fract_y
 _atom_site_fract_z
 _atom_site_occupancy
  Dy  Dy0  1  0.689931  0.309959  0.310179  1
  Dy  Dy1  1  0.690075  0.689790  0.310566  1
  Dy  Dy2  1  0.309568  0.689790  0.310566  1
  Dy  Dy3  1  0.938129  0.939721  0.561006  1
  Dy  Dy4  1  0.150916  0.149952  0.548216  1
  Dy  Dy5  1  0.561144  0.939721  0.561006  1
  Dy  Dy6  1  0.149560  0.148866  0.152998  1
  Dy  Dy7  1  0.309051  0.309833  0.687157  1
  Dy  Dy8  1  0.940449  0.559397  0.559705  1
  Dy  Dy9  1  0.561355  0.561133  0.940134  1
  Dy  Dy10  1  0.562678  0.936632  0.938013  1
  Dy  Dy11  1  0.937378  0.561133  0.940134  1
  Dy  Dy12  1  0.148563  0.550646  0.152228  1
  Dy  Dy13  1  0.309375  0.694313  0.686936  1
  Dy  Dy14  1  0.693958  0.309833  0.687157  1
  Dy  Dy15  1  0.548577  0.148866  0.152998  1
  In  In16  1  0.917162  0.917368  0.248308  1
  In  In17  1  0.248811  0.917193  0.917251  1
  In  In18  1  0.917113  0.248478  0.917295  1
  In  In19  1  0.916743  0.917193  0.917251  1
  Ir  Ir20  1  0.357898  0.358429  0.357833  1
  Ir  Ir21  1  0.925841  0.358429  0.357833  1
  Pt  Pt22  1  0.357581  0.358101  0.926738  1
  Rh  Rh23  1  0.358143  0.925224  0.358490  1
