# generated using pymatgen
data_Y3Tm2Th3Pt8
_symmetry_space_group_name_H-M   'P 1'
_cell_length_a   4.51091600
_cell_length_b   5.79441315
_cell_length_c   14.65725400
_cell_angle_alpha   89.03422237
_cell_angle_beta   90.00000000
_cell_angle_gamma   90.00000000
_symmetry_Int_Tables_number   1
_chemical_formula_structural   Y3Tm2Th3Pt8
_chemical_formula_sum   'Y3 Tm2 Th3 Pt8'
_cell_volume   383.05850711
_cell_formula_units_Z   1
loop_
 _symmetry_equiv_pos_site_id
 _symmetry_equiv_pos_as_xyz
  1  'x, y, z'
loop_
 _atom_site_type_symbol
 _atom_site_label
 _atom_site_symmetry_multiplicity
 _atom_site_fract_x
 _atom_site_fract_y
 _atom_site_fract_z
 _atom_site_occupancy
  Y  Y0  1  0.250000  0.533847  0.284845  1
  Y  Y1  1  0.750000  0.473062  0.715483  1
  Y  Y2  1  0.250000  0.968369  0.782019  1
  Tm  Tm3  1  0.250000  0.749479  0.537167  1
  Tm  Tm4  1  0.250000  0.747737  0.033138  1
  Th  Th5  1  0.750000  0.258613  0.964336  1
  Th  Th6  1  0.750000  0.027220  0.215726  1
  Th  Th7  1  0.750000  0.244095  0.468529  1
  Pt  Pt8  1  0.250000  0.052496  0.351883  1
  Pt  Pt9  1  0.750000  0.550281  0.146135  1
  Pt  Pt10  1  0.750000  0.730264  0.401207  1
  Pt  Pt11  1  0.250000  0.449579  0.851259  1
  Pt  Pt12  1  0.750000  0.948965  0.644178  1
  Pt  Pt13  1  0.750000  0.773729  0.900220  1
  Pt  Pt14  1  0.250000  0.220373  0.101152  1
  Pt  Pt15  1  0.250000  0.271889  0.602721  1
