# generated using pymatgen
data_K3Nd(IO3)6
_symmetry_space_group_name_H-M   'P 1'
_cell_length_a   7.26248970
_cell_length_b   7.27689823
_cell_length_c   11.04410490
_cell_angle_alpha   98.94323192
_cell_angle_beta   108.24771906
_cell_angle_gamma   103.19642850
_symmetry_Int_Tables_number   1
_chemical_formula_structural   K3Nd(IO3)6
_chemical_formula_sum   'K3 Nd1 I6 O18'
_cell_volume   523.16681938
_cell_formula_units_Z   1
loop_
 _symmetry_equiv_pos_site_id
 _symmetry_equiv_pos_as_xyz
  1  'x, y, z'
loop_
 _atom_site_type_symbol
 _atom_site_label
 _atom_site_symmetry_multiplicity
 _atom_site_fract_x
 _atom_site_fract_y
 _atom_site_fract_z
 _atom_site_occupancy
  K  K0  1  0.376868  0.540119  0.292530  1
  K  K1  1  0.623132  0.459881  0.707470  1
  K  K2  1  0.000000  0.500000  0.500000  1
  Nd  Nd3  1  0.000000  0.000000  0.000000  1
  I  I4  1  0.562824  0.031705  0.197726  1
  I  I5  1  0.437176  0.968295  0.802274  1
  I  I6  1  0.773329  0.528237  0.105933  1
  I  I7  1  0.226671  0.471763  0.894067  1
  I  I8  1  0.134604  0.064287  0.387911  1
  I  I9  1  0.865396  0.935713  0.612089  1
  O  O10  1  0.589606  0.652334  0.128959  1
  O  O11  1  0.410394  0.347666  0.871041  1
  O  O12  1  0.013329  0.361066  0.738452  1
  O  O13  1  0.986671  0.638934  0.261548  1
  O  O14  1  0.610978  0.297031  0.238562  1
  O  O15  1  0.389022  0.702969  0.761438  1
  O  O16  1  0.059598  0.111329  0.221736  1
  O  O17  1  0.940402  0.888671  0.778264  1
  O  O18  1  0.326481  0.958985  0.047642  1
  O  O19  1  0.673519  0.041015  0.952358  1
  O  O20  1  0.292674  0.309668  0.477480  1
  O  O21  1  0.707326  0.690332  0.522520  1
  O  O22  1  0.893595  0.081309  0.407614  1
  O  O23  1  0.106405  0.918691  0.592386  1
  O  O24  1  0.555255  0.039517  0.686853  1
  O  O25  1  0.444745  0.960483  0.313147  1
  O  O26  1  0.131804  0.333768  0.001618  1
  O  O27  1  0.868196  0.666232  0.998382  1
