# generated using pymatgen
data_ZrMnCl6
_symmetry_space_group_name_H-M   'P 1'
_cell_length_a   6.47962200
_cell_length_b   6.47962178
_cell_length_c   13.36404200
_cell_angle_alpha   90.00000000
_cell_angle_beta   90.00000000
_cell_angle_gamma   120.00000114
_symmetry_Int_Tables_number   1
_chemical_formula_structural   ZrMnCl6
_chemical_formula_sum   'Zr2 Mn2 Cl12'
_cell_volume   485.92336951
_cell_formula_units_Z   2
loop_
 _symmetry_equiv_pos_site_id
 _symmetry_equiv_pos_as_xyz
  1  'x, y, z'
loop_
 _atom_site_type_symbol
 _atom_site_label
 _atom_site_symmetry_multiplicity
 _atom_site_fract_x
 _atom_site_fract_y
 _atom_site_fract_z
 _atom_site_occupancy
  Zr  Zr0  1  0.333333  0.666667  0.250000  1
  Zr  Zr1  1  0.666667  0.333333  0.750000  1
  Mn  Mn2  1  0.000000  0.000000  0.250000  1
  Mn  Mn3  1  0.000000  0.000000  0.750000  1
  Cl  Cl4  1  0.660414  0.969922  0.142834  1
  Cl  Cl5  1  0.030078  0.690492  0.142834  1
  Cl  Cl6  1  0.309508  0.339586  0.142834  1
  Cl  Cl7  1  0.030078  0.339586  0.357166  1
  Cl  Cl8  1  0.339586  0.309508  0.642834  1
  Cl  Cl9  1  0.690492  0.030078  0.642834  1
  Cl  Cl10  1  0.969922  0.660414  0.642834  1
  Cl  Cl11  1  0.690492  0.660414  0.857166  1
  Cl  Cl12  1  0.969922  0.309508  0.857166  1
  Cl  Cl13  1  0.339586  0.030078  0.857166  1
  Cl  Cl14  1  0.660414  0.690492  0.357166  1
  Cl  Cl15  1  0.309508  0.969922  0.357166  1
