# generated using pymatgen
data_Ta12Al8HAu4C3
_symmetry_space_group_name_H-M   'P 1'
_cell_length_a   8.39882988
_cell_length_b   8.39126840
_cell_length_c   8.39882900
_cell_angle_alpha   59.97018649
_cell_angle_beta   59.99999952
_cell_angle_gamma   59.97018893
_symmetry_Int_Tables_number   1
_chemical_formula_structural   Ta12Al8HAu4C3
_chemical_formula_sum   'Ta12 Al8 H1 Au4 C3'
_cell_volume   418.36398514
_cell_formula_units_Z   1
loop_
 _symmetry_equiv_pos_site_id
 _symmetry_equiv_pos_as_xyz
  1  'x, y, z'
loop_
 _atom_site_type_symbol
 _atom_site_label
 _atom_site_symmetry_multiplicity
 _atom_site_fract_x
 _atom_site_fract_y
 _atom_site_fract_z
 _atom_site_occupancy
  Ta  Ta0  1  0.569892  0.929968  0.569892  1
  Ta  Ta1  1  0.317546  0.685243  0.679664  1
  Ta  Ta2  1  0.680108  0.320032  0.319752  1
  Ta  Ta3  1  0.317546  0.685243  0.317546  1
  Ta  Ta4  1  0.679664  0.685243  0.317546  1
  Ta  Ta5  1  0.319752  0.320032  0.680108  1
  Ta  Ta6  1  0.570336  0.564757  0.932454  1
  Ta  Ta7  1  0.932454  0.564757  0.570336  1
  Ta  Ta8  1  0.569892  0.929968  0.930248  1
  Ta  Ta9  1  0.930248  0.929968  0.569892  1
  Ta  Ta10  1  0.680108  0.320032  0.680108  1
  Ta  Ta11  1  0.932454  0.564757  0.932454  1
  Al  Al12  1  0.911578  0.914840  0.911578  1
  Al  Al13  1  0.987996  0.335160  0.338422  1
  Al  Al14  1  0.335301  0.994095  0.335301  1
  Al  Al15  1  0.338422  0.335160  0.987996  1
  Al  Al16  1  0.914699  0.255905  0.914699  1
  Al  Al17  1  0.911578  0.914840  0.262004  1
  Al  Al18  1  0.262004  0.914840  0.911578  1
  Al  Al19  1  0.338422  0.335160  0.338422  1
  H  H20  1  0.625000  0.125000  0.625000  1
  Au  Au21  1  0.125000  0.125000  0.125000  1
  Au  Au22  1  0.625000  0.125000  0.125000  1
  Au  Au23  1  0.125000  0.625000  0.125000  1
  Au  Au24  1  0.125000  0.125000  0.625000  1
  C  C25  1  0.625000  0.625000  0.625000  1
  C  C26  1  0.125000  0.625000  0.625000  1
  C  C27  1  0.625000  0.625000  0.125000  1
