# generated using pymatgen
data_Tb10TmThCo4
_symmetry_space_group_name_H-M   'P 1'
_cell_length_a   6.29071686
_cell_length_b   6.94813997
_cell_length_c   9.59732863
_cell_angle_alpha   89.93005221
_cell_angle_beta   89.95323145
_cell_angle_gamma   91.37002483
_symmetry_Int_Tables_number   1
_chemical_formula_structural   Tb10TmThCo4
_chemical_formula_sum   'Tb10 Tm1 Th1 Co4'
_cell_volume   419.36715868
_cell_formula_units_Z   1
loop_
 _symmetry_equiv_pos_site_id
 _symmetry_equiv_pos_as_xyz
  1  'x, y, z'
loop_
 _atom_site_type_symbol
 _atom_site_label
 _atom_site_symmetry_multiplicity
 _atom_site_fract_x
 _atom_site_fract_y
 _atom_site_fract_z
 _atom_site_occupancy
  Tb  Tb0  1  0.171997  0.175371  0.430068  1
  Tb  Tb1  1  0.676560  0.325909  0.568895  1
  Tb  Tb2  1  0.823670  0.826999  0.930735  1
  Tb  Tb3  1  0.675801  0.326202  0.931891  1
  Tb  Tb4  1  0.824149  0.827205  0.570184  1
  Tb  Tb5  1  0.326497  0.674199  0.431547  1
  Tb  Tb6  1  0.172905  0.175400  0.069608  1
  Tb  Tb7  1  0.639707  0.044361  0.249615  1
  Tb  Tb8  1  0.145251  0.454888  0.751019  1
  Tb  Tb9  1  0.357355  0.954637  0.750756  1
  Tm  Tm10  1  0.327380  0.674686  0.068494  1
  Th  Th11  1  0.847350  0.555894  0.248947  1
  Co  Co12  1  0.045898  0.868351  0.248559  1
  Co  Co13  1  0.467996  0.391654  0.248140  1
  Co  Co14  1  0.950619  0.112995  0.749830  1
  Co  Co15  1  0.546865  0.611249  0.751714  1
