# generated using pymatgen
data_CsEuMnSe3
_symmetry_space_group_name_H-M   'P 1'
_cell_length_a   8.35770841
_cell_length_b   8.35770777
_cell_length_c   11.56429600
_cell_angle_alpha   90.00000000
_cell_angle_beta   90.00000000
_cell_angle_gamma   150.13123823
_symmetry_Int_Tables_number   1
_chemical_formula_structural   CsEuMnSe3
_chemical_formula_sum   'Cs2 Eu2 Mn2 Se6'
_cell_volume   402.28703981
_cell_formula_units_Z   2
loop_
 _symmetry_equiv_pos_site_id
 _symmetry_equiv_pos_as_xyz
  1  'x, y, z'
loop_
 _atom_site_type_symbol
 _atom_site_label
 _atom_site_symmetry_multiplicity
 _atom_site_fract_x
 _atom_site_fract_y
 _atom_site_fract_z
 _atom_site_occupancy
  Cs  Cs0  1  0.259505  0.740495  0.250000  1
  Cs  Cs1  1  0.740495  0.259505  0.750000  1
  Eu  Eu2  1  0.000000  0.000000  0.000000  1
  Eu  Eu3  1  0.000000  0.000000  0.500000  1
  Mn  Mn4  1  0.538561  0.461439  0.250000  1
  Mn  Mn5  1  0.461439  0.538561  0.750000  1
  Se  Se6  1  0.617818  0.382182  0.070469  1
  Se  Se7  1  0.382182  0.617818  0.929531  1
  Se  Se8  1  0.382182  0.617818  0.570469  1
  Se  Se9  1  0.617818  0.382182  0.429531  1
  Se  Se10  1  0.951324  0.048676  0.250000  1
  Se  Se11  1  0.048676  0.951324  0.750000  1
