# generated using pymatgen
data_Tb7Ho3In8(IrPt)2
_symmetry_space_group_name_H-M   'P 1'
_cell_length_a   3.63780800
_cell_length_b   8.15525324
_cell_length_c   18.32033805
_cell_angle_alpha   90.01322053
_cell_angle_beta   90.00000000
_cell_angle_gamma   90.00000000
_symmetry_Int_Tables_number   1
_chemical_formula_structural   Tb7Ho3In8(IrPt)2
_chemical_formula_sum   'Tb7 Ho3 In8 Ir2 Pt2'
_cell_volume   543.51395161
_cell_formula_units_Z   1
loop_
 _symmetry_equiv_pos_site_id
 _symmetry_equiv_pos_as_xyz
  1  'x, y, z'
loop_
 _atom_site_type_symbol
 _atom_site_label
 _atom_site_symmetry_multiplicity
 _atom_site_fract_x
 _atom_site_fract_y
 _atom_site_fract_z
 _atom_site_occupancy
  Tb  Tb0  1  0.000000  0.114290  0.412272  1
  Tb  Tb1  1  0.000000  0.885167  0.588065  1
  Tb  Tb2  1  0.000000  0.384133  0.913151  1
  Tb  Tb3  1  0.000000  0.616423  0.086252  1
  Tb  Tb4  1  0.000000  0.234572  0.221880  1
  Tb  Tb5  1  0.000000  0.000113  0.999957  1
  Tb  Tb6  1  0.000000  0.499871  0.500195  1
  Ho  Ho7  1  0.000000  0.765672  0.777856  1
  Ho  Ho8  1  0.000000  0.248358  0.721622  1
  Ho  Ho9  1  0.000000  0.751016  0.278591  1
  In  In10  1  0.500000  0.425923  0.351383  1
  In  In11  1  0.500000  0.574526  0.648936  1
  In  In12  1  0.500000  0.072403  0.851157  1
  In  In13  1  0.500000  0.926259  0.148767  1
  In  In14  1  0.500000  0.292326  0.066752  1
  In  In15  1  0.500000  0.708049  0.932516  1
  In  In16  1  0.500000  0.208165  0.569179  1
  In  In17  1  0.500000  0.791649  0.431017  1
  Ir  Ir18  1  0.500000  0.016944  0.303946  1
  Ir  Ir19  1  0.500000  0.981264  0.696736  1
  Pt  Pt20  1  0.500000  0.481671  0.802509  1
  Pt  Pt21  1  0.500000  0.521204  0.197260  1
