# generated using pymatgen
data_Ho19Sc(Ga2Bi)4
_symmetry_space_group_name_H-M   'P 1'
_cell_length_a   7.99403300
_cell_length_b   7.99403300
_cell_length_c   13.22807400
_cell_angle_alpha   90.00000000
_cell_angle_beta   90.00000000
_cell_angle_gamma   90.00000000
_symmetry_Int_Tables_number   1
_chemical_formula_structural   Ho19Sc(Ga2Bi)4
_chemical_formula_sum   'Ho19 Sc1 Ga8 Bi4'
_cell_volume   845.33429631
_cell_formula_units_Z   1
loop_
 _symmetry_equiv_pos_site_id
 _symmetry_equiv_pos_as_xyz
  1  'x, y, z'
loop_
 _atom_site_type_symbol
 _atom_site_label
 _atom_site_symmetry_multiplicity
 _atom_site_fract_x
 _atom_site_fract_y
 _atom_site_fract_z
 _atom_site_occupancy
  Ho  Ho0  1  0.000000  0.500000  0.251058  1
  Ho  Ho1  1  0.500000  0.000000  0.248978  1
  Ho  Ho2  1  0.500000  0.000000  0.748978  1
  Ho  Ho3  1  0.655151  0.652358  0.609176  1
  Ho  Ho4  1  0.653765  0.346499  0.108750  1
  Ho  Ho5  1  0.846204  0.846568  0.391353  1
  Ho  Ho6  1  0.152660  0.845011  0.890741  1
  Ho  Ho7  1  0.344849  0.347642  0.609176  1
  Ho  Ho8  1  0.346235  0.653501  0.108750  1
  Ho  Ho9  1  0.153796  0.153432  0.391353  1
  Ho  Ho10  1  0.847340  0.154989  0.890741  1
  Ho  Ho11  1  0.653432  0.346204  0.391353  1
  Ho  Ho12  1  0.345011  0.347340  0.890741  1
  Ho  Ho13  1  0.152358  0.844849  0.609176  1
  Ho  Ho14  1  0.846499  0.846235  0.108750  1
  Ho  Ho15  1  0.346568  0.653796  0.391353  1
  Ho  Ho16  1  0.654989  0.652660  0.890741  1
  Ho  Ho17  1  0.847642  0.155151  0.609176  1
  Ho  Ho18  1  0.153501  0.153765  0.108750  1
  Sc  Sc19  1  0.000000  0.500000  0.750856  1
  Ga  Ga20  1  0.855479  0.848541  0.750039  1
  Ga  Ga21  1  0.854439  0.145531  0.250000  1
  Ga  Ga22  1  0.645531  0.645561  0.250000  1
  Ga  Ga23  1  0.348541  0.644521  0.750039  1
  Ga  Ga24  1  0.144521  0.151459  0.750039  1
  Ga  Ga25  1  0.145561  0.854469  0.250000  1
  Ga  Ga26  1  0.354469  0.354439  0.250000  1
  Ga  Ga27  1  0.651459  0.355479  0.750039  1
  Bi  Bi28  1  0.000000  0.500000  0.503809  1
  Bi  Bi29  1  0.000000  0.500000  0.996939  1
  Bi  Bi30  1  0.500000  0.000000  0.499796  1
  Bi  Bi31  1  0.500000  0.000000  0.999350  1
