# generated using pymatgen
data_Tb8Se11S
_symmetry_space_group_name_H-M   'P 1'
_cell_length_a   7.12729070
_cell_length_b   7.13762016
_cell_length_c   12.95964255
_cell_angle_alpha   100.49631725
_cell_angle_beta   100.67403650
_cell_angle_gamma   108.82381356
_symmetry_Int_Tables_number   1
_chemical_formula_structural   Tb8Se11S
_chemical_formula_sum   'Tb8 Se11 S1'
_cell_volume   592.11520455
_cell_formula_units_Z   1
loop_
 _symmetry_equiv_pos_site_id
 _symmetry_equiv_pos_as_xyz
  1  'x, y, z'
loop_
 _atom_site_type_symbol
 _atom_site_label
 _atom_site_symmetry_multiplicity
 _atom_site_fract_x
 _atom_site_fract_y
 _atom_site_fract_z
 _atom_site_occupancy
  Tb  Tb0  1  0.294167  0.045884  0.078037  1
  Tb  Tb1  1  0.370592  0.622600  0.242641  1
  Tb  Tb2  1  0.879591  0.128209  0.256934  1
  Tb  Tb3  1  0.460595  0.210588  0.418827  1
  Tb  Tb4  1  0.541799  0.790220  0.582229  1
  Tb  Tb5  1  0.124230  0.874889  0.745360  1
  Tb  Tb6  1  0.624745  0.377413  0.761394  1
  Tb  Tb7  1  0.706615  0.961977  0.917972  1
  Se  Se8  1  0.551350  0.807559  0.088106  1
  Se  Se9  1  0.037878  0.283540  0.087572  1
  Se  Se10  1  0.136192  0.886489  0.248456  1
  Se  Se11  1  0.616361  0.366507  0.248671  1
  Se  Se12  1  0.693537  0.948548  0.411473  1
  Se  Se13  1  0.217551  0.462771  0.411822  1
  Se  Se14  1  0.782063  0.537295  0.591705  1
  Se  Se15  1  0.307074  0.052150  0.589542  1
  Se  Se16  1  0.382970  0.633130  0.750968  1
  Se  Se17  1  0.866101  0.118288  0.750167  1
  Se  Se18  1  0.960488  0.720120  0.912809  1
  S  S19  1  0.446099  0.171822  0.905311  1
