# generated using pymatgen
data_Tb3Y13Cd4(CoPd)2
_symmetry_space_group_name_H-M   'P 1'
_cell_length_a   9.63164897
_cell_length_b   9.63614428
_cell_length_c   9.66178800
_cell_angle_alpha   59.91192906
_cell_angle_beta   59.89643390
_cell_angle_gamma   60.01346070
_symmetry_Int_Tables_number   1
_chemical_formula_structural   Tb3Y13Cd4(CoPd)2
_chemical_formula_sum   'Tb3 Y13 Cd4 Co2 Pd2'
_cell_volume   633.22777363
_cell_formula_units_Z   1
loop_
 _symmetry_equiv_pos_site_id
 _symmetry_equiv_pos_as_xyz
  1  'x, y, z'
loop_
 _atom_site_type_symbol
 _atom_site_label
 _atom_site_symmetry_multiplicity
 _atom_site_fract_x
 _atom_site_fract_y
 _atom_site_fract_z
 _atom_site_occupancy
  Tb  Tb0  1  0.346039  0.346155  0.360533  1
  Tb  Tb1  1  0.346039  0.346155  0.947272  1
  Tb  Tb2  1  0.340094  0.956432  0.351736  1
  Y  Y3  1  0.954769  0.341009  0.352111  1
  Y  Y4  1  0.819906  0.188615  0.189572  1
  Y  Y5  1  0.188664  0.819833  0.801850  1
  Y  Y6  1  0.188664  0.819833  0.189652  1
  Y  Y7  1  0.819906  0.188615  0.801906  1
  Y  Y8  1  0.188620  0.188481  0.811450  1
  Y  Y9  1  0.809682  0.810001  0.190159  1
  Y  Y10  1  0.935304  0.562348  0.565756  1
  Y  Y11  1  0.562046  0.935205  0.937101  1
  Y  Y12  1  0.562046  0.935205  0.565648  1
  Y  Y13  1  0.935304  0.562348  0.936593  1
  Y  Y14  1  0.562296  0.562472  0.937616  1
  Y  Y15  1  0.935312  0.935009  0.564840  1
  Cd  Cd16  1  0.581060  0.580708  0.579561  1
  Cd  Cd17  1  0.581060  0.580708  0.258672  1
  Cd  Cd18  1  0.583303  0.254533  0.581082  1
  Cd  Cd19  1  0.254603  0.583103  0.581147  1
  Co  Co20  1  0.144319  0.143215  0.140860  1
  Co  Co21  1  0.144319  0.143215  0.571605  1
  Pd  Pd22  1  0.146524  0.570591  0.141442  1
  Pd  Pd23  1  0.570118  0.146209  0.141837  1
