# generated using pymatgen
data_Tb2SmCu3(Ni5B)2
_symmetry_space_group_name_H-M   'P 1'
_cell_length_a   4.98159700
_cell_length_b   4.98159814
_cell_length_c   10.91691100
_cell_angle_alpha   90.00000000
_cell_angle_beta   90.00000000
_cell_angle_gamma   120.00001237
_symmetry_Int_Tables_number   1
_chemical_formula_structural   Tb2SmCu3(Ni5B)2
_chemical_formula_sum   'Tb2 Sm1 Cu3 Ni10 B2'
_cell_volume   234.62140368
_cell_formula_units_Z   1
loop_
 _symmetry_equiv_pos_site_id
 _symmetry_equiv_pos_as_xyz
  1  'x, y, z'
loop_
 _atom_site_type_symbol
 _atom_site_label
 _atom_site_symmetry_multiplicity
 _atom_site_fract_x
 _atom_site_fract_y
 _atom_site_fract_z
 _atom_site_occupancy
  Tb  Tb0  1  0.000000  0.000000  0.999257  1
  Tb  Tb1  1  0.000000  0.000000  0.665944  1
  Sm  Sm2  1  0.000000  0.000000  0.329866  1
  Cu  Cu3  1  0.666667  0.333333  0.683213  1
  Cu  Cu4  1  0.333333  0.666667  0.683459  1
  Cu  Cu5  1  0.333333  0.666667  0.316899  1
  Ni  Ni6  1  0.500410  0.499590  0.500392  1
  Ni  Ni7  1  0.500410  0.000819  0.500392  1
  Ni  Ni8  1  0.999181  0.499590  0.500392  1
  Ni  Ni9  1  0.666667  0.333333  0.318740  1
  Ni  Ni10  1  0.499927  0.500073  0.869888  1
  Ni  Ni11  1  0.499927  0.999852  0.869888  1
  Ni  Ni12  1  0.000148  0.500073  0.869888  1
  Ni  Ni13  1  0.501087  0.498913  0.130366  1
  Ni  Ni14  1  0.501087  0.002175  0.130366  1
  Ni  Ni15  1  0.997825  0.498913  0.130366  1
  B  B16  1  0.666667  0.333333  0.999929  1
  B  B17  1  0.333333  0.666667  0.000754  1
