# generated using pymatgen
data_Dy4Al24Pt8Rh
_symmetry_space_group_name_H-M   'P 1'
_cell_length_a   7.52325855
_cell_length_b   7.54647966
_cell_length_c   13.18138900
_cell_angle_alpha   84.61093240
_cell_angle_beta   79.11814433
_cell_angle_gamma   59.91121423
_symmetry_Int_Tables_number   1
_chemical_formula_structural   Dy4Al24Pt8Rh
_chemical_formula_sum   'Dy4 Al24 Pt8 Rh1'
_cell_volume   635.87608084
_cell_formula_units_Z   1
loop_
 _symmetry_equiv_pos_site_id
 _symmetry_equiv_pos_as_xyz
  1  'x, y, z'
loop_
 _atom_site_type_symbol
 _atom_site_label
 _atom_site_symmetry_multiplicity
 _atom_site_fract_x
 _atom_site_fract_y
 _atom_site_fract_z
 _atom_site_occupancy
  Dy  Dy0  1  0.394043  0.167956  0.808544  1
  Dy  Dy1  1  0.605957  0.832044  0.191456  1
  Dy  Dy2  1  0.733383  0.498509  0.808496  1
  Dy  Dy3  1  0.266617  0.501491  0.191504  1
  Al  Al4  1  0.687389  0.830310  0.945604  1
  Al  Al5  1  0.312611  0.169690  0.054396  1
  Al  Al6  1  0.146691  0.832156  0.561620  1
  Al  Al7  1  0.853309  0.167844  0.438380  1
  Al  Al8  1  0.479929  0.166750  0.558923  1
  Al  Al9  1  0.520071  0.833250  0.441077  1
  Al  Al10  1  0.217012  0.165200  0.329021  1
  Al  Al11  1  0.782988  0.834800  0.670979  1
  Al  Al12  1  0.436693  0.506973  0.670939  1
  Al  Al13  1  0.563307  0.493027  0.329061  1
  Al  Al14  1  0.109510  0.160321  0.669255  1
  Al  Al15  1  0.890490  0.839679  0.330745  1
  Al  Al16  1  0.349347  0.499146  0.945705  1
  Al  Al17  1  0.650653  0.500854  0.054295  1
  Al  Al18  1  0.014937  0.171953  0.954634  1
  Al  Al19  1  0.985063  0.828047  0.045366  1
  Al  Al20  1  0.186432  0.499292  0.441149  1
  Al  Al21  1  0.813568  0.500708  0.558851  1
  Al  Al22  1  0.734959  0.163885  0.183006  1
  Al  Al23  1  0.265041  0.836115  0.816994  1
  Al  Al24  1  0.061030  0.628922  0.817786  1
  Al  Al25  1  0.938970  0.371078  0.182214  1
  Al  Al26  1  0.855618  0.041191  0.816549  1
  Al  Al27  1  0.144382  0.958809  0.183451  1
  Pt  Pt28  1  0.120131  0.492260  0.638476  1
  Pt  Pt29  1  0.879869  0.507740  0.361524  1
  Pt  Pt30  1  0.656648  0.171665  0.999992  1
  Pt  Pt31  1  0.343352  0.828335  0.000008  1
  Pt  Pt32  1  0.537208  0.166791  0.361871  1
  Pt  Pt33  1  0.462792  0.833209  0.638129  1
  Pt  Pt34  1  0.778680  0.175262  0.637022  1
  Pt  Pt35  1  0.221320  0.824738  0.362978  1
  Rh  Rh36  1  0.000000  0.500000  0.000000  1
