# generated using pymatgen
data_Rb2SmY5F20
_symmetry_space_group_name_H-M   'P 1'
_cell_length_a   8.34710010
_cell_length_b   8.34709965
_cell_length_c   8.32682600
_cell_angle_alpha   60.08031242
_cell_angle_beta   60.08031421
_cell_angle_gamma   59.83936610
_symmetry_Int_Tables_number   1
_chemical_formula_structural   Rb2SmY5F20
_chemical_formula_sum   'Rb2 Sm1 Y5 F20'
_cell_volume   410.23298362
_cell_formula_units_Z   1
loop_
 _symmetry_equiv_pos_site_id
 _symmetry_equiv_pos_as_xyz
  1  'x, y, z'
loop_
 _atom_site_type_symbol
 _atom_site_label
 _atom_site_symmetry_multiplicity
 _atom_site_fract_x
 _atom_site_fract_y
 _atom_site_fract_z
 _atom_site_occupancy
  Rb  Rb0  1  0.249798  0.249798  0.250202  1
  Rb  Rb1  1  0.749798  0.749798  0.750202  1
  Sm  Sm2  1  0.759529  0.759529  0.240471  1
  Y  Y3  1  0.759231  0.240292  0.240769  1
  Y  Y4  1  0.240292  0.759231  0.759708  1
  Y  Y5  1  0.240292  0.759231  0.240769  1
  Y  Y6  1  0.759231  0.240292  0.759708  1
  Y  Y7  1  0.240485  0.240485  0.759515  1
  F  F8  1  0.830956  0.496072  0.503928  1
  F  F9  1  0.170738  0.500071  0.499929  1
  F  F10  1  0.496072  0.830956  0.169044  1
  F  F11  1  0.500071  0.170738  0.829262  1
  F  F12  1  0.496072  0.830956  0.503928  1
  F  F13  1  0.170738  0.500071  0.829262  1
  F  F14  1  0.500071  0.170738  0.499929  1
  F  F15  1  0.830956  0.496072  0.169044  1
  F  F16  1  0.499969  0.499969  0.828905  1
  F  F17  1  0.499969  0.499969  0.171157  1
  F  F18  1  0.171095  0.828843  0.500031  1
  F  F19  1  0.828843  0.171095  0.500031  1
  F  F20  1  0.110474  0.110474  0.110197  1
  F  F21  1  0.890974  0.890974  0.885689  1
  F  F22  1  0.110474  0.110474  0.668854  1
  F  F23  1  0.114311  0.667638  0.109026  1
  F  F24  1  0.890974  0.890974  0.332362  1
  F  F25  1  0.889803  0.331146  0.889526  1
  F  F26  1  0.667638  0.114311  0.109026  1
  F  F27  1  0.331146  0.889803  0.889526  1
