# generated using pymatgen
data_Ti3ZnPt12
_symmetry_space_group_name_H-M   'P 1'
_cell_length_a   5.58159900
_cell_length_b   5.58159966
_cell_length_c   9.09221700
_cell_angle_alpha   90.00000000
_cell_angle_beta   90.00000000
_cell_angle_gamma   120.00000202
_symmetry_Int_Tables_number   1
_chemical_formula_structural   Ti3ZnPt12
_chemical_formula_sum   'Ti3 Zn1 Pt12'
_cell_volume   245.31139985
_cell_formula_units_Z   1
loop_
 _symmetry_equiv_pos_site_id
 _symmetry_equiv_pos_as_xyz
  1  'x, y, z'
loop_
 _atom_site_type_symbol
 _atom_site_label
 _atom_site_symmetry_multiplicity
 _atom_site_fract_x
 _atom_site_fract_y
 _atom_site_fract_z
 _atom_site_occupancy
  Ti  Ti0  1  0.000000  0.000000  0.498691  1
  Ti  Ti1  1  0.000000  0.000000  0.001309  1
  Ti  Ti2  1  0.666667  0.333333  0.750000  1
  Zn  Zn3  1  0.333333  0.666667  0.250000  1
  Pt  Pt4  1  0.501260  0.498740  0.502576  1
  Pt  Pt5  1  0.501260  0.002520  0.502576  1
  Pt  Pt6  1  0.997480  0.498740  0.502576  1
  Pt  Pt7  1  0.501260  0.498740  0.997424  1
  Pt  Pt8  1  0.501260  0.002520  0.997424  1
  Pt  Pt9  1  0.997480  0.498740  0.997424  1
  Pt  Pt10  1  0.832657  0.665314  0.250000  1
  Pt  Pt11  1  0.334686  0.167343  0.250000  1
  Pt  Pt12  1  0.832657  0.167343  0.250000  1
  Pt  Pt13  1  0.167010  0.334018  0.750000  1
  Pt  Pt14  1  0.665982  0.832990  0.750000  1
  Pt  Pt15  1  0.167010  0.832990  0.750000  1
