# generated using pymatgen
data_Lu12Mn2In3
_symmetry_space_group_name_H-M   'P 1'
_cell_length_a   8.29127457
_cell_length_b   8.29127400
_cell_length_c   8.29127452
_cell_angle_alpha   109.92674384
_cell_angle_beta   109.92674595
_cell_angle_gamma   108.56396083
_symmetry_Int_Tables_number   1
_chemical_formula_structural   Lu12Mn2In3
_chemical_formula_sum   'Lu12 Mn2 In3'
_cell_volume   438.69275556
_cell_formula_units_Z   1
loop_
 _symmetry_equiv_pos_site_id
 _symmetry_equiv_pos_as_xyz
  1  'x, y, z'
loop_
 _atom_site_type_symbol
 _atom_site_label
 _atom_site_symmetry_multiplicity
 _atom_site_fract_x
 _atom_site_fract_y
 _atom_site_fract_z
 _atom_site_occupancy
  Lu  Lu0  1  0.304653  0.304653  0.609305  1
  Lu  Lu1  1  0.695347  0.695347  0.390695  1
  Lu  Lu2  1  0.304653  0.695347  0.000000  1
  Lu  Lu3  1  0.695347  0.304653  0.000000  1
  Lu  Lu4  1  0.457261  0.210290  0.246971  1
  Lu  Lu5  1  0.542739  0.789710  0.753029  1
  Lu  Lu6  1  0.963320  0.210290  0.753029  1
  Lu  Lu7  1  0.210290  0.963320  0.753029  1
  Lu  Lu8  1  0.036680  0.789710  0.246971  1
  Lu  Lu9  1  0.789710  0.036680  0.246971  1
  Lu  Lu10  1  0.210290  0.457261  0.246971  1
  Lu  Lu11  1  0.789710  0.542739  0.753029  1
  Mn  Mn12  1  0.391057  0.391057  0.000000  1
  Mn  Mn13  1  0.608943  0.608943  0.000000  1
  In  In14  1  0.000000  0.000000  0.000000  1
  In  In15  1  0.500000  0.000000  0.500000  1
  In  In16  1  0.000000  0.500000  0.500000  1
