# generated using pymatgen
data_Rb6TlSe4Br
_symmetry_space_group_name_H-M   'P 1'
_cell_length_a   11.28655300
_cell_length_b   11.28655408
_cell_length_c   8.41048400
_cell_angle_alpha   90.00000000
_cell_angle_beta   90.00000000
_cell_angle_gamma   120.00000563
_symmetry_Int_Tables_number   1
_chemical_formula_structural   Rb6TlSe4Br
_chemical_formula_sum   'Rb12 Tl2 Se8 Br2'
_cell_volume   927.84255684
_cell_formula_units_Z   2
loop_
 _symmetry_equiv_pos_site_id
 _symmetry_equiv_pos_as_xyz
  1  'x, y, z'
loop_
 _atom_site_type_symbol
 _atom_site_label
 _atom_site_symmetry_multiplicity
 _atom_site_fract_x
 _atom_site_fract_y
 _atom_site_fract_z
 _atom_site_occupancy
  Rb  Rb0  1  0.134730  0.865270  0.511125  1
  Rb  Rb1  1  0.730540  0.865270  0.511125  1
  Rb  Rb2  1  0.941603  0.470801  0.320940  1
  Rb  Rb3  1  0.529199  0.470801  0.320940  1
  Rb  Rb4  1  0.865270  0.730540  0.011125  1
  Rb  Rb5  1  0.269460  0.134730  0.011125  1
  Rb  Rb6  1  0.529199  0.058397  0.320940  1
  Rb  Rb7  1  0.134730  0.269460  0.511125  1
  Rb  Rb8  1  0.865270  0.134730  0.011125  1
  Rb  Rb9  1  0.058397  0.529199  0.820940  1
  Rb  Rb10  1  0.470801  0.941603  0.820940  1
  Rb  Rb11  1  0.470801  0.529199  0.820940  1
  Tl  Tl12  1  0.666667  0.333333  0.713330  1
  Tl  Tl13  1  0.333333  0.666667  0.213330  1
  Se  Se14  1  0.404816  0.202409  0.606555  1
  Se  Se15  1  0.595184  0.797591  0.106555  1
  Se  Se16  1  0.666667  0.333333  0.040918  1
  Se  Se17  1  0.797591  0.595184  0.606555  1
  Se  Se18  1  0.202409  0.404816  0.106555  1
  Se  Se19  1  0.333333  0.666667  0.540918  1
  Se  Se20  1  0.202409  0.797591  0.106555  1
  Se  Se21  1  0.797591  0.202409  0.606555  1
  Br  Br22  1  0.000000  0.000000  0.270494  1
  Br  Br23  1  0.000000  0.000000  0.770494  1
