# generated using pymatgen
data_TaCr2PdPt8
_symmetry_space_group_name_H-M   'P 1'
_cell_length_a   3.95756500
_cell_length_b   3.95756500
_cell_length_c   11.82079800
_cell_angle_alpha   90.00000000
_cell_angle_beta   90.00000000
_cell_angle_gamma   90.00000000
_symmetry_Int_Tables_number   1
_chemical_formula_structural   TaCr2PdPt8
_chemical_formula_sum   'Ta1 Cr2 Pd1 Pt8'
_cell_volume   185.14112955
_cell_formula_units_Z   1
loop_
 _symmetry_equiv_pos_site_id
 _symmetry_equiv_pos_as_xyz
  1  'x, y, z'
loop_
 _atom_site_type_symbol
 _atom_site_label
 _atom_site_symmetry_multiplicity
 _atom_site_fract_x
 _atom_site_fract_y
 _atom_site_fract_z
 _atom_site_occupancy
  Ta  Ta0  1  0.000000  0.000000  0.999190  1
  Cr  Cr1  1  0.000000  0.000000  0.342189  1
  Cr  Cr2  1  0.000000  0.000000  0.658444  1
  Pd  Pd3  1  0.500000  0.500000  0.667166  1
  Pt  Pt4  1  0.500000  0.500000  0.999937  1
  Pt  Pt5  1  0.500000  0.500000  0.333070  1
  Pt  Pt6  1  0.500000  0.000000  0.165932  1
  Pt  Pt7  1  0.500000  0.000000  0.500337  1
  Pt  Pt8  1  0.500000  0.000000  0.833733  1
  Pt  Pt9  1  0.000000  0.500000  0.165932  1
  Pt  Pt10  1  0.000000  0.500000  0.500337  1
  Pt  Pt11  1  0.000000  0.500000  0.833733  1
