# generated using pymatgen
data_Pr20Ir7Ru4Pt
_symmetry_space_group_name_H-M   'P 1'
_cell_length_a   11.32256556
_cell_length_b   11.32256556
_cell_length_c   6.69028704
_cell_angle_alpha   90.07715730
_cell_angle_beta   90.07715730
_cell_angle_gamma   89.93177115
_symmetry_Int_Tables_number   1
_chemical_formula_structural   Pr20Ir7Ru4Pt
_chemical_formula_sum   'Pr20 Ir7 Ru4 Pt1'
_cell_volume   857.69592134
_cell_formula_units_Z   1
loop_
 _symmetry_equiv_pos_site_id
 _symmetry_equiv_pos_as_xyz
  1  'x, y, z'
loop_
 _atom_site_type_symbol
 _atom_site_label
 _atom_site_symmetry_multiplicity
 _atom_site_fract_x
 _atom_site_fract_y
 _atom_site_fract_z
 _atom_site_occupancy
  Pr  Pr0  1  0.292754  0.088120  0.382437  1
  Pr  Pr1  1  0.294355  0.911236  0.882108  1
  Pr  Pr2  1  0.704257  0.087018  0.876847  1
  Pr  Pr3  1  0.705564  0.908755  0.383236  1
  Pr  Pr4  1  0.588458  0.792855  0.882996  1
  Pr  Pr5  1  0.585006  0.206859  0.382239  1
  Pr  Pr6  1  0.410853  0.793297  0.382494  1
  Pr  Pr7  1  0.410969  0.206811  0.883080  1
  Pr  Pr8  1  0.207145  0.411542  0.617004  1
  Pr  Pr9  1  0.206703  0.589147  0.117506  1
  Pr  Pr10  1  0.793141  0.414994  0.117761  1
  Pr  Pr11  1  0.793189  0.589031  0.616920  1
  Pr  Pr12  1  0.911880  0.707246  0.117563  1
  Pr  Pr13  1  0.912982  0.295743  0.623153  1
  Pr  Pr14  1  0.088764  0.705645  0.617892  1
  Pr  Pr15  1  0.091245  0.294436  0.116764  1
  Pr  Pr16  1  0.001127  0.998473  0.500509  1
  Pr  Pr17  1  0.001527  0.998873  0.999491  1
  Pr  Pr18  1  0.499719  0.500167  0.999411  1
  Pr  Pr19  1  0.499833  0.500281  0.500589  1
  Ir  Ir20  1  0.847890  0.848176  0.750041  1
  Ir  Ir21  1  0.151824  0.152110  0.749959  1
  Ir  Ir22  1  0.152900  0.847100  0.250000  1
  Ir  Ir23  1  0.653517  0.346483  0.750000  1
  Ir  Ir24  1  0.652695  0.652440  0.250101  1
  Ir  Ir25  1  0.347560  0.347305  0.249899  1
  Ir  Ir26  1  0.347141  0.652859  0.750000  1
  Ru  Ru27  1  0.500661  0.000237  0.117395  1
  Ru  Ru28  1  0.500500  0.000152  0.616552  1
  Ru  Ru29  1  0.999848  0.499500  0.883448  1
  Ru  Ru30  1  0.999763  0.499339  0.382605  1
  Pt  Pt31  1  0.846231  0.153769  0.250000  1
