# generated using pymatgen
data_Er13Lu7(Cd3Ru)2
_symmetry_space_group_name_H-M   'P 1'
_cell_length_a   9.45705416
_cell_length_b   9.45563601
_cell_length_c   9.72630217
_cell_angle_alpha   90.00000014
_cell_angle_beta   89.98117696
_cell_angle_gamma   119.99503758
_symmetry_Int_Tables_number   1
_chemical_formula_structural   Er13Lu7(Cd3Ru)2
_chemical_formula_sum   'Er13 Lu7 Cd6 Ru2'
_cell_volume   753.26310387
_cell_formula_units_Z   1
loop_
 _symmetry_equiv_pos_site_id
 _symmetry_equiv_pos_as_xyz
  1  'x, y, z'
loop_
 _atom_site_type_symbol
 _atom_site_label
 _atom_site_symmetry_multiplicity
 _atom_site_fract_x
 _atom_site_fract_y
 _atom_site_fract_z
 _atom_site_occupancy
  Er  Er0  1  0.419960  0.209980  0.558919  1
  Er  Er1  1  0.790465  0.209816  0.940549  1
  Er  Er2  1  0.790465  0.580647  0.940549  1
  Er  Er3  1  0.419216  0.209608  0.940866  1
  Er  Er4  1  0.209637  0.790252  0.059483  1
  Er  Er5  1  0.209637  0.419386  0.059483  1
  Er  Er6  1  0.580526  0.790264  0.059525  1
  Er  Er7  1  0.540874  0.459547  0.250798  1
  Er  Er8  1  0.540874  0.081327  0.250798  1
  Er  Er9  1  0.918446  0.459223  0.251077  1
  Er  Er10  1  0.459265  0.541167  0.749103  1
  Er  Er11  1  0.459265  0.918097  0.749103  1
  Er  Er12  1  0.081338  0.540669  0.748817  1
  Lu  Lu13  1  0.999461  0.999731  0.499903  1
  Lu  Lu14  1  0.000068  0.000034  0.999896  1
  Lu  Lu15  1  0.210024  0.789529  0.440956  1
  Lu  Lu16  1  0.210024  0.420496  0.440956  1
  Lu  Lu17  1  0.579548  0.789774  0.441064  1
  Lu  Lu18  1  0.790334  0.210145  0.558864  1
  Lu  Lu19  1  0.790334  0.580188  0.558864  1
  Cd  Cd20  1  0.885890  0.114071  0.250326  1
  Cd  Cd21  1  0.885890  0.771820  0.250326  1
  Cd  Cd22  1  0.227954  0.113978  0.250250  1
  Cd  Cd23  1  0.114041  0.885851  0.749644  1
  Cd  Cd24  1  0.114041  0.228189  0.749644  1
  Cd  Cd25  1  0.771977  0.885988  0.749593  1
  Ru  Ru26  1  0.333363  0.666682  0.251341  1
  Ru  Ru27  1  0.667082  0.333541  0.749305  1
