# generated using pymatgen
data_Ce4SiGeRh11
_symmetry_space_group_name_H-M   'P 1'
_cell_length_a   7.22845329
_cell_length_b   7.22845353
_cell_length_c   7.22845443
_cell_angle_alpha   107.85211668
_cell_angle_beta   107.85211756
_cell_angle_gamma   112.76034541
_symmetry_Int_Tables_number   1
_chemical_formula_structural   Ce4SiGeRh11
_chemical_formula_sum   'Ce4 Si1 Ge1 Rh11'
_cell_volume   290.02334798
_cell_formula_units_Z   1
loop_
 _symmetry_equiv_pos_site_id
 _symmetry_equiv_pos_as_xyz
  1  'x, y, z'
loop_
 _atom_site_type_symbol
 _atom_site_label
 _atom_site_symmetry_multiplicity
 _atom_site_fract_x
 _atom_site_fract_y
 _atom_site_fract_z
 _atom_site_occupancy
  Ce  Ce0  1  0.014212  0.985788  0.500000  1
  Ce  Ce1  1  0.014212  0.514212  0.028425  1
  Ce  Ce2  1  0.485788  0.985788  0.971575  1
  Ce  Ce3  1  0.485788  0.514212  0.500000  1
  Si  Si4  1  0.000000  0.000000  0.000000  1
  Ge  Ge5  1  0.750000  0.250000  0.500000  1
  Rh  Rh6  1  0.744335  0.487784  0.256551  1
  Rh  Rh7  1  0.512216  0.255665  0.743449  1
  Rh  Rh8  1  0.231234  0.487784  0.743449  1
  Rh  Rh9  1  0.250000  0.750000  0.500000  1
  Rh  Rh10  1  0.512216  0.768766  0.256551  1
  Rh  Rh11  1  0.714012  0.714012  0.000000  1
  Rh  Rh12  1  0.298008  0.021606  0.276402  1
  Rh  Rh13  1  0.978394  0.254796  0.276402  1
  Rh  Rh14  1  0.285988  0.285988  0.000000  1
  Rh  Rh15  1  0.745204  0.021606  0.723598  1
  Rh  Rh16  1  0.978394  0.701992  0.723598  1
