# generated using pymatgen
data_Pr5GdIn6O18
_symmetry_space_group_name_H-M   'P 1'
_cell_length_a   6.56395800
_cell_length_b   6.56395941
_cell_length_c   12.52878300
_cell_angle_alpha   90.00000000
_cell_angle_beta   90.00000000
_cell_angle_gamma   119.99999292
_symmetry_Int_Tables_number   1
_chemical_formula_structural   Pr5GdIn6O18
_chemical_formula_sum   'Pr5 Gd1 In6 O18'
_cell_volume   467.48882086
_cell_formula_units_Z   1
loop_
 _symmetry_equiv_pos_site_id
 _symmetry_equiv_pos_as_xyz
  1  'x, y, z'
loop_
 _atom_site_type_symbol
 _atom_site_label
 _atom_site_symmetry_multiplicity
 _atom_site_fract_x
 _atom_site_fract_y
 _atom_site_fract_z
 _atom_site_occupancy
  Pr  Pr0  1  0.666667  0.333333  0.960711  1
  Pr  Pr1  1  0.333333  0.666667  0.461636  1
  Pr  Pr2  1  0.666667  0.333333  0.461636  1
  Pr  Pr3  1  0.333333  0.666667  0.960711  1
  Pr  Pr4  1  0.000000  0.000000  0.998736  1
  Gd  Gd5  1  0.000000  0.000000  0.497153  1
  In  In6  1  0.667992  0.667992  0.725790  1
  In  In7  1  0.000000  0.332008  0.725790  1
  In  In8  1  0.332527  0.332527  0.227996  1
  In  In9  1  0.000000  0.667473  0.227996  1
  In  In10  1  0.332008  0.000000  0.725790  1
  In  In11  1  0.667473  0.000000  0.227996  1
  O  O12  1  0.692539  0.692539  0.894015  1
  O  O13  1  0.000000  0.307461  0.894015  1
  O  O14  1  0.300473  0.300473  0.396131  1
  O  O15  1  0.000000  0.699527  0.396131  1
  O  O16  1  0.307461  0.000000  0.894015  1
  O  O17  1  0.699527  0.000000  0.396131  1
  O  O18  1  0.648557  0.648557  0.558659  1
  O  O19  1  0.000000  0.351443  0.558659  1
  O  O20  1  0.359691  0.359691  0.060934  1
  O  O21  1  0.000000  0.640309  0.060934  1
  O  O22  1  0.351443  0.000000  0.558659  1
  O  O23  1  0.640309  0.000000  0.060934  1
  O  O24  1  0.000000  0.000000  0.697256  1
  O  O25  1  0.000000  0.000000  0.199594  1
  O  O26  1  0.666667  0.333333  0.749559  1
  O  O27  1  0.333333  0.666667  0.252330  1
  O  O28  1  0.666667  0.333333  0.252330  1
  O  O29  1  0.333333  0.666667  0.749559  1
