# generated using pymatgen
data_ErTm6Th3Sn8
_symmetry_space_group_name_H-M   'P 1'
_cell_length_a   8.07740800
_cell_length_b   8.14925573
_cell_length_c   15.39882858
_cell_angle_alpha   90.28208290
_cell_angle_beta   90.00000000
_cell_angle_gamma   90.00000000
_symmetry_Int_Tables_number   1
_chemical_formula_structural   ErTm6Th3Sn8
_chemical_formula_sum   'Er2 Tm12 Th6 Sn16'
_cell_volume   1013.61350392
_cell_formula_units_Z   2
loop_
 _symmetry_equiv_pos_site_id
 _symmetry_equiv_pos_as_xyz
  1  'x, y, z'
loop_
 _atom_site_type_symbol
 _atom_site_label
 _atom_site_symmetry_multiplicity
 _atom_site_fract_x
 _atom_site_fract_y
 _atom_site_fract_z
 _atom_site_occupancy
  Er  Er0  1  0.524035  0.324024  0.900294  1
  Er  Er1  1  0.024035  0.175976  0.599706  1
  Tm  Tm2  1  0.355740  0.836571  0.875095  1
  Tm  Tm3  1  0.855740  0.663429  0.624905  1
  Tm  Tm4  1  0.638954  0.164177  0.376383  1
  Tm  Tm5  1  0.138954  0.335823  0.123617  1
  Tm  Tm6  1  0.642492  0.163327  0.123510  1
  Tm  Tm7  1  0.142492  0.336673  0.376490  1
  Tm  Tm8  1  0.359799  0.838882  0.625663  1
  Tm  Tm9  1  0.859799  0.661118  0.874337  1
  Tm  Tm10  1  0.188843  0.500650  0.749689  1
  Tm  Tm11  1  0.688843  0.999350  0.750311  1
  Tm  Tm12  1  0.811573  0.500127  0.249802  1
  Tm  Tm13  1  0.311573  0.999873  0.250198  1
  Th  Th14  1  0.481681  0.678526  0.404837  1
  Th  Th15  1  0.981681  0.821474  0.095163  1
  Th  Th16  1  0.482716  0.677448  0.095610  1
  Th  Th17  1  0.982716  0.822552  0.404390  1
  Th  Th18  1  0.514471  0.322328  0.594750  1
  Th  Th19  1  0.014471  0.177672  0.905250  1
  Sn  Sn20  1  0.302585  0.039006  0.042283  1
  Sn  Sn21  1  0.802585  0.460994  0.457717  1
  Sn  Sn22  1  0.703791  0.965471  0.543091  1
  Sn  Sn23  1  0.203791  0.534529  0.956909  1
  Sn  Sn24  1  0.693952  0.958125  0.957698  1
  Sn  Sn25  1  0.193952  0.541875  0.542302  1
  Sn  Sn26  1  0.299099  0.041646  0.460042  1
  Sn  Sn27  1  0.799099  0.458354  0.039958  1
  Sn  Sn28  1  0.553926  0.621461  0.749759  1
  Sn  Sn29  1  0.053926  0.878539  0.750241  1
  Sn  Sn30  1  0.444916  0.376164  0.249471  1
  Sn  Sn31  1  0.944916  0.123836  0.250529  1
  Sn  Sn32  1  0.325889  0.147974  0.752627  1
  Sn  Sn33  1  0.825889  0.352026  0.747373  1
  Sn  Sn34  1  0.675538  0.856733  0.250049  1
  Sn  Sn35  1  0.175538  0.643267  0.249951  1
