# generated using pymatgen
data_YTh3(CrN3)4
_symmetry_space_group_name_H-M   'P 1'
_cell_length_a   7.04796431
_cell_length_b   7.04796373
_cell_length_c   5.94266223
_cell_angle_alpha   77.94233540
_cell_angle_beta   77.94233617
_cell_angle_gamma   87.61375586
_symmetry_Int_Tables_number   1
_chemical_formula_structural   YTh3(CrN3)4
_chemical_formula_sum   'Y1 Th3 Cr4 N12'
_cell_volume   282.31240910
_cell_formula_units_Z   1
loop_
 _symmetry_equiv_pos_site_id
 _symmetry_equiv_pos_as_xyz
  1  'x, y, z'
loop_
 _atom_site_type_symbol
 _atom_site_label
 _atom_site_symmetry_multiplicity
 _atom_site_fract_x
 _atom_site_fract_y
 _atom_site_fract_z
 _atom_site_occupancy
  Y  Y0  1  0.901875  0.098125  0.750000  1
  Th  Th1  1  0.331278  0.668722  0.750000  1
  Th  Th2  1  0.672856  0.327144  0.250000  1
  Th  Th3  1  0.089711  0.910289  0.250000  1
  Cr  Cr4  1  0.380348  0.199299  0.761296  1
  Cr  Cr5  1  0.619926  0.798968  0.233996  1
  Cr  Cr6  1  0.800701  0.619652  0.738704  1
  Cr  Cr7  1  0.201032  0.380074  0.266004  1
  N  N8  1  0.000311  0.776306  0.654988  1
  N  N9  1  0.866305  0.393248  0.857551  1
  N  N10  1  0.772213  0.001674  0.148994  1
  N  N11  1  0.139241  0.608449  0.139511  1
  N  N12  1  0.998326  0.227787  0.351006  1
  N  N13  1  0.223694  0.999689  0.845012  1
  N  N14  1  0.606752  0.133695  0.642449  1
  N  N15  1  0.620897  0.672145  0.989508  1
  N  N16  1  0.371116  0.315987  0.017173  1
  N  N17  1  0.391551  0.860759  0.360489  1
  N  N18  1  0.684013  0.628884  0.482827  1
  N  N19  1  0.327855  0.379103  0.510492  1
