# generated using pymatgen
data_Y12Ho8CoBi8Os3
_symmetry_space_group_name_H-M   'P 1'
_cell_length_a   7.96637010
_cell_length_b   8.97143200
_cell_length_c   12.47316687
_cell_angle_alpha   90.00000000
_cell_angle_beta   89.76834873
_cell_angle_gamma   90.00000000
_symmetry_Int_Tables_number   1
_chemical_formula_structural   Y12Ho8CoBi8Os3
_chemical_formula_sum   'Y12 Ho8 Co1 Bi8 Os3'
_cell_volume   891.44680226
_cell_formula_units_Z   1
loop_
 _symmetry_equiv_pos_site_id
 _symmetry_equiv_pos_as_xyz
  1  'x, y, z'
loop_
 _atom_site_type_symbol
 _atom_site_label
 _atom_site_symmetry_multiplicity
 _atom_site_fract_x
 _atom_site_fract_y
 _atom_site_fract_z
 _atom_site_occupancy
  Y  Y0  1  0.344698  0.750000  0.702550  1
  Y  Y1  1  0.657997  0.250000  0.291769  1
  Y  Y2  1  0.842479  0.250000  0.790565  1
  Y  Y3  1  0.156106  0.750000  0.207290  1
  Y  Y4  1  0.877712  0.750000  0.805123  1
  Y  Y5  1  0.121442  0.250000  0.194481  1
  Y  Y6  1  0.377132  0.250000  0.693836  1
  Y  Y7  1  0.618202  0.750000  0.311461  1
  Y  Y8  1  0.054901  0.750000  0.496777  1
  Y  Y9  1  0.946156  0.250000  0.502995  1
  Y  Y10  1  0.556859  0.250000  0.003592  1
  Y  Y11  1  0.443303  0.750000  0.995743  1
  Ho  Ho12  1  0.674642  0.541914  0.563729  1
  Ho  Ho13  1  0.326193  0.460372  0.437020  1
  Ho  Ho14  1  0.173727  0.457843  0.936249  1
  Ho  Ho15  1  0.326193  0.039628  0.437020  1
  Ho  Ho16  1  0.825330  0.543079  0.064109  1
  Ho  Ho17  1  0.674642  0.958086  0.563729  1
  Ho  Ho18  1  0.825330  0.956921  0.064109  1
  Ho  Ho19  1  0.173727  0.042157  0.936249  1
  Co  Co20  1  0.430451  0.750000  0.491150  1
  Bi  Bi21  1  0.569824  0.508532  0.827158  1
  Bi  Bi22  1  0.429861  0.492372  0.173108  1
  Bi  Bi23  1  0.071296  0.492125  0.671831  1
  Bi  Bi24  1  0.429861  0.007628  0.173108  1
  Bi  Bi25  1  0.929486  0.508904  0.328439  1
  Bi  Bi26  1  0.569824  0.991468  0.827158  1
  Bi  Bi27  1  0.929486  0.991096  0.328439  1
  Bi  Bi28  1  0.071296  0.007875  0.671831  1
  Os  Os29  1  0.074253  0.750000  0.989142  1
  Os  Os30  1  0.924831  0.250000  0.010157  1
  Os  Os31  1  0.572761  0.250000  0.510084  1
