# generated using pymatgen
data_Pr2Er3Pb4
_symmetry_space_group_name_H-M   'P 1'
_cell_length_a   8.26087300
_cell_length_b   8.38981300
_cell_length_c   15.76352000
_cell_angle_alpha   90.00000000
_cell_angle_beta   90.00000000
_cell_angle_gamma   90.00000000
_symmetry_Int_Tables_number   1
_chemical_formula_structural   Pr2Er3Pb4
_chemical_formula_sum   'Pr8 Er12 Pb16'
_cell_volume   1092.52511314
_cell_formula_units_Z   4
loop_
 _symmetry_equiv_pos_site_id
 _symmetry_equiv_pos_as_xyz
  1  'x, y, z'
loop_
 _atom_site_type_symbol
 _atom_site_label
 _atom_site_symmetry_multiplicity
 _atom_site_fract_x
 _atom_site_fract_y
 _atom_site_fract_z
 _atom_site_occupancy
  Pr  Pr0  1  0.022216  0.177335  0.096690  1
  Pr  Pr1  1  0.522216  0.322665  0.403310  1
  Pr  Pr2  1  0.477784  0.677335  0.903310  1
  Pr  Pr3  1  0.977784  0.822665  0.596690  1
  Pr  Pr4  1  0.977784  0.822665  0.903310  1
  Pr  Pr5  1  0.477784  0.677335  0.596690  1
  Pr  Pr6  1  0.522216  0.322665  0.096690  1
  Pr  Pr7  1  0.022216  0.177335  0.403310  1
  Er  Er8  1  0.863190  0.658147  0.122912  1
  Er  Er9  1  0.363190  0.841853  0.377088  1
  Er  Er10  1  0.636810  0.158147  0.877088  1
  Er  Er11  1  0.136810  0.341853  0.622912  1
  Er  Er12  1  0.136810  0.341853  0.877088  1
  Er  Er13  1  0.636810  0.158147  0.622912  1
  Er  Er14  1  0.363190  0.841853  0.122912  1
  Er  Er15  1  0.863190  0.658147  0.377088  1
  Er  Er16  1  0.697919  0.994785  0.250000  1
  Er  Er17  1  0.197919  0.505215  0.250000  1
  Er  Er18  1  0.802081  0.494785  0.750000  1
  Er  Er19  1  0.302081  0.005215  0.750000  1
  Pb  Pb20  1  0.059300  0.870446  0.250000  1
  Pb  Pb21  1  0.559300  0.629554  0.250000  1
  Pb  Pb22  1  0.440700  0.370446  0.750000  1
  Pb  Pb23  1  0.940700  0.129554  0.750000  1
  Pb  Pb24  1  0.833875  0.350528  0.250000  1
  Pb  Pb25  1  0.333875  0.149472  0.250000  1
  Pb  Pb26  1  0.666125  0.850528  0.750000  1
  Pb  Pb27  1  0.166125  0.649472  0.750000  1
  Pb  Pb28  1  0.798201  0.457961  0.956395  1
  Pb  Pb29  1  0.298201  0.042039  0.543605  1
  Pb  Pb30  1  0.701799  0.957961  0.043605  1
  Pb  Pb31  1  0.201799  0.542039  0.456395  1
  Pb  Pb32  1  0.201799  0.542039  0.043605  1
  Pb  Pb33  1  0.701799  0.957961  0.456395  1
  Pb  Pb34  1  0.298201  0.042039  0.956395  1
  Pb  Pb35  1  0.798201  0.457961  0.543605  1
