# generated using pymatgen
data_Lu3CuAs2Rh3
_symmetry_space_group_name_H-M   'P 1'
_cell_length_a   6.78030800
_cell_length_b   6.78030716
_cell_length_c   3.97336200
_cell_angle_alpha   90.00000000
_cell_angle_beta   90.00000000
_cell_angle_gamma   120.00000411
_symmetry_Int_Tables_number   1
_chemical_formula_structural   Lu3CuAs2Rh3
_chemical_formula_sum   'Lu3 Cu1 As2 Rh3'
_cell_volume   158.19310068
_cell_formula_units_Z   1
loop_
 _symmetry_equiv_pos_site_id
 _symmetry_equiv_pos_as_xyz
  1  'x, y, z'
loop_
 _atom_site_type_symbol
 _atom_site_label
 _atom_site_symmetry_multiplicity
 _atom_site_fract_x
 _atom_site_fract_y
 _atom_site_fract_z
 _atom_site_occupancy
  Lu  Lu0  1  0.399430  0.000000  0.499999  1
  Lu  Lu1  1  0.000000  0.399430  0.499999  1
  Lu  Lu2  1  0.600570  0.600569  0.499999  1
  Cu  Cu3  1  0.000000  0.000000  0.499999  1
  As  As4  1  0.666666  0.333333  0.000000  1
  As  As5  1  0.333334  0.666667  0.000000  1
  Rh  Rh6  1  0.759703  0.000000  0.000000  1
  Rh  Rh7  1  0.240297  0.240297  0.000000  1
  Rh  Rh8  1  0.000000  0.759703  0.000000  1
