# generated using pymatgen
data_Ho3TmScSi3H
_symmetry_space_group_name_H-M   'P 1'
_cell_length_a   8.32921700
_cell_length_b   8.32921680
_cell_length_c   6.05151900
_cell_angle_alpha   90.00000000
_cell_angle_beta   90.00000000
_cell_angle_gamma   120.00000475
_symmetry_Int_Tables_number   1
_chemical_formula_structural   Ho3TmScSi3H
_chemical_formula_sum   'Ho6 Tm2 Sc2 Si6 H2'
_cell_volume   363.58282148
_cell_formula_units_Z   2
loop_
 _symmetry_equiv_pos_site_id
 _symmetry_equiv_pos_as_xyz
  1  'x, y, z'
loop_
 _atom_site_type_symbol
 _atom_site_label
 _atom_site_symmetry_multiplicity
 _atom_site_fract_x
 _atom_site_fract_y
 _atom_site_fract_z
 _atom_site_occupancy
  Ho  Ho0  1  0.748495  0.748495  0.753171  1
  Ho  Ho1  1  0.251505  0.000000  0.753171  1
  Ho  Ho2  1  0.000000  0.251505  0.753171  1
  Ho  Ho3  1  0.251505  0.251505  0.246829  1
  Ho  Ho4  1  0.748495  0.000000  0.246829  1
  Ho  Ho5  1  0.000000  0.748495  0.246829  1
  Tm  Tm6  1  0.333333  0.666667  0.500000  1
  Tm  Tm7  1  0.666667  0.333333  0.500000  1
  Sc  Sc8  1  0.666667  0.333333  0.000000  1
  Sc  Sc9  1  0.333333  0.666667  0.000000  1
  Si  Si10  1  0.392728  0.392728  0.760723  1
  Si  Si11  1  0.607272  0.000000  0.760723  1
  Si  Si12  1  0.000000  0.607272  0.760723  1
  Si  Si13  1  0.607272  0.607272  0.239277  1
  Si  Si14  1  0.392728  0.000000  0.239277  1
  Si  Si15  1  0.000000  0.392728  0.239277  1
  H  H16  1  0.000000  0.000000  0.500000  1
  H  H17  1  0.000000  0.000000  0.000000  1
