# generated using pymatgen
data_Er8B24Rh3W
_symmetry_space_group_name_H-M   'P 1'
_cell_length_a   3.63865200
_cell_length_b   9.14391759
_cell_length_c   11.50986068
_cell_angle_alpha   90.24262265
_cell_angle_beta   90.00000000
_cell_angle_gamma   90.00000000
_symmetry_Int_Tables_number   1
_chemical_formula_structural   Er8B24Rh3W
_chemical_formula_sum   'Er8 B24 Rh3 W1'
_cell_volume   382.94728782
_cell_formula_units_Z   1
loop_
 _symmetry_equiv_pos_site_id
 _symmetry_equiv_pos_as_xyz
  1  'x, y, z'
loop_
 _atom_site_type_symbol
 _atom_site_label
 _atom_site_symmetry_multiplicity
 _atom_site_fract_x
 _atom_site_fract_y
 _atom_site_fract_z
 _atom_site_occupancy
  Er  Er0  1  0.500000  0.318746  0.410636  1
  Er  Er1  1  0.500000  0.676589  0.584815  1
  Er  Er2  1  0.500000  0.178788  0.916698  1
  Er  Er3  1  0.500000  0.823515  0.086602  1
  Er  Er4  1  0.500000  0.445690  0.125557  1
  Er  Er5  1  0.500000  0.557528  0.871364  1
  Er  Er6  1  0.500000  0.055947  0.629285  1
  Er  Er7  1  0.500000  0.944110  0.374684  1
  B  B8  1  0.000000  0.106589  0.472854  1
  B  B9  1  0.000000  0.891700  0.530799  1
  B  B10  1  0.000000  0.395526  0.968963  1
  B  B11  1  0.000000  0.608861  0.028268  1
  B  B12  1  0.000000  0.131945  0.317521  1
  B  B13  1  0.000000  0.866684  0.683880  1
  B  B14  1  0.000000  0.368658  0.815995  1
  B  B15  1  0.000000  0.633195  0.183641  1
  B  B16  1  0.000000  0.051529  0.064434  1
  B  B17  1  0.000000  0.946758  0.933240  1
  B  B18  1  0.000000  0.444953  0.565212  1
  B  B19  1  0.000000  0.552456  0.433921  1
  B  B20  1  0.000000  0.483146  0.287439  1
  B  B21  1  0.000000  0.517332  0.711655  1
  B  B22  1  0.000000  0.017678  0.787900  1
  B  B23  1  0.000000  0.979301  0.214168  1
  B  B24  1  0.000000  0.251558  0.078124  1
  B  B25  1  0.000000  0.751741  0.919623  1
  B  B26  1  0.000000  0.250156  0.579335  1
  B  B27  1  0.000000  0.748101  0.421349  1
  B  B28  1  0.000000  0.295787  0.236151  1
  B  B29  1  0.000000  0.706527  0.763291  1
  B  B30  1  0.000000  0.208050  0.736242  1
  B  B31  1  0.000000  0.791635  0.266154  1
  Rh  Rh32  1  0.500000  0.861106  0.820758  1
  Rh  Rh33  1  0.500000  0.361641  0.678705  1
  Rh  Rh34  1  0.500000  0.638320  0.321632  1
  W  W35  1  0.500000  0.138154  0.179105  1
