# generated using pymatgen
data_NdDy(CuNi)5
_symmetry_space_group_name_H-M   'P 1'
_cell_length_a   4.02533900
_cell_length_b   4.95195944
_cell_length_c   8.60362253
_cell_angle_alpha   90.08757246
_cell_angle_beta   90.00000000
_cell_angle_gamma   90.00000000
_symmetry_Int_Tables_number   1
_chemical_formula_structural   NdDy(CuNi)5
_chemical_formula_sum   'Nd1 Dy1 Cu5 Ni5'
_cell_volume   171.49852153
_cell_formula_units_Z   1
loop_
 _symmetry_equiv_pos_site_id
 _symmetry_equiv_pos_as_xyz
  1  'x, y, z'
loop_
 _atom_site_type_symbol
 _atom_site_label
 _atom_site_symmetry_multiplicity
 _atom_site_fract_x
 _atom_site_fract_y
 _atom_site_fract_z
 _atom_site_occupancy
  Nd  Nd0  1  0.000000  0.499894  0.497962  1
  Dy  Dy1  1  0.000000  0.000893  0.001824  1
  Cu  Cu2  1  0.000000  0.495607  0.837801  1
  Cu  Cu3  1  0.500000  0.001201  0.500983  1
  Cu  Cu4  1  0.500000  0.248277  0.245528  1
  Cu  Cu5  1  0.500000  0.751691  0.754412  1
  Cu  Cu6  1  0.500000  0.751336  0.245334  1
  Ni  Ni7  1  0.000000  0.999601  0.329542  1
  Ni  Ni8  1  0.000000  0.500578  0.159625  1
  Ni  Ni9  1  0.000000  0.007959  0.672114  1
  Ni  Ni10  1  0.500000  0.496481  0.999993  1
  Ni  Ni11  1  0.500000  0.246482  0.754882  1
