# generated using pymatgen
data_Mn3AsP2Ru3
_symmetry_space_group_name_H-M   'P 1'
_cell_length_a   6.39642800
_cell_length_b   6.39642738
_cell_length_c   3.51619500
_cell_angle_alpha   90.00000000
_cell_angle_beta   90.00000000
_cell_angle_gamma   119.99999288
_symmetry_Int_Tables_number   1
_chemical_formula_structural   Mn3AsP2Ru3
_chemical_formula_sum   'Mn3 As1 P2 Ru3'
_cell_volume   124.58868559
_cell_formula_units_Z   1
loop_
 _symmetry_equiv_pos_site_id
 _symmetry_equiv_pos_as_xyz
  1  'x, y, z'
loop_
 _atom_site_type_symbol
 _atom_site_label
 _atom_site_symmetry_multiplicity
 _atom_site_fract_x
 _atom_site_fract_y
 _atom_site_fract_z
 _atom_site_occupancy
  Mn  Mn0  1  0.589406  0.982129  0.500000  1
  Mn  Mn1  1  0.392723  0.410594  0.500000  1
  Mn  Mn2  1  0.017871  0.607277  0.500000  1
  As  As3  1  0.666667  0.333333  0.000000  1
  P  P4  1  0.333333  0.666667  0.000000  1
  P  P5  1  0.000000  0.000000  0.500000  1
  Ru  Ru6  1  0.009548  0.259009  0.000000  1
  Ru  Ru7  1  0.249461  0.990452  0.000000  1
  Ru  Ru8  1  0.740991  0.750539  0.000000  1
