# generated using pymatgen
data_DyLu5ReTe2
_symmetry_space_group_name_H-M   'P 1'
_cell_length_a   8.10342085
_cell_length_b   8.10343520
_cell_length_c   4.11127600
_cell_angle_alpha   90.00000000
_cell_angle_beta   90.00000000
_cell_angle_gamma   119.41699287
_symmetry_Int_Tables_number   1
_chemical_formula_structural   DyLu5ReTe2
_chemical_formula_sum   'Dy1 Lu5 Re1 Te2'
_cell_volume   235.16156423
_cell_formula_units_Z   1
loop_
 _symmetry_equiv_pos_site_id
 _symmetry_equiv_pos_as_xyz
  1  'x, y, z'
loop_
 _atom_site_type_symbol
 _atom_site_label
 _atom_site_symmetry_multiplicity
 _atom_site_fract_x
 _atom_site_fract_y
 _atom_site_fract_z
 _atom_site_occupancy
  Dy  Dy0  1  0.613772  0.613771  0.000000  1
  Lu  Lu1  1  0.381880  0.999637  0.000000  1
  Lu  Lu2  1  0.999638  0.381885  0.000000  1
  Lu  Lu3  1  0.764293  0.000884  0.500000  1
  Lu  Lu4  1  0.236862  0.236857  0.500000  1
  Lu  Lu5  1  0.000889  0.764300  0.500000  1
  Re  Re6  1  0.004553  0.004549  0.000000  1
  Te  Te7  1  0.665734  0.332382  0.500000  1
  Te  Te8  1  0.332380  0.665737  0.500000  1
