# generated using pymatgen
data_TbDyBeSi4Ni
_symmetry_space_group_name_H-M   'P 1'
_cell_length_a   8.46050402
_cell_length_b   8.46050509
_cell_length_c   3.91434200
_cell_angle_alpha   90.00000000
_cell_angle_beta   90.00000000
_cell_angle_gamma   152.60720540
_symmetry_Int_Tables_number   1
_chemical_formula_structural   TbDyBeSi4Ni
_chemical_formula_sum   'Tb1 Dy1 Be1 Si4 Ni1'
_cell_volume   128.91169683
_cell_formula_units_Z   1
loop_
 _symmetry_equiv_pos_site_id
 _symmetry_equiv_pos_as_xyz
  1  'x, y, z'
loop_
 _atom_site_type_symbol
 _atom_site_label
 _atom_site_symmetry_multiplicity
 _atom_site_fract_x
 _atom_site_fract_y
 _atom_site_fract_z
 _atom_site_occupancy
  Tb  Tb0  1  0.106762  0.893238  0.250000  1
  Dy  Dy1  1  0.897997  0.102003  0.750000  1
  Be  Be2  1  0.672800  0.327200  0.750000  1
  Si  Si3  1  0.751578  0.248422  0.250000  1
  Si  Si4  1  0.249802  0.750198  0.750000  1
  Si  Si5  1  0.538734  0.461266  0.750000  1
  Si  Si6  1  0.459845  0.540155  0.250000  1
  Ni  Ni7  1  0.322481  0.677519  0.250000  1
