# generated using pymatgen
data_TbY3Co4(SnH)4
_symmetry_space_group_name_H-M   'P 1'
_cell_length_a   4.28301800
_cell_length_b   7.12509301
_cell_length_c   8.17205501
_cell_angle_alpha   90.00496675
_cell_angle_beta   90.00000000
_cell_angle_gamma   90.00000000
_symmetry_Int_Tables_number   1
_chemical_formula_structural   TbY3Co4(SnH)4
_chemical_formula_sum   'Tb1 Y3 Co4 Sn4 H4'
_cell_volume   249.38579760
_cell_formula_units_Z   1
loop_
 _symmetry_equiv_pos_site_id
 _symmetry_equiv_pos_as_xyz
  1  'x, y, z'
loop_
 _atom_site_type_symbol
 _atom_site_label
 _atom_site_symmetry_multiplicity
 _atom_site_fract_x
 _atom_site_fract_y
 _atom_site_fract_z
 _atom_site_occupancy
  Tb  Tb0  1  0.750000  0.012323  0.687157  1
  Y  Y1  1  0.250000  0.987648  0.312971  1
  Y  Y2  1  0.250000  0.487704  0.186865  1
  Y  Y3  1  0.750000  0.512344  0.813090  1
  Co  Co4  1  0.750000  0.776986  0.102099  1
  Co  Co5  1  0.250000  0.222936  0.897872  1
  Co  Co6  1  0.250000  0.723051  0.602117  1
  Co  Co7  1  0.750000  0.276975  0.397914  1
  Sn  Sn8  1  0.750000  0.656718  0.426044  1
  Sn  Sn9  1  0.250000  0.343298  0.573850  1
  Sn  Sn10  1  0.250000  0.843105  0.926345  1
  Sn  Sn11  1  0.750000  0.156785  0.073943  1
  H  H12  1  0.250000  0.443508  0.919504  1
  H  H13  1  0.750000  0.556518  0.080488  1
  H  H14  1  0.750000  0.056503  0.419294  1
  H  H15  1  0.250000  0.943599  0.580448  1
