# generated using pymatgen
data_Sm6DyCoBr12
_symmetry_space_group_name_H-M   'P 1'
_cell_length_a   9.33064859
_cell_length_b   9.33064870
_cell_length_c   9.33064981
_cell_angle_alpha   106.93090974
_cell_angle_beta   106.93089676
_cell_angle_gamma   106.93089407
_symmetry_Int_Tables_number   1
_chemical_formula_structural   Sm6DyCoBr12
_chemical_formula_sum   'Sm6 Dy1 Co1 Br12'
_cell_volume   677.79215545
_cell_formula_units_Z   1
loop_
 _symmetry_equiv_pos_site_id
 _symmetry_equiv_pos_as_xyz
  1  'x, y, z'
loop_
 _atom_site_type_symbol
 _atom_site_label
 _atom_site_symmetry_multiplicity
 _atom_site_fract_x
 _atom_site_fract_y
 _atom_site_fract_z
 _atom_site_occupancy
  Sm  Sm0  1  0.975722  0.900547  0.692634  1
  Sm  Sm1  1  0.024278  0.099453  0.307366  1
  Sm  Sm2  1  0.099453  0.307366  0.024278  1
  Sm  Sm3  1  0.307366  0.024278  0.099453  1
  Sm  Sm4  1  0.900547  0.692634  0.975722  1
  Sm  Sm5  1  0.692634  0.975722  0.900547  1
  Dy  Dy6  1  0.500000  0.500000  0.500000  1
  Co  Co7  1  0.000000  0.000000  0.000000  1
  Br  Br8  1  0.532901  0.609212  0.828028  1
  Br  Br9  1  0.467099  0.390788  0.171972  1
  Br  Br10  1  0.318037  0.927057  0.773968  1
  Br  Br11  1  0.390788  0.171972  0.467099  1
  Br  Br12  1  0.927057  0.773968  0.318037  1
  Br  Br13  1  0.681963  0.072943  0.226032  1
  Br  Br14  1  0.072943  0.226032  0.681963  1
  Br  Br15  1  0.773968  0.318037  0.927057  1
  Br  Br16  1  0.226032  0.681963  0.072943  1
  Br  Br17  1  0.828028  0.532901  0.609212  1
  Br  Br18  1  0.171972  0.467099  0.390788  1
  Br  Br19  1  0.609212  0.828028  0.532901  1
