# generated using pymatgen
data_Nd3Y3NiCl10
_symmetry_space_group_name_H-M   'P 1'
_cell_length_a   7.16322165
_cell_length_b   9.05210066
_cell_length_c   9.14509604
_cell_angle_alpha   108.70707749
_cell_angle_beta   94.90315050
_cell_angle_gamma   106.47678303
_symmetry_Int_Tables_number   1
_chemical_formula_structural   Nd3Y3NiCl10
_chemical_formula_sum   'Nd3 Y3 Ni1 Cl10'
_cell_volume   528.33628839
_cell_formula_units_Z   1
loop_
 _symmetry_equiv_pos_site_id
 _symmetry_equiv_pos_as_xyz
  1  'x, y, z'
loop_
 _atom_site_type_symbol
 _atom_site_label
 _atom_site_symmetry_multiplicity
 _atom_site_fract_x
 _atom_site_fract_y
 _atom_site_fract_z
 _atom_site_occupancy
  Nd  Nd0  1  0.858500  0.944745  0.247819  1
  Nd  Nd1  1  0.144010  0.054756  0.752468  1
  Nd  Nd2  1  0.030018  0.692372  0.898495  1
  Y  Y3  1  0.968292  0.299317  0.097705  1
  Y  Y4  1  0.641587  0.866346  0.821836  1
  Y  Y5  1  0.358191  0.138607  0.179241  1
  Ni  Ni6  1  0.000980  0.999009  0.999613  1
  Cl  Cl7  1  0.642169  0.556886  0.733661  1
  Cl  Cl8  1  0.338725  0.443840  0.263658  1
  Cl  Cl9  1  0.757810  0.926104  0.563007  1
  Cl  Cl10  1  0.245398  0.076152  0.437183  1
  Cl  Cl11  1  0.913557  0.623828  0.167189  1
  Cl  Cl12  1  0.085238  0.365320  0.840554  1
  Cl  Cl13  1  0.558051  0.174077  0.927122  1
  Cl  Cl14  1  0.449240  0.833354  0.077264  1
  Cl  Cl15  1  0.238106  0.754269  0.660405  1
  Cl  Cl16  1  0.770126  0.251017  0.332781  1
