# generated using pymatgen
data_Er5Lu(Cu3Sb4)2
_symmetry_space_group_name_H-M   'P 1'
_cell_length_a   8.27330754
_cell_length_b   8.27330808
_cell_length_c   8.27330752
_cell_angle_alpha   109.53116201
_cell_angle_beta   109.35141618
_cell_angle_gamma   109.53115229
_symmetry_Int_Tables_number   1
_chemical_formula_structural   Er5Lu(Cu3Sb4)2
_chemical_formula_sum   'Er5 Lu1 Cu6 Sb8'
_cell_volume   435.92743950
_cell_formula_units_Z   1
loop_
 _symmetry_equiv_pos_site_id
 _symmetry_equiv_pos_as_xyz
  1  'x, y, z'
loop_
 _atom_site_type_symbol
 _atom_site_label
 _atom_site_symmetry_multiplicity
 _atom_site_fract_x
 _atom_site_fract_y
 _atom_site_fract_z
 _atom_site_occupancy
  Er  Er0  1  0.625000  0.750000  0.375000  1
  Er  Er1  1  0.250066  0.125054  0.875086  1
  Er  Er2  1  0.750032  0.374946  0.625012  1
  Er  Er3  1  0.124914  0.874980  0.249968  1
  Er  Er4  1  0.374988  0.625020  0.749934  1
  Lu  Lu5  1  0.875000  0.250000  0.125000  1
  Cu  Cu6  1  0.375000  0.250000  0.625000  1
  Cu  Cu7  1  0.125000  0.750000  0.875000  1
  Cu  Cu8  1  0.249005  0.623965  0.374319  1
  Cu  Cu9  1  0.750354  0.876035  0.125040  1
  Cu  Cu10  1  0.625681  0.374686  0.249646  1
  Cu  Cu11  1  0.874960  0.125314  0.750995  1
  Sb  Sb12  1  0.660465  0.499785  0.000117  1
  Sb  Sb13  1  0.500331  0.000215  0.660679  1
  Sb  Sb14  1  0.999642  0.659549  0.499385  1
  Sb  Sb15  1  0.839837  0.840451  0.840093  1
  Sb  Sb16  1  0.500615  0.000256  0.160163  1
  Sb  Sb17  1  0.159907  0.499744  0.000358  1
  Sb  Sb18  1  0.999883  0.160348  0.499669  1
  Sb  Sb19  1  0.339321  0.339652  0.339535  1
