# generated using pymatgen
data_Ho2Er3ReOsC7
_symmetry_space_group_name_H-M   'P 1'
_cell_length_a   8.20428050
_cell_length_b   8.20016181
_cell_length_c   3.44744000
_cell_angle_alpha   90.00000000
_cell_angle_beta   90.00000000
_cell_angle_gamma   122.12004655
_symmetry_Int_Tables_number   1
_chemical_formula_structural   Ho2Er3ReOsC7
_chemical_formula_sum   'Ho2 Er3 Re1 Os1 C7'
_cell_volume   196.43107958
_cell_formula_units_Z   1
loop_
 _symmetry_equiv_pos_site_id
 _symmetry_equiv_pos_as_xyz
  1  'x, y, z'
loop_
 _atom_site_type_symbol
 _atom_site_label
 _atom_site_symmetry_multiplicity
 _atom_site_fract_x
 _atom_site_fract_y
 _atom_site_fract_z
 _atom_site_occupancy
  Ho  Ho0  1  0.500791  0.499590  0.000000  1
  Ho  Ho1  1  0.075438  0.335892  0.500000  1
  Er  Er2  1  0.922044  0.662304  0.500000  1
  Er  Er3  1  0.662762  0.923847  0.500000  1
  Er  Er4  1  0.338161  0.077704  0.500000  1
  Re  Re5  1  0.284636  0.715449  0.000000  1
  Os  Os6  1  0.713389  0.286607  0.000000  1
  C  C7  1  0.630437  0.369699  0.500000  1
  C  C8  1  0.374487  0.625803  0.500000  1
  C  C9  1  0.999707  0.000289  0.000000  1
  C  C10  1  0.171372  0.170498  0.000000  1
  C  C11  1  0.828595  0.829496  0.000000  1
  C  C12  1  0.999089  0.501831  0.000000  1
  C  C13  1  0.499093  0.000987  0.000000  1
