# generated using pymatgen
data_Ca3Lu(Rh2O7)2
_symmetry_space_group_name_H-M   'P 1'
_cell_length_a   7.24894072
_cell_length_b   7.24894096
_cell_length_c   7.24893999
_cell_angle_alpha   59.76530979
_cell_angle_beta   59.76530420
_cell_angle_gamma   59.76531223
_symmetry_Int_Tables_number   1
_chemical_formula_structural   Ca3Lu(Rh2O7)2
_chemical_formula_sum   'Ca3 Lu1 Rh4 O14'
_cell_volume   267.90951869
_cell_formula_units_Z   1
loop_
 _symmetry_equiv_pos_site_id
 _symmetry_equiv_pos_as_xyz
  1  'x, y, z'
loop_
 _atom_site_type_symbol
 _atom_site_label
 _atom_site_symmetry_multiplicity
 _atom_site_fract_x
 _atom_site_fract_y
 _atom_site_fract_z
 _atom_site_occupancy
  Ca  Ca0  1  0.125000  0.625000  0.125000  1
  Ca  Ca1  1  0.625000  0.125000  0.125000  1
  Ca  Ca2  1  0.125000  0.125000  0.625000  1
  Lu  Lu3  1  0.125000  0.125000  0.125000  1
  Rh  Rh4  1  0.625000  0.625000  0.625000  1
  Rh  Rh5  1  0.625000  0.625000  0.125000  1
  Rh  Rh6  1  0.125000  0.625000  0.625000  1
  Rh  Rh7  1  0.625000  0.125000  0.625000  1
  O  O8  1  0.244436  0.244436  0.244436  1
  O  O9  1  0.295910  0.715865  0.295910  1
  O  O10  1  0.954090  0.954090  0.534135  1
  O  O11  1  0.548737  0.952587  0.548737  1
  O  O12  1  0.701263  0.701263  0.297413  1
  O  O13  1  0.952587  0.548737  0.548737  1
  O  O14  1  0.701263  0.297413  0.701263  1
  O  O15  1  0.295910  0.295910  0.715865  1
  O  O16  1  0.715865  0.295910  0.295910  1
  O  O17  1  0.297413  0.701263  0.701263  1
  O  O18  1  0.954090  0.534135  0.954090  1
  O  O19  1  0.548737  0.548737  0.952587  1
  O  O20  1  0.005564  0.005564  0.005564  1
  O  O21  1  0.534135  0.954090  0.954090  1
