# generated using pymatgen
data_La6ZnCuRh16
_symmetry_space_group_name_H-M   'P 1'
_cell_length_a   5.42218300
_cell_length_b   5.42218206
_cell_length_c   17.48926200
_cell_angle_alpha   90.00000000
_cell_angle_beta   90.00000000
_cell_angle_gamma   119.99998745
_symmetry_Int_Tables_number   1
_chemical_formula_structural   La6ZnCuRh16
_chemical_formula_sum   'La6 Zn1 Cu1 Rh16'
_cell_volume   445.29768469
_cell_formula_units_Z   1
loop_
 _symmetry_equiv_pos_site_id
 _symmetry_equiv_pos_as_xyz
  1  'x, y, z'
loop_
 _atom_site_type_symbol
 _atom_site_label
 _atom_site_symmetry_multiplicity
 _atom_site_fract_x
 _atom_site_fract_y
 _atom_site_fract_z
 _atom_site_occupancy
  La  La0  1  0.333333  0.666667  0.541630  1
  La  La1  1  0.666667  0.333333  0.041803  1
  La  La2  1  0.666667  0.333333  0.458197  1
  La  La3  1  0.333333  0.666667  0.958370  1
  La  La4  1  0.333333  0.666667  0.750000  1
  La  La5  1  0.666667  0.333333  0.250000  1
  Zn  Zn6  1  0.000000  0.000000  0.750000  1
  Cu  Cu7  1  0.000000  0.000000  0.250000  1
  Rh  Rh8  1  0.167046  0.334090  0.127674  1
  Rh  Rh9  1  0.832413  0.664827  0.627502  1
  Rh  Rh10  1  0.665910  0.832954  0.127674  1
  Rh  Rh11  1  0.167046  0.832954  0.127674  1
  Rh  Rh12  1  0.832413  0.167587  0.627502  1
  Rh  Rh13  1  0.335173  0.167587  0.627502  1
  Rh  Rh14  1  0.832413  0.664827  0.872498  1
  Rh  Rh15  1  0.832413  0.167587  0.872498  1
  Rh  Rh16  1  0.335173  0.167587  0.872498  1
  Rh  Rh17  1  0.665910  0.832954  0.372326  1
  Rh  Rh18  1  0.167046  0.832954  0.372326  1
  Rh  Rh19  1  0.167046  0.334090  0.372326  1
  Rh  Rh20  1  0.333333  0.666667  0.250000  1
  Rh  Rh21  1  0.666667  0.333333  0.750000  1
  Rh  Rh22  1  0.000000  0.000000  0.999610  1
  Rh  Rh23  1  0.000000  0.000000  0.500390  1
