# generated using pymatgen
data_Hf7ScTi4(Si2Mo)8
_symmetry_space_group_name_H-M   'P 1'
_cell_length_a   6.56280134
_cell_length_b   6.74780366
_cell_length_c   12.75756407
_cell_angle_alpha   90.02053702
_cell_angle_beta   89.98033220
_cell_angle_gamma   90.01369990
_symmetry_Int_Tables_number   1
_chemical_formula_structural   Hf7ScTi4(Si2Mo)8
_chemical_formula_sum   'Hf7 Sc1 Ti4 Si16 Mo8'
_cell_volume   564.96219589
_cell_formula_units_Z   1
loop_
 _symmetry_equiv_pos_site_id
 _symmetry_equiv_pos_as_xyz
  1  'x, y, z'
loop_
 _atom_site_type_symbol
 _atom_site_label
 _atom_site_symmetry_multiplicity
 _atom_site_fract_x
 _atom_site_fract_y
 _atom_site_fract_z
 _atom_site_occupancy
  Hf  Hf0  1  0.002397  0.826903  0.904027  1
  Hf  Hf1  1  0.502093  0.671429  0.904929  1
  Hf  Hf2  1  0.002812  0.828760  0.594914  1
  Hf  Hf3  1  0.498751  0.328479  0.095533  1
  Hf  Hf4  1  0.997805  0.172031  0.404683  1
  Hf  Hf5  1  0.497914  0.328167  0.404765  1
  Hf  Hf6  1  0.502785  0.671803  0.594992  1
  Sc  Sc7  1  0.997112  0.170956  0.093446  1
  Ti  Ti8  1  0.160771  0.498759  0.750201  1
  Ti  Ti9  1  0.839001  0.503642  0.251101  1
  Ti  Ti10  1  0.340186  0.997524  0.250589  1
  Ti  Ti11  1  0.660706  0.001998  0.749733  1
  Si  Si12  1  0.035688  0.120518  0.750812  1
  Si  Si13  1  0.964479  0.880894  0.249811  1
  Si  Si14  1  0.463675  0.619370  0.250460  1
  Si  Si15  1  0.535687  0.380329  0.750077  1
  Si  Si16  1  0.297080  0.862007  0.749937  1
  Si  Si17  1  0.704332  0.137776  0.249162  1
  Si  Si18  1  0.201936  0.361398  0.249142  1
  Si  Si19  1  0.796642  0.638160  0.749899  1
  Si  Si20  1  0.170222  0.459611  0.540534  1
  Si  Si21  1  0.830308  0.540213  0.459819  1
  Si  Si22  1  0.330373  0.959951  0.459529  1
  Si  Si23  1  0.831511  0.539277  0.041120  1
  Si  Si24  1  0.669734  0.040638  0.540373  1
  Si  Si25  1  0.169479  0.460028  0.959211  1
  Si  Si26  1  0.668849  0.039402  0.959238  1
  Si  Si27  1  0.330592  0.960604  0.040695  1
  Mo  Mo28  1  0.336037  0.166309  0.623664  1
  Mo  Mo29  1  0.663154  0.833235  0.376641  1
  Mo  Mo30  1  0.163207  0.666920  0.376850  1
  Mo  Mo31  1  0.662198  0.831208  0.123756  1
  Mo  Mo32  1  0.836471  0.333563  0.623714  1
  Mo  Mo33  1  0.336915  0.165937  0.876226  1
  Mo  Mo34  1  0.834848  0.334811  0.876373  1
  Mo  Mo35  1  0.164250  0.667395  0.124047  1
