# generated using pymatgen
data_DyPa4Ga15
_symmetry_space_group_name_H-M   'P 1'
_cell_length_a   12.61302428
_cell_length_b   12.61302455
_cell_length_c   12.61302422
_cell_angle_alpha   28.07824148
_cell_angle_beta   28.07823823
_cell_angle_gamma   28.07823869
_symmetry_Int_Tables_number   1
_chemical_formula_structural   DyPa4Ga15
_chemical_formula_sum   'Dy1 Pa4 Ga15'
_cell_volume   392.67225585
_cell_formula_units_Z   1
loop_
 _symmetry_equiv_pos_site_id
 _symmetry_equiv_pos_as_xyz
  1  'x, y, z'
loop_
 _atom_site_type_symbol
 _atom_site_label
 _atom_site_symmetry_multiplicity
 _atom_site_fract_x
 _atom_site_fract_y
 _atom_site_fract_z
 _atom_site_occupancy
  Dy  Dy0  1  0.000000  0.000000  0.000000  1
  Pa  Pa1  1  0.869731  0.869731  0.869731  1
  Pa  Pa2  1  0.130269  0.130269  0.130269  1
  Pa  Pa3  1  0.599055  0.599055  0.599055  1
  Pa  Pa4  1  0.400945  0.400945  0.400945  1
  Ga  Ga5  1  0.500000  0.500000  0.000000  1
  Ga  Ga6  1  0.000000  0.500000  0.500000  1
  Ga  Ga7  1  0.500000  0.000000  0.500000  1
  Ga  Ga8  1  0.363703  0.870502  0.363703  1
  Ga  Ga9  1  0.363703  0.363703  0.870502  1
  Ga  Ga10  1  0.870502  0.363703  0.363703  1
  Ga  Ga11  1  0.636297  0.129498  0.636297  1
  Ga  Ga12  1  0.636297  0.636297  0.129498  1
  Ga  Ga13  1  0.129498  0.636297  0.636297  1
  Ga  Ga14  1  0.116767  0.568136  0.116767  1
  Ga  Ga15  1  0.116767  0.116767  0.568136  1
  Ga  Ga16  1  0.568136  0.116767  0.116767  1
  Ga  Ga17  1  0.883233  0.431864  0.883233  1
  Ga  Ga18  1  0.883233  0.883233  0.431864  1
  Ga  Ga19  1  0.431864  0.883233  0.883233  1
