# generated using pymatgen
data_Sr8LiCd2Si12Hg
_symmetry_space_group_name_H-M   'P 1'
_cell_length_a   11.95242203
_cell_length_b   10.26212846
_cell_length_c   8.52682012
_cell_angle_alpha   78.39415772
_cell_angle_beta   57.15496342
_cell_angle_gamma   45.09356123
_symmetry_Int_Tables_number   1
_chemical_formula_structural   Sr8LiCd2Si12Hg
_chemical_formula_sum   'Sr8 Li1 Cd2 Si12 Hg1'
_cell_volume   592.60966035
_cell_formula_units_Z   1
loop_
 _symmetry_equiv_pos_site_id
 _symmetry_equiv_pos_as_xyz
  1  'x, y, z'
loop_
 _atom_site_type_symbol
 _atom_site_label
 _atom_site_symmetry_multiplicity
 _atom_site_fract_x
 _atom_site_fract_y
 _atom_site_fract_z
 _atom_site_occupancy
  Sr  Sr0  1  0.127144  0.124295  0.873152  1
  Sr  Sr1  1  0.873477  0.875286  0.127148  1
  Sr  Sr2  1  0.130465  0.127775  0.370610  1
  Sr  Sr3  1  0.371417  0.371713  0.129376  1
  Sr  Sr4  1  0.624610  0.623885  0.375815  1
  Sr  Sr5  1  0.375359  0.375762  0.624356  1
  Sr  Sr6  1  0.628089  0.628986  0.871519  1
  Sr  Sr7  1  0.870605  0.871870  0.629640  1
  Li  Li8  1  0.417056  0.083192  0.418253  1
  Cd  Cd9  1  0.833126  0.166642  0.831232  1
  Cd  Cd10  1  0.166842  0.833584  0.168742  1
  Si  Si11  1  0.910035  0.596873  0.432747  1
  Si  Si12  1  0.075286  0.419068  0.588172  1
  Si  Si13  1  0.431826  0.062028  0.910936  1
  Si  Si14  1  0.589443  0.915955  0.073488  1
  Si  Si15  1  0.336070  0.652477  0.822059  1
  Si  Si16  1  0.652983  0.336653  0.189065  1
  Si  Si17  1  0.825250  0.184566  0.334224  1
  Si  Si18  1  0.184770  0.824753  0.655808  1
  Si  Si19  1  0.907465  0.593396  0.908938  1
  Si  Si20  1  0.586000  0.913593  0.584097  1
  Si  Si21  1  0.340105  0.659633  0.338657  1
  Si  Si22  1  0.659979  0.340978  0.660666  1
  Hg  Hg23  1  0.082602  0.417042  0.081296  1
