# generated using pymatgen
data_Y5Hf3(Ni4As3)4
_symmetry_space_group_name_H-M   'P 1'
_cell_length_a   12.76539200
_cell_length_b   12.76539134
_cell_length_c   3.93781900
_cell_angle_alpha   90.00000000
_cell_angle_beta   90.00000000
_cell_angle_gamma   120.00000171
_symmetry_Int_Tables_number   1
_chemical_formula_structural   Y5Hf3(Ni4As3)4
_chemical_formula_sum   'Y5 Hf3 Ni16 As12'
_cell_volume   555.71825491
_cell_formula_units_Z   1
loop_
 _symmetry_equiv_pos_site_id
 _symmetry_equiv_pos_as_xyz
  1  'x, y, z'
loop_
 _atom_site_type_symbol
 _atom_site_label
 _atom_site_symmetry_multiplicity
 _atom_site_fract_x
 _atom_site_fract_y
 _atom_site_fract_z
 _atom_site_occupancy
  Y  Y0  1  0.184460  0.184460  0.500000  1
  Y  Y1  1  0.815540  0.000000  0.500000  1
  Y  Y2  1  0.000000  0.815540  0.500000  1
  Y  Y3  1  0.333333  0.666667  0.000000  1
  Y  Y4  1  0.666667  0.333333  0.000000  1
  Hf  Hf5  1  0.564112  0.564112  0.000000  1
  Hf  Hf6  1  0.435888  0.000000  0.000000  1
  Hf  Hf7  1  0.000000  0.435888  0.000000  1
  Ni  Ni8  1  0.722180  0.722180  0.500000  1
  Ni  Ni9  1  0.277820  0.000000  0.500000  1
  Ni  Ni10  1  0.000000  0.277820  0.500000  1
  Ni  Ni11  1  0.182356  0.376819  0.000000  1
  Ni  Ni12  1  0.623181  0.805537  0.000000  1
  Ni  Ni13  1  0.194463  0.817644  0.000000  1
  Ni  Ni14  1  0.805537  0.623181  0.000000  1
  Ni  Ni15  1  0.817644  0.194463  0.000000  1
  Ni  Ni16  1  0.376819  0.182356  0.000000  1
  Ni  Ni17  1  0.363193  0.483287  0.500000  1
  Ni  Ni18  1  0.516713  0.879908  0.500000  1
  Ni  Ni19  1  0.120092  0.636807  0.500000  1
  Ni  Ni20  1  0.879908  0.516713  0.500000  1
  Ni  Ni21  1  0.636807  0.120092  0.500000  1
  Ni  Ni22  1  0.483287  0.363193  0.500000  1
  Ni  Ni23  1  0.000000  0.000000  0.000000  1
  As  As24  1  0.821846  0.821846  0.000000  1
  As  As25  1  0.178154  0.000000  0.000000  1
  As  As26  1  0.000000  0.178154  0.000000  1
  As  As27  1  0.172013  0.479207  0.500000  1
  As  As28  1  0.520793  0.692807  0.500000  1
  As  As29  1  0.307193  0.827987  0.500000  1
  As  As30  1  0.692807  0.520793  0.500000  1
  As  As31  1  0.827987  0.307193  0.500000  1
  As  As32  1  0.479207  0.172013  0.500000  1
  As  As33  1  0.356517  0.356517  0.000000  1
  As  As34  1  0.643483  0.000000  0.000000  1
  As  As35  1  0.000000  0.643483  0.000000  1
