# generated using pymatgen
data_Yb12CeDy2ErSb12
_symmetry_space_group_name_H-M   'P 1'
_cell_length_a   9.41327637
_cell_length_b   9.41247110
_cell_length_c   9.41224133
_cell_angle_alpha   90.07636475
_cell_angle_beta   90.06694205
_cell_angle_gamma   89.93482125
_symmetry_Int_Tables_number   1
_chemical_formula_structural   Yb12CeDy2ErSb12
_chemical_formula_sum   'Yb12 Ce1 Dy2 Er1 Sb12'
_cell_volume   833.94336307
_cell_formula_units_Z   1
loop_
 _symmetry_equiv_pos_site_id
 _symmetry_equiv_pos_as_xyz
  1  'x, y, z'
loop_
 _atom_site_type_symbol
 _atom_site_label
 _atom_site_symmetry_multiplicity
 _atom_site_fract_x
 _atom_site_fract_y
 _atom_site_fract_z
 _atom_site_occupancy
  Yb  Yb0  1  0.822149  0.322129  0.177852  1
  Yb  Yb1  1  0.929955  0.930763  0.930919  1
  Yb  Yb2  1  0.825364  0.674775  0.325885  1
  Yb  Yb3  1  0.177112  0.823156  0.323052  1
  Yb  Yb4  1  0.174753  0.174095  0.174671  1
  Yb  Yb5  1  0.326110  0.826123  0.673842  1
  Yb  Yb6  1  0.068910  0.429849  0.569261  1
  Yb  Yb7  1  0.323085  0.177017  0.822804  1
  Yb  Yb8  1  0.674163  0.325315  0.825196  1
  Yb  Yb9  1  0.677039  0.677183  0.676906  1
  Yb  Yb10  1  0.569249  0.069127  0.430934  1
  Yb  Yb11  1  0.430732  0.568950  0.070044  1
  Ce  Ce12  1  0.071968  0.571971  0.928035  1
  Dy  Dy13  1  0.430107  0.429734  0.429595  1
  Dy  Dy14  1  0.570428  0.930110  0.070239  1
  Er  Er15  1  0.929870  0.070367  0.569835  1
  Sb  Sb16  1  0.746399  0.369457  0.500499  1
  Sb  Sb17  1  0.869893  0.999674  0.254446  1
  Sb  Sb18  1  0.999535  0.756562  0.627310  1
  Sb  Sb19  1  0.245059  0.129703  0.499752  1
  Sb  Sb20  1  0.131313  0.498881  0.250482  1
  Sb  Sb21  1  0.998825  0.249303  0.868330  1
  Sb  Sb22  1  0.255883  0.872558  0.000338  1
  Sb  Sb23  1  0.372567  0.499637  0.744132  1
  Sb  Sb24  1  0.499583  0.246188  0.130264  1
  Sb  Sb25  1  0.749483  0.631330  0.001095  1
  Sb  Sb26  1  0.630118  0.000409  0.754135  1
  Sb  Sb27  1  0.500350  0.745633  0.370144  1
