# generated using pymatgen
data_Ho2ZnInRh
_symmetry_space_group_name_H-M   'P 1'
_cell_length_a   7.69248100
_cell_length_b   7.70618000
_cell_length_c   3.71186000
_cell_angle_alpha   90.00000000
_cell_angle_beta   90.00000000
_cell_angle_gamma   90.00000000
_symmetry_Int_Tables_number   1
_chemical_formula_structural   Ho2ZnInRh
_chemical_formula_sum   'Ho4 Zn2 In2 Rh2'
_cell_volume   220.03773653
_cell_formula_units_Z   2
loop_
 _symmetry_equiv_pos_site_id
 _symmetry_equiv_pos_as_xyz
  1  'x, y, z'
loop_
 _atom_site_type_symbol
 _atom_site_label
 _atom_site_symmetry_multiplicity
 _atom_site_fract_x
 _atom_site_fract_y
 _atom_site_fract_z
 _atom_site_occupancy
  Ho  Ho0  1  0.331332  0.807550  0.500000  1
  Ho  Ho1  1  0.831332  0.692450  0.500000  1
  Ho  Ho2  1  0.176375  0.351646  0.500000  1
  Ho  Ho3  1  0.676375  0.148354  0.500000  1
  Zn  Zn4  1  0.371840  0.117638  0.000000  1
  Zn  Zn5  1  0.871840  0.382362  0.000000  1
  In  In6  1  0.004878  0.003670  0.000000  1
  In  In7  1  0.504878  0.496330  0.000000  1
  Rh  Rh8  1  0.115574  0.621148  0.000000  1
  Rh  Rh9  1  0.615574  0.878852  0.000000  1
