# generated using pymatgen
data_Dy13Y3(InRu)4
_symmetry_space_group_name_H-M   'P 1'
_cell_length_a   9.63668970
_cell_length_b   9.63668942
_cell_length_c   9.63621501
_cell_angle_alpha   59.99836742
_cell_angle_beta   59.99836980
_cell_angle_gamma   60.00000231
_symmetry_Int_Tables_number   1
_chemical_formula_structural   Dy13Y3(InRu)4
_chemical_formula_sum   'Dy13 Y3 In4 Ru4'
_cell_volume   632.75635990
_cell_formula_units_Z   1
loop_
 _symmetry_equiv_pos_site_id
 _symmetry_equiv_pos_as_xyz
  1  'x, y, z'
loop_
 _atom_site_type_symbol
 _atom_site_label
 _atom_site_symmetry_multiplicity
 _atom_site_fract_x
 _atom_site_fract_y
 _atom_site_fract_z
 _atom_site_occupancy
  Dy  Dy0  1  0.058832  0.058832  0.441387  1
  Dy  Dy1  1  0.440950  0.058832  0.441387  1
  Dy  Dy2  1  0.058832  0.440950  0.441387  1
  Dy  Dy3  1  0.808636  0.808636  0.191468  1
  Dy  Dy4  1  0.191261  0.808636  0.191468  1
  Dy  Dy5  1  0.808636  0.191261  0.191468  1
  Dy  Dy6  1  0.191485  0.191485  0.808233  1
  Dy  Dy7  1  0.808797  0.191485  0.808233  1
  Dy  Dy8  1  0.191485  0.808797  0.808233  1
  Dy  Dy9  1  0.651497  0.651497  0.045510  1
  Dy  Dy10  1  0.651466  0.045612  0.651456  1
  Dy  Dy11  1  0.045612  0.651466  0.651456  1
  Dy  Dy12  1  0.651466  0.651466  0.651456  1
  Y  Y13  1  0.441105  0.441105  0.058967  1
  Y  Y14  1  0.058824  0.441105  0.058967  1
  Y  Y15  1  0.441105  0.058824  0.058967  1
  In  In16  1  0.417713  0.417713  0.746861  1
  In  In17  1  0.417808  0.746593  0.417791  1
  In  In18  1  0.746593  0.417808  0.417791  1
  In  In19  1  0.417808  0.417808  0.417791  1
  Ru  Ru20  1  0.860329  0.860329  0.419013  1
  Ru  Ru21  1  0.860592  0.418578  0.860237  1
  Ru  Ru22  1  0.418578  0.860592  0.860237  1
  Ru  Ru23  1  0.860592  0.860592  0.860237  1
