# generated using pymatgen
data_DyY9Si16Sn
_symmetry_space_group_name_H-M   'P 1'
_cell_length_a   11.13175180
_cell_length_b   11.07429540
_cell_length_c   11.13150477
_cell_angle_alpha   144.70366213
_cell_angle_beta   135.91370306
_cell_angle_gamma   57.79432782
_symmetry_Int_Tables_number   1
_chemical_formula_structural   DyY9Si16Sn
_chemical_formula_sum   'Dy1 Y9 Si16 Sn1'
_cell_volume   546.78009291
_cell_formula_units_Z   1
loop_
 _symmetry_equiv_pos_site_id
 _symmetry_equiv_pos_as_xyz
  1  'x, y, z'
loop_
 _atom_site_type_symbol
 _atom_site_label
 _atom_site_symmetry_multiplicity
 _atom_site_fract_x
 _atom_site_fract_y
 _atom_site_fract_z
 _atom_site_occupancy
  Dy  Dy0  1  0.647980  0.163968  0.013511  1
  Y  Y1  1  0.756290  0.759903  0.517557  1
  Y  Y2  1  0.441137  0.971517  0.015631  1
  Y  Y3  1  0.848086  0.368849  0.018712  1
  Y  Y4  1  0.955933  0.971590  0.530478  1
  Y  Y5  1  0.150421  0.164050  0.515963  1
  Y  Y6  1  0.350112  0.368843  0.520714  1
  Y  Y7  1  0.242287  0.759917  0.003515  1
  Y  Y8  1  0.545374  0.558639  0.497537  1
  Y  Y9  1  0.061098  0.558671  0.013307  1
  Si  Si10  1  0.199074  0.579735  0.380617  1
  Si  Si11  1  0.000125  0.083977  0.083852  1
  Si  Si12  1  0.697729  0.280052  0.582362  1
  Si  Si13  1  0.799803  0.177654  0.377797  1
  Si  Si14  1  0.895450  0.501449  0.605939  1
  Si  Si15  1  0.417941  0.871268  0.453474  1
  Si  Si16  1  0.103862  0.712964  0.609139  1
  Si  Si17  1  0.301365  0.894653  0.593434  1
  Si  Si18  1  0.578462  0.038971  0.460470  1
  Si  Si19  1  0.999279  0.430874  0.431396  1
  Si  Si20  1  0.882658  0.839118  0.956320  1
  Si  Si21  1  0.401420  0.499900  0.098654  1
  Si  Si22  1  0.117814  0.083365  0.965573  1
  Si  Si23  1  0.288204  0.238501  0.950421  1
  Si  Si24  1  0.499440  0.385335  0.886051  1
  Si  Si25  1  0.595723  0.705059  0.109339  1
  Sn  Sn26  1  0.722931  0.692676  0.969732  1
