# generated using pymatgen
data_DyEr2Al12RuRh3
_symmetry_space_group_name_H-M   'P 1'
_cell_length_a   8.81926933
_cell_length_b   8.81926847
_cell_length_c   9.48473700
_cell_angle_alpha   90.00000000
_cell_angle_beta   90.00000000
_cell_angle_gamma   120.06297714
_symmetry_Int_Tables_number   1
_chemical_formula_structural   DyEr2Al12RuRh3
_chemical_formula_sum   'Dy2 Er4 Al24 Ru2 Rh6'
_cell_volume   638.47682893
_cell_formula_units_Z   2
loop_
 _symmetry_equiv_pos_site_id
 _symmetry_equiv_pos_as_xyz
  1  'x, y, z'
loop_
 _atom_site_type_symbol
 _atom_site_label
 _atom_site_symmetry_multiplicity
 _atom_site_fract_x
 _atom_site_fract_y
 _atom_site_fract_z
 _atom_site_occupancy
  Dy  Dy0  1  0.808524  0.616872  0.750000  1
  Dy  Dy1  1  0.383128  0.191476  0.750000  1
  Er  Er2  1  0.192495  0.807505  0.250000  1
  Er  Er3  1  0.192594  0.385083  0.250000  1
  Er  Er4  1  0.614917  0.807406  0.250000  1
  Er  Er5  1  0.807997  0.192003  0.750000  1
  Al  Al6  1  0.561509  0.438491  0.250000  1
  Al  Al7  1  0.561422  0.123060  0.250000  1
  Al  Al8  1  0.876940  0.438578  0.250000  1
  Al  Al9  1  0.438065  0.561935  0.750000  1
  Al  Al10  1  0.438551  0.876519  0.750000  1
  Al  Al11  1  0.123481  0.561449  0.750000  1
  Al  Al12  1  0.325886  0.162947  0.423616  1
  Al  Al13  1  0.837161  0.162839  0.423784  1
  Al  Al14  1  0.837053  0.674114  0.423616  1
  Al  Al15  1  0.674055  0.837272  0.576095  1
  Al  Al16  1  0.163010  0.836990  0.576030  1
  Al  Al17  1  0.162728  0.325945  0.576095  1
  Al  Al18  1  0.674055  0.837272  0.923905  1
  Al  Al19  1  0.163010  0.836990  0.923970  1
  Al  Al20  1  0.162728  0.325945  0.923905  1
  Al  Al21  1  0.325886  0.162947  0.076384  1
  Al  Al22  1  0.837161  0.162839  0.076216  1
  Al  Al23  1  0.837053  0.674114  0.076384  1
  Al  Al24  1  0.666813  0.333187  0.529380  1
  Al  Al25  1  0.333441  0.666559  0.470017  1
  Al  Al26  1  0.333441  0.666559  0.029983  1
  Al  Al27  1  0.666813  0.333187  0.970620  1
  Al  Al28  1  0.999900  0.000100  0.250000  1
  Al  Al29  1  0.999732  0.000268  0.750000  1
  Ru  Ru30  1  0.000049  0.999951  0.499505  1
  Ru  Ru31  1  0.000049  0.999951  0.000495  1
  Rh  Rh32  1  0.499877  0.500123  0.499558  1
  Rh  Rh33  1  0.500068  0.999768  0.499657  1
  Rh  Rh34  1  0.000232  0.499932  0.499657  1
  Rh  Rh35  1  0.499877  0.500123  0.000442  1
  Rh  Rh36  1  0.500068  0.999768  0.000343  1
  Rh  Rh37  1  0.000232  0.499932  0.000343  1
