# generated using pymatgen
data_Ho2Lu4Al24AgOs7
_symmetry_space_group_name_H-M   'P 1'
_cell_length_a   8.82281558
_cell_length_b   8.83314919
_cell_length_c   9.52759992
_cell_angle_alpha   90.03421249
_cell_angle_beta   89.70564166
_cell_angle_gamma   119.86549867
_symmetry_Int_Tables_number   1
_chemical_formula_structural   Ho2Lu4Al24AgOs7
_chemical_formula_sum   'Ho2 Lu4 Al24 Ag1 Os7'
_cell_volume   643.89801297
_cell_formula_units_Z   1
loop_
 _symmetry_equiv_pos_site_id
 _symmetry_equiv_pos_as_xyz
  1  'x, y, z'
loop_
 _atom_site_type_symbol
 _atom_site_label
 _atom_site_symmetry_multiplicity
 _atom_site_fract_x
 _atom_site_fract_y
 _atom_site_fract_z
 _atom_site_occupancy
  Ho  Ho0  1  0.196261  0.810374  0.251505  1
  Ho  Ho1  1  0.803739  0.189626  0.748495  1
  Lu  Lu2  1  0.199722  0.390956  0.252666  1
  Lu  Lu3  1  0.800278  0.609044  0.747334  1
  Lu  Lu4  1  0.607420  0.803873  0.252905  1
  Lu  Lu5  1  0.392580  0.196127  0.747095  1
  Al  Al6  1  0.343027  0.671661  0.024625  1
  Al  Al7  1  0.656973  0.328339  0.975375  1
  Al  Al8  1  0.667397  0.333364  0.519747  1
  Al  Al9  1  0.332603  0.666636  0.480253  1
  Al  Al10  1  0.163233  0.325587  0.575545  1
  Al  Al11  1  0.836767  0.674413  0.424455  1
  Al  Al12  1  0.673535  0.836212  0.574824  1
  Al  Al13  1  0.829148  0.678234  0.080225  1
  Al  Al14  1  0.326465  0.163788  0.425176  1
  Al  Al15  1  0.170852  0.321766  0.919775  1
  Al  Al16  1  0.162779  0.837001  0.576046  1
  Al  Al17  1  0.326592  0.163936  0.076541  1
  Al  Al18  1  0.837221  0.162999  0.423954  1
  Al  Al19  1  0.673408  0.836064  0.923459  1
  Al  Al20  1  0.829384  0.151433  0.080908  1
  Al  Al21  1  0.170616  0.848567  0.919092  1
  Al  Al22  1  0.561166  0.121797  0.249589  1
  Al  Al23  1  0.438834  0.878203  0.750411  1
  Al  Al24  1  0.874226  0.436797  0.255850  1
  Al  Al25  1  0.125774  0.563203  0.744150  1
  Al  Al26  1  0.560751  0.439586  0.249453  1
  Al  Al27  1  0.439249  0.560414  0.750547  1
  Al  Al28  1  0.999770  0.002798  0.250475  1
  Al  Al29  1  0.000230  0.997202  0.749525  1
  Ag  Ag30  1  0.000000  0.500000  0.000000  1
  Os  Os31  1  0.500000  0.000000  0.000000  1
  Os  Os32  1  0.500000  0.000000  0.500000  1
  Os  Os33  1  0.500000  0.500000  0.000000  1
  Os  Os34  1  0.000000  0.500000  0.500000  1
  Os  Os35  1  0.500000  0.500000  0.500000  1
  Os  Os36  1  0.000000  0.000000  0.000000  1
  Os  Os37  1  0.000000  0.000000  0.500000  1
