# generated using pymatgen
data_Lu5Zr3(Co4P3)4
_symmetry_space_group_name_H-M   'P 1'
_cell_length_a   12.22613600
_cell_length_b   12.22613568
_cell_length_c   3.68212200
_cell_angle_alpha   90.00000000
_cell_angle_beta   90.00000000
_cell_angle_gamma   120.00000086
_symmetry_Int_Tables_number   1
_chemical_formula_structural   Lu5Zr3(Co4P3)4
_chemical_formula_sum   'Lu5 Zr3 Co16 P12'
_cell_volume   476.65838313
_cell_formula_units_Z   1
loop_
 _symmetry_equiv_pos_site_id
 _symmetry_equiv_pos_as_xyz
  1  'x, y, z'
loop_
 _atom_site_type_symbol
 _atom_site_label
 _atom_site_symmetry_multiplicity
 _atom_site_fract_x
 _atom_site_fract_y
 _atom_site_fract_z
 _atom_site_occupancy
  Lu  Lu0  1  0.666667  0.333333  0.000000  1
  Lu  Lu1  1  0.333333  0.666667  0.000000  1
  Lu  Lu2  1  0.818174  0.818174  0.500000  1
  Lu  Lu3  1  0.181826  0.000000  0.500000  1
  Lu  Lu4  1  0.000000  0.181826  0.500000  1
  Zr  Zr5  1  0.441932  0.441932  0.000000  1
  Zr  Zr6  1  0.558068  0.000000  0.000000  1
  Zr  Zr7  1  0.000000  0.558068  0.000000  1
  Co  Co8  1  0.874694  0.355048  0.500000  1
  Co  Co9  1  0.644952  0.519646  0.500000  1
  Co  Co10  1  0.480354  0.125306  0.500000  1
  Co  Co11  1  0.355048  0.874694  0.500000  1
  Co  Co12  1  0.519646  0.644952  0.500000  1
  Co  Co13  1  0.125306  0.480354  0.500000  1
  Co  Co14  1  0.806249  0.178702  0.000000  1
  Co  Co15  1  0.821298  0.627546  0.000000  1
  Co  Co16  1  0.372454  0.193751  0.000000  1
  Co  Co17  1  0.178702  0.806249  0.000000  1
  Co  Co18  1  0.627546  0.821298  0.000000  1
  Co  Co19  1  0.193751  0.372454  0.000000  1
  Co  Co20  1  0.276202  0.276202  0.500000  1
  Co  Co21  1  0.723798  0.000000  0.500000  1
  Co  Co22  1  0.000000  0.723798  0.500000  1
  Co  Co23  1  0.000000  0.000000  0.000000  1
  P  P24  1  0.693026  0.173080  0.500000  1
  P  P25  1  0.826920  0.519947  0.500000  1
  P  P26  1  0.480053  0.306974  0.500000  1
  P  P27  1  0.173080  0.693026  0.500000  1
  P  P28  1  0.519947  0.826920  0.500000  1
  P  P29  1  0.306974  0.480053  0.500000  1
  P  P30  1  0.176789  0.176789  0.000000  1
  P  P31  1  0.823211  0.000000  0.000000  1
  P  P32  1  0.000000  0.823211  0.000000  1
  P  P33  1  0.650757  0.650757  0.000000  1
  P  P34  1  0.349243  0.000000  0.000000  1
  P  P35  1  0.000000  0.349243  0.000000  1
