# generated using pymatgen
data_Cr2In(Sb6Os)2
_symmetry_space_group_name_H-M   'P 1'
_cell_length_a   8.19900967
_cell_length_b   8.28737402
_cell_length_c   8.28737392
_cell_angle_alpha   110.24686436
_cell_angle_beta   109.42779836
_cell_angle_gamma   109.16946900
_symmetry_Int_Tables_number   1
_chemical_formula_structural   Cr2In(Sb6Os)2
_chemical_formula_sum   'Cr2 In1 Sb12 Os2'
_cell_volume   431.13484225
_cell_formula_units_Z   1
loop_
 _symmetry_equiv_pos_site_id
 _symmetry_equiv_pos_as_xyz
  1  'x, y, z'
loop_
 _atom_site_type_symbol
 _atom_site_label
 _atom_site_symmetry_multiplicity
 _atom_site_fract_x
 _atom_site_fract_y
 _atom_site_fract_z
 _atom_site_occupancy
  Cr  Cr0  1  0.500000  0.000000  0.000000  1
  Cr  Cr1  1  0.500000  0.500000  0.500000  1
  In  In2  1  0.000000  0.000000  0.000000  1
  Sb  Sb3  1  0.339324  0.187339  0.841227  1
  Sb  Sb4  1  0.660676  0.812661  0.158773  1
  Sb  Sb5  1  0.660676  0.501904  0.848014  1
  Sb  Sb6  1  0.339324  0.498096  0.151986  1
  Sb  Sb7  1  0.180815  0.845330  0.335485  1
  Sb  Sb8  1  0.819185  0.154670  0.664515  1
  Sb  Sb9  1  0.497997  0.846433  0.651564  1
  Sb  Sb10  1  0.502003  0.153567  0.348436  1
  Sb  Sb11  1  0.850814  0.347813  0.186393  1
  Sb  Sb12  1  0.149186  0.652187  0.813607  1
  Sb  Sb13  1  0.850814  0.664422  0.503002  1
  Sb  Sb14  1  0.149186  0.335578  0.496998  1
  Os  Os15  1  0.000000  0.000000  0.500000  1
  Os  Os16  1  0.000000  0.500000  0.000000  1
