# generated using pymatgen
data_YHoGa3Co14
_symmetry_space_group_name_H-M   'P 1'
_cell_length_a   6.34598741
_cell_length_b   6.34598733
_cell_length_c   6.34598783
_cell_angle_alpha   82.63471227
_cell_angle_beta   82.63472226
_cell_angle_gamma   82.63473334
_symmetry_Int_Tables_number   1
_chemical_formula_structural   YHoGa3Co14
_chemical_formula_sum   'Y1 Ho1 Ga3 Co14'
_cell_volume   249.73493233
_cell_formula_units_Z   1
loop_
 _symmetry_equiv_pos_site_id
 _symmetry_equiv_pos_as_xyz
  1  'x, y, z'
loop_
 _atom_site_type_symbol
 _atom_site_label
 _atom_site_symmetry_multiplicity
 _atom_site_fract_x
 _atom_site_fract_y
 _atom_site_fract_z
 _atom_site_occupancy
  Y  Y0  1  0.659256  0.659256  0.659256  1
  Ho  Ho1  1  0.332310  0.332310  0.332310  1
  Ga  Ga2  1  0.155808  0.651906  0.651906  1
  Ga  Ga3  1  0.651906  0.651906  0.155808  1
  Ga  Ga4  1  0.651906  0.155808  0.651906  1
  Co  Co5  1  0.907827  0.907827  0.907827  1
  Co  Co6  1  0.095268  0.095268  0.095268  1
  Co  Co7  1  0.005199  0.005199  0.495720  1
  Co  Co8  1  0.005199  0.495720  0.005199  1
  Co  Co9  1  0.495720  0.005199  0.005199  1
  Co  Co10  1  0.287436  0.713738  0.001766  1
  Co  Co11  1  0.713738  0.001766  0.287436  1
  Co  Co12  1  0.001766  0.287436  0.713738  1
  Co  Co13  1  0.287436  0.001766  0.713738  1
  Co  Co14  1  0.001766  0.713738  0.287436  1
  Co  Co15  1  0.713738  0.287436  0.001766  1
  Co  Co16  1  0.854909  0.339407  0.339407  1
  Co  Co17  1  0.339407  0.339407  0.854909  1
  Co  Co18  1  0.339407  0.854909  0.339407  1
