# generated using pymatgen
data_LiEu(PO3)3
_symmetry_space_group_name_H-M   'P 1'
_cell_length_a   6.84102844
_cell_length_b   7.27726179
_cell_length_c   7.53939752
_cell_angle_alpha   83.15302291
_cell_angle_beta   80.40767867
_cell_angle_gamma   81.65545621
_symmetry_Int_Tables_number   1
_chemical_formula_structural   LiEu(PO3)3
_chemical_formula_sum   'Li2 Eu2 P6 O18'
_cell_volume   364.43353226
_cell_formula_units_Z   2
loop_
 _symmetry_equiv_pos_site_id
 _symmetry_equiv_pos_as_xyz
  1  'x, y, z'
loop_
 _atom_site_type_symbol
 _atom_site_label
 _atom_site_symmetry_multiplicity
 _atom_site_fract_x
 _atom_site_fract_y
 _atom_site_fract_z
 _atom_site_occupancy
  Li  Li0  1  0.469014  0.822471  0.819317  1
  Li  Li1  1  0.530986  0.177529  0.180683  1
  Eu  Eu2  1  0.985093  0.769915  0.848338  1
  Eu  Eu3  1  0.014907  0.230085  0.151662  1
  P  P4  1  0.771889  0.842606  0.439846  1
  P  P5  1  0.149715  0.716255  0.227818  1
  P  P6  1  0.588119  0.615653  0.214371  1
  P  P7  1  0.411881  0.384347  0.785629  1
  P  P8  1  0.850285  0.283745  0.772182  1
  P  P9  1  0.228111  0.157394  0.560154  1
  O  O10  1  0.259540  0.983909  0.686259  1
  O  O11  1  0.714274  0.846725  0.640604  1
  O  O12  1  0.164414  0.887813  0.094760  1
  O  O13  1  0.626715  0.748951  0.047663  1
  O  O14  1  0.012218  0.767664  0.417616  1
  O  O15  1  0.678856  0.672359  0.382324  1
  O  O16  1  0.353719  0.646547  0.304014  1
  O  O17  1  0.350931  0.590013  0.795142  1
  O  O18  1  0.931609  0.438634  0.840687  1
  O  O19  1  0.068391  0.561366  0.159313  1
  O  O20  1  0.649069  0.409987  0.204858  1
  O  O21  1  0.646281  0.353453  0.695986  1
  O  O22  1  0.321144  0.327641  0.617676  1
  O  O23  1  0.987782  0.232336  0.582384  1
  O  O24  1  0.373285  0.251049  0.952337  1
  O  O25  1  0.835586  0.112187  0.905240  1
  O  O26  1  0.285726  0.153275  0.359396  1
  O  O27  1  0.740460  0.016091  0.313741  1
