# generated using pymatgen
data_Li2TbDy(Co4P3)2
_symmetry_space_group_name_H-M   'P 1'
_cell_length_a   3.69778400
_cell_length_b   10.26231000
_cell_length_c   11.91618500
_cell_angle_alpha   90.00000000
_cell_angle_beta   90.00000000
_cell_angle_gamma   90.00000000
_symmetry_Int_Tables_number   1
_chemical_formula_structural   Li2TbDy(Co4P3)2
_chemical_formula_sum   'Li4 Tb2 Dy2 Co16 P12'
_cell_volume   452.19307332
_cell_formula_units_Z   2
loop_
 _symmetry_equiv_pos_site_id
 _symmetry_equiv_pos_as_xyz
  1  'x, y, z'
loop_
 _atom_site_type_symbol
 _atom_site_label
 _atom_site_symmetry_multiplicity
 _atom_site_fract_x
 _atom_site_fract_y
 _atom_site_fract_z
 _atom_site_occupancy
  Li  Li0  1  0.250000  0.702058  0.992695  1
  Li  Li1  1  0.250000  0.797942  0.492695  1
  Li  Li2  1  0.750000  0.297826  0.007481  1
  Li  Li3  1  0.750000  0.202174  0.507481  1
  Tb  Tb4  1  0.750000  0.421594  0.297968  1
  Tb  Tb5  1  0.750000  0.078406  0.797968  1
  Dy  Dy6  1  0.250000  0.578245  0.702045  1
  Dy  Dy7  1  0.250000  0.921755  0.202045  1
  Co  Co8  1  0.250000  0.406007  0.485597  1
  Co  Co9  1  0.250000  0.093993  0.985597  1
  Co  Co10  1  0.750000  0.594255  0.514996  1
  Co  Co11  1  0.750000  0.905745  0.014996  1
  Co  Co12  1  0.250000  0.221956  0.172723  1
  Co  Co13  1  0.250000  0.278044  0.672723  1
  Co  Co14  1  0.750000  0.777790  0.827234  1
  Co  Co15  1  0.750000  0.722210  0.327234  1
  Co  Co16  1  0.250000  0.878070  0.699720  1
  Co  Co17  1  0.250000  0.621930  0.199720  1
  Co  Co18  1  0.750000  0.121352  0.300103  1
  Co  Co19  1  0.750000  0.378648  0.800103  1
  Co  Co20  1  0.250000  0.465600  0.932478  1
  Co  Co21  1  0.250000  0.034400  0.432478  1
  Co  Co22  1  0.750000  0.534865  0.067129  1
  Co  Co23  1  0.750000  0.965135  0.567129  1
  P  P24  1  0.250000  0.425321  0.114643  1
  P  P25  1  0.250000  0.074679  0.614643  1
  P  P26  1  0.750000  0.574855  0.884858  1
  P  P27  1  0.750000  0.925145  0.384858  1
  P  P28  1  0.250000  0.270281  0.859574  1
  P  P29  1  0.250000  0.229719  0.359574  1
  P  P30  1  0.750000  0.730364  0.140514  1
  P  P31  1  0.750000  0.769636  0.640514  1
  P  P32  1  0.250000  0.602674  0.393513  1
  P  P33  1  0.250000  0.897326  0.893513  1
  P  P34  1  0.750000  0.397714  0.606730  1
  P  P35  1  0.750000  0.102286  0.106730  1
