# generated using pymatgen
data_Y3Ho5(TcB6)4
_symmetry_space_group_name_H-M   'P 1'
_cell_length_a   3.68194800
_cell_length_b   9.15730901
_cell_length_c   11.54530700
_cell_angle_alpha   89.99860761
_cell_angle_beta   90.00000000
_cell_angle_gamma   90.00000000
_symmetry_Int_Tables_number   1
_chemical_formula_structural   Y3Ho5(TcB6)4
_chemical_formula_sum   'Y3 Ho5 Tc4 B24'
_cell_volume   389.27006339
_cell_formula_units_Z   1
loop_
 _symmetry_equiv_pos_site_id
 _symmetry_equiv_pos_as_xyz
  1  'x, y, z'
loop_
 _atom_site_type_symbol
 _atom_site_label
 _atom_site_symmetry_multiplicity
 _atom_site_fract_x
 _atom_site_fract_y
 _atom_site_fract_z
 _atom_site_occupancy
  Y  Y0  1  0.000000  0.323411  0.414174  1
  Y  Y1  1  0.000000  0.676560  0.585929  1
  Y  Y2  1  0.000000  0.823481  0.085787  1
  Ho  Ho3  1  0.000000  0.176247  0.914112  1
  Ho  Ho4  1  0.000000  0.942664  0.369294  1
  Ho  Ho5  1  0.000000  0.057387  0.630733  1
  Ho  Ho6  1  0.000000  0.442616  0.130476  1
  Ho  Ho7  1  0.000000  0.557320  0.869432  1
  Tc  Tc8  1  0.000000  0.638708  0.320355  1
  Tc  Tc9  1  0.000000  0.361069  0.679929  1
  Tc  Tc10  1  0.000000  0.138741  0.179264  1
  Tc  Tc11  1  0.000000  0.861614  0.820540  1
  B  B12  1  0.500000  0.553347  0.432756  1
  B  B13  1  0.500000  0.446509  0.567418  1
  B  B14  1  0.500000  0.053619  0.066850  1
  B  B15  1  0.500000  0.947057  0.932773  1
  B  B16  1  0.500000  0.749150  0.418368  1
  B  B17  1  0.500000  0.250837  0.581838  1
  B  B18  1  0.500000  0.249081  0.081059  1
  B  B19  1  0.500000  0.751040  0.918402  1
  B  B20  1  0.500000  0.791965  0.265251  1
  B  B21  1  0.500000  0.207875  0.735110  1
  B  B22  1  0.500000  0.291926  0.234417  1
  B  B23  1  0.500000  0.708136  0.765428  1
  B  B24  1  0.500000  0.630566  0.185543  1
  B  B25  1  0.500000  0.369031  0.814782  1
  B  B26  1  0.500000  0.130635  0.314243  1
  B  B27  1  0.500000  0.869560  0.685723  1
  B  B28  1  0.500000  0.982337  0.211721  1
  B  B29  1  0.500000  0.018179  0.788332  1
  B  B30  1  0.500000  0.482182  0.287986  1
  B  B31  1  0.500000  0.517608  0.712115  1
  B  B32  1  0.500000  0.599700  0.027820  1
  B  B33  1  0.500000  0.399773  0.972007  1
  B  B34  1  0.500000  0.099680  0.472179  1
  B  B35  1  0.500000  0.900394  0.527851  1
