# generated using pymatgen
data_ErHf7Ta2Ti10Si15P
_symmetry_space_group_name_H-M   'P 1'
_cell_length_a   6.82372716
_cell_length_b   6.82602488
_cell_length_c   12.50968200
_cell_angle_alpha   89.95119887
_cell_angle_beta   89.98747234
_cell_angle_gamma   89.96324160
_symmetry_Int_Tables_number   1
_chemical_formula_structural   ErHf7Ta2Ti10Si15P
_chemical_formula_sum   'Er1 Hf7 Ta2 Ti10 Si15 P1'
_cell_volume   582.68727445
_cell_formula_units_Z   1
loop_
 _symmetry_equiv_pos_site_id
 _symmetry_equiv_pos_as_xyz
  1  'x, y, z'
loop_
 _atom_site_type_symbol
 _atom_site_label
 _atom_site_symmetry_multiplicity
 _atom_site_fract_x
 _atom_site_fract_y
 _atom_site_fract_z
 _atom_site_occupancy
  Er  Er0  1  0.997596  0.659120  0.031485  1
  Hf  Hf1  1  0.342133  0.998114  0.470093  1
  Hf  Hf2  1  0.499461  0.845867  0.716679  1
  Hf  Hf3  1  0.497227  0.157003  0.220319  1
  Hf  Hf4  1  0.843055  0.501325  0.283547  1
  Hf  Hf5  1  0.157771  0.493930  0.780342  1
  Hf  Hf6  1  0.655626  0.001667  0.966934  1
  Hf  Hf7  1  0.999423  0.342014  0.533094  1
  Ta  Ta8  1  0.330397  0.327465  0.998734  1
  Ta  Ta9  1  0.171727  0.830691  0.251734  1
  Ti  Ti10  1  0.830837  0.171362  0.747726  1
  Ti  Ti11  1  0.670316  0.670515  0.500083  1
  Ti  Ti12  1  0.157059  0.005686  0.867554  1
  Ti  Ti13  1  0.495601  0.652875  0.123640  1
  Ti  Ti14  1  0.500110  0.344030  0.622640  1
  Ti  Ti15  1  0.652713  0.494771  0.875217  1
  Ti  Ti16  1  0.347081  0.503729  0.379277  1
  Ti  Ti17  1  0.848102  0.996883  0.374552  1
  Ti  Ti18  1  0.005642  0.152325  0.128508  1
  Ti  Ti19  1  0.999745  0.851949  0.627293  1
  Si  Si20  1  0.367221  0.707566  0.924228  1
  Si  Si21  1  0.635224  0.293874  0.427923  1
  Si  Si22  1  0.703694  0.361137  0.073326  1
  Si  Si23  1  0.294958  0.635499  0.573285  1
  Si  Si24  1  0.789778  0.868292  0.180352  1
  Si  Si25  1  0.135514  0.206560  0.325145  1
  Si  Si26  1  0.862654  0.796872  0.818577  1
  Si  Si27  1  0.297300  0.956521  0.062352  1
  Si  Si28  1  0.545409  0.794010  0.316194  1
  Si  Si29  1  0.460329  0.205152  0.812762  1
  Si  Si30  1  0.793135  0.546090  0.684381  1
  Si  Si31  1  0.206907  0.453099  0.188907  1
  Si  Si32  1  0.705685  0.044563  0.563628  1
  Si  Si33  1  0.952775  0.288179  0.934688  1
  Si  Si34  1  0.043413  0.704619  0.438659  1
  P  P35  1  0.204382  0.136649  0.676138  1
