# generated using pymatgen
data_Y4B20IrRh
_symmetry_space_group_name_H-M   'P 1'
_cell_length_a   4.17279300
_cell_length_b   5.68467434
_cell_length_c   11.34451167
_cell_angle_alpha   89.96064904
_cell_angle_beta   90.00000000
_cell_angle_gamma   90.00000000
_symmetry_Int_Tables_number   1
_chemical_formula_structural   Y4B20IrRh
_chemical_formula_sum   'Y4 B20 Ir1 Rh1'
_cell_volume   269.10274925
_cell_formula_units_Z   1
loop_
 _symmetry_equiv_pos_site_id
 _symmetry_equiv_pos_as_xyz
  1  'x, y, z'
loop_
 _atom_site_type_symbol
 _atom_site_label
 _atom_site_symmetry_multiplicity
 _atom_site_fract_x
 _atom_site_fract_y
 _atom_site_fract_z
 _atom_site_occupancy
  Y  Y0  1  0.500000  0.200903  0.365183  1
  Y  Y1  1  0.500000  0.799097  0.634817  1
  Y  Y2  1  0.500000  0.295601  0.863944  1
  Y  Y3  1  0.500000  0.704399  0.136056  1
  B  B4  1  0.000000  0.381073  0.042431  1
  B  B5  1  0.000000  0.618927  0.957569  1
  B  B6  1  0.000000  0.118965  0.542400  1
  B  B7  1  0.000000  0.881035  0.457600  1
  B  B8  1  0.000000  0.363629  0.197356  1
  B  B9  1  0.000000  0.636371  0.802644  1
  B  B10  1  0.000000  0.136743  0.696919  1
  B  B11  1  0.000000  0.863257  0.303081  1
  B  B12  1  0.000000  0.055361  0.193154  1
  B  B13  1  0.000000  0.944639  0.806846  1
  B  B14  1  0.000000  0.444468  0.692788  1
  B  B15  1  0.000000  0.555532  0.307212  1
  B  B16  1  0.301300  0.219754  0.119355  1
  B  B17  1  0.698700  0.780246  0.880645  1
  B  B18  1  0.301300  0.780246  0.880645  1
  B  B19  1  0.698603  0.280866  0.618808  1
  B  B20  1  0.698700  0.219754  0.119355  1
  B  B21  1  0.301397  0.719134  0.381192  1
  B  B22  1  0.698603  0.719134  0.381192  1
  B  B23  1  0.301397  0.280866  0.618808  1
  Ir  Ir24  1  0.000000  0.000000  0.000000  1
  Rh  Rh25  1  0.000000  0.500000  0.500000  1
