# generated using pymatgen
data_La4DySn3
_symmetry_space_group_name_H-M   'P 1'
_cell_length_a   9.47792563
_cell_length_b   9.47792419
_cell_length_c   9.47792367
_cell_angle_alpha   96.24461776
_cell_angle_beta   96.24462006
_cell_angle_gamma   141.48570470
_symmetry_Int_Tables_number   1
_chemical_formula_structural   La4DySn3
_chemical_formula_sum   'La8 Dy2 Sn6'
_cell_volume   500.51782637
_cell_formula_units_Z   2
loop_
 _symmetry_equiv_pos_site_id
 _symmetry_equiv_pos_as_xyz
  1  'x, y, z'
loop_
 _atom_site_type_symbol
 _atom_site_label
 _atom_site_symmetry_multiplicity
 _atom_site_fract_x
 _atom_site_fract_y
 _atom_site_fract_z
 _atom_site_occupancy
  La  La0  1  0.910871  0.223334  0.134205  1
  La  La1  1  0.223334  0.089129  0.312462  1
  La  La2  1  0.776666  0.910871  0.687538  1
  La  La3  1  0.089129  0.776666  0.865795  1
  La  La4  1  0.723334  0.410871  0.134205  1
  La  La5  1  0.276666  0.589129  0.865795  1
  La  La6  1  0.589129  0.723334  0.312462  1
  La  La7  1  0.410871  0.276666  0.687538  1
  Dy  Dy8  1  0.750000  0.250000  0.500000  1
  Dy  Dy9  1  0.250000  0.750000  0.500000  1
  Sn  Sn10  1  0.750000  0.750000  0.000000  1
  Sn  Sn11  1  0.250000  0.250000  0.000000  1
  Sn  Sn12  1  0.845701  0.654299  0.500000  1
  Sn  Sn13  1  0.654299  0.154299  0.808599  1
  Sn  Sn14  1  0.345701  0.845701  0.191401  1
  Sn  Sn15  1  0.154299  0.345701  0.500000  1
