# generated using pymatgen
data_Zr4Cd2Cu3Ni
_symmetry_space_group_name_H-M   'P 1'
_cell_length_a   7.26523886
_cell_length_b   7.26523904
_cell_length_c   3.41791600
_cell_angle_alpha   90.00000000
_cell_angle_beta   90.00000000
_cell_angle_gamma   90.43381348
_symmetry_Int_Tables_number   1
_chemical_formula_structural   Zr4Cd2Cu3Ni
_chemical_formula_sum   'Zr4 Cd2 Cu3 Ni1'
_cell_volume   180.40507115
_cell_formula_units_Z   1
loop_
 _symmetry_equiv_pos_site_id
 _symmetry_equiv_pos_as_xyz
  1  'x, y, z'
loop_
 _atom_site_type_symbol
 _atom_site_label
 _atom_site_symmetry_multiplicity
 _atom_site_fract_x
 _atom_site_fract_y
 _atom_site_fract_z
 _atom_site_occupancy
  Zr  Zr0  1  0.666340  0.166340  0.500000  1
  Zr  Zr1  1  0.322038  0.822038  0.500000  1
  Zr  Zr2  1  0.171787  0.341987  0.500000  1
  Zr  Zr3  1  0.841987  0.671787  0.500000  1
  Cd  Cd4  1  0.999665  0.004124  0.000000  1
  Cd  Cd5  1  0.504124  0.499665  0.000000  1
  Cu  Cu6  1  0.875295  0.375295  0.000000  1
  Cu  Cu7  1  0.622649  0.872626  0.000000  1
  Cu  Cu8  1  0.372626  0.122649  0.000000  1
  Ni  Ni9  1  0.123490  0.623490  0.000000  1
