# generated using pymatgen
data_Zr3AlOs2O
_symmetry_space_group_name_H-M   'P 1'
_cell_length_a   8.57863092
_cell_length_b   8.57863040
_cell_length_c   8.57863100
_cell_angle_alpha   59.99999383
_cell_angle_beta   59.99999585
_cell_angle_gamma   59.99999743
_symmetry_Int_Tables_number   1
_chemical_formula_structural   Zr3AlOs2O
_chemical_formula_sum   'Zr12 Al4 Os8 O4'
_cell_volume   446.41511239
_cell_formula_units_Z   4
loop_
 _symmetry_equiv_pos_site_id
 _symmetry_equiv_pos_as_xyz
  1  'x, y, z'
loop_
 _atom_site_type_symbol
 _atom_site_label
 _atom_site_symmetry_multiplicity
 _atom_site_fract_x
 _atom_site_fract_y
 _atom_site_fract_z
 _atom_site_occupancy
  Zr  Zr0  1  0.804153  0.804153  0.195847  1
  Zr  Zr1  1  0.195847  0.195847  0.804153  1
  Zr  Zr2  1  0.804153  0.195847  0.804153  1
  Zr  Zr3  1  0.195847  0.804153  0.195847  1
  Zr  Zr4  1  0.195847  0.804153  0.804153  1
  Zr  Zr5  1  0.804153  0.195847  0.195847  1
  Zr  Zr6  1  0.445847  0.445847  0.054153  1
  Zr  Zr7  1  0.054153  0.054153  0.445847  1
  Zr  Zr8  1  0.445847  0.054153  0.445847  1
  Zr  Zr9  1  0.054153  0.445847  0.054153  1
  Zr  Zr10  1  0.054153  0.445847  0.445847  1
  Zr  Zr11  1  0.445847  0.054153  0.054153  1
  Al  Al12  1  0.125000  0.625000  0.625000  1
  Al  Al13  1  0.625000  0.125000  0.625000  1
  Al  Al14  1  0.625000  0.625000  0.125000  1
  Al  Al15  1  0.625000  0.625000  0.625000  1
  Os  Os16  1  0.750078  0.416640  0.416640  1
  Os  Os17  1  0.416640  0.750078  0.416640  1
  Os  Os18  1  0.416640  0.416640  0.750078  1
  Os  Os19  1  0.416640  0.416640  0.416640  1
  Os  Os20  1  0.499922  0.833360  0.833360  1
  Os  Os21  1  0.833360  0.499922  0.833360  1
  Os  Os22  1  0.833360  0.833360  0.499922  1
  Os  Os23  1  0.833360  0.833360  0.833360  1
  O  O24  1  0.625000  0.125000  0.125000  1
  O  O25  1  0.125000  0.625000  0.125000  1
  O  O26  1  0.125000  0.125000  0.625000  1
  O  O27  1  0.125000  0.125000  0.125000  1
