# generated using pymatgen
data_Hf18Re8NiAs
_symmetry_space_group_name_H-M   'P 1'
_cell_length_a   8.58810900
_cell_length_b   8.58810826
_cell_length_c   8.61272200
_cell_angle_alpha   90.00000000
_cell_angle_beta   90.00000000
_cell_angle_gamma   119.99999899
_symmetry_Int_Tables_number   1
_chemical_formula_structural   Hf18Re8NiAs
_chemical_formula_sum   'Hf18 Re8 Ni1 As1'
_cell_volume   550.13100705
_cell_formula_units_Z   1
loop_
 _symmetry_equiv_pos_site_id
 _symmetry_equiv_pos_as_xyz
  1  'x, y, z'
loop_
 _atom_site_type_symbol
 _atom_site_label
 _atom_site_symmetry_multiplicity
 _atom_site_fract_x
 _atom_site_fract_y
 _atom_site_fract_z
 _atom_site_occupancy
  Hf  Hf0  1  0.192650  0.807350  0.452153  1
  Hf  Hf1  1  0.192650  0.385298  0.452153  1
  Hf  Hf2  1  0.614702  0.807350  0.452153  1
  Hf  Hf3  1  0.801946  0.198054  0.556629  1
  Hf  Hf4  1  0.801946  0.603893  0.556629  1
  Hf  Hf5  1  0.396107  0.198054  0.556629  1
  Hf  Hf6  1  0.801946  0.198054  0.943371  1
  Hf  Hf7  1  0.801946  0.603893  0.943371  1
  Hf  Hf8  1  0.396107  0.198054  0.943371  1
  Hf  Hf9  1  0.192650  0.807350  0.047847  1
  Hf  Hf10  1  0.192650  0.385298  0.047847  1
  Hf  Hf11  1  0.614702  0.807350  0.047847  1
  Hf  Hf12  1  0.541817  0.458183  0.250000  1
  Hf  Hf13  1  0.541817  0.083635  0.250000  1
  Hf  Hf14  1  0.916365  0.458183  0.250000  1
  Hf  Hf15  1  0.458665  0.541335  0.750000  1
  Hf  Hf16  1  0.458665  0.917331  0.750000  1
  Hf  Hf17  1  0.082669  0.541335  0.750000  1
  Re  Re18  1  0.889682  0.110318  0.250000  1
  Re  Re19  1  0.889682  0.779362  0.250000  1
  Re  Re20  1  0.220638  0.110318  0.250000  1
  Re  Re21  1  0.110496  0.889504  0.750000  1
  Re  Re22  1  0.110496  0.220992  0.750000  1
  Re  Re23  1  0.779008  0.889504  0.750000  1
  Re  Re24  1  0.000000  0.000000  0.500869  1
  Re  Re25  1  0.000000  0.000000  0.999131  1
  Ni  Ni26  1  0.666667  0.333333  0.750000  1
  As  As27  1  0.333333  0.666667  0.250000  1
