# generated using pymatgen
data_SmGaCu4
_symmetry_space_group_name_H-M   'P 1'
_cell_length_a   5.09792890
_cell_length_b   5.09792860
_cell_length_c   4.16094000
_cell_angle_alpha   90.00000000
_cell_angle_beta   90.00000000
_cell_angle_gamma   119.23398771
_symmetry_Int_Tables_number   1
_chemical_formula_structural   SmGaCu4
_chemical_formula_sum   'Sm1 Ga1 Cu4'
_cell_volume   94.36487597
_cell_formula_units_Z   1
loop_
 _symmetry_equiv_pos_site_id
 _symmetry_equiv_pos_as_xyz
  1  'x, y, z'
loop_
 _atom_site_type_symbol
 _atom_site_label
 _atom_site_symmetry_multiplicity
 _atom_site_fract_x
 _atom_site_fract_y
 _atom_site_fract_z
 _atom_site_occupancy
  Sm  Sm0  1  0.000000  0.000000  0.000000  1
  Ga  Ga1  1  0.500000  0.500000  0.500000  1
  Cu  Cu2  1  0.331669  0.668331  0.000000  1
  Cu  Cu3  1  0.668331  0.331669  0.000000  1
  Cu  Cu4  1  0.500000  0.000000  0.500000  1
  Cu  Cu5  1  0.000000  0.500000  0.500000  1
