# generated using pymatgen
data_Zr2Nb(ReSi)3
_symmetry_space_group_name_H-M   'P 1'
_cell_length_a   6.93932797
_cell_length_b   6.93932696
_cell_length_c   3.41359600
_cell_angle_alpha   90.00000000
_cell_angle_beta   90.00000000
_cell_angle_gamma   119.56947136
_symmetry_Int_Tables_number   1
_chemical_formula_structural   Zr2Nb(ReSi)3
_chemical_formula_sum   'Zr2 Nb1 Re3 Si3'
_cell_volume   142.97013030
_cell_formula_units_Z   1
loop_
 _symmetry_equiv_pos_site_id
 _symmetry_equiv_pos_as_xyz
  1  'x, y, z'
loop_
 _atom_site_type_symbol
 _atom_site_label
 _atom_site_symmetry_multiplicity
 _atom_site_fract_x
 _atom_site_fract_y
 _atom_site_fract_z
 _atom_site_occupancy
  Zr  Zr0  1  0.404863  0.001609  0.500000  1
  Zr  Zr1  1  0.001609  0.404863  0.500000  1
  Nb  Nb2  1  0.595971  0.595971  0.500000  1
  Re  Re3  1  0.744678  0.995769  0.000000  1
  Re  Re4  1  0.995769  0.744678  0.000000  1
  Re  Re5  1  0.254979  0.254979  0.000000  1
  Si  Si6  1  0.339024  0.665595  0.000000  1
  Si  Si7  1  0.665595  0.339024  0.000000  1
  Si  Si8  1  0.997512  0.997512  0.500000  1
