# generated using pymatgen
data_CaCdOsRuO7
_symmetry_space_group_name_H-M   'P 1'
_cell_length_a   7.29779153
_cell_length_b   7.17694388
_cell_length_c   7.29779135
_cell_angle_alpha   60.54628763
_cell_angle_beta   60.86700193
_cell_angle_gamma   60.54628398
_symmetry_Int_Tables_number   1
_chemical_formula_structural   CaCdOsRuO7
_chemical_formula_sum   'Ca2 Cd2 Os2 Ru2 O14'
_cell_volume   274.25616426
_cell_formula_units_Z   2
loop_
 _symmetry_equiv_pos_site_id
 _symmetry_equiv_pos_as_xyz
  1  'x, y, z'
loop_
 _atom_site_type_symbol
 _atom_site_label
 _atom_site_symmetry_multiplicity
 _atom_site_fract_x
 _atom_site_fract_y
 _atom_site_fract_z
 _atom_site_occupancy
  Ca  Ca0  1  0.625000  0.125000  0.125000  1
  Ca  Ca1  1  0.125000  0.125000  0.625000  1
  Cd  Cd2  1  0.125000  0.125000  0.125000  1
  Cd  Cd3  1  0.125000  0.625000  0.125000  1
  Os  Os4  1  0.125000  0.625000  0.625000  1
  Os  Os5  1  0.625000  0.625000  0.125000  1
  Ru  Ru6  1  0.625000  0.625000  0.625000  1
  Ru  Ru7  1  0.625000  0.125000  0.625000  1
  O  O8  1  0.240741  0.259259  0.240741  1
  O  O9  1  0.009259  0.990741  0.009259  1
  O  O10  1  0.552415  0.947585  0.552415  1
  O  O11  1  0.310964  0.689036  0.310964  1
  O  O12  1  0.558780  0.555177  0.946806  1
  O  O13  1  0.946806  0.555177  0.558780  1
  O  O14  1  0.558780  0.939236  0.946806  1
  O  O15  1  0.946806  0.939236  0.558780  1
  O  O16  1  0.939036  0.560964  0.939036  1
  O  O17  1  0.691220  0.310764  0.303194  1
  O  O18  1  0.303194  0.694823  0.691220  1
  O  O19  1  0.697585  0.302415  0.697585  1
  O  O20  1  0.303194  0.310764  0.691220  1
  O  O21  1  0.691220  0.694823  0.303194  1
