# generated using pymatgen
data_Sr5CaSn8BiI
_symmetry_space_group_name_H-M   'P 1'
_cell_length_a   9.04418637
_cell_length_b   9.04418584
_cell_length_c   9.04418751
_cell_angle_alpha   120.23718260
_cell_angle_beta   120.23717565
_cell_angle_gamma   89.58967996
_symmetry_Int_Tables_number   1
_chemical_formula_structural   Sr5CaSn8BiI
_chemical_formula_sum   'Sr5 Ca1 Sn8 Bi1 I1'
_cell_volume   521.22081832
_cell_formula_units_Z   1
loop_
 _symmetry_equiv_pos_site_id
 _symmetry_equiv_pos_as_xyz
  1  'x, y, z'
loop_
 _atom_site_type_symbol
 _atom_site_label
 _atom_site_symmetry_multiplicity
 _atom_site_fract_x
 _atom_site_fract_y
 _atom_site_fract_z
 _atom_site_occupancy
  Sr  Sr0  1  0.746601  0.746601  0.000000  1
  Sr  Sr1  1  0.166235  0.655257  0.821499  1
  Sr  Sr2  1  0.833759  0.344737  0.178501  1
  Sr  Sr3  1  0.655257  0.833759  0.489022  1
  Sr  Sr4  1  0.344737  0.166235  0.510978  1
  Ca  Ca5  1  0.254347  0.254347  0.000000  1
  Sn  Sn6  1  0.833619  0.331455  0.786296  1
  Sn  Sn7  1  0.168821  0.665829  0.213550  1
  Sn  Sn8  1  0.545159  0.047324  0.213704  1
  Sn  Sn9  1  0.331455  0.545159  0.497835  1
  Sn  Sn10  1  0.955271  0.168821  0.502993  1
  Sn  Sn11  1  0.452278  0.955271  0.786450  1
  Sn  Sn12  1  0.665829  0.452278  0.497007  1
  Sn  Sn13  1  0.047324  0.833619  0.502165  1
  Bi  Bi14  1  0.494611  0.494611  0.000000  1
  I  I15  1  0.004697  0.004697  0.000000  1
