# generated using pymatgen
data_NdScB6Os
_symmetry_space_group_name_H-M   'P 1'
_cell_length_a   3.62021600
_cell_length_b   9.06855400
_cell_length_c   11.51599100
_cell_angle_alpha   90.00000000
_cell_angle_beta   90.00000000
_cell_angle_gamma   90.00000000
_symmetry_Int_Tables_number   1
_chemical_formula_structural   NdScB6Os
_chemical_formula_sum   'Nd4 Sc4 B24 Os4'
_cell_volume   378.07141583
_cell_formula_units_Z   4
loop_
 _symmetry_equiv_pos_site_id
 _symmetry_equiv_pos_as_xyz
  1  'x, y, z'
loop_
 _atom_site_type_symbol
 _atom_site_label
 _atom_site_symmetry_multiplicity
 _atom_site_fract_x
 _atom_site_fract_y
 _atom_site_fract_z
 _atom_site_occupancy
  Nd  Nd0  1  0.000000  0.821199  0.085038  1
  Nd  Nd1  1  0.000000  0.178801  0.914962  1
  Nd  Nd2  1  0.000000  0.321199  0.414962  1
  Nd  Nd3  1  0.000000  0.678801  0.585038  1
  Sc  Sc4  1  0.000000  0.445620  0.126188  1
  Sc  Sc5  1  0.000000  0.554380  0.873812  1
  Sc  Sc6  1  0.000000  0.945620  0.373812  1
  Sc  Sc7  1  0.000000  0.054380  0.626188  1
  B  B8  1  0.500000  0.057305  0.070299  1
  B  B9  1  0.500000  0.942695  0.929701  1
  B  B10  1  0.500000  0.557305  0.429701  1
  B  B11  1  0.500000  0.442695  0.570299  1
  B  B12  1  0.500000  0.253948  0.083791  1
  B  B13  1  0.500000  0.746052  0.916209  1
  B  B14  1  0.500000  0.753948  0.416209  1
  B  B15  1  0.500000  0.246052  0.583791  1
  B  B16  1  0.500000  0.293695  0.234276  1
  B  B17  1  0.500000  0.706305  0.765724  1
  B  B18  1  0.500000  0.793695  0.265724  1
  B  B19  1  0.500000  0.206305  0.734276  1
  B  B20  1  0.500000  0.128646  0.317047  1
  B  B21  1  0.500000  0.871354  0.682953  1
  B  B22  1  0.500000  0.628646  0.182953  1
  B  B23  1  0.500000  0.371354  0.817047  1
  B  B24  1  0.500000  0.484013  0.284064  1
  B  B25  1  0.500000  0.515987  0.715936  1
  B  B26  1  0.500000  0.984013  0.215936  1
  B  B27  1  0.500000  0.015987  0.784064  1
  B  B28  1  0.500000  0.097225  0.474182  1
  B  B29  1  0.500000  0.902775  0.525818  1
  B  B30  1  0.500000  0.597225  0.025818  1
  B  B31  1  0.500000  0.402775  0.974182  1
  Os  Os32  1  0.000000  0.141230  0.182888  1
  Os  Os33  1  0.000000  0.858770  0.817112  1
  Os  Os34  1  0.000000  0.641230  0.317112  1
  Os  Os35  1  0.000000  0.358770  0.682888  1
