# generated using pymatgen
data_Th4FeReOs6
_symmetry_space_group_name_H-M   'P 1'
_cell_length_a   5.60946400
_cell_length_b   5.27358857
_cell_length_c   9.10446800
_cell_angle_alpha   90.00000000
_cell_angle_beta   90.00000000
_cell_angle_gamma   122.13021551
_symmetry_Int_Tables_number   1
_chemical_formula_structural   Th4FeReOs6
_chemical_formula_sum   'Th4 Fe1 Re1 Os6'
_cell_volume   228.07850083
_cell_formula_units_Z   1
loop_
 _symmetry_equiv_pos_site_id
 _symmetry_equiv_pos_as_xyz
  1  'x, y, z'
loop_
 _atom_site_type_symbol
 _atom_site_label
 _atom_site_symmetry_multiplicity
 _atom_site_fract_x
 _atom_site_fract_y
 _atom_site_fract_z
 _atom_site_occupancy
  Th  Th0  1  0.335606  0.671213  0.069414  1
  Th  Th1  1  0.669250  0.338498  0.563585  1
  Th  Th2  1  0.669250  0.338498  0.936415  1
  Th  Th3  1  0.335606  0.671213  0.430586  1
  Fe  Fe4  1  0.830648  0.661299  0.250000  1
  Re  Re5  1  0.161558  0.323114  0.750000  1
  Os  Os6  1  0.005861  0.011724  0.002349  1
  Os  Os7  1  0.005861  0.011724  0.497651  1
  Os  Os8  1  0.165526  0.817954  0.750000  1
  Os  Os9  1  0.652429  0.817954  0.750000  1
  Os  Os10  1  0.337487  0.168404  0.250000  1
  Os  Os11  1  0.830916  0.168404  0.250000  1
