# generated using pymatgen
data_Y7TmSc12Si15Bi
_symmetry_space_group_name_H-M   'P 1'
_cell_length_a   7.18063864
_cell_length_b   7.41570261
_cell_length_c   14.07073554
_cell_angle_alpha   90.04590478
_cell_angle_beta   88.64117712
_cell_angle_gamma   90.19834845
_symmetry_Int_Tables_number   1
_chemical_formula_structural   Y7TmSc12Si15Bi
_chemical_formula_sum   'Y7 Tm1 Sc12 Si15 Bi1'
_cell_volume   749.04397968
_cell_formula_units_Z   1
loop_
 _symmetry_equiv_pos_site_id
 _symmetry_equiv_pos_as_xyz
  1  'x, y, z'
loop_
 _atom_site_type_symbol
 _atom_site_label
 _atom_site_symmetry_multiplicity
 _atom_site_fract_x
 _atom_site_fract_y
 _atom_site_fract_z
 _atom_site_occupancy
  Y  Y0  1  0.011526  0.176455  0.096696  1
  Y  Y1  1  0.988638  0.824859  0.903605  1
  Y  Y2  1  0.489394  0.675222  0.904214  1
  Y  Y3  1  0.993782  0.830766  0.598423  1
  Y  Y4  1  0.511108  0.324540  0.097504  1
  Y  Y5  1  0.999326  0.170340  0.399390  1
  Y  Y6  1  0.510512  0.317304  0.397717  1
  Tm  Tm7  1  0.513723  0.687134  0.601745  1
  Sc  Sc8  1  0.165351  0.500483  0.755826  1
  Sc  Sc9  1  0.834021  0.499786  0.251616  1
  Sc  Sc10  1  0.334119  0.000777  0.250458  1
  Sc  Sc11  1  0.667783  0.999314  0.750806  1
  Sc  Sc12  1  0.349745  0.155763  0.631518  1
  Sc  Sc13  1  0.657340  0.827210  0.372718  1
  Sc  Sc14  1  0.152940  0.682476  0.369028  1
  Sc  Sc15  1  0.666798  0.822852  0.124033  1
  Sc  Sc16  1  0.827659  0.327060  0.625609  1
  Sc  Sc17  1  0.331404  0.175437  0.875018  1
  Sc  Sc18  1  0.831580  0.323610  0.875379  1
  Sc  Sc19  1  0.167782  0.676585  0.124934  1
  Si  Si20  1  0.037674  0.120625  0.751001  1
  Si  Si21  1  0.959440  0.884013  0.246088  1
  Si  Si22  1  0.459726  0.617368  0.247711  1
  Si  Si23  1  0.536757  0.384346  0.752356  1
  Si  Si24  1  0.291493  0.866990  0.752424  1
  Si  Si25  1  0.709882  0.125556  0.246545  1
  Si  Si26  1  0.208433  0.374092  0.248887  1
  Si  Si27  1  0.793312  0.627970  0.751237  1
  Si  Si28  1  0.811016  0.542248  0.456964  1
  Si  Si29  1  0.329726  0.961447  0.460071  1
  Si  Si30  1  0.843779  0.534846  0.039806  1
  Si  Si31  1  0.671441  0.037905  0.539172  1
  Si  Si32  1  0.154997  0.464988  0.961276  1
  Si  Si33  1  0.655076  0.034992  0.960253  1
  Si  Si34  1  0.343645  0.965889  0.040212  1
  Bi  Bi35  1  0.189067  0.458755  0.539758  1
