# generated using pymatgen
data_LiTmB4Ir5
_symmetry_space_group_name_H-M   'P 1'
_cell_length_a   7.41743179
_cell_length_b   6.27970977
_cell_length_c   5.54391448
_cell_angle_alpha   77.43163457
_cell_angle_beta   55.72332133
_cell_angle_gamma   46.84504509
_symmetry_Int_Tables_number   1
_chemical_formula_structural   LiTmB4Ir5
_chemical_formula_sum   'Li1 Tm1 B4 Ir5'
_cell_volume   149.52733087
_cell_formula_units_Z   1
loop_
 _symmetry_equiv_pos_site_id
 _symmetry_equiv_pos_as_xyz
  1  'x, y, z'
loop_
 _atom_site_type_symbol
 _atom_site_label
 _atom_site_symmetry_multiplicity
 _atom_site_fract_x
 _atom_site_fract_y
 _atom_site_fract_z
 _atom_site_occupancy
  Li  Li0  1  0.652349  0.652350  0.347651  1
  Tm  Tm1  1  0.374654  0.374654  0.625346  1
  B  B2  1  0.286332  0.973094  0.026907  1
  B  B3  1  0.019330  0.706052  0.293949  1
  B  B4  1  0.973093  0.286332  0.713668  1
  B  B5  1  0.706051  0.019331  0.980670  1
  Ir  Ir6  1  0.997211  0.997211  0.002789  1
  Ir  Ir7  1  0.499031  0.499029  0.000970  1
  Ir  Ir8  1  0.246460  0.246458  0.253540  1
  Ir  Ir9  1  0.999030  0.999030  0.500969  1
  Ir  Ir10  1  0.746460  0.746459  0.753540  1
