# generated using pymatgen
data_Er20Cd6RePd
_symmetry_space_group_name_H-M   'P 1'
_cell_length_a   9.51389300
_cell_length_b   9.51389323
_cell_length_c   9.82530800
_cell_angle_alpha   90.00000000
_cell_angle_beta   90.00000000
_cell_angle_gamma   120.00000269
_symmetry_Int_Tables_number   1
_chemical_formula_structural   Er20Cd6RePd
_chemical_formula_sum   'Er20 Cd6 Re1 Pd1'
_cell_volume   770.18193727
_cell_formula_units_Z   1
loop_
 _symmetry_equiv_pos_site_id
 _symmetry_equiv_pos_as_xyz
  1  'x, y, z'
loop_
 _atom_site_type_symbol
 _atom_site_label
 _atom_site_symmetry_multiplicity
 _atom_site_fract_x
 _atom_site_fract_y
 _atom_site_fract_z
 _atom_site_occupancy
  Er  Er0  1  0.209492  0.790508  0.942249  1
  Er  Er1  1  0.209492  0.418985  0.942249  1
  Er  Er2  1  0.581015  0.790508  0.942249  1
  Er  Er3  1  0.791537  0.208463  0.056137  1
  Er  Er4  1  0.791537  0.583075  0.056137  1
  Er  Er5  1  0.416925  0.208463  0.056137  1
  Er  Er6  1  0.791537  0.208463  0.443863  1
  Er  Er7  1  0.791537  0.583075  0.443863  1
  Er  Er8  1  0.416925  0.208463  0.443863  1
  Er  Er9  1  0.209492  0.790508  0.557751  1
  Er  Er10  1  0.209492  0.418985  0.557751  1
  Er  Er11  1  0.581015  0.790508  0.557751  1
  Er  Er12  1  0.537711  0.462289  0.750000  1
  Er  Er13  1  0.537711  0.075422  0.750000  1
  Er  Er14  1  0.924578  0.462289  0.750000  1
  Er  Er15  1  0.457385  0.542615  0.250000  1
  Er  Er16  1  0.457385  0.914769  0.250000  1
  Er  Er17  1  0.085231  0.542615  0.250000  1
  Er  Er18  1  0.000000  0.000000  0.001266  1
  Er  Er19  1  0.000000  0.000000  0.498734  1
  Cd  Cd20  1  0.885548  0.114452  0.750000  1
  Cd  Cd21  1  0.885548  0.771096  0.750000  1
  Cd  Cd22  1  0.228904  0.114452  0.750000  1
  Cd  Cd23  1  0.114397  0.885603  0.250000  1
  Cd  Cd24  1  0.114397  0.228793  0.250000  1
  Cd  Cd25  1  0.771207  0.885603  0.250000  1
  Re  Re26  1  0.333333  0.666667  0.750000  1
  Pd  Pd27  1  0.666667  0.333333  0.250000  1
