# generated using pymatgen
data_YErCdNi2
_symmetry_space_group_name_H-M   'P 1'
_cell_length_a   7.35999340
_cell_length_b   7.35999384
_cell_length_c   3.66526300
_cell_angle_alpha   90.00000000
_cell_angle_beta   90.00000000
_cell_angle_gamma   149.18910071
_symmetry_Int_Tables_number   1
_chemical_formula_structural   YErCdNi2
_chemical_formula_sum   'Y1 Er1 Cd1 Ni2'
_cell_volume   101.69623988
_cell_formula_units_Z   1
loop_
 _symmetry_equiv_pos_site_id
 _symmetry_equiv_pos_as_xyz
  1  'x, y, z'
loop_
 _atom_site_type_symbol
 _atom_site_label
 _atom_site_symmetry_multiplicity
 _atom_site_fract_x
 _atom_site_fract_y
 _atom_site_fract_z
 _atom_site_occupancy
  Y  Y0  1  0.362688  0.637312  0.500000  1
  Er  Er1  1  0.639477  0.360523  0.500000  1
  Cd  Cd2  1  0.000893  0.999107  0.000000  1
  Ni  Ni3  1  0.799159  0.200841  0.000000  1
  Ni  Ni4  1  0.197784  0.802216  0.000000  1
