# generated using pymatgen
data_Zr7Sc(Ti2Sn5)2
_symmetry_space_group_name_H-M   'P 1'
_cell_length_a   10.75319504
_cell_length_b   10.77223994
_cell_length_c   10.77223976
_cell_angle_alpha   149.17121346
_cell_angle_beta   131.19676662
_cell_angle_gamma   58.86212717
_symmetry_Int_Tables_number   1
_chemical_formula_structural   Zr7Sc(Ti2Sn5)2
_chemical_formula_sum   'Zr7 Sc1 Ti4 Sn10'
_cell_volume   477.35393570
_cell_formula_units_Z   1
loop_
 _symmetry_equiv_pos_site_id
 _symmetry_equiv_pos_as_xyz
  1  'x, y, z'
loop_
 _atom_site_type_symbol
 _atom_site_label
 _atom_site_symmetry_multiplicity
 _atom_site_fract_x
 _atom_site_fract_y
 _atom_site_fract_z
 _atom_site_occupancy
  Zr  Zr0  1  0.673380  0.436999  0.236381  1
  Zr  Zr1  1  0.326381  0.563208  0.763174  1
  Zr  Zr2  1  0.199685  0.937479  0.262207  1
  Zr  Zr3  1  0.800600  0.063166  0.737433  1
  Zr  Zr4  1  0.248749  0.144458  0.104292  1
  Zr  Zr5  1  0.750515  0.855332  0.895183  1
  Zr  Zr6  1  0.039310  0.644737  0.394573  1
  Sc  Sc7  1  0.959179  0.354689  0.604490  1
  Ti  Ti8  1  0.307054  0.554682  0.250986  1
  Ti  Ti9  1  0.694350  0.446338  0.752049  1
  Ti  Ti10  1  0.694350  0.942301  0.248012  1
  Ti  Ti11  1  0.307054  0.056069  0.752372  1
  Sn  Sn12  1  0.581579  0.285955  0.295624  1
  Sn  Sn13  1  0.419795  0.714132  0.705663  1
  Sn  Sn14  1  0.993007  0.786035  0.206972  1
  Sn  Sn15  1  0.008193  0.214297  0.793896  1
  Sn  Sn16  1  0.000212  0.250703  0.250085  1
  Sn  Sn17  1  0.000212  0.750127  0.749509  1
  Sn  Sn18  1  0.474573  0.074592  0.399979  1
  Sn  Sn19  1  0.526044  0.925868  0.600178  1
  Sn  Sn20  1  0.674247  0.574020  0.100226  1
  Sn  Sn21  1  0.321530  0.424813  0.896717  1
