# generated using pymatgen
data_Ti9Ir11
_symmetry_space_group_name_H-M   'P 1'
_cell_length_a   7.43660855
_cell_length_b   7.43660823
_cell_length_c   7.43660823
_cell_angle_alpha   102.67778977
_cell_angle_beta   102.67778564
_cell_angle_gamma   124.12941400
_symmetry_Int_Tables_number   1
_chemical_formula_structural   Ti9Ir11
_chemical_formula_sum   'Ti9 Ir11'
_cell_volume   300.76758628
_cell_formula_units_Z   1
loop_
 _symmetry_equiv_pos_site_id
 _symmetry_equiv_pos_as_xyz
  1  'x, y, z'
loop_
 _atom_site_type_symbol
 _atom_site_label
 _atom_site_symmetry_multiplicity
 _atom_site_fract_x
 _atom_site_fract_y
 _atom_site_fract_z
 _atom_site_occupancy
  Ti  Ti0  1  0.000000  0.000000  0.000000  1
  Ti  Ti1  1  0.234485  0.589939  0.824424  1
  Ti  Ti2  1  0.410061  0.234485  0.644546  1
  Ti  Ti3  1  0.589939  0.765515  0.355454  1
  Ti  Ti4  1  0.765515  0.410061  0.175576  1
  Ti  Ti5  1  0.314871  0.900212  0.215082  1
  Ti  Ti6  1  0.099788  0.314871  0.414659  1
  Ti  Ti7  1  0.900212  0.685129  0.585341  1
  Ti  Ti8  1  0.685129  0.099788  0.784918  1
  Ir  Ir9  1  0.500000  0.500000  0.000000  1
  Ir  Ir10  1  0.750000  0.250000  0.500000  1
  Ir  Ir11  1  0.250000  0.750000  0.500000  1
  Ir  Ir12  1  0.323752  0.017472  0.897661  1
  Ir  Ir13  1  0.426091  0.323752  0.306280  1
  Ir  Ir14  1  0.017472  0.119812  0.693720  1
  Ir  Ir15  1  0.119812  0.426091  0.102339  1
  Ir  Ir16  1  0.676248  0.982528  0.102339  1
  Ir  Ir17  1  0.573909  0.676248  0.693720  1
  Ir  Ir18  1  0.982528  0.880188  0.306280  1
  Ir  Ir19  1  0.880188  0.573909  0.897661  1
