# generated using pymatgen
data_TbGd6Y3(SiB4)4
_symmetry_space_group_name_H-M   'P 1'
_cell_length_a   7.26550516
_cell_length_b   7.26550602
_cell_length_c   8.18423700
_cell_angle_alpha   89.99870933
_cell_angle_beta   90.00129059
_cell_angle_gamma   89.98358135
_symmetry_Int_Tables_number   1
_chemical_formula_structural   TbGd6Y3(SiB4)4
_chemical_formula_sum   'Tb1 Gd6 Y3 Si4 B16'
_cell_volume   432.02597792
_cell_formula_units_Z   1
loop_
 _symmetry_equiv_pos_site_id
 _symmetry_equiv_pos_as_xyz
  1  'x, y, z'
loop_
 _atom_site_type_symbol
 _atom_site_label
 _atom_site_symmetry_multiplicity
 _atom_site_fract_x
 _atom_site_fract_y
 _atom_site_fract_z
 _atom_site_occupancy
  Tb  Tb0  1  0.180306  0.319694  0.777342  1
  Gd  Gd1  1  0.680544  0.180596  0.225113  1
  Gd  Gd2  1  0.319415  0.819507  0.774911  1
  Gd  Gd3  1  0.319404  0.819456  0.225113  1
  Gd  Gd4  1  0.819429  0.680571  0.224542  1
  Gd  Gd5  1  0.819474  0.680526  0.775383  1
  Gd  Gd6  1  0.680493  0.180585  0.774911  1
  Y  Y7  1  0.180292  0.319708  0.222417  1
  Y  Y8  1  0.000379  0.000323  0.499900  1
  Y  Y9  1  0.499677  0.499621  0.499900  1
  Si  Si10  1  0.115358  0.613769  0.499878  1
  Si  Si11  1  0.886231  0.384642  0.499878  1
  Si  Si12  1  0.384511  0.115489  0.499839  1
  Si  Si13  1  0.614010  0.885990  0.499868  1
  B  B14  1  0.172539  0.039503  0.000059  1
  B  B15  1  0.827836  0.960913  0.000097  1
  B  B16  1  0.960818  0.172456  0.000050  1
  B  B17  1  0.327544  0.539182  0.000050  1
  B  B18  1  0.039390  0.827841  0.000073  1
  B  B19  1  0.672159  0.460610  0.000073  1
  B  B20  1  0.539087  0.672164  0.000097  1
  B  B21  1  0.460497  0.327461  0.000059  1
  B  B22  1  0.090224  0.589975  0.000044  1
  B  B23  1  0.910025  0.409776  0.000044  1
  B  B24  1  0.409887  0.090113  0.999969  1
  B  B25  1  0.590163  0.909837  0.000104  1
  B  B26  1  0.000268  0.000123  0.159775  1
  B  B27  1  0.000305  0.000145  0.840370  1
  B  B28  1  0.499855  0.499695  0.840370  1
  B  B29  1  0.499877  0.499732  0.159775  1
