# generated using pymatgen
data_TbZr(NiP)3
_symmetry_space_group_name_H-M   'P 1'
_cell_length_a   3.75463500
_cell_length_b   10.19891600
_cell_length_c   12.35868500
_cell_angle_alpha   90.00000000
_cell_angle_beta   90.00000000
_cell_angle_gamma   90.00000000
_symmetry_Int_Tables_number   1
_chemical_formula_structural   TbZr(NiP)3
_chemical_formula_sum   'Tb4 Zr4 Ni12 P12'
_cell_volume   473.25368265
_cell_formula_units_Z   4
loop_
 _symmetry_equiv_pos_site_id
 _symmetry_equiv_pos_as_xyz
  1  'x, y, z'
loop_
 _atom_site_type_symbol
 _atom_site_label
 _atom_site_symmetry_multiplicity
 _atom_site_fract_x
 _atom_site_fract_y
 _atom_site_fract_z
 _atom_site_occupancy
  Tb  Tb0  1  0.250000  0.071370  0.207633  1
  Tb  Tb1  1  0.750000  0.928630  0.792367  1
  Tb  Tb2  1  0.750000  0.571370  0.292367  1
  Tb  Tb3  1  0.250000  0.428630  0.707633  1
  Zr  Zr4  1  0.250000  0.159728  0.497133  1
  Zr  Zr5  1  0.750000  0.840272  0.502867  1
  Zr  Zr6  1  0.750000  0.659728  0.002867  1
  Zr  Zr7  1  0.250000  0.340272  0.997133  1
  Ni  Ni8  1  0.250000  0.727706  0.664796  1
  Ni  Ni9  1  0.750000  0.272294  0.335204  1
  Ni  Ni10  1  0.750000  0.227706  0.835204  1
  Ni  Ni11  1  0.250000  0.772294  0.164796  1
  Ni  Ni12  1  0.250000  0.365379  0.218602  1
  Ni  Ni13  1  0.750000  0.634621  0.781398  1
  Ni  Ni14  1  0.750000  0.865379  0.281398  1
  Ni  Ni15  1  0.250000  0.134621  0.718602  1
  Ni  Ni16  1  0.250000  0.597360  0.484050  1
  Ni  Ni17  1  0.750000  0.402640  0.515950  1
  Ni  Ni18  1  0.750000  0.097360  0.015950  1
  Ni  Ni19  1  0.250000  0.902640  0.984050  1
  P  P20  1  0.250000  0.944846  0.623419  1
  P  P21  1  0.750000  0.055154  0.376581  1
  P  P22  1  0.750000  0.444846  0.876581  1
  P  P23  1  0.250000  0.555154  0.123419  1
  P  P24  1  0.250000  0.394030  0.401606  1
  P  P25  1  0.750000  0.605970  0.598394  1
  P  P26  1  0.750000  0.894030  0.098394  1
  P  P27  1  0.250000  0.105970  0.901606  1
  P  P28  1  0.250000  0.770613  0.354633  1
  P  P29  1  0.750000  0.229387  0.645367  1
  P  P30  1  0.750000  0.270613  0.145367  1
  P  P31  1  0.250000  0.729387  0.854633  1
