# generated using pymatgen
data_CsZn2Cl5
_symmetry_space_group_name_H-M   'P 1'
_cell_length_a   11.75112545
_cell_length_b   11.75112587
_cell_length_c   11.75112600
_cell_angle_alpha   59.99999964
_cell_angle_beta   59.99999844
_cell_angle_gamma   59.99999853
_symmetry_Int_Tables_number   1
_chemical_formula_structural   CsZn2Cl5
_chemical_formula_sum   'Cs4 Zn8 Cl20'
_cell_volume   1147.42263976
_cell_formula_units_Z   4
loop_
 _symmetry_equiv_pos_site_id
 _symmetry_equiv_pos_as_xyz
  1  'x, y, z'
loop_
 _atom_site_type_symbol
 _atom_site_label
 _atom_site_symmetry_multiplicity
 _atom_site_fract_x
 _atom_site_fract_y
 _atom_site_fract_z
 _atom_site_occupancy
  Cs  Cs0  1  0.125000  0.625000  0.625000  1
  Cs  Cs1  1  0.625000  0.125000  0.625000  1
  Cs  Cs2  1  0.625000  0.625000  0.125000  1
  Cs  Cs3  1  0.625000  0.625000  0.625000  1
  Zn  Zn4  1  0.005814  0.331395  0.331395  1
  Zn  Zn5  1  0.331395  0.005814  0.331395  1
  Zn  Zn6  1  0.331395  0.331395  0.005814  1
  Zn  Zn7  1  0.331395  0.331395  0.331395  1
  Zn  Zn8  1  0.244186  0.918605  0.918605  1
  Zn  Zn9  1  0.918605  0.244186  0.918605  1
  Zn  Zn10  1  0.918605  0.918605  0.244186  1
  Zn  Zn11  1  0.918605  0.918605  0.918605  1
  Cl  Cl12  1  0.089173  0.089173  0.410827  1
  Cl  Cl13  1  0.410827  0.410827  0.089173  1
  Cl  Cl14  1  0.089173  0.410827  0.089173  1
  Cl  Cl15  1  0.410827  0.089173  0.410827  1
  Cl  Cl16  1  0.410827  0.089173  0.089173  1
  Cl  Cl17  1  0.089173  0.410827  0.410827  1
  Cl  Cl18  1  0.160827  0.160827  0.839173  1
  Cl  Cl19  1  0.839173  0.839173  0.160827  1
  Cl  Cl20  1  0.160827  0.839173  0.160827  1
  Cl  Cl21  1  0.839173  0.160827  0.839173  1
  Cl  Cl22  1  0.839173  0.160827  0.160827  1
  Cl  Cl23  1  0.160827  0.839173  0.839173  1
  Cl  Cl24  1  0.772323  0.409225  0.409225  1
  Cl  Cl25  1  0.409225  0.772323  0.409225  1
  Cl  Cl26  1  0.409225  0.409225  0.772323  1
  Cl  Cl27  1  0.409225  0.409225  0.409225  1
  Cl  Cl28  1  0.477677  0.840775  0.840775  1
  Cl  Cl29  1  0.840775  0.477677  0.840775  1
  Cl  Cl30  1  0.840775  0.840775  0.477677  1
  Cl  Cl31  1  0.840775  0.840775  0.840775  1
