# generated using pymatgen
data_SrPr5HoCoI12
_symmetry_space_group_name_H-M   'P 1'
_cell_length_a   9.91299383
_cell_length_b   10.04137416
_cell_length_c   10.01339112
_cell_angle_alpha   106.13596027
_cell_angle_beta   106.48971034
_cell_angle_gamma   106.34027958
_symmetry_Int_Tables_number   1
_chemical_formula_structural   SrPr5HoCoI12
_chemical_formula_sum   'Sr1 Pr5 Ho1 Co1 I12'
_cell_volume   844.96610376
_cell_formula_units_Z   1
loop_
 _symmetry_equiv_pos_site_id
 _symmetry_equiv_pos_as_xyz
  1  'x, y, z'
loop_
 _atom_site_type_symbol
 _atom_site_label
 _atom_site_symmetry_multiplicity
 _atom_site_fract_x
 _atom_site_fract_y
 _atom_site_fract_z
 _atom_site_occupancy
  Sr  Sr0  1  0.500976  0.500181  0.499506  1
  Pr  Pr1  1  0.020613  0.096705  0.302855  1
  Pr  Pr2  1  0.097387  0.300851  0.020043  1
  Pr  Pr3  1  0.286591  0.020022  0.089964  1
  Pr  Pr4  1  0.902496  0.698837  0.980064  1
  Pr  Pr5  1  0.712372  0.978748  0.905308  1
  Ho  Ho6  1  0.978873  0.906154  0.710613  1
  Co  Co7  1  0.999117  0.999655  0.999695  1
  I  I8  1  0.541918  0.626912  0.854397  1
  I  I9  1  0.457644  0.373278  0.144366  1
  I  I10  1  0.310088  0.923975  0.767083  1
  I  I11  1  0.375191  0.143234  0.453410  1
  I  I12  1  0.928095  0.775403  0.328365  1
  I  I13  1  0.674842  0.072305  0.222615  1
  I  I14  1  0.069841  0.212974  0.675523  1
  I  I15  1  0.770946  0.321415  0.924566  1
  I  I16  1  0.228898  0.678655  0.074629  1
  I  I17  1  0.864733  0.558252  0.628450  1
  I  I18  1  0.141812  0.454474  0.371831  1
  I  I19  1  0.637566  0.857971  0.546716  1
