# generated using pymatgen
data_Ho2ErIn4CoIr
_symmetry_space_group_name_H-M   'P 1'
_cell_length_a   7.92128151
_cell_length_b   7.91986568
_cell_length_c   3.64667900
_cell_angle_alpha   90.00000000
_cell_angle_beta   90.00000000
_cell_angle_gamma   119.96483199
_symmetry_Int_Tables_number   1
_chemical_formula_structural   Ho2ErIn4CoIr
_chemical_formula_sum   'Ho2 Er1 In4 Co1 Ir1'
_cell_volume   198.19615551
_cell_formula_units_Z   1
loop_
 _symmetry_equiv_pos_site_id
 _symmetry_equiv_pos_as_xyz
  1  'x, y, z'
loop_
 _atom_site_type_symbol
 _atom_site_label
 _atom_site_symmetry_multiplicity
 _atom_site_fract_x
 _atom_site_fract_y
 _atom_site_fract_z
 _atom_site_occupancy
  Ho  Ho0  1  0.703039  0.956606  0.500000  1
  Ho  Ho1  1  0.253730  0.296944  0.500000  1
  Er  Er2  1  0.042837  0.746543  0.500000  1
  In  In3  1  0.918827  0.339150  0.000000  1
  In  In4  1  0.419909  0.081033  0.000000  1
  In  In5  1  0.661870  0.580216  0.000000  1
  In  In6  1  0.332869  0.666855  0.000000  1
  Co  Co7  1  0.666760  0.333481  0.500000  1
  Ir  Ir8  1  0.000162  0.999170  0.000000  1
