# generated using pymatgen
data_Tc2O2F3
_symmetry_space_group_name_H-M   'P 1'
_cell_length_a   5.04838965
_cell_length_b   5.59593308
_cell_length_c   6.78215910
_cell_angle_alpha   106.51754781
_cell_angle_beta   111.85022098
_cell_angle_gamma   89.99999582
_symmetry_Int_Tables_number   1
_chemical_formula_structural   Tc2O2F3
_chemical_formula_sum   'Tc4 O4 F6'
_cell_volume   169.28611872
_cell_formula_units_Z   2
loop_
 _symmetry_equiv_pos_site_id
 _symmetry_equiv_pos_as_xyz
  1  'x, y, z'
loop_
 _atom_site_type_symbol
 _atom_site_label
 _atom_site_symmetry_multiplicity
 _atom_site_fract_x
 _atom_site_fract_y
 _atom_site_fract_z
 _atom_site_occupancy
  Tc  Tc0  1  0.405676  0.824071  0.321543  1
  Tc  Tc1  1  0.084133  0.675929  0.678457  1
  Tc  Tc2  1  0.594324  0.175929  0.678457  1
  Tc  Tc3  1  0.915867  0.324071  0.321543  1
  O  O4  1  0.740861  0.849355  0.599053  1
  O  O5  1  0.141808  0.650645  0.400947  1
  O  O6  1  0.259139  0.150645  0.400947  1
  O  O7  1  0.858192  0.349355  0.599053  1
  F  F8  1  0.538326  0.482764  0.207827  1
  F  F9  1  0.330499  0.017236  0.792173  1
  F  F10  1  0.461674  0.517236  0.792173  1
  F  F11  1  0.669501  0.982764  0.207827  1
  F  F12  1  0.096179  0.750000  0.000000  1
  F  F13  1  0.903821  0.250000  0.000000  1
