# generated using pymatgen
data_LiTbNd4(P2Ru3)6
_symmetry_space_group_name_H-M   'P 1'
_cell_length_a   4.00457900
_cell_length_b   12.69705938
_cell_length_c   12.51588415
_cell_angle_alpha   119.51167587
_cell_angle_beta   90.00000000
_cell_angle_gamma   90.00000000
_symmetry_Int_Tables_number   1
_chemical_formula_structural   LiTbNd4(P2Ru3)6
_chemical_formula_sum   'Li1 Tb1 Nd4 P12 Ru18'
_cell_volume   553.81949990
_cell_formula_units_Z   1
loop_
 _symmetry_equiv_pos_site_id
 _symmetry_equiv_pos_as_xyz
  1  'x, y, z'
loop_
 _atom_site_type_symbol
 _atom_site_label
 _atom_site_symmetry_multiplicity
 _atom_site_fract_x
 _atom_site_fract_y
 _atom_site_fract_z
 _atom_site_occupancy
  Li  Li0  1  0.000000  0.999932  0.562193  1
  Tb  Tb1  1  0.000000  0.658770  0.328744  1
  Nd  Nd2  1  0.500000  0.001071  0.182491  1
  Nd  Nd3  1  0.500000  0.182692  0.997687  1
  Nd  Nd4  1  0.500000  0.816883  0.814892  1
  Nd  Nd5  1  0.000000  0.340374  0.670066  1
  P  P6  1  0.000000  0.997979  0.803398  1
  P  P7  1  0.000000  0.815770  0.002695  1
  P  P8  1  0.000000  0.185279  0.185691  1
  P  P9  1  0.500000  0.308155  0.479458  1
  P  P10  1  0.500000  0.179435  0.700369  1
  P  P11  1  0.500000  0.528364  0.834394  1
  P  P12  1  0.500000  0.816797  0.517406  1
  P  P13  1  0.500000  0.474287  0.304772  1
  P  P14  1  0.500000  0.693611  0.175351  1
  P  P15  1  0.000000  0.000870  0.370585  1
  P  P16  1  0.000000  0.375580  0.999208  1
  P  P17  1  0.000000  0.623760  0.623963  1
  Ru  Ru18  1  0.000000  0.556133  0.001066  1
  Ru  Ru19  1  0.000000  0.443792  0.445049  1
  Ru  Ru20  1  0.500000  0.998092  0.707165  1
  Ru  Ru21  1  0.500000  0.718289  0.004542  1
  Ru  Ru22  1  0.500000  0.283659  0.284942  1
  Ru  Ru23  1  0.000000  0.195731  0.381529  1
  Ru  Ru24  1  0.000000  0.185742  0.803810  1
  Ru  Ru25  1  0.000000  0.626555  0.818052  1
  Ru  Ru26  1  0.000000  0.811092  0.614784  1
  Ru  Ru27  1  0.000000  0.375738  0.191087  1
  Ru  Ru28  1  0.000000  0.804635  0.188560  1
  Ru  Ru29  1  0.500000  0.122340  0.490559  1
  Ru  Ru30  1  0.500000  0.369413  0.879599  1
  Ru  Ru31  1  0.500000  0.510080  0.636076  1
  Ru  Ru32  1  0.500000  0.628628  0.506586  1
  Ru  Ru33  1  0.500000  0.493690  0.128136  1
  Ru  Ru34  1  0.500000  0.876716  0.369411  1
  Ru  Ru35  1  0.000000  0.999960  0.995680  1
