# generated using pymatgen
data_SmHoCuNi7B2
_symmetry_space_group_name_H-M   'P 1'
_cell_length_a   5.01113103
_cell_length_b   5.01170719
_cell_length_c   6.94419600
_cell_angle_alpha   90.00000000
_cell_angle_beta   90.00000000
_cell_angle_gamma   119.99447088
_symmetry_Int_Tables_number   1
_chemical_formula_structural   SmHoCuNi7B2
_chemical_formula_sum   'Sm1 Ho1 Cu1 Ni7 B2'
_cell_volume   151.04217965
_cell_formula_units_Z   1
loop_
 _symmetry_equiv_pos_site_id
 _symmetry_equiv_pos_as_xyz
  1  'x, y, z'
loop_
 _atom_site_type_symbol
 _atom_site_label
 _atom_site_symmetry_multiplicity
 _atom_site_fract_x
 _atom_site_fract_y
 _atom_site_fract_z
 _atom_site_occupancy
  Sm  Sm0  1  0.999976  0.000040  0.000000  1
  Ho  Ho1  1  0.999986  0.999989  0.500000  1
  Cu  Cu2  1  0.333223  0.666591  0.000000  1
  Ni  Ni3  1  0.666713  0.333437  0.000000  1
  Ni  Ni4  1  0.500663  0.001374  0.295448  1
  Ni  Ni5  1  0.500691  0.499313  0.295474  1
  Ni  Ni6  1  0.998606  0.499307  0.295492  1
  Ni  Ni7  1  0.500663  0.001374  0.704552  1
  Ni  Ni8  1  0.500691  0.499313  0.704526  1
  Ni  Ni9  1  0.998606  0.499307  0.704508  1
  B  B10  1  0.333361  0.666693  0.500000  1
  B  B11  1  0.666619  0.333261  0.500000  1
