# generated using pymatgen
data_Li8Pa2PdO10
_symmetry_space_group_name_H-M   'P 1'
_cell_length_a   5.46535642
_cell_length_b   5.46535643
_cell_length_c   11.20830782
_cell_angle_alpha   75.04297332
_cell_angle_beta   75.04297543
_cell_angle_gamma   47.44401286
_symmetry_Int_Tables_number   1
_chemical_formula_structural   Li8Pa2PdO10
_chemical_formula_sum   'Li8 Pa2 Pd1 O10'
_cell_volume   236.61177306
_cell_formula_units_Z   1
loop_
 _symmetry_equiv_pos_site_id
 _symmetry_equiv_pos_as_xyz
  1  'x, y, z'
loop_
 _atom_site_type_symbol
 _atom_site_label
 _atom_site_symmetry_multiplicity
 _atom_site_fract_x
 _atom_site_fract_y
 _atom_site_fract_z
 _atom_site_occupancy
  Li  Li0  1  0.607308  0.607308  0.543315  1
  Li  Li1  1  0.244794  0.244794  0.082691  1
  Li  Li2  1  0.083308  0.083308  0.392939  1
  Li  Li3  1  0.916692  0.916692  0.607061  1
  Li  Li4  1  0.755206  0.755206  0.917309  1
  Li  Li5  1  0.392692  0.392692  0.456685  1
  Li  Li6  1  0.554811  0.554811  0.196490  1
  Li  Li7  1  0.445189  0.445189  0.803510  1
  Pa  Pa8  1  0.178396  0.178396  0.723571  1
  Pa  Pa9  1  0.821604  0.821604  0.276429  1
  Pd  Pd10  1  0.000000  0.000000  0.000000  1
  O  O11  1  0.954081  0.954081  0.831805  1
  O  O12  1  0.666268  0.666268  0.734971  1
  O  O13  1  0.333732  0.333732  0.265029  1
  O  O14  1  0.397698  0.397698  0.639445  1
  O  O15  1  0.602302  0.602302  0.360555  1
  O  O16  1  0.214770  0.214770  0.912577  1
  O  O17  1  0.045919  0.045919  0.168195  1
  O  O18  1  0.125802  0.125802  0.555065  1
  O  O19  1  0.874198  0.874198  0.444935  1
  O  O20  1  0.785230  0.785230  0.087423  1
