# generated using pymatgen
data_DyEr3(Si5Pt3)2
_symmetry_space_group_name_H-M   'P 1'
_cell_length_a   8.14552182
_cell_length_b   8.14669595
_cell_length_c   8.14669612
_cell_angle_alpha   136.27607406
_cell_angle_beta   104.42313428
_cell_angle_gamma   91.62057075
_symmetry_Int_Tables_number   1
_chemical_formula_structural   DyEr3(Si5Pt3)2
_chemical_formula_sum   'Dy1 Er3 Si10 Pt6'
_cell_volume   343.91859320
_cell_formula_units_Z   1
loop_
 _symmetry_equiv_pos_site_id
 _symmetry_equiv_pos_as_xyz
  1  'x, y, z'
loop_
 _atom_site_type_symbol
 _atom_site_label
 _atom_site_symmetry_multiplicity
 _atom_site_fract_x
 _atom_site_fract_y
 _atom_site_fract_z
 _atom_site_occupancy
  Dy  Dy0  1  0.899871  0.129408  0.770463  1
  Er  Er1  1  0.642172  0.370296  0.271876  1
  Er  Er2  1  0.358214  0.629847  0.728368  1
  Er  Er3  1  0.098731  0.870133  0.228598  1
  Si  Si4  1  0.272137  0.521541  0.249770  1
  Si  Si5  1  0.728370  0.477867  0.749783  1
  Si  Si6  1  0.728370  0.978587  0.250504  1
  Si  Si7  1  0.272137  0.022367  0.750596  1
  Si  Si8  1  0.460533  0.111697  0.348835  1
  Si  Si9  1  0.538260  0.887109  0.651151  1
  Si  Si10  1  0.763655  0.611869  0.151786  1
  Si  Si11  1  0.236903  0.388742  0.848161  1
  Si  Si12  1  0.000027  0.249088  0.248975  1
  Si  Si13  1  0.000027  0.751052  0.750938  1
  Pt  Pt14  1  0.251529  0.137826  0.113702  1
  Pt  Pt15  1  0.748328  0.861649  0.886680  1
  Pt  Pt16  1  0.024939  0.637633  0.387307  1
  Pt  Pt17  1  0.976223  0.363414  0.612809  1
  Pt  Pt18  1  0.499787  0.250246  0.750155  1
  Pt  Pt19  1  0.499787  0.749632  0.249541  1
