# generated using pymatgen
data_Tb4Y3Co5Sn23Ru
_symmetry_space_group_name_H-M   'P 1'
_cell_length_a   9.77035620
_cell_length_b   9.77035613
_cell_length_c   9.99545175
_cell_angle_alpha   90.04213800
_cell_angle_beta   89.95786101
_cell_angle_gamma   120.00895155
_symmetry_Int_Tables_number   1
_chemical_formula_structural   Tb4Y3Co5Sn23Ru
_chemical_formula_sum   'Tb4 Y3 Co5 Sn23 Ru1'
_cell_volume   826.25578235
_cell_formula_units_Z   1
loop_
 _symmetry_equiv_pos_site_id
 _symmetry_equiv_pos_as_xyz
  1  'x, y, z'
loop_
 _atom_site_type_symbol
 _atom_site_label
 _atom_site_symmetry_multiplicity
 _atom_site_fract_x
 _atom_site_fract_y
 _atom_site_fract_z
 _atom_site_occupancy
  Tb  Tb0  1  0.479350  0.957449  0.306049  1
  Tb  Tb1  1  0.520474  0.042904  0.694007  1
  Tb  Tb2  1  0.042551  0.520650  0.306049  1
  Tb  Tb3  1  0.957096  0.479526  0.694007  1
  Y  Y4  1  0.996708  0.003292  0.003349  1
  Y  Y5  1  0.478968  0.521032  0.306754  1
  Y  Y6  1  0.521547  0.478453  0.693465  1
  Co  Co7  1  0.167256  0.832744  0.803926  1
  Co  Co8  1  0.832432  0.664459  0.196251  1
  Co  Co9  1  0.168764  0.334642  0.802044  1
  Co  Co10  1  0.335541  0.167568  0.196251  1
  Co  Co11  1  0.665358  0.831236  0.802044  1
  Sn  Sn12  1  0.344807  0.999266  0.999933  1
  Sn  Sn13  1  0.649143  0.995819  0.995681  1
  Sn  Sn14  1  0.004181  0.350857  0.995681  1
  Sn  Sn15  1  0.000734  0.655193  0.999933  1
  Sn  Sn16  1  0.653568  0.653438  0.999609  1
  Sn  Sn17  1  0.346562  0.346432  0.999609  1
  Sn  Sn18  1  0.333431  0.666569  0.816600  1
  Sn  Sn19  1  0.665828  0.334172  0.181906  1
  Sn  Sn20  1  0.999111  0.000889  0.501542  1
  Sn  Sn21  1  0.779824  0.220176  0.455648  1
  Sn  Sn22  1  0.218686  0.781314  0.549778  1
  Sn  Sn23  1  0.781089  0.562843  0.450456  1
  Sn  Sn24  1  0.218846  0.437514  0.549152  1
  Sn  Sn25  1  0.437157  0.218911  0.450456  1
  Sn  Sn26  1  0.562486  0.781154  0.549152  1
  Sn  Sn27  1  0.333800  0.666200  0.117517  1
  Sn  Sn28  1  0.666323  0.333677  0.881596  1
  Sn  Sn29  1  0.116979  0.883021  0.273683  1
  Sn  Sn30  1  0.882124  0.117876  0.726143  1
  Sn  Sn31  1  0.123626  0.236111  0.276788  1
  Sn  Sn32  1  0.883692  0.765289  0.725682  1
  Sn  Sn33  1  0.763889  0.876374  0.276788  1
  Sn  Sn34  1  0.234711  0.116308  0.725682  1
  Ru  Ru35  1  0.833352  0.166648  0.196782  1
