# generated using pymatgen
data_Ta3ZnGa2Ir3
_symmetry_space_group_name_H-M   'P 1'
_cell_length_a   7.48270800
_cell_length_b   7.47668628
_cell_length_c   2.91850100
_cell_angle_alpha   90.00000000
_cell_angle_beta   90.00000000
_cell_angle_gamma   120.02664598
_symmetry_Int_Tables_number   1
_chemical_formula_structural   Ta3ZnGa2Ir3
_chemical_formula_sum   'Ta3 Zn1 Ga2 Ir3'
_cell_volume   141.36495602
_cell_formula_units_Z   1
loop_
 _symmetry_equiv_pos_site_id
 _symmetry_equiv_pos_as_xyz
  1  'x, y, z'
loop_
 _atom_site_type_symbol
 _atom_site_label
 _atom_site_symmetry_multiplicity
 _atom_site_fract_x
 _atom_site_fract_y
 _atom_site_fract_z
 _atom_site_occupancy
  Ta  Ta0  1  0.371626  0.000000  0.500001  1
  Ta  Ta1  1  0.995691  0.361344  0.500001  1
  Ta  Ta2  1  0.634347  0.638657  0.500001  1
  Zn  Zn3  1  0.702784  0.000000  0.000000  1
  Ga  Ga4  1  0.295263  0.294558  0.000000  1
  Ga  Ga5  1  0.000705  0.705443  0.000000  1
  Ir  Ir6  1  0.666960  0.336368  0.000000  1
  Ir  Ir7  1  0.330593  0.663633  0.000000  1
  Ir  Ir8  1  0.002032  0.000000  0.500001  1
