# generated using pymatgen
data_Nd16Cd4IrPt3
_symmetry_space_group_name_H-M   'P 1'
_cell_length_a   10.02812180
_cell_length_b   10.03063060
_cell_length_c   10.03063100
_cell_angle_alpha   60.00000198
_cell_angle_beta   59.99172588
_cell_angle_gamma   59.99173068
_symmetry_Int_Tables_number   1
_chemical_formula_structural   Nd16Cd4IrPt3
_chemical_formula_sum   'Nd16 Cd4 Ir1 Pt3'
_cell_volume   713.35677504
_cell_formula_units_Z   1
loop_
 _symmetry_equiv_pos_site_id
 _symmetry_equiv_pos_as_xyz
  1  'x, y, z'
loop_
 _atom_site_type_symbol
 _atom_site_label
 _atom_site_symmetry_multiplicity
 _atom_site_fract_x
 _atom_site_fract_y
 _atom_site_fract_z
 _atom_site_occupancy
  Nd  Nd0  1  0.351218  0.347493  0.347493  1
  Nd  Nd1  1  0.351218  0.347493  0.953796  1
  Nd  Nd2  1  0.351218  0.953796  0.347493  1
  Nd  Nd3  1  0.949382  0.350206  0.350206  1
  Nd  Nd4  1  0.805799  0.190568  0.190568  1
  Nd  Nd5  1  0.192661  0.808302  0.808302  1
  Nd  Nd6  1  0.192661  0.808302  0.190736  1
  Nd  Nd7  1  0.805799  0.190568  0.813065  1
  Nd  Nd8  1  0.192661  0.190736  0.808302  1
  Nd  Nd9  1  0.805799  0.813065  0.190568  1
  Nd  Nd10  1  0.936745  0.564305  0.564305  1
  Nd  Nd11  1  0.565391  0.936269  0.936269  1
  Nd  Nd12  1  0.565391  0.936269  0.562071  1
  Nd  Nd13  1  0.936745  0.564305  0.934646  1
  Nd  Nd14  1  0.565391  0.562071  0.936269  1
  Nd  Nd15  1  0.936745  0.934646  0.564305  1
  Cd  Cd16  1  0.579630  0.579962  0.579962  1
  Cd  Cd17  1  0.579630  0.579962  0.260445  1
  Cd  Cd18  1  0.579630  0.260445  0.579962  1
  Cd  Cd19  1  0.260970  0.579676  0.579676  1
  Ir  Ir20  1  0.572509  0.142497  0.142497  1
  Pt  Pt21  1  0.140937  0.143125  0.143125  1
  Pt  Pt22  1  0.140937  0.143125  0.572812  1
  Pt  Pt23  1  0.140937  0.572812  0.143125  1
