# generated using pymatgen
data_Tb8YEr11(CoBi2)4
_symmetry_space_group_name_H-M   'P 1'
_cell_length_a   7.96323822
_cell_length_b   8.87726100
_cell_length_c   12.37452604
_cell_angle_alpha   90.00000000
_cell_angle_beta   90.00912447
_cell_angle_gamma   90.00000000
_symmetry_Int_Tables_number   1
_chemical_formula_structural   Tb8YEr11(CoBi2)4
_chemical_formula_sum   'Tb8 Y1 Er11 Co4 Bi8'
_cell_volume   874.77681668
_cell_formula_units_Z   1
loop_
 _symmetry_equiv_pos_site_id
 _symmetry_equiv_pos_as_xyz
  1  'x, y, z'
loop_
 _atom_site_type_symbol
 _atom_site_label
 _atom_site_symmetry_multiplicity
 _atom_site_fract_x
 _atom_site_fract_y
 _atom_site_fract_z
 _atom_site_occupancy
  Tb  Tb0  1  0.654078  0.750000  0.699373  1
  Tb  Tb1  1  0.345552  0.250000  0.300464  1
  Tb  Tb2  1  0.154260  0.250000  0.799671  1
  Tb  Tb3  1  0.846265  0.750000  0.200034  1
  Tb  Tb4  1  0.122676  0.750000  0.812416  1
  Tb  Tb5  1  0.877404  0.250000  0.187727  1
  Tb  Tb6  1  0.622959  0.250000  0.687576  1
  Tb  Tb7  1  0.377570  0.750000  0.312191  1
  Y  Y8  1  0.550598  0.750000  0.997057  1
  Er  Er9  1  0.446903  0.250000  0.002807  1
  Er  Er10  1  0.052918  0.250000  0.503156  1
  Er  Er11  1  0.946554  0.750000  0.496756  1
  Er  Er12  1  0.826805  0.463445  0.936163  1
  Er  Er13  1  0.173228  0.535172  0.064185  1
  Er  Er14  1  0.326147  0.536369  0.563390  1
  Er  Er15  1  0.173228  0.964828  0.064185  1
  Er  Er16  1  0.673653  0.463637  0.436536  1
  Er  Er17  1  0.826805  0.036555  0.936163  1
  Er  Er18  1  0.673653  0.036363  0.436536  1
  Er  Er19  1  0.326147  0.963631  0.563390  1
  Co  Co20  1  0.939807  0.750000  0.993045  1
  Co  Co21  1  0.062966  0.250000  0.007399  1
  Co  Co22  1  0.436697  0.250000  0.507793  1
  Co  Co23  1  0.563237  0.750000  0.492147  1
  Bi  Bi24  1  0.933648  0.006896  0.672082  1
  Bi  Bi25  1  0.066339  0.993000  0.328000  1
  Bi  Bi26  1  0.433308  0.993425  0.826962  1
  Bi  Bi27  1  0.066339  0.507000  0.328000  1
  Bi  Bi28  1  0.566648  0.007642  0.172875  1
  Bi  Bi29  1  0.933648  0.493104  0.672082  1
  Bi  Bi30  1  0.566648  0.492358  0.172875  1
  Bi  Bi31  1  0.433308  0.506575  0.826962  1
