# generated using pymatgen
data_Zr4AlGa(SbPt2)2
_symmetry_space_group_name_H-M   'P 1'
_cell_length_a   6.33370238
_cell_length_b   6.33370226
_cell_length_c   7.75086445
_cell_angle_alpha   65.88430568
_cell_angle_beta   65.88430875
_cell_angle_gamma   89.99999601
_symmetry_Int_Tables_number   1
_chemical_formula_structural   Zr4AlGa(SbPt2)2
_chemical_formula_sum   'Zr4 Al1 Ga1 Sb2 Pt4'
_cell_volume   253.77158334
_cell_formula_units_Z   1
loop_
 _symmetry_equiv_pos_site_id
 _symmetry_equiv_pos_as_xyz
  1  'x, y, z'
loop_
 _atom_site_type_symbol
 _atom_site_label
 _atom_site_symmetry_multiplicity
 _atom_site_fract_x
 _atom_site_fract_y
 _atom_site_fract_z
 _atom_site_occupancy
  Zr  Zr0  1  0.495973  0.995974  0.008052  1
  Zr  Zr1  1  0.754992  0.754992  0.490014  1
  Zr  Zr2  1  0.245007  0.245007  0.509988  1
  Zr  Zr3  1  0.004025  0.504025  0.991947  1
  Al  Al4  1  0.249999  0.749999  0.500000  1
  Ga  Ga5  1  0.000000  0.000000  0.000000  1
  Sb  Sb6  1  0.500000  0.500000  0.000000  1
  Sb  Sb7  1  0.749999  0.250000  0.500000  1
  Pt  Pt8  1  0.619779  0.114557  0.252827  1
  Pt  Pt9  1  0.127396  0.632614  0.252827  1
  Pt  Pt10  1  0.885443  0.872606  0.747172  1
  Pt  Pt11  1  0.367386  0.380222  0.747172  1
