# generated using pymatgen
data_Dy2Al20FeReRh2
_symmetry_space_group_name_H-M   'P 1'
_cell_length_a   6.84487990
_cell_length_b   6.84107693
_cell_length_c   9.12069747
_cell_angle_alpha   90.69044169
_cell_angle_beta   90.25535584
_cell_angle_gamma   96.94473895
_symmetry_Int_Tables_number   1
_chemical_formula_structural   Dy2Al20FeReRh2
_chemical_formula_sum   'Dy2 Al20 Fe1 Re1 Rh2'
_cell_volume   423.91721342
_cell_formula_units_Z   1
loop_
 _symmetry_equiv_pos_site_id
 _symmetry_equiv_pos_as_xyz
  1  'x, y, z'
loop_
 _atom_site_type_symbol
 _atom_site_label
 _atom_site_symmetry_multiplicity
 _atom_site_fract_x
 _atom_site_fract_y
 _atom_site_fract_z
 _atom_site_occupancy
  Dy  Dy0  1  0.873296  0.129918  0.749446  1
  Dy  Dy1  1  0.126704  0.870082  0.250554  1
  Al  Al2  1  0.619117  0.372488  0.548727  1
  Al  Al3  1  0.380883  0.627512  0.451273  1
  Al  Al4  1  0.377078  0.621022  0.050021  1
  Al  Al5  1  0.622922  0.378978  0.949979  1
  Al  Al6  1  0.229023  0.220461  0.497930  1
  Al  Al7  1  0.770977  0.779539  0.502070  1
  Al  Al8  1  0.775214  0.776539  0.001707  1
  Al  Al9  1  0.224786  0.223461  0.998293  1
  Al  Al10  1  0.845015  0.156460  0.101263  1
  Al  Al11  1  0.154985  0.843540  0.898737  1
  Al  Al12  1  0.161557  0.847923  0.599859  1
  Al  Al13  1  0.838443  0.152077  0.400141  1
  Al  Al14  1  0.857645  0.589489  0.748933  1
  Al  Al15  1  0.142355  0.410511  0.251067  1
  Al  Al16  1  0.414071  0.139326  0.745519  1
  Al  Al17  1  0.585929  0.860674  0.254481  1
  Al  Al18  1  0.222796  0.479004  0.752201  1
  Al  Al19  1  0.777204  0.520996  0.247799  1
  Al  Al20  1  0.519658  0.779320  0.743278  1
  Al  Al21  1  0.480342  0.220680  0.256722  1
  Fe  Fe22  1  0.500000  0.000000  0.500000  1
  Re  Re23  1  0.000000  0.500000  0.000000  1
  Rh  Rh24  1  0.000000  0.500000  0.500000  1
  Rh  Rh25  1  0.500000  0.000000  0.000000  1
