# generated using pymatgen
data_Y7Er12LuPb16
_symmetry_space_group_name_H-M   'P 1'
_cell_length_a   8.17001698
_cell_length_b   15.55158143
_cell_length_c   8.23514700
_cell_angle_alpha   90.01286906
_cell_angle_beta   89.91503829
_cell_angle_gamma   90.10881099
_symmetry_Int_Tables_number   1
_chemical_formula_structural   Y7Er12LuPb16
_chemical_formula_sum   'Y7 Er12 Lu1 Pb16'
_cell_volume   1046.32741008
_cell_formula_units_Z   1
loop_
 _symmetry_equiv_pos_site_id
 _symmetry_equiv_pos_as_xyz
  1  'x, y, z'
loop_
 _atom_site_type_symbol
 _atom_site_label
 _atom_site_symmetry_multiplicity
 _atom_site_fract_x
 _atom_site_fract_y
 _atom_site_fract_z
 _atom_site_occupancy
  Y  Y0  1  0.962865  0.900537  0.823548  1
  Y  Y1  1  0.537273  0.098969  0.323350  1
  Y  Y2  1  0.038319  0.400885  0.175951  1
  Y  Y3  1  0.537941  0.400869  0.324272  1
  Y  Y4  1  0.036875  0.098699  0.176189  1
  Y  Y5  1  0.463071  0.900823  0.676388  1
  Y  Y6  1  0.962244  0.599179  0.823936  1
  Er  Er7  1  0.623982  0.622039  0.157849  1
  Er  Er8  1  0.124741  0.877914  0.342666  1
  Er  Er9  1  0.375762  0.121853  0.842683  1
  Er  Er10  1  0.875616  0.378606  0.657785  1
  Er  Er11  1  0.377209  0.378645  0.842139  1
  Er  Er12  1  0.875259  0.121530  0.657237  1
  Er  Er13  1  0.624561  0.877609  0.157163  1
  Er  Er14  1  0.123873  0.621851  0.342490  1
  Er  Er15  1  0.460208  0.600425  0.674694  1
  Er  Er16  1  0.792340  0.749828  0.495180  1
  Er  Er17  1  0.292506  0.749827  0.004854  1
  Er  Er18  1  0.207818  0.250214  0.505012  1
  Lu  Lu19  1  0.707874  0.250098  0.994903  1
  Pb  Pb20  1  0.717536  0.456538  0.966582  1
  Pb  Pb21  1  0.216703  0.042811  0.535456  1
  Pb  Pb22  1  0.283762  0.956593  0.035182  1
  Pb  Pb23  1  0.780941  0.543660  0.466772  1
  Pb  Pb24  1  0.284043  0.543561  0.033957  1
  Pb  Pb25  1  0.783701  0.956611  0.464015  1
  Pb  Pb26  1  0.716226  0.043131  0.964603  1
  Pb  Pb27  1  0.217302  0.457806  0.535833  1
  Pb  Pb28  1  0.429377  0.749875  0.374171  1
  Pb  Pb29  1  0.929791  0.749810  0.126213  1
  Pb  Pb30  1  0.570963  0.249996  0.626406  1
  Pb  Pb31  1  0.069634  0.250123  0.874138  1
  Pb  Pb32  1  0.650811  0.749287  0.844416  1
  Pb  Pb33  1  0.151667  0.749869  0.655223  1
  Pb  Pb34  1  0.348777  0.250005  0.154723  1
  Pb  Pb35  1  0.848428  0.249920  0.344016  1
