# generated using pymatgen
data_Sm8InPd7Pt17
_symmetry_space_group_name_H-M   'P 1'
_cell_length_a   8.50863600
_cell_length_b   8.51194900
_cell_length_c   8.52536000
_cell_angle_alpha   90.00000000
_cell_angle_beta   90.00000000
_cell_angle_gamma   90.00000000
_symmetry_Int_Tables_number   1
_chemical_formula_structural   Sm8InPd7Pt17
_chemical_formula_sum   'Sm8 In1 Pd7 Pt17'
_cell_volume   617.44984330
_cell_formula_units_Z   1
loop_
 _symmetry_equiv_pos_site_id
 _symmetry_equiv_pos_as_xyz
  1  'x, y, z'
loop_
 _atom_site_type_symbol
 _atom_site_label
 _atom_site_symmetry_multiplicity
 _atom_site_fract_x
 _atom_site_fract_y
 _atom_site_fract_z
 _atom_site_occupancy
  Sm  Sm0  1  0.249972  0.250031  0.250364  1
  Sm  Sm1  1  0.750211  0.750006  0.749735  1
  Sm  Sm2  1  0.750211  0.750006  0.250265  1
  Sm  Sm3  1  0.750211  0.249994  0.749735  1
  Sm  Sm4  1  0.249972  0.250031  0.749636  1
  Sm  Sm5  1  0.249972  0.749969  0.250364  1
  Sm  Sm6  1  0.249972  0.749969  0.749636  1
  Sm  Sm7  1  0.750211  0.249994  0.250265  1
  In  In8  1  0.000287  0.000000  0.000000  1
  Pd  Pd9  1  0.744205  0.500000  0.500000  1
  Pd  Pd10  1  0.499564  0.256121  0.500000  1
  Pd  Pd11  1  0.499564  0.743879  0.500000  1
  Pd  Pd12  1  0.499509  0.500000  0.256539  1
  Pd  Pd13  1  0.499509  0.500000  0.743461  1
  Pd  Pd14  1  0.999928  0.000000  0.318331  1
  Pd  Pd15  1  0.999928  0.000000  0.681669  1
  Pt  Pt16  1  0.269013  0.500000  0.000000  1
  Pt  Pt17  1  0.730398  0.500000  0.000000  1
  Pt  Pt18  1  0.000238  0.267345  0.500000  1
  Pt  Pt19  1  0.500036  0.269185  0.000000  1
  Pt  Pt20  1  0.000238  0.732655  0.500000  1
  Pt  Pt21  1  0.500036  0.730815  0.000000  1
  Pt  Pt22  1  0.500068  0.000000  0.269682  1
  Pt  Pt23  1  0.267359  0.000000  0.500000  1
  Pt  Pt24  1  0.500068  0.000000  0.730318  1
  Pt  Pt25  1  0.732273  0.000000  0.500000  1
  Pt  Pt26  1  0.000356  0.500000  0.269492  1
  Pt  Pt27  1  0.000356  0.500000  0.730508  1
  Pt  Pt28  1  0.255711  0.500000  0.500000  1
  Pt  Pt29  1  0.320070  0.000000  0.000000  1
  Pt  Pt30  1  0.680706  0.000000  0.000000  1
  Pt  Pt31  1  0.999922  0.319320  0.000000  1
  Pt  Pt32  1  0.999922  0.680680  0.000000  1
