# generated using pymatgen
data_YbMnRuC2
_symmetry_space_group_name_H-M   'P 1'
_cell_length_a   5.29330258
_cell_length_b   5.29499537
_cell_length_c   5.61396347
_cell_angle_alpha   108.25512212
_cell_angle_beta   108.24810937
_cell_angle_gamma   109.63056479
_symmetry_Int_Tables_number   1
_chemical_formula_structural   YbMnRuC2
_chemical_formula_sum   'Yb2 Mn2 Ru2 C4'
_cell_volume   124.39986175
_cell_formula_units_Z   2
loop_
 _symmetry_equiv_pos_site_id
 _symmetry_equiv_pos_as_xyz
  1  'x, y, z'
loop_
 _atom_site_type_symbol
 _atom_site_label
 _atom_site_symmetry_multiplicity
 _atom_site_fract_x
 _atom_site_fract_y
 _atom_site_fract_z
 _atom_site_occupancy
  Yb  Yb0  1  0.375108  0.625266  0.250374  1
  Yb  Yb1  1  0.625062  0.374917  0.749972  1
  Mn  Mn2  1  0.259971  0.009891  0.019960  1
  Mn  Mn3  1  0.990040  0.739949  0.479878  1
  Ru  Ru4  1  0.011517  0.261575  0.523190  1
  Ru  Ru5  1  0.738572  0.988620  0.977120  1
  C  C6  1  0.676928  0.322885  0.249994  1
  C  C7  1  0.073054  0.927224  0.250026  1
  C  C8  1  0.955120  0.044106  0.749717  1
  C  C9  1  0.294626  0.705565  0.749770  1
