# generated using pymatgen
data_Sm6SiGeBr6
_symmetry_space_group_name_H-M   'P 1'
_cell_length_a   10.29218821
_cell_length_b   10.29218849
_cell_length_c   10.31312233
_cell_angle_alpha   109.48550661
_cell_angle_beta   109.48550921
_cell_angle_gamma   109.36021326
_symmetry_Int_Tables_number   1
_chemical_formula_structural   Sm6SiGeBr6
_chemical_formula_sum   'Sm12 Si2 Ge2 Br12'
_cell_volume   841.82970475
_cell_formula_units_Z   2
loop_
 _symmetry_equiv_pos_site_id
 _symmetry_equiv_pos_as_xyz
  1  'x, y, z'
loop_
 _atom_site_type_symbol
 _atom_site_label
 _atom_site_symmetry_multiplicity
 _atom_site_fract_x
 _atom_site_fract_y
 _atom_site_fract_z
 _atom_site_occupancy
  Sm  Sm0  1  0.476331  0.486028  0.239962  1
  Sm  Sm1  1  0.746066  0.236370  0.260038  1
  Sm  Sm2  1  0.746013  0.010112  0.485583  1
  Sm  Sm3  1  0.239570  0.475470  0.485583  1
  Sm  Sm4  1  0.263630  0.753934  0.239962  1
  Sm  Sm5  1  0.024530  0.260430  0.014417  1
  Sm  Sm6  1  0.013972  0.023669  0.260038  1
  Sm  Sm7  1  0.489888  0.753987  0.014417  1
  Sm  Sm8  1  0.487407  0.237407  0.474814  1
  Sm  Sm9  1  0.011480  0.488520  0.750000  1
  Sm  Sm10  1  0.262593  0.012593  0.025186  1
  Sm  Sm11  1  0.238520  0.261480  0.750000  1
  Si  Si12  1  0.250579  0.249421  0.250000  1
  Si  Si13  1  0.499421  0.000579  0.250000  1
  Ge  Ge14  1  0.999507  0.249507  0.499013  1
  Ge  Ge15  1  0.250493  0.500493  0.000987  1
  Br  Br16  1  0.249546  0.752822  0.745979  1
  Br  Br17  1  0.506842  0.503567  0.754021  1
  Br  Br18  1  0.991342  0.745044  0.995309  1
  Br  Br19  1  0.747178  0.250454  0.754021  1
  Br  Br20  1  0.996433  0.993158  0.745979  1
  Br  Br21  1  0.249735  0.996032  0.504691  1
  Br  Br22  1  0.754956  0.508658  0.504691  1
  Br  Br23  1  0.503968  0.250265  0.995309  1
  Br  Br24  1  0.753604  0.746396  0.250000  1
  Br  Br25  1  0.745915  0.995915  0.991830  1
  Br  Br26  1  0.996396  0.503604  0.250000  1
  Br  Br27  1  0.504085  0.754085  0.508170  1
