# generated using pymatgen
data_Dy2Ho6Re(TcB8)3
_symmetry_space_group_name_H-M   'P 1'
_cell_length_a   3.67738500
_cell_length_b   9.15222606
_cell_length_c   11.53333001
_cell_angle_alpha   90.02559232
_cell_angle_beta   90.00000000
_cell_angle_gamma   90.00000000
_symmetry_Int_Tables_number   1
_chemical_formula_structural   Dy2Ho6Re(TcB8)3
_chemical_formula_sum   'Dy2 Ho6 Re1 Tc3 B24'
_cell_volume   388.16870129
_cell_formula_units_Z   1
loop_
 _symmetry_equiv_pos_site_id
 _symmetry_equiv_pos_as_xyz
  1  'x, y, z'
loop_
 _atom_site_type_symbol
 _atom_site_label
 _atom_site_symmetry_multiplicity
 _atom_site_fract_x
 _atom_site_fract_y
 _atom_site_fract_z
 _atom_site_occupancy
  Dy  Dy0  1  0.000000  0.324033  0.414033  1
  Dy  Dy1  1  0.000000  0.676180  0.585946  1
  Ho  Ho2  1  0.000000  0.823972  0.086038  1
  Ho  Ho3  1  0.000000  0.176336  0.914211  1
  Ho  Ho4  1  0.000000  0.942728  0.368992  1
  Ho  Ho5  1  0.000000  0.057840  0.630100  1
  Ho  Ho6  1  0.000000  0.442755  0.130841  1
  Ho  Ho7  1  0.000000  0.556204  0.869659  1
  Re  Re8  1  0.000000  0.861256  0.820835  1
  Tc  Tc9  1  0.000000  0.639134  0.320293  1
  Tc  Tc10  1  0.000000  0.360914  0.679646  1
  Tc  Tc11  1  0.000000  0.138864  0.179344  1
  B  B12  1  0.500000  0.553584  0.432813  1
  B  B13  1  0.500000  0.446539  0.567231  1
  B  B14  1  0.500000  0.053409  0.067061  1
  B  B15  1  0.500000  0.946806  0.933245  1
  B  B16  1  0.500000  0.749160  0.418456  1
  B  B17  1  0.500000  0.251085  0.581512  1
  B  B18  1  0.500000  0.248996  0.081291  1
  B  B19  1  0.500000  0.750602  0.918877  1
  B  B20  1  0.500000  0.792109  0.265173  1
  B  B21  1  0.500000  0.207880  0.734683  1
  B  B22  1  0.500000  0.291983  0.234626  1
  B  B23  1  0.500000  0.707654  0.765510  1
  B  B24  1  0.500000  0.630955  0.185480  1
  B  B25  1  0.500000  0.368863  0.814514  1
  B  B26  1  0.500000  0.130827  0.314354  1
  B  B27  1  0.500000  0.869384  0.685496  1
  B  B28  1  0.500000  0.982257  0.211589  1
  B  B29  1  0.500000  0.018082  0.788189  1
  B  B30  1  0.500000  0.482448  0.288179  1
  B  B31  1  0.500000  0.517452  0.711945  1
  B  B32  1  0.500000  0.600079  0.028075  1
  B  B33  1  0.500000  0.399444  0.972136  1
  B  B34  1  0.500000  0.099993  0.471821  1
  B  B35  1  0.500000  0.900195  0.527804  1
