# generated using pymatgen
data_Hf8Co5Ni3(P3Ru)4
_symmetry_space_group_name_H-M   'P 1'
_cell_length_a   3.66909200
_cell_length_b   10.10892369
_cell_length_c   12.32840573
_cell_angle_alpha   89.77450434
_cell_angle_beta   90.00000000
_cell_angle_gamma   90.00000000
_symmetry_Int_Tables_number   1
_chemical_formula_structural   Hf8Co5Ni3(P3Ru)4
_chemical_formula_sum   'Hf8 Co5 Ni3 P12 Ru4'
_cell_volume   457.26406705
_cell_formula_units_Z   1
loop_
 _symmetry_equiv_pos_site_id
 _symmetry_equiv_pos_as_xyz
  1  'x, y, z'
loop_
 _atom_site_type_symbol
 _atom_site_label
 _atom_site_symmetry_multiplicity
 _atom_site_fract_x
 _atom_site_fract_y
 _atom_site_fract_z
 _atom_site_occupancy
  Hf  Hf0  1  0.250000  0.341537  0.994892  1
  Hf  Hf1  1  0.250000  0.160901  0.494814  1
  Hf  Hf2  1  0.750000  0.657767  0.005343  1
  Hf  Hf3  1  0.750000  0.841169  0.506023  1
  Hf  Hf4  1  0.250000  0.425885  0.710071  1
  Hf  Hf5  1  0.250000  0.070241  0.210709  1
  Hf  Hf6  1  0.750000  0.575554  0.288572  1
  Hf  Hf7  1  0.750000  0.926014  0.790149  1
  Co  Co8  1  0.250000  0.135669  0.716546  1
  Co  Co9  1  0.250000  0.366198  0.215992  1
  Co  Co10  1  0.750000  0.865882  0.286016  1
  Co  Co11  1  0.750000  0.634020  0.782605  1
  Co  Co12  1  0.250000  0.767310  0.168583  1
  Ni  Ni13  1  0.250000  0.736838  0.669195  1
  Ni  Ni14  1  0.750000  0.235003  0.831963  1
  Ni  Ni15  1  0.750000  0.264120  0.330299  1
  P  P16  1  0.250000  0.102813  0.893388  1
  P  P17  1  0.250000  0.398168  0.392599  1
  P  P18  1  0.750000  0.891197  0.108470  1
  P  P19  1  0.750000  0.603323  0.606447  1
  P  P20  1  0.250000  0.728740  0.850591  1
  P  P21  1  0.250000  0.768208  0.348469  1
  P  P22  1  0.750000  0.269154  0.148889  1
  P  P23  1  0.750000  0.231882  0.649321  1
  P  P24  1  0.250000  0.552977  0.127768  1
  P  P25  1  0.250000  0.950616  0.626783  1
  P  P26  1  0.750000  0.449064  0.872848  1
  P  P27  1  0.750000  0.051098  0.374085  1
  Ru  Ru28  1  0.250000  0.895820  0.979080  1
  Ru  Ru29  1  0.250000  0.605006  0.481635  1
  Ru  Ru30  1  0.750000  0.100151  0.020728  1
  Ru  Ru31  1  0.750000  0.397675  0.517125  1
