# generated using pymatgen
data_Cr6Co4SiPN2
_symmetry_space_group_name_H-M   'P 1'
_cell_length_a   7.41192671
_cell_length_b   7.44986608
_cell_length_c   7.41229324
_cell_angle_alpha   59.82284129
_cell_angle_beta   59.85739771
_cell_angle_gamma   59.82111191
_symmetry_Int_Tables_number   1
_chemical_formula_structural   Cr6Co4SiPN2
_chemical_formula_sum   'Cr12 Co8 Si2 P2 N4'
_cell_volume   288.32055648
_cell_formula_units_Z   2
loop_
 _symmetry_equiv_pos_site_id
 _symmetry_equiv_pos_as_xyz
  1  'x, y, z'
loop_
 _atom_site_type_symbol
 _atom_site_label
 _atom_site_symmetry_multiplicity
 _atom_site_fract_x
 _atom_site_fract_y
 _atom_site_fract_z
 _atom_site_occupancy
  Cr  Cr0  1  0.808863  0.808573  0.192673  1
  Cr  Cr1  1  0.192702  0.189916  0.808882  1
  Cr  Cr2  1  0.807843  0.192111  0.807828  1
  Cr  Cr3  1  0.190668  0.809223  0.190651  1
  Cr  Cr4  1  0.192660  0.808539  0.808800  1
  Cr  Cr5  1  0.808908  0.189861  0.192715  1
  Cr  Cr6  1  0.441137  0.441427  0.057327  1
  Cr  Cr7  1  0.057298  0.060084  0.441118  1
  Cr  Cr8  1  0.442157  0.057889  0.442172  1
  Cr  Cr9  1  0.059332  0.440777  0.059349  1
  Cr  Cr10  1  0.057340  0.441461  0.441200  1
  Cr  Cr11  1  0.441092  0.060139  0.057285  1
  Co  Co12  1  0.753173  0.417222  0.412385  1
  Co  Co13  1  0.412021  0.756343  0.412009  1
  Co  Co14  1  0.412400  0.417226  0.753145  1
  Co  Co15  1  0.412030  0.419595  0.412020  1
  Co  Co16  1  0.496827  0.832778  0.837615  1
  Co  Co17  1  0.837979  0.493657  0.837991  1
  Co  Co18  1  0.837600  0.832774  0.496855  1
  Co  Co19  1  0.837970  0.830405  0.837980  1
  Si  Si20  1  0.625000  0.125000  0.625000  1
  Si  Si21  1  0.625000  0.625000  0.625000  1
  P  P22  1  0.125000  0.625000  0.625000  1
  P  P23  1  0.625000  0.625000  0.125000  1
  N  N24  1  0.625000  0.125000  0.125000  1
  N  N25  1  0.125000  0.625000  0.125000  1
  N  N26  1  0.125000  0.125000  0.625000  1
  N  N27  1  0.125000  0.125000  0.125000  1
