# generated using pymatgen
data_PrNdCl3O
_symmetry_space_group_name_H-M   'P 1'
_cell_length_a   8.40738804
_cell_length_b   8.40738874
_cell_length_c   10.80170863
_cell_angle_alpha   61.38006894
_cell_angle_beta   61.38006707
_cell_angle_gamma   28.21783097
_symmetry_Int_Tables_number   1
_chemical_formula_structural   PrNdCl3O
_chemical_formula_sum   'Pr2 Nd2 Cl6 O2'
_cell_volume   313.90278265
_cell_formula_units_Z   2
loop_
 _symmetry_equiv_pos_site_id
 _symmetry_equiv_pos_as_xyz
  1  'x, y, z'
loop_
 _atom_site_type_symbol
 _atom_site_label
 _atom_site_symmetry_multiplicity
 _atom_site_fract_x
 _atom_site_fract_y
 _atom_site_fract_z
 _atom_site_occupancy
  Pr  Pr0  1  0.864329  0.864329  0.287426  1
  Pr  Pr1  1  0.135671  0.135671  0.712574  1
  Nd  Nd2  1  0.585605  0.585605  0.047428  1
  Nd  Nd3  1  0.414395  0.414395  0.952572  1
  Cl  Cl4  1  0.046687  0.046687  0.259227  1
  Cl  Cl5  1  0.953313  0.953313  0.740773  1
  Cl  Cl6  1  0.663799  0.663799  0.491487  1
  Cl  Cl7  1  0.336201  0.336201  0.508513  1
  Cl  Cl8  1  0.772614  0.772614  0.116146  1
  Cl  Cl9  1  0.227386  0.227386  0.883854  1
  O  O10  1  0.419306  0.419306  0.167394  1
  O  O11  1  0.580694  0.580694  0.832606  1
