# generated using pymatgen
data_Nd4ErP12Ru19
_symmetry_space_group_name_H-M   'P 1'
_cell_length_a   4.00980700
_cell_length_b   12.61640453
_cell_length_c   12.61672902
_cell_angle_alpha   119.99469409
_cell_angle_beta   90.00000000
_cell_angle_gamma   90.00000000
_symmetry_Int_Tables_number   1
_chemical_formula_structural   Nd4ErP12Ru19
_chemical_formula_sum   'Nd4 Er1 P12 Ru19'
_cell_volume   552.78939126
_cell_formula_units_Z   1
loop_
 _symmetry_equiv_pos_site_id
 _symmetry_equiv_pos_as_xyz
  1  'x, y, z'
loop_
 _atom_site_type_symbol
 _atom_site_label
 _atom_site_symmetry_multiplicity
 _atom_site_fract_x
 _atom_site_fract_y
 _atom_site_fract_z
 _atom_site_occupancy
  Nd  Nd0  1  0.500000  0.000197  0.183845  1
  Nd  Nd1  1  0.500000  0.183639  0.999792  1
  Nd  Nd2  1  0.500000  0.816167  0.816363  1
  Nd  Nd3  1  0.000000  0.333291  0.666662  1
  Er  Er4  1  0.000000  0.666742  0.333363  1
  P  P5  1  0.000000  0.998826  0.811955  1
  P  P6  1  0.000000  0.813138  0.001180  1
  P  P7  1  0.000000  0.188037  0.186876  1
  P  P8  1  0.500000  0.305636  0.476137  1
  P  P9  1  0.500000  0.170500  0.694359  1
  P  P10  1  0.500000  0.523852  0.829495  1
  P  P11  1  0.500000  0.826149  0.520960  1
  P  P12  1  0.500000  0.479014  0.305190  1
  P  P13  1  0.500000  0.694792  0.173822  1
  P  P14  1  0.000000  0.000284  0.374410  1
  P  P15  1  0.000000  0.374110  0.999716  1
  P  P16  1  0.000000  0.625607  0.625892  1
  Ru  Ru17  1  0.000000  0.999835  0.554297  1
  Ru  Ru18  1  0.000000  0.554449  0.000162  1
  Ru  Ru19  1  0.000000  0.445707  0.445544  1
  Ru  Ru20  1  0.500000  0.998597  0.713495  1
  Ru  Ru21  1  0.500000  0.714894  0.001401  1
  Ru  Ru22  1  0.500000  0.286513  0.285124  1
  Ru  Ru23  1  0.000000  0.194342  0.378154  1
  Ru  Ru24  1  0.000000  0.183815  0.805686  1
  Ru  Ru25  1  0.000000  0.621852  0.816196  1
  Ru  Ru26  1  0.000000  0.813922  0.619078  1
  Ru  Ru27  1  0.000000  0.380909  0.194861  1
  Ru  Ru28  1  0.000000  0.805157  0.186071  1
  Ru  Ru29  1  0.500000  0.123896  0.490527  1
  Ru  Ru30  1  0.500000  0.366635  0.876101  1
  Ru  Ru31  1  0.500000  0.509473  0.633331  1
  Ru  Ru32  1  0.500000  0.632642  0.505812  1
  Ru  Ru33  1  0.500000  0.494156  0.126843  1
  Ru  Ru34  1  0.500000  0.873117  0.367312  1
  Ru  Ru35  1  0.000000  0.000003  0.999989  1
