# generated using pymatgen
data_Ho7Er9In6FeCo
_symmetry_space_group_name_H-M   'P 1'
_cell_length_a   10.30147900
_cell_length_b   10.29535652
_cell_length_c   6.96932904
_cell_angle_alpha   89.98978887
_cell_angle_beta   90.00000000
_cell_angle_gamma   120.01966428
_symmetry_Int_Tables_number   1
_chemical_formula_structural   Ho7Er9In6FeCo
_chemical_formula_sum   'Ho7 Er9 In6 Fe1 Co1'
_cell_volume   639.99484205
_cell_formula_units_Z   1
loop_
 _symmetry_equiv_pos_site_id
 _symmetry_equiv_pos_as_xyz
  1  'x, y, z'
loop_
 _atom_site_type_symbol
 _atom_site_label
 _atom_site_symmetry_multiplicity
 _atom_site_fract_x
 _atom_site_fract_y
 _atom_site_fract_z
 _atom_site_occupancy
  Ho  Ho0  1  0.535096  0.070193  0.791623  1
  Ho  Ho1  1  0.929970  0.464812  0.791929  1
  Ho  Ho2  1  0.534842  0.464812  0.791929  1
  Ho  Ho3  1  0.465808  0.931617  0.292018  1
  Ho  Ho4  1  0.068421  0.534113  0.291979  1
  Ho  Ho5  1  0.465691  0.534113  0.291979  1
  Ho  Ho6  1  0.821358  0.642715  0.498952  1
  Er  Er7  1  0.357476  0.178737  0.498874  1
  Er  Er8  1  0.821261  0.178737  0.498874  1
  Er  Er9  1  0.178593  0.357187  0.997981  1
  Er  Er10  1  0.642818  0.821410  0.998056  1
  Er  Er11  1  0.178591  0.821410  0.998056  1
  Er  Er12  1  0.666598  0.333196  0.180057  1
  Er  Er13  1  0.333357  0.666715  0.681165  1
  Er  Er14  1  0.000025  0.000049  0.779405  1
  Er  Er15  1  0.000071  0.000143  0.278897  1
  In  In16  1  0.837689  0.675379  0.038917  1
  In  In17  1  0.324633  0.162242  0.039443  1
  In  In18  1  0.837608  0.162242  0.039443  1
  In  In19  1  0.162742  0.325482  0.539476  1
  In  In20  1  0.674159  0.837504  0.539626  1
  In  In21  1  0.163346  0.837504  0.539626  1
  Fe  Fe22  1  0.666526  0.333051  0.569163  1
  Co  Co23  1  0.333319  0.666638  0.068436  1
