# generated using pymatgen
data_Y3AlZn2Si2Pd
_symmetry_space_group_name_H-M   'P 1'
_cell_length_a   6.91257458
_cell_length_b   6.81280931
_cell_length_c   4.27850100
_cell_angle_alpha   90.00000000
_cell_angle_beta   90.00000000
_cell_angle_gamma   119.52370830
_symmetry_Int_Tables_number   1
_chemical_formula_structural   Y3AlZn2Si2Pd
_chemical_formula_sum   'Y3 Al1 Zn2 Si2 Pd1'
_cell_volume   175.32859599
_cell_formula_units_Z   1
loop_
 _symmetry_equiv_pos_site_id
 _symmetry_equiv_pos_as_xyz
  1  'x, y, z'
loop_
 _atom_site_type_symbol
 _atom_site_label
 _atom_site_symmetry_multiplicity
 _atom_site_fract_x
 _atom_site_fract_y
 _atom_site_fract_z
 _atom_site_occupancy
  Y  Y0  1  0.422178  0.419286  0.500000  1
  Y  Y1  1  0.000000  0.584511  0.500000  1
  Y  Y2  1  0.577822  0.997108  0.500000  1
  Al  Al3  1  0.000000  0.229229  0.000000  1
  Zn  Zn4  1  0.754269  0.755899  0.000000  1
  Zn  Zn5  1  0.245731  0.001631  0.000000  1
  Si  Si6  1  0.671721  0.335126  0.000000  1
  Si  Si7  1  0.328279  0.663407  0.000000  1
  Pd  Pd8  1  0.000000  0.013804  0.500000  1
