# generated using pymatgen
data_SrLi3FeN3
_symmetry_space_group_name_H-M   'P 1'
_cell_length_a   7.23832376
_cell_length_b   7.23832338
_cell_length_c   7.23832378
_cell_angle_alpha   47.69390563
_cell_angle_beta   47.69390457
_cell_angle_gamma   47.69391158
_symmetry_Int_Tables_number   1
_chemical_formula_structural   SrLi3FeN3
_chemical_formula_sum   'Sr2 Li6 Fe2 N6'
_cell_volume   189.89850012
_cell_formula_units_Z   2
loop_
 _symmetry_equiv_pos_site_id
 _symmetry_equiv_pos_as_xyz
  1  'x, y, z'
loop_
 _atom_site_type_symbol
 _atom_site_label
 _atom_site_symmetry_multiplicity
 _atom_site_fract_x
 _atom_site_fract_y
 _atom_site_fract_z
 _atom_site_occupancy
  Sr  Sr0  1  0.337390  0.337390  0.337390  1
  Sr  Sr1  1  0.662610  0.662610  0.662610  1
  Li  Li2  1  0.477287  0.235600  0.894622  1
  Li  Li3  1  0.894622  0.477287  0.235600  1
  Li  Li4  1  0.764400  0.105378  0.522713  1
  Li  Li5  1  0.235600  0.894622  0.477287  1
  Li  Li6  1  0.105378  0.522713  0.764400  1
  Li  Li7  1  0.522713  0.764400  0.105378  1
  Fe  Fe8  1  0.070107  0.070107  0.070107  1
  Fe  Fe9  1  0.929893  0.929893  0.929893  1
  N  N10  1  0.616198  0.904446  0.207927  1
  N  N11  1  0.792073  0.383802  0.095554  1
  N  N12  1  0.383802  0.095554  0.792073  1
  N  N13  1  0.095554  0.792073  0.383802  1
  N  N14  1  0.207927  0.616198  0.904446  1
  N  N15  1  0.904446  0.207927  0.616198  1
