# generated using pymatgen
data_NpU(MoC2)2
_symmetry_space_group_name_H-M   'P 1'
_cell_length_a   3.22535300
_cell_length_b   5.65896465
_cell_length_c   11.02060829
_cell_angle_alpha   89.94485025
_cell_angle_beta   90.00000000
_cell_angle_gamma   90.00000000
_symmetry_Int_Tables_number   1
_chemical_formula_structural   NpU(MoC2)2
_chemical_formula_sum   'Np2 U2 Mo4 C8'
_cell_volume   201.14979726
_cell_formula_units_Z   2
loop_
 _symmetry_equiv_pos_site_id
 _symmetry_equiv_pos_as_xyz
  1  'x, y, z'
loop_
 _atom_site_type_symbol
 _atom_site_label
 _atom_site_symmetry_multiplicity
 _atom_site_fract_x
 _atom_site_fract_y
 _atom_site_fract_z
 _atom_site_occupancy
  Np  Np0  1  0.250000  0.080094  0.859283  1
  Np  Np1  1  0.750000  0.919906  0.140717  1
  U  U2  1  0.250000  0.579593  0.642417  1
  U  U3  1  0.750000  0.420407  0.357583  1
  Mo  Mo4  1  0.750000  0.079358  0.602166  1
  Mo  Mo5  1  0.750000  0.581138  0.898468  1
  Mo  Mo6  1  0.250000  0.920642  0.397834  1
  Mo  Mo7  1  0.250000  0.418862  0.101532  1
  C  C8  1  0.250000  0.748067  0.992851  1
  C  C9  1  0.750000  0.251933  0.007149  1
  C  C10  1  0.250000  0.250035  0.507887  1
  C  C11  1  0.750000  0.749965  0.492113  1
  C  C12  1  0.250000  0.163612  0.245183  1
  C  C13  1  0.750000  0.338167  0.744092  1
  C  C14  1  0.250000  0.661833  0.255908  1
  C  C15  1  0.750000  0.836388  0.754817  1
