# generated using pymatgen
data_Sr3MgPdO6
_symmetry_space_group_name_H-M   'P 1'
_cell_length_a   6.74839809
_cell_length_b   6.74839869
_cell_length_c   6.74839833
_cell_angle_alpha   92.51087967
_cell_angle_beta   92.51087761
_cell_angle_gamma   92.51086754
_symmetry_Int_Tables_number   1
_chemical_formula_structural   Sr3MgPdO6
_chemical_formula_sum   'Sr6 Mg2 Pd2 O12'
_cell_volume   306.41606162
_cell_formula_units_Z   2
loop_
 _symmetry_equiv_pos_site_id
 _symmetry_equiv_pos_as_xyz
  1  'x, y, z'
loop_
 _atom_site_type_symbol
 _atom_site_label
 _atom_site_symmetry_multiplicity
 _atom_site_fract_x
 _atom_site_fract_y
 _atom_site_fract_z
 _atom_site_occupancy
  Sr  Sr0  1  0.615520  0.250000  0.884480  1
  Sr  Sr1  1  0.884480  0.615520  0.250000  1
  Sr  Sr2  1  0.750000  0.115520  0.384480  1
  Sr  Sr3  1  0.384480  0.750000  0.115520  1
  Sr  Sr4  1  0.115520  0.384480  0.750000  1
  Sr  Sr5  1  0.250000  0.884480  0.615520  1
  Mg  Mg6  1  0.250000  0.250000  0.250000  1
  Mg  Mg7  1  0.750000  0.750000  0.750000  1
  Pd  Pd8  1  0.000000  0.000000  0.000000  1
  Pd  Pd9  1  0.500000  0.500000  0.500000  1
  O  O10  1  0.593871  0.788038  0.463116  1
  O  O11  1  0.463116  0.593871  0.788038  1
  O  O12  1  0.788038  0.463116  0.593871  1
  O  O13  1  0.906129  0.036884  0.711962  1
  O  O14  1  0.711962  0.906129  0.036884  1
  O  O15  1  0.036884  0.711962  0.906129  1
  O  O16  1  0.406129  0.211962  0.536884  1
  O  O17  1  0.536884  0.406129  0.211962  1
  O  O18  1  0.211962  0.536884  0.406129  1
  O  O19  1  0.093871  0.963116  0.288038  1
  O  O20  1  0.963116  0.288038  0.093871  1
  O  O21  1  0.288038  0.093871  0.963116  1
