# generated using pymatgen
data_MgSb2Br2O3
_symmetry_space_group_name_H-M   'P 1'
_cell_length_a   8.64324922
_cell_length_b   9.06074513
_cell_length_c   10.38382550
_cell_angle_alpha   66.42316275
_cell_angle_beta   84.11840547
_cell_angle_gamma   92.50796375
_symmetry_Int_Tables_number   1
_chemical_formula_structural   MgSb2Br2O3
_chemical_formula_sum   'Mg4 Sb8 Br8 O12'
_cell_volume   738.18597774
_cell_formula_units_Z   4
loop_
 _symmetry_equiv_pos_site_id
 _symmetry_equiv_pos_as_xyz
  1  'x, y, z'
loop_
 _atom_site_type_symbol
 _atom_site_label
 _atom_site_symmetry_multiplicity
 _atom_site_fract_x
 _atom_site_fract_y
 _atom_site_fract_z
 _atom_site_occupancy
  Mg  Mg0  1  0.510629  0.611423  0.095753  1
  Mg  Mg1  1  0.489369  0.888581  0.404241  1
  Mg  Mg2  1  0.510633  0.111409  0.595764  1
  Mg  Mg3  1  0.489369  0.388574  0.904244  1
  Sb  Sb4  1  0.680994  0.031216  0.935895  1
  Sb  Sb5  1  0.680991  0.531216  0.435898  1
  Sb  Sb6  1  0.319016  0.968785  0.064100  1
  Sb  Sb7  1  0.319002  0.468783  0.564107  1
  Sb  Sb8  1  0.692462  0.789219  0.735162  1
  Sb  Sb9  1  0.692462  0.289217  0.235164  1
  Sb  Sb10  1  0.307541  0.210782  0.264834  1
  Sb  Sb11  1  0.307533  0.710784  0.764836  1
  Br  Br12  1  0.778915  0.928574  0.285148  1
  Br  Br13  1  0.778902  0.428618  0.785105  1
  Br  Br14  1  0.221096  0.071381  0.714899  1
  Br  Br15  1  0.221085  0.571436  0.214845  1
  Br  Br16  1  0.855646  0.229513  0.466335  1
  Br  Br17  1  0.855644  0.729510  0.966340  1
  Br  Br18  1  0.144356  0.770489  0.533662  1
  Br  Br19  1  0.144355  0.270487  0.033663  1
  O  O20  1  0.483945  0.652728  0.436563  1
  O  O21  1  0.483957  0.152743  0.936558  1
  O  O22  1  0.516043  0.347265  0.563439  1
  O  O23  1  0.516056  0.847265  0.063440  1
  O  O24  1  0.369501  0.007328  0.236553  1
  O  O25  1  0.369498  0.507326  0.736553  1
  O  O26  1  0.630499  0.992672  0.763446  1
  O  O27  1  0.630498  0.492672  0.263448  1
  O  O28  1  0.513417  0.145177  0.383448  1
  O  O29  1  0.513415  0.645172  0.883451  1
  O  O30  1  0.486582  0.854826  0.616552  1
  O  O31  1  0.486584  0.354825  0.116549  1
