# generated using pymatgen
data_Pr7Nd3TlSi5
_symmetry_space_group_name_H-M   'P 1'
_cell_length_a   7.88426966
_cell_length_b   7.88286085
_cell_length_c   9.11197500
_cell_angle_alpha   115.53280324
_cell_angle_beta   115.49179121
_cell_angle_gamma   90.25720694
_symmetry_Int_Tables_number   1
_chemical_formula_structural   Pr7Nd3TlSi5
_chemical_formula_sum   'Pr7 Nd3 Tl1 Si5'
_cell_volume   448.53445548
_cell_formula_units_Z   1
loop_
 _symmetry_equiv_pos_site_id
 _symmetry_equiv_pos_as_xyz
  1  'x, y, z'
loop_
 _atom_site_type_symbol
 _atom_site_label
 _atom_site_symmetry_multiplicity
 _atom_site_fract_x
 _atom_site_fract_y
 _atom_site_fract_z
 _atom_site_occupancy
  Pr  Pr0  1  0.306677  0.457004  0.285416  1
  Pr  Pr1  1  0.827014  0.306707  0.283105  1
  Pr  Pr2  1  0.451582  0.973706  0.282319  1
  Pr  Pr3  1  0.044379  0.193521  0.715643  1
  Pr  Pr4  1  0.673874  0.525023  0.718555  1
  Pr  Pr5  1  0.193638  0.673211  0.717032  1
  Pr  Pr6  1  0.525421  0.048013  0.717359  1
  Nd  Nd7  1  0.519332  0.516189  0.038254  1
  Nd  Nd8  1  0.984649  0.982054  0.964163  1
  Nd  Nd9  1  0.973754  0.824636  0.278670  1
  Tl  Tl10  1  0.751628  0.750631  0.500200  1
  Si  Si11  1  0.246931  0.248549  0.497464  1
  Si  Si12  1  0.615634  0.884820  0.000307  1
  Si  Si13  1  0.385078  0.115257  0.000373  1
  Si  Si14  1  0.885223  0.385332  0.000899  1
  Si  Si15  1  0.115186  0.615350  0.000243  1
