# generated using pymatgen
data_LiY6RuI12
_symmetry_space_group_name_H-M   'P 1'
_cell_length_a   9.81035480
_cell_length_b   9.81035511
_cell_length_c   9.81035400
_cell_angle_alpha   107.15638361
_cell_angle_beta   107.15639029
_cell_angle_gamma   107.15638625
_symmetry_Int_Tables_number   1
_chemical_formula_structural   LiY6RuI12
_chemical_formula_sum   'Li1 Y6 Ru1 I12'
_cell_volume   782.94221127
_cell_formula_units_Z   1
loop_
 _symmetry_equiv_pos_site_id
 _symmetry_equiv_pos_as_xyz
  1  'x, y, z'
loop_
 _atom_site_type_symbol
 _atom_site_label
 _atom_site_symmetry_multiplicity
 _atom_site_fract_x
 _atom_site_fract_y
 _atom_site_fract_z
 _atom_site_occupancy
  Li  Li0  1  0.500000  0.500000  0.500000  1
  Y  Y1  1  0.101330  0.030940  0.303283  1
  Y  Y2  1  0.303283  0.101330  0.030940  1
  Y  Y3  1  0.030940  0.303283  0.101330  1
  Y  Y4  1  0.898670  0.969060  0.696717  1
  Y  Y5  1  0.696717  0.898670  0.969060  1
  Y  Y6  1  0.969060  0.696717  0.898670  1
  Ru  Ru7  1  0.000000  0.000000  0.000000  1
  I  I8  1  0.072154  0.682747  0.222606  1
  I  I9  1  0.222606  0.072154  0.682747  1
  I  I10  1  0.682747  0.222606  0.072154  1
  I  I11  1  0.927846  0.317253  0.777394  1
  I  I12  1  0.777394  0.927846  0.317253  1
  I  I13  1  0.317253  0.777394  0.927846  1
  I  I14  1  0.455048  0.156229  0.379191  1
  I  I15  1  0.379191  0.455048  0.156229  1
  I  I16  1  0.156229  0.379191  0.455048  1
  I  I17  1  0.544952  0.843771  0.620809  1
  I  I18  1  0.620809  0.544952  0.843771  1
  I  I19  1  0.843771  0.620809  0.544952  1
