# generated using pymatgen
data_Ho3CI3
_symmetry_space_group_name_H-M   'P 1'
_cell_length_a   3.89111700
_cell_length_b   8.67681727
_cell_length_c   11.86994700
_cell_angle_alpha   92.23572019
_cell_angle_beta   90.00000000
_cell_angle_gamma   90.00000000
_symmetry_Int_Tables_number   1
_chemical_formula_structural   Ho3CI3
_chemical_formula_sum   'Ho6 C2 I6'
_cell_volume   400.45415647
_cell_formula_units_Z   2
loop_
 _symmetry_equiv_pos_site_id
 _symmetry_equiv_pos_as_xyz
  1  'x, y, z'
loop_
 _atom_site_type_symbol
 _atom_site_label
 _atom_site_symmetry_multiplicity
 _atom_site_fract_x
 _atom_site_fract_y
 _atom_site_fract_z
 _atom_site_occupancy
  Ho  Ho0  1  0.250000  0.919257  0.598639  1
  Ho  Ho1  1  0.750000  0.080743  0.401361  1
  Ho  Ho2  1  0.250000  0.887127  0.189319  1
  Ho  Ho3  1  0.750000  0.112873  0.810681  1
  Ho  Ho4  1  0.250000  0.291059  0.614829  1
  Ho  Ho5  1  0.750000  0.708941  0.385171  1
  C  C6  1  0.250000  0.883065  0.387699  1
  C  C7  1  0.750000  0.116935  0.612301  1
  I  I8  1  0.250000  0.859801  0.872151  1
  I  I9  1  0.750000  0.140199  0.127849  1
  I  I10  1  0.250000  0.374882  0.870242  1
  I  I11  1  0.750000  0.625118  0.129758  1
  I  I12  1  0.250000  0.382438  0.368444  1
  I  I13  1  0.750000  0.617562  0.631556  1
