# generated using pymatgen
data_Dy3HoAl8
_symmetry_space_group_name_H-M   'P 1'
_cell_length_a   9.64221393
_cell_length_b   9.64221371
_cell_length_c   9.64221399
_cell_angle_alpha   33.51135769
_cell_angle_beta   33.51135897
_cell_angle_gamma   33.51135902
_symmetry_Int_Tables_number   1
_chemical_formula_structural   Dy3HoAl8
_chemical_formula_sum   'Dy3 Ho1 Al8'
_cell_volume   243.37698600
_cell_formula_units_Z   1
loop_
 _symmetry_equiv_pos_site_id
 _symmetry_equiv_pos_as_xyz
  1  'x, y, z'
loop_
 _atom_site_type_symbol
 _atom_site_label
 _atom_site_symmetry_multiplicity
 _atom_site_fract_x
 _atom_site_fract_y
 _atom_site_fract_z
 _atom_site_occupancy
  Dy  Dy0  1  0.312581  0.312581  0.312581  1
  Dy  Dy1  1  0.687525  0.687525  0.687525  1
  Dy  Dy2  1  0.187377  0.187377  0.187377  1
  Ho  Ho3  1  0.812512  0.812512  0.812512  1
  Al  Al4  1  0.500008  0.500008  0.500008  1
  Al  Al5  1  0.000020  0.000020  0.000020  1
  Al  Al6  1  0.249932  0.249932  0.750079  1
  Al  Al7  1  0.749978  0.749978  0.250076  1
  Al  Al8  1  0.249932  0.750079  0.249932  1
  Al  Al9  1  0.749978  0.250076  0.749978  1
  Al  Al10  1  0.750079  0.249932  0.249932  1
  Al  Al11  1  0.250076  0.749978  0.749978  1
