# generated using pymatgen
data_U8GeSe17
_symmetry_space_group_name_H-M   'P 1'
_cell_length_a   8.25439508
_cell_length_b   8.25439455
_cell_length_c   11.05837380
_cell_angle_alpha   79.86981168
_cell_angle_beta   79.86981398
_cell_angle_gamma   64.45158390
_symmetry_Int_Tables_number   1
_chemical_formula_structural   U8GeSe17
_chemical_formula_sum   'U8 Ge1 Se17'
_cell_volume   664.93461760
_cell_formula_units_Z   1
loop_
 _symmetry_equiv_pos_site_id
 _symmetry_equiv_pos_as_xyz
  1  'x, y, z'
loop_
 _atom_site_type_symbol
 _atom_site_label
 _atom_site_symmetry_multiplicity
 _atom_site_fract_x
 _atom_site_fract_y
 _atom_site_fract_z
 _atom_site_occupancy
  U  U0  1  0.817890  0.304445  0.301785  1
  U  U1  1  0.304445  0.817890  0.301785  1
  U  U2  1  0.182110  0.695555  0.698215  1
  U  U3  1  0.695555  0.182110  0.698215  1
  U  U4  1  0.201209  0.201209  0.537824  1
  U  U5  1  0.798791  0.798791  0.462176  1
  U  U6  1  0.677023  0.677023  0.988187  1
  U  U7  1  0.322977  0.322977  0.011813  1
  Ge  Ge8  1  0.000000  0.000000  0.000000  1
  Se  Se9  1  0.819614  0.434316  0.534791  1
  Se  Se10  1  0.434316  0.819614  0.534791  1
  Se  Se11  1  0.180386  0.565684  0.465209  1
  Se  Se12  1  0.565684  0.180386  0.465209  1
  Se  Se13  1  0.946160  0.329925  0.038722  1
  Se  Se14  1  0.329925  0.946160  0.038722  1
  Se  Se15  1  0.053840  0.670075  0.961278  1
  Se  Se16  1  0.670075  0.053840  0.961278  1
  Se  Se17  1  0.214653  0.214653  0.277062  1
  Se  Se18  1  0.785347  0.785347  0.722938  1
  Se  Se19  1  0.057045  0.057045  0.763481  1
  Se  Se20  1  0.942955  0.942955  0.236519  1
  Se  Se21  1  0.299962  0.299962  0.751889  1
  Se  Se22  1  0.700038  0.700038  0.248111  1
  Se  Se23  1  0.520435  0.520435  0.828794  1
  Se  Se24  1  0.479565  0.479565  0.171206  1
  Se  Se25  1  0.000000  0.000000  0.500000  1
