# generated using pymatgen
data_AgSn(PSe3)2
_symmetry_space_group_name_H-M   'P 1'
_cell_length_a   14.69763356
_cell_length_b   14.69763378
_cell_length_c   14.69763448
_cell_angle_alpha   26.19544448
_cell_angle_beta   26.19544257
_cell_angle_gamma   26.19544288
_symmetry_Int_Tables_number   1
_chemical_formula_structural   AgSn(PSe3)2
_chemical_formula_sum   'Ag2 Sn2 P4 Se12'
_cell_volume   545.12877885
_cell_formula_units_Z   2
loop_
 _symmetry_equiv_pos_site_id
 _symmetry_equiv_pos_as_xyz
  1  'x, y, z'
loop_
 _atom_site_type_symbol
 _atom_site_label
 _atom_site_symmetry_multiplicity
 _atom_site_fract_x
 _atom_site_fract_y
 _atom_site_fract_z
 _atom_site_occupancy
  Ag  Ag0  1  0.593770  0.593770  0.593770  1
  Ag  Ag1  1  0.406230  0.406230  0.406230  1
  Sn  Sn2  1  0.087171  0.087171  0.087171  1
  Sn  Sn3  1  0.912829  0.912829  0.912829  1
  P  P4  1  0.723762  0.723762  0.723762  1
  P  P5  1  0.777519  0.777519  0.777519  1
  P  P6  1  0.222481  0.222481  0.222481  1
  P  P7  1  0.276238  0.276238  0.276238  1
  Se  Se8  1  0.490781  0.755145  0.128463  1
  Se  Se9  1  0.010796  0.735324  0.377149  1
  Se  Se10  1  0.622851  0.989204  0.264676  1
  Se  Se11  1  0.735324  0.377149  0.010796  1
  Se  Se12  1  0.755145  0.128463  0.490781  1
  Se  Se13  1  0.377149  0.010796  0.735324  1
  Se  Se14  1  0.264676  0.622851  0.989204  1
  Se  Se15  1  0.128463  0.490781  0.755145  1
  Se  Se16  1  0.989204  0.264676  0.622851  1
  Se  Se17  1  0.871537  0.509219  0.244855  1
  Se  Se18  1  0.244855  0.871537  0.509219  1
  Se  Se19  1  0.509219  0.244855  0.871537  1
