# generated using pymatgen
data_Er5OsAu2
_symmetry_space_group_name_H-M   'P 1'
_cell_length_a   7.47105500
_cell_length_b   9.10217300
_cell_length_c   11.66478000
_cell_angle_alpha   90.00000000
_cell_angle_beta   90.00000000
_cell_angle_gamma   90.00000000
_symmetry_Int_Tables_number   1
_chemical_formula_structural   Er5OsAu2
_chemical_formula_sum   'Er20 Os4 Au8'
_cell_volume   793.23811085
_cell_formula_units_Z   4
loop_
 _symmetry_equiv_pos_site_id
 _symmetry_equiv_pos_as_xyz
  1  'x, y, z'
loop_
 _atom_site_type_symbol
 _atom_site_label
 _atom_site_symmetry_multiplicity
 _atom_site_fract_x
 _atom_site_fract_y
 _atom_site_fract_z
 _atom_site_occupancy
  Er  Er0  1  0.160515  0.750000  0.225449  1
  Er  Er1  1  0.660515  0.250000  0.274551  1
  Er  Er2  1  0.839485  0.250000  0.774551  1
  Er  Er3  1  0.339485  0.750000  0.725449  1
  Er  Er4  1  0.456838  0.750000  0.006205  1
  Er  Er5  1  0.956838  0.250000  0.493795  1
  Er  Er6  1  0.543162  0.250000  0.993795  1
  Er  Er7  1  0.043162  0.750000  0.506205  1
  Er  Er8  1  0.639164  0.750000  0.309057  1
  Er  Er9  1  0.139164  0.250000  0.190943  1
  Er  Er10  1  0.360836  0.250000  0.690943  1
  Er  Er11  1  0.860836  0.750000  0.809057  1
  Er  Er12  1  0.823634  0.969107  0.082447  1
  Er  Er13  1  0.323634  0.030893  0.417553  1
  Er  Er14  1  0.176366  0.469107  0.917553  1
  Er  Er15  1  0.676366  0.530893  0.582447  1
  Er  Er16  1  0.176366  0.030893  0.917553  1
  Er  Er17  1  0.676366  0.969107  0.582447  1
  Er  Er18  1  0.823634  0.530893  0.082447  1
  Er  Er19  1  0.323634  0.469107  0.417553  1
  Os  Os20  1  0.427918  0.750000  0.496593  1
  Os  Os21  1  0.927918  0.250000  0.003407  1
  Os  Os22  1  0.572082  0.250000  0.503407  1
  Os  Os23  1  0.072082  0.750000  0.996593  1
  Au  Au24  1  0.929224  0.990787  0.336557  1
  Au  Au25  1  0.429224  0.009213  0.163443  1
  Au  Au26  1  0.070776  0.490787  0.663443  1
  Au  Au27  1  0.570776  0.509213  0.836557  1
  Au  Au28  1  0.070776  0.009213  0.663443  1
  Au  Au29  1  0.570776  0.990787  0.836557  1
  Au  Au30  1  0.929224  0.509213  0.336557  1
  Au  Au31  1  0.429224  0.490787  0.163443  1
