# generated using pymatgen
data_YbY3Ga18(Ir2Pd)2
_symmetry_space_group_name_H-M   'P 1'
_cell_length_a   7.62924340
_cell_length_b   7.62372816
_cell_length_c   9.51874000
_cell_angle_alpha   90.00000000
_cell_angle_beta   90.00000000
_cell_angle_gamma   119.79518544
_symmetry_Int_Tables_number   1
_chemical_formula_structural   YbY3Ga18(Ir2Pd)2
_chemical_formula_sum   'Yb1 Y3 Ga18 Ir4 Pd2'
_cell_volume   480.45375538
_cell_formula_units_Z   1
loop_
 _symmetry_equiv_pos_site_id
 _symmetry_equiv_pos_as_xyz
  1  'x, y, z'
loop_
 _atom_site_type_symbol
 _atom_site_label
 _atom_site_symmetry_multiplicity
 _atom_site_fract_x
 _atom_site_fract_y
 _atom_site_fract_z
 _atom_site_occupancy
  Yb  Yb0  1  0.996876  0.669276  0.250000  1
  Y  Y1  1  0.003174  0.330899  0.750000  1
  Y  Y2  1  0.669129  0.996596  0.250000  1
  Y  Y3  1  0.329763  0.002508  0.750000  1
  Ga  Ga4  1  0.128742  0.128033  0.250000  1
  Ga  Ga5  1  0.871350  0.871192  0.750000  1
  Ga  Ga6  1  0.999335  0.339058  0.081608  1
  Ga  Ga7  1  0.000496  0.662684  0.920279  1
  Ga  Ga8  1  0.000496  0.662684  0.579721  1
  Ga  Ga9  1  0.335876  0.998090  0.418384  1
  Ga  Ga10  1  0.999335  0.339058  0.418392  1
  Ga  Ga11  1  0.662765  0.000700  0.581215  1
  Ga  Ga12  1  0.662765  0.000700  0.918785  1
  Ga  Ga13  1  0.335876  0.998090  0.081616  1
  Ga  Ga14  1  0.335469  0.335388  0.566629  1
  Ga  Ga15  1  0.665668  0.664193  0.433011  1
  Ga  Ga16  1  0.665668  0.664193  0.066989  1
  Ga  Ga17  1  0.335469  0.335388  0.933371  1
  Ga  Ga18  1  0.337045  0.546907  0.250000  1
  Ga  Ga19  1  0.663164  0.453904  0.750000  1
  Ga  Ga20  1  0.547675  0.338257  0.250000  1
  Ga  Ga21  1  0.453874  0.662892  0.750000  1
  Ir  Ir22  1  0.670748  0.327606  0.999377  1
  Ir  Ir23  1  0.329211  0.671539  0.999266  1
  Ir  Ir24  1  0.329211  0.671539  0.500734  1
  Ir  Ir25  1  0.670748  0.327606  0.500623  1
  Pd  Pd26  1  0.000037  0.000508  0.999642  1
  Pd  Pd27  1  0.000037  0.000508  0.500358  1
