# generated using pymatgen
data_Sc12Os2RuBr16
_symmetry_space_group_name_H-M   'P 1'
_cell_length_a   9.08908849
_cell_length_b   10.89564583
_cell_length_c   11.51317174
_cell_angle_alpha   116.84163988
_cell_angle_beta   102.08653933
_cell_angle_gamma   101.73408073
_symmetry_Int_Tables_number   1
_chemical_formula_structural   Sc12Os2RuBr16
_chemical_formula_sum   'Sc12 Os2 Ru1 Br16'
_cell_volume   934.98262189
_cell_formula_units_Z   1
loop_
 _symmetry_equiv_pos_site_id
 _symmetry_equiv_pos_as_xyz
  1  'x, y, z'
loop_
 _atom_site_type_symbol
 _atom_site_label
 _atom_site_symmetry_multiplicity
 _atom_site_fract_x
 _atom_site_fract_y
 _atom_site_fract_z
 _atom_site_occupancy
  Sc  Sc0  1  0.076048  0.254233  0.348944  1
  Sc  Sc1  1  0.923465  0.747066  0.651852  1
  Sc  Sc2  1  0.781322  0.537848  0.317586  1
  Sc  Sc3  1  0.217659  0.462331  0.681497  1
  Sc  Sc4  1  0.277548  0.746362  0.651127  1
  Sc  Sc5  1  0.720894  0.252367  0.348070  1
  Sc  Sc6  1  0.136073  0.537618  0.318644  1
  Sc  Sc7  1  0.863220  0.462206  0.682324  1
  Sc  Sc8  1  0.401178  0.349362  0.259876  1
  Sc  Sc9  1  0.601380  0.650784  0.740305  1
  Sc  Sc10  1  0.456618  0.295925  0.521613  1
  Sc  Sc11  1  0.545570  0.703990  0.478373  1
  Os  Os12  1  0.998324  0.499996  0.500029  1
  Os  Os13  1  0.661420  0.499792  0.500709  1
  Ru  Ru14  1  0.337950  0.500226  0.499327  1
  Br  Br15  1  0.400603  0.746877  0.892706  1
  Br  Br16  1  0.599044  0.252199  0.105659  1
  Br  Br17  1  0.194882  0.980844  0.791387  1
  Br  Br18  1  0.805586  0.019226  0.208540  1
  Br  Br19  1  0.333498  0.082448  0.243357  1
  Br  Br20  1  0.666495  0.917495  0.756549  1
  Br  Br21  1  0.556177  0.436351  0.807291  1
  Br  Br22  1  0.443195  0.563787  0.192654  1
  Br  Br23  1  0.312090  0.834078  0.461958  1
  Br  Br24  1  0.687423  0.164485  0.538256  1
  Br  Br25  1  0.166580  0.164664  0.533749  1
  Br  Br26  1  0.833824  0.836471  0.465896  1
  Br  Br27  1  0.925349  0.581107  0.152327  1
  Br  Br28  1  0.075433  0.418796  0.847568  1
  Br  Br29  1  0.927121  0.746294  0.894401  1
  Br  Br30  1  0.074029  0.254772  0.107431  1
