# generated using pymatgen
data_Mn5V(GaCo2)6
_symmetry_space_group_name_H-M   'P 1'
_cell_length_a   4.04065801
_cell_length_b   5.80137200
_cell_length_c   12.11789903
_cell_angle_alpha   90.00000000
_cell_angle_beta   89.99168923
_cell_angle_gamma   90.00000000
_symmetry_Int_Tables_number   1
_chemical_formula_structural   Mn5V(GaCo2)6
_chemical_formula_sum   'Mn5 V1 Ga6 Co12'
_cell_volume   284.06003362
_cell_formula_units_Z   1
loop_
 _symmetry_equiv_pos_site_id
 _symmetry_equiv_pos_as_xyz
  1  'x, y, z'
loop_
 _atom_site_type_symbol
 _atom_site_label
 _atom_site_symmetry_multiplicity
 _atom_site_fract_x
 _atom_site_fract_y
 _atom_site_fract_z
 _atom_site_occupancy
  Mn  Mn0  1  0.000002  0.000000  0.000911  1
  Mn  Mn1  1  0.500194  0.500000  0.167312  1
  Mn  Mn2  1  0.000210  0.000000  0.333388  1
  Mn  Mn3  1  0.500007  0.500000  0.499414  1
  Mn  Mn4  1  0.999815  0.000000  0.665756  1
  V  V5  1  0.499814  0.500000  0.833286  1
  Ga  Ga6  1  0.000004  0.500000  0.002574  1
  Ga  Ga7  1  0.500204  0.000000  0.166658  1
  Ga  Ga8  1  0.000245  0.500000  0.333399  1
  Ga  Ga9  1  0.500006  0.000000  0.500065  1
  Ga  Ga10  1  0.999820  0.500000  0.664052  1
  Ga  Ga11  1  0.499707  0.000000  0.833268  1
  Co  Co12  1  0.499998  0.253250  0.997369  1
  Co  Co13  1  0.499998  0.746750  0.997369  1
  Co  Co14  1  0.000211  0.249287  0.166891  1
  Co  Co15  1  0.000211  0.750713  0.166891  1
  Co  Co16  1  0.500244  0.249634  0.333364  1
  Co  Co17  1  0.500244  0.750366  0.333364  1
  Co  Co18  1  0.000011  0.249272  0.499816  1
  Co  Co19  1  0.000011  0.750728  0.499816  1
  Co  Co20  1  0.499805  0.253229  0.669197  1
  Co  Co21  1  0.499805  0.746771  0.669197  1
  Co  Co22  1  0.999716  0.256246  0.833323  1
  Co  Co23  1  0.999716  0.743754  0.833323  1
