# generated using pymatgen
data_La10Pr6Mg4Os3Rh
_symmetry_space_group_name_H-M   'P 1'
_cell_length_a   10.11813986
_cell_length_b   10.16753355
_cell_length_c   10.16775734
_cell_angle_alpha   59.84514026
_cell_angle_beta   59.70560225
_cell_angle_gamma   59.70532967
_symmetry_Int_Tables_number   1
_chemical_formula_structural   La10Pr6Mg4Os3Rh
_chemical_formula_sum   'La10 Pr6 Mg4 Os3 Rh1'
_cell_volume   735.48248549
_cell_formula_units_Z   1
loop_
 _symmetry_equiv_pos_site_id
 _symmetry_equiv_pos_as_xyz
  1  'x, y, z'
loop_
 _atom_site_type_symbol
 _atom_site_label
 _atom_site_symmetry_multiplicity
 _atom_site_fract_x
 _atom_site_fract_y
 _atom_site_fract_z
 _atom_site_occupancy
  La  La0  1  0.341446  0.344268  0.344309  1
  La  La1  1  0.342712  0.345279  0.965886  1
  La  La2  1  0.342736  0.965835  0.345285  1
  La  La3  1  0.968768  0.343611  0.343626  1
  La  La4  1  0.813832  0.189050  0.188934  1
  La  La5  1  0.188708  0.812373  0.812380  1
  La  La6  1  0.188894  0.811564  0.188802  1
  La  La7  1  0.814622  0.189243  0.809584  1
  La  La8  1  0.188874  0.188887  0.811528  1
  La  La9  1  0.814641  0.809633  0.189185  1
  Pr  Pr10  1  0.934656  0.563583  0.563627  1
  Pr  Pr11  1  0.560465  0.938040  0.938010  1
  Pr  Pr12  1  0.562373  0.934429  0.566249  1
  Pr  Pr13  1  0.938198  0.561986  0.939453  1
  Pr  Pr14  1  0.562357  0.566178  0.934447  1
  Pr  Pr15  1  0.938168  0.939486  0.562010  1
  Mg  Mg16  1  0.578604  0.578956  0.578952  1
  Mg  Mg17  1  0.578413  0.578890  0.262904  1
  Mg  Mg18  1  0.578420  0.262845  0.578877  1
  Mg  Mg19  1  0.261973  0.578978  0.578936  1
  Os  Os20  1  0.139697  0.137078  0.137095  1
  Os  Os21  1  0.137916  0.136305  0.586143  1
  Os  Os22  1  0.137928  0.586091  0.136295  1
  Rh  Rh23  1  0.585600  0.137414  0.137484  1
