# generated using pymatgen
data_Pr4Zr2Pb5
_symmetry_space_group_name_H-M   'P 1'
_cell_length_a   6.47939808
_cell_length_b   9.70452040
_cell_length_c   11.92833929
_cell_angle_alpha   114.00297448
_cell_angle_beta   105.75931038
_cell_angle_gamma   90.00000324
_symmetry_Int_Tables_number   1
_chemical_formula_structural   Pr4Zr2Pb5
_chemical_formula_sum   'Pr8 Zr4 Pb10'
_cell_volume   654.20384252
_cell_formula_units_Z   2
loop_
 _symmetry_equiv_pos_site_id
 _symmetry_equiv_pos_as_xyz
  1  'x, y, z'
loop_
 _atom_site_type_symbol
 _atom_site_label
 _atom_site_symmetry_multiplicity
 _atom_site_fract_x
 _atom_site_fract_y
 _atom_site_fract_z
 _atom_site_occupancy
  Pr  Pr0  1  0.442888  0.666378  0.885775  1
  Pr  Pr1  1  0.557112  0.333622  0.114225  1
  Pr  Pr2  1  0.942888  0.219397  0.885775  1
  Pr  Pr3  1  0.057112  0.780603  0.114225  1
  Pr  Pr4  1  0.146561  0.255190  0.293124  1
  Pr  Pr5  1  0.853439  0.744810  0.706876  1
  Pr  Pr6  1  0.646561  0.037935  0.293124  1
  Pr  Pr7  1  0.353439  0.962065  0.706876  1
  Zr  Zr8  1  0.551168  0.301168  0.602335  1
  Zr  Zr9  1  0.448832  0.698832  0.397665  1
  Zr  Zr10  1  0.948832  0.698832  0.397665  1
  Zr  Zr11  1  0.051168  0.301168  0.602335  1
  Pb  Pb12  1  0.290293  0.584661  0.580585  1
  Pb  Pb13  1  0.709707  0.415339  0.419415  1
  Pb  Pb14  1  0.790293  0.995924  0.580585  1
  Pb  Pb15  1  0.209707  0.004076  0.419415  1
  Pb  Pb16  1  0.250000  0.000000  0.000000  1
  Pb  Pb17  1  0.750000  0.000000  0.000000  1
  Pb  Pb18  1  0.085020  0.484799  0.170040  1
  Pb  Pb19  1  0.914980  0.515201  0.829960  1
  Pb  Pb20  1  0.585020  0.685241  0.170040  1
  Pb  Pb21  1  0.414980  0.314759  0.829960  1
