# generated using pymatgen
data_HoErLu2(WO6)2
_symmetry_space_group_name_H-M   'P 1'
_cell_length_a   5.34340400
_cell_length_b   7.62635149
_cell_length_c   11.33154132
_cell_angle_alpha   75.36849527
_cell_angle_beta   90.00000000
_cell_angle_gamma   90.00000000
_symmetry_Int_Tables_number   1
_chemical_formula_structural   HoErLu2(WO6)2
_chemical_formula_sum   'Ho2 Er2 Lu4 W4 O24'
_cell_volume   446.79303998
_cell_formula_units_Z   2
loop_
 _symmetry_equiv_pos_site_id
 _symmetry_equiv_pos_as_xyz
  1  'x, y, z'
loop_
 _atom_site_type_symbol
 _atom_site_label
 _atom_site_symmetry_multiplicity
 _atom_site_fract_x
 _atom_site_fract_y
 _atom_site_fract_z
 _atom_site_occupancy
  Ho  Ho0  1  0.684296  0.500000  0.750000  1
  Ho  Ho1  1  0.315704  0.500000  0.250000  1
  Er  Er2  1  0.740840  0.000000  0.750000  1
  Er  Er3  1  0.259160  0.000000  0.250000  1
  Lu  Lu4  1  0.184436  0.795059  0.579092  1
  Lu  Lu5  1  0.815564  0.795059  0.079092  1
  Lu  Lu6  1  0.184436  0.204941  0.920908  1
  Lu  Lu7  1  0.815564  0.204941  0.420908  1
  W  W8  1  0.255111  0.723392  0.886364  1
  W  W9  1  0.744889  0.723392  0.386364  1
  W  W10  1  0.255111  0.276608  0.613636  1
  W  W11  1  0.744889  0.276608  0.113636  1
  O  O12  1  0.043065  0.942019  0.896632  1
  O  O13  1  0.537087  0.846364  0.932590  1
  O  O14  1  0.956935  0.942019  0.396632  1
  O  O15  1  0.457784  0.791553  0.725718  1
  O  O16  1  0.462913  0.846364  0.432590  1
  O  O17  1  0.980817  0.712255  0.770037  1
  O  O18  1  0.542216  0.791553  0.225718  1
  O  O19  1  0.855514  0.634887  0.550373  1
  O  O20  1  0.359357  0.486932  0.887248  1
  O  O21  1  0.019183  0.712255  0.270037  1
  O  O22  1  0.359357  0.513068  0.612752  1
  O  O23  1  0.855514  0.365113  0.949627  1
  O  O24  1  0.144486  0.634887  0.050373  1
  O  O25  1  0.640643  0.486932  0.387248  1
  O  O26  1  0.980817  0.287745  0.729963  1
  O  O27  1  0.640643  0.513068  0.112752  1
  O  O28  1  0.144486  0.365113  0.449627  1
  O  O29  1  0.457784  0.208447  0.774282  1
  O  O30  1  0.019183  0.287745  0.229963  1
  O  O31  1  0.537087  0.153636  0.567410  1
  O  O32  1  0.542216  0.208447  0.274282  1
  O  O33  1  0.043065  0.057981  0.603368  1
  O  O34  1  0.462913  0.153636  0.067410  1
  O  O35  1  0.956935  0.057981  0.103368  1
