# generated using pymatgen
data_Nd2Ga4GeIr2Rh
_symmetry_space_group_name_H-M   'P 1'
_cell_length_a   8.60859750
_cell_length_b   8.71139869
_cell_length_c   8.71139885
_cell_angle_alpha   141.02937578
_cell_angle_beta   108.35874602
_cell_angle_gamma   84.84922869
_symmetry_Int_Tables_number   1
_chemical_formula_structural   Nd2Ga4GeIr2Rh
_chemical_formula_sum   'Nd4 Ga8 Ge2 Ir4 Rh2'
_cell_volume   376.56438822
_cell_formula_units_Z   2
loop_
 _symmetry_equiv_pos_site_id
 _symmetry_equiv_pos_as_xyz
  1  'x, y, z'
loop_
 _atom_site_type_symbol
 _atom_site_label
 _atom_site_symmetry_multiplicity
 _atom_site_fract_x
 _atom_site_fract_y
 _atom_site_fract_z
 _atom_site_occupancy
  Nd  Nd0  1  0.864326  0.635333  0.228993  1
  Nd  Nd1  1  0.135674  0.364667  0.771007  1
  Nd  Nd2  1  0.409286  0.137912  0.271374  1
  Nd  Nd3  1  0.590714  0.862088  0.728626  1
  Ga  Ga4  1  0.500000  0.751934  0.251934  1
  Ga  Ga5  1  0.500000  0.248066  0.748066  1
  Ga  Ga6  1  0.209216  0.959500  0.749214  1
  Ga  Ga7  1  0.790784  0.539997  0.750284  1
  Ga  Ga8  1  0.790784  0.040500  0.250786  1
  Ga  Ga9  1  0.209216  0.460003  0.249716  1
  Ga  Ga10  1  0.078871  0.909579  0.169293  1
  Ga  Ga11  1  0.921129  0.090421  0.830707  1
  Ge  Ge12  1  0.739675  0.407854  0.331822  1
  Ge  Ge13  1  0.260325  0.592146  0.668178  1
  Ir  Ir14  1  0.253811  0.852219  0.401593  1
  Ir  Ir15  1  0.746189  0.147781  0.598407  1
  Ir  Ir16  1  0.452583  0.354035  0.098547  1
  Ir  Ir17  1  0.547417  0.645965  0.901453  1
  Rh  Rh18  1  0.000000  0.749068  0.749068  1
  Rh  Rh19  1  0.000000  0.250932  0.250932  1
