# generated using pymatgen
data_Y4Pb3
_symmetry_space_group_name_H-M   'P 1'
_cell_length_a   8.16644566
_cell_length_b   8.16644579
_cell_length_c   8.16644700
_cell_angle_alpha   109.47121619
_cell_angle_beta   109.47121652
_cell_angle_gamma   109.47122793
_symmetry_Int_Tables_number   1
_chemical_formula_structural   Y4Pb3
_chemical_formula_sum   'Y8 Pb6'
_cell_volume   419.25420182
_cell_formula_units_Z   2
loop_
 _symmetry_equiv_pos_site_id
 _symmetry_equiv_pos_as_xyz
  1  'x, y, z'
loop_
 _atom_site_type_symbol
 _atom_site_label
 _atom_site_symmetry_multiplicity
 _atom_site_fract_x
 _atom_site_fract_y
 _atom_site_fract_z
 _atom_site_occupancy
  Y  Y0  1  0.359727  0.500000  0.000000  1
  Y  Y1  1  0.859727  0.499999  0.000000  1
  Y  Y2  1  0.140273  0.140273  0.140273  1
  Y  Y3  1  0.500000  0.000000  0.359727  1
  Y  Y4  1  0.000000  0.359727  0.500000  1
  Y  Y5  1  0.000000  0.859727  0.499999  1
  Y  Y6  1  0.640274  0.640274  0.640274  1
  Y  Y7  1  0.499999  0.000000  0.859727  1
  Pb  Pb8  1  0.750000  0.874999  0.125000  1
  Pb  Pb9  1  0.625000  0.375000  0.250000  1
  Pb  Pb10  1  0.250000  0.625000  0.375000  1
  Pb  Pb11  1  0.375000  0.250000  0.625000  1
  Pb  Pb12  1  0.874999  0.125000  0.750000  1
  Pb  Pb13  1  0.125000  0.750000  0.874999  1
