# generated using pymatgen
data_Pr4MgZr(P2Ru3)6
_symmetry_space_group_name_H-M   'P 1'
_cell_length_a   12.55207309
_cell_length_b   12.71843328
_cell_length_c   4.01593200
_cell_angle_alpha   90.00000000
_cell_angle_beta   90.00000000
_cell_angle_gamma   119.58171290
_symmetry_Int_Tables_number   1
_chemical_formula_structural   Pr4MgZr(P2Ru3)6
_chemical_formula_sum   'Pr4 Mg1 Zr1 P12 Ru18'
_cell_volume   557.54662882
_cell_formula_units_Z   1
loop_
 _symmetry_equiv_pos_site_id
 _symmetry_equiv_pos_as_xyz
  1  'x, y, z'
loop_
 _atom_site_type_symbol
 _atom_site_label
 _atom_site_symmetry_multiplicity
 _atom_site_fract_x
 _atom_site_fract_y
 _atom_site_fract_z
 _atom_site_occupancy
  Pr  Pr0  1  0.819135  0.000942  0.500000  1
  Pr  Pr1  1  0.999979  0.815092  0.500000  1
  Pr  Pr2  1  0.185481  0.183456  0.500000  1
  Pr  Pr3  1  0.670582  0.340361  0.000000  1
  Mg  Mg4  1  0.438339  0.999036  0.000000  1
  Zr  Zr5  1  0.329399  0.657426  0.000000  1
  P  P6  1  0.191753  0.996532  0.000000  1
  P  P7  1  0.002416  0.188116  0.000000  1
  P  P8  1  0.810365  0.814855  0.000000  1
  P  P9  1  0.515693  0.695219  0.500000  1
  P  P10  1  0.297245  0.812390  0.500000  1
  P  P11  1  0.173380  0.477113  0.500000  1
  P  P12  1  0.478990  0.180065  0.500000  1
  P  P13  1  0.693186  0.527945  0.500000  1
  P  P14  1  0.830620  0.308929  0.500000  1
  P  P15  1  0.638728  0.003143  0.000000  1
  P  P16  1  0.997634  0.622541  0.000000  1
  P  P17  1  0.376567  0.374933  0.000000  1
  Ru  Ru18  1  0.001274  0.445390  0.000000  1
  Ru  Ru19  1  0.553578  0.556273  0.000000  1
  Ru  Ru20  1  0.287900  0.996213  0.500000  1
  Ru  Ru21  1  0.002067  0.286627  0.500000  1
  Ru  Ru22  1  0.710429  0.716966  0.500000  1
  Ru  Ru23  1  0.612558  0.802971  0.000000  1
  Ru  Ru24  1  0.196425  0.808624  0.000000  1
  Ru  Ru25  1  0.188044  0.380902  0.000000  1
  Ru  Ru26  1  0.380985  0.183685  0.000000  1
  Ru  Ru27  1  0.806416  0.626049  0.000000  1
  Ru  Ru28  1  0.818059  0.198407  0.000000  1
  Ru  Ru29  1  0.501322  0.871269  0.500000  1
  Ru  Ru30  1  0.125148  0.626883  0.500000  1
  Ru  Ru31  1  0.367235  0.499829  0.500000  1
  Ru  Ru32  1  0.487245  0.369524  0.500000  1
  Ru  Ru33  1  0.875039  0.510781  0.500000  1
  Ru  Ru34  1  0.633374  0.121474  0.500000  1
  Ru  Ru35  1  0.003411  0.000038  0.000000  1
