# generated using pymatgen
data_Ho8Hf5Sc7Ga16
_symmetry_space_group_name_H-M   'P 1'
_cell_length_a   7.17542720
_cell_length_b   7.54497834
_cell_length_c   14.35961058
_cell_angle_alpha   90.00009773
_cell_angle_beta   89.83072156
_cell_angle_gamma   89.96562346
_symmetry_Int_Tables_number   1
_chemical_formula_structural   Ho8Hf5Sc7Ga16
_chemical_formula_sum   'Ho8 Hf5 Sc7 Ga16'
_cell_volume   777.40342274
_cell_formula_units_Z   1
loop_
 _symmetry_equiv_pos_site_id
 _symmetry_equiv_pos_as_xyz
  1  'x, y, z'
loop_
 _atom_site_type_symbol
 _atom_site_label
 _atom_site_symmetry_multiplicity
 _atom_site_fract_x
 _atom_site_fract_y
 _atom_site_fract_z
 _atom_site_occupancy
  Ho  Ho0  1  0.009520  0.178189  0.092884  1
  Ho  Ho1  1  0.990239  0.820627  0.907212  1
  Ho  Ho2  1  0.489943  0.678925  0.906921  1
  Ho  Ho3  1  0.990441  0.824742  0.591707  1
  Ho  Ho4  1  0.508550  0.322043  0.093773  1
  Ho  Ho5  1  0.009451  0.175037  0.408327  1
  Ho  Ho6  1  0.509415  0.325226  0.407829  1
  Ho  Ho7  1  0.490775  0.675771  0.592027  1
  Hf  Hf8  1  0.328073  0.175788  0.623174  1
  Hf  Hf9  1  0.672171  0.824120  0.376869  1
  Hf  Hf10  1  0.172172  0.675430  0.377328  1
  Hf  Hf11  1  0.671982  0.828773  0.124437  1
  Hf  Hf12  1  0.828493  0.324104  0.623557  1
  Sc  Sc13  1  0.161977  0.506530  0.750494  1
  Sc  Sc14  1  0.838144  0.493458  0.249531  1
  Sc  Sc15  1  0.337350  0.005870  0.249864  1
  Sc  Sc16  1  0.662541  0.994049  0.750839  1
  Sc  Sc17  1  0.327412  0.170299  0.876065  1
  Sc  Sc18  1  0.826655  0.330029  0.875777  1
  Sc  Sc19  1  0.173571  0.671524  0.122684  1
  Ga  Ga20  1  0.029676  0.118933  0.747190  1
  Ga  Ga21  1  0.969361  0.878584  0.251240  1
  Ga  Ga22  1  0.470222  0.621198  0.252057  1
  Ga  Ga23  1  0.529338  0.381324  0.747095  1
  Ga  Ga24  1  0.284004  0.874293  0.746597  1
  Ga  Ga25  1  0.715976  0.124317  0.251908  1
  Ga  Ga26  1  0.216278  0.374029  0.253190  1
  Ga  Ga27  1  0.783804  0.626494  0.746858  1
  Ga  Ga28  1  0.161432  0.463010  0.540320  1
  Ga  Ga29  1  0.838372  0.537497  0.459865  1
  Ga  Ga30  1  0.339156  0.962729  0.459719  1
  Ga  Ga31  1  0.835830  0.537488  0.042112  1
  Ga  Ga32  1  0.661662  0.037950  0.539942  1
  Ga  Ga33  1  0.161268  0.463446  0.958089  1
  Ga  Ga34  1  0.663638  0.034949  0.959938  1
  Ga  Ga35  1  0.341111  0.963225  0.042583  1
