# generated using pymatgen
data_Ho3Fe4Co4MoP6
_symmetry_space_group_name_H-M   'P 1'
_cell_length_a   3.72628400
_cell_length_b   10.52723200
_cell_length_c   12.21205200
_cell_angle_alpha   90.00000000
_cell_angle_beta   90.00000000
_cell_angle_gamma   90.00000000
_symmetry_Int_Tables_number   1
_chemical_formula_structural   Ho3Fe4Co4MoP6
_chemical_formula_sum   'Ho6 Fe8 Co8 Mo2 P12'
_cell_volume   479.04773453
_cell_formula_units_Z   2
loop_
 _symmetry_equiv_pos_site_id
 _symmetry_equiv_pos_as_xyz
  1  'x, y, z'
loop_
 _atom_site_type_symbol
 _atom_site_label
 _atom_site_symmetry_multiplicity
 _atom_site_fract_x
 _atom_site_fract_y
 _atom_site_fract_z
 _atom_site_occupancy
  Ho  Ho0  1  0.000000  0.500000  0.525730  1
  Ho  Ho1  1  0.500000  0.000000  0.472396  1
  Ho  Ho2  1  0.500000  0.820324  0.205414  1
  Ho  Ho3  1  0.500000  0.179676  0.205414  1
  Ho  Ho4  1  0.000000  0.679155  0.795507  1
  Ho  Ho5  1  0.000000  0.320845  0.795507  1
  Fe  Fe6  1  0.000000  0.500000  0.987158  1
  Fe  Fe7  1  0.500000  0.000000  0.013688  1
  Fe  Fe8  1  0.500000  0.297665  0.429955  1
  Fe  Fe9  1  0.500000  0.702335  0.429955  1
  Fe  Fe10  1  0.000000  0.202620  0.571269  1
  Fe  Fe11  1  0.000000  0.797380  0.571269  1
  Fe  Fe12  1  0.500000  0.880920  0.704848  1
  Fe  Fe13  1  0.500000  0.119080  0.704848  1
  Co  Co14  1  0.000000  0.620981  0.292519  1
  Co  Co15  1  0.000000  0.379019  0.292519  1
  Co  Co16  1  0.500000  0.330870  0.992024  1
  Co  Co17  1  0.500000  0.669130  0.992024  1
  Co  Co18  1  0.000000  0.169356  0.008898  1
  Co  Co19  1  0.000000  0.830644  0.008898  1
  Co  Co20  1  0.500000  0.500000  0.700424  1
  Co  Co21  1  0.000000  0.000000  0.299867  1
  Mo  Mo22  1  0.500000  0.500000  0.154193  1
  Mo  Mo23  1  0.000000  0.000000  0.846121  1
  P  P24  1  0.500000  0.309736  0.614180  1
  P  P25  1  0.500000  0.690264  0.614180  1
  P  P26  1  0.000000  0.192732  0.385981  1
  P  P27  1  0.000000  0.807268  0.385981  1
  P  P28  1  0.500000  0.500000  0.883403  1
  P  P29  1  0.000000  0.000000  0.116913  1
  P  P30  1  0.500000  0.844710  0.893227  1
  P  P31  1  0.500000  0.155290  0.893227  1
  P  P32  1  0.000000  0.654817  0.106928  1
  P  P33  1  0.000000  0.345183  0.106928  1
  P  P34  1  0.500000  0.500000  0.349868  1
  P  P35  1  0.000000  0.000000  0.648742  1
