# generated using pymatgen
data_Er16Al4CuRu3
_symmetry_space_group_name_H-M   'P 1'
_cell_length_a   9.43799550
_cell_length_b   9.43774628
_cell_length_c   9.43785720
_cell_angle_alpha   59.98075933
_cell_angle_beta   59.98074665
_cell_angle_gamma   59.97948084
_symmetry_Int_Tables_number   1
_chemical_formula_structural   Er16Al4CuRu3
_chemical_formula_sum   'Er16 Al4 Cu1 Ru3'
_cell_volume   594.17272052
_cell_formula_units_Z   1
loop_
 _symmetry_equiv_pos_site_id
 _symmetry_equiv_pos_as_xyz
  1  'x, y, z'
loop_
 _atom_site_type_symbol
 _atom_site_label
 _atom_site_symmetry_multiplicity
 _atom_site_fract_x
 _atom_site_fract_y
 _atom_site_fract_z
 _atom_site_occupancy
  Er  Er0  1  0.062171  0.062169  0.433991  1
  Er  Er1  1  0.645007  0.059558  0.645034  1
  Er  Er2  1  0.194475  0.805919  0.194476  1
  Er  Er3  1  0.439860  0.059901  0.439915  1
  Er  Er4  1  0.194470  0.194479  0.805923  1
  Er  Er5  1  0.648068  0.648036  0.648048  1
  Er  Er6  1  0.059621  0.645007  0.645010  1
  Er  Er7  1  0.433952  0.062193  0.062195  1
  Er  Er8  1  0.645001  0.645035  0.059539  1
  Er  Er9  1  0.199743  0.805943  0.805924  1
  Er  Er10  1  0.805906  0.199734  0.805902  1
  Er  Er11  1  0.805902  0.194484  0.194490  1
  Er  Er12  1  0.805896  0.805903  0.199739  1
  Er  Er13  1  0.059905  0.439891  0.439874  1
  Er  Er14  1  0.439847  0.439894  0.059911  1
  Er  Er15  1  0.062171  0.433998  0.062178  1
  Al  Al16  1  0.732958  0.421747  0.421739  1
  Al  Al17  1  0.421757  0.421746  0.732977  1
  Al  Al18  1  0.421760  0.732971  0.421739  1
  Al  Al19  1  0.422387  0.422359  0.422346  1
  Cu  Cu20  1  0.857407  0.857343  0.857386  1
  Ru  Ru21  1  0.424932  0.858398  0.858373  1
  Ru  Ru22  1  0.858402  0.858373  0.424920  1
  Ru  Ru23  1  0.858403  0.424920  0.858372  1
