# generated using pymatgen
data_Er3ThZn4PtRh3
_symmetry_space_group_name_H-M   'P 1'
_cell_length_a   3.99300400
_cell_length_b   7.02650162
_cell_length_c   8.27120640
_cell_angle_alpha   89.80830162
_cell_angle_beta   90.00000000
_cell_angle_gamma   90.00000000
_symmetry_Int_Tables_number   1
_chemical_formula_structural   Er3ThZn4PtRh3
_chemical_formula_sum   'Er3 Th1 Zn4 Pt1 Rh3'
_cell_volume   232.06269092
_cell_formula_units_Z   1
loop_
 _symmetry_equiv_pos_site_id
 _symmetry_equiv_pos_as_xyz
  1  'x, y, z'
loop_
 _atom_site_type_symbol
 _atom_site_label
 _atom_site_symmetry_multiplicity
 _atom_site_fract_x
 _atom_site_fract_y
 _atom_site_fract_z
 _atom_site_occupancy
  Er  Er0  1  0.250000  0.545008  0.182295  1
  Er  Er1  1  0.750000  0.953657  0.689161  1
  Er  Er2  1  0.750000  0.447251  0.813977  1
  Th  Th3  1  0.250000  0.047313  0.318899  1
  Zn  Zn4  1  0.250000  0.628063  0.563442  1
  Zn  Zn5  1  0.250000  0.136962  0.932620  1
  Zn  Zn6  1  0.750000  0.382004  0.439806  1
  Zn  Zn7  1  0.750000  0.861318  0.060752  1
  Pt  Pt8  1  0.250000  0.744536  0.874726  1
  Rh  Rh9  1  0.250000  0.245691  0.620662  1
  Rh  Rh10  1  0.750000  0.759144  0.376240  1
  Rh  Rh11  1  0.750000  0.249053  0.127419  1
