# generated using pymatgen
data_TbY5TcRh
_symmetry_space_group_name_H-M   'P 1'
_cell_length_a   6.37344698
_cell_length_b   7.37748134
_cell_length_c   9.29100700
_cell_angle_alpha   90.00000000
_cell_angle_beta   90.00000000
_cell_angle_gamma   89.69365532
_symmetry_Int_Tables_number   1
_chemical_formula_structural   TbY5TcRh
_chemical_formula_sum   'Tb2 Y10 Tc2 Rh2'
_cell_volume   436.85677629
_cell_formula_units_Z   2
loop_
 _symmetry_equiv_pos_site_id
 _symmetry_equiv_pos_as_xyz
  1  'x, y, z'
loop_
 _atom_site_type_symbol
 _atom_site_label
 _atom_site_symmetry_multiplicity
 _atom_site_fract_x
 _atom_site_fract_y
 _atom_site_fract_z
 _atom_site_occupancy
  Tb  Tb0  1  0.637408  0.041093  0.250000  1
  Tb  Tb1  1  0.362592  0.958907  0.750000  1
  Y  Y2  1  0.128738  0.460667  0.750000  1
  Y  Y3  1  0.871262  0.539333  0.250000  1
  Y  Y4  1  0.173714  0.179123  0.065865  1
  Y  Y5  1  0.826286  0.820877  0.934135  1
  Y  Y6  1  0.665867  0.325832  0.937531  1
  Y  Y7  1  0.826286  0.820877  0.565865  1
  Y  Y8  1  0.334133  0.674168  0.062469  1
  Y  Y9  1  0.173714  0.179123  0.434135  1
  Y  Y10  1  0.334133  0.674168  0.437531  1
  Y  Y11  1  0.665867  0.325832  0.562469  1
  Tc  Tc12  1  0.463859  0.382278  0.250000  1
  Tc  Tc13  1  0.536141  0.617722  0.750000  1
  Rh  Rh14  1  0.957828  0.114015  0.750000  1
  Rh  Rh15  1  0.042172  0.885985  0.250000  1
