# generated using pymatgen
data_Tm6TaP12Rh17
_symmetry_space_group_name_H-M   'P 1'
_cell_length_a   3.91702400
_cell_length_b   11.16586800
_cell_length_c   12.73270800
_cell_angle_alpha   90.00000000
_cell_angle_beta   90.00000000
_cell_angle_gamma   90.00000000
_symmetry_Int_Tables_number   1
_chemical_formula_structural   Tm6TaP12Rh17
_chemical_formula_sum   'Tm6 Ta1 P12 Rh17'
_cell_volume   556.89010521
_cell_formula_units_Z   1
loop_
 _symmetry_equiv_pos_site_id
 _symmetry_equiv_pos_as_xyz
  1  'x, y, z'
loop_
 _atom_site_type_symbol
 _atom_site_label
 _atom_site_symmetry_multiplicity
 _atom_site_fract_x
 _atom_site_fract_y
 _atom_site_fract_z
 _atom_site_occupancy
  Tm  Tm0  1  0.000000  0.500000  0.522328  1
  Tm  Tm1  1  0.500000  0.000000  0.477204  1
  Tm  Tm2  1  0.500000  0.815778  0.206364  1
  Tm  Tm3  1  0.500000  0.184222  0.206364  1
  Tm  Tm4  1  0.000000  0.681979  0.797698  1
  Tm  Tm5  1  0.000000  0.318021  0.797698  1
  Ta  Ta6  1  0.500000  0.500000  0.157820  1
  P  P7  1  0.500000  0.500000  0.874289  1
  P  P8  1  0.000000  0.000000  0.123693  1
  P  P9  1  0.500000  0.500000  0.352631  1
  P  P10  1  0.000000  0.000000  0.647841  1
  P  P11  1  0.500000  0.316091  0.619391  1
  P  P12  1  0.500000  0.683909  0.619391  1
  P  P13  1  0.000000  0.184926  0.382616  1
  P  P14  1  0.000000  0.815074  0.382616  1
  P  P15  1  0.500000  0.849321  0.889017  1
  P  P16  1  0.500000  0.150679  0.889017  1
  P  P17  1  0.000000  0.656672  0.109076  1
  P  P18  1  0.000000  0.343328  0.109076  1
  Rh  Rh19  1  0.000000  0.000000  0.831703  1
  Rh  Rh20  1  0.500000  0.500000  0.697935  1
  Rh  Rh21  1  0.000000  0.000000  0.300865  1
  Rh  Rh22  1  0.000000  0.500000  0.985546  1
  Rh  Rh23  1  0.500000  0.000000  0.023006  1
  Rh  Rh24  1  0.500000  0.331492  0.986246  1
  Rh  Rh25  1  0.500000  0.668508  0.986246  1
  Rh  Rh26  1  0.000000  0.166055  0.010679  1
  Rh  Rh27  1  0.000000  0.833945  0.010679  1
  Rh  Rh28  1  0.500000  0.293163  0.433297  1
  Rh  Rh29  1  0.500000  0.706837  0.433297  1
  Rh  Rh30  1  0.000000  0.201868  0.568884  1
  Rh  Rh31  1  0.000000  0.798132  0.568884  1
  Rh  Rh32  1  0.500000  0.872325  0.708884  1
  Rh  Rh33  1  0.500000  0.127675  0.708884  1
  Rh  Rh34  1  0.000000  0.627704  0.290419  1
  Rh  Rh35  1  0.000000  0.372296  0.290419  1
