# generated using pymatgen
data_CaLa2YbAl8
_symmetry_space_group_name_H-M   'P 1'
_cell_length_a   9.83107089
_cell_length_b   9.83107007
_cell_length_c   9.83107016
_cell_angle_alpha   33.68267365
_cell_angle_beta   33.68268058
_cell_angle_gamma   33.68266899
_symmetry_Int_Tables_number   1
_chemical_formula_structural   CaLa2YbAl8
_chemical_formula_sum   'Ca1 La2 Yb1 Al8'
_cell_volume   260.36555732
_cell_formula_units_Z   1
loop_
 _symmetry_equiv_pos_site_id
 _symmetry_equiv_pos_as_xyz
  1  'x, y, z'
loop_
 _atom_site_type_symbol
 _atom_site_label
 _atom_site_symmetry_multiplicity
 _atom_site_fract_x
 _atom_site_fract_y
 _atom_site_fract_z
 _atom_site_occupancy
  Ca  Ca0  1  0.060935  0.060935  0.060935  1
  La  La1  1  0.564009  0.564009  0.564009  1
  La  La2  1  0.436190  0.436190  0.436190  1
  Yb  Yb3  1  0.938457  0.938457  0.938457  1
  Al  Al4  1  0.748992  0.748992  0.748992  1
  Al  Al5  1  0.251043  0.251043  0.251043  1
  Al  Al6  1  0.000209  0.499832  0.499832  1
  Al  Al7  1  0.500608  0.999945  0.999945  1
  Al  Al8  1  0.499832  0.000209  0.499832  1
  Al  Al9  1  0.999945  0.500608  0.999945  1
  Al  Al10  1  0.499832  0.499832  0.000209  1
  Al  Al11  1  0.999945  0.999945  0.500608  1
