# generated using pymatgen
data_SmSc2SbO7
_symmetry_space_group_name_H-M   'P 1'
_cell_length_a   6.27036966
_cell_length_b   6.27036858
_cell_length_c   7.40172400
_cell_angle_alpha   90.00000000
_cell_angle_beta   90.00000000
_cell_angle_gamma   109.33085589
_symmetry_Int_Tables_number   1
_chemical_formula_structural   SmSc2SbO7
_chemical_formula_sum   'Sm2 Sc4 Sb2 O14'
_cell_volume   274.61075190
_cell_formula_units_Z   2
loop_
 _symmetry_equiv_pos_site_id
 _symmetry_equiv_pos_as_xyz
  1  'x, y, z'
loop_
 _atom_site_type_symbol
 _atom_site_label
 _atom_site_symmetry_multiplicity
 _atom_site_fract_x
 _atom_site_fract_y
 _atom_site_fract_z
 _atom_site_occupancy
  Sm  Sm0  1  0.500000  0.500000  0.500000  1
  Sm  Sm1  1  0.500000  0.500000  0.000000  1
  Sc  Sc2  1  0.526879  0.004343  0.750000  1
  Sc  Sc3  1  0.004343  0.526879  0.250000  1
  Sc  Sc4  1  0.473121  0.995657  0.250000  1
  Sc  Sc5  1  0.995657  0.473121  0.750000  1
  Sb  Sb6  1  0.000000  0.000000  0.500000  1
  Sb  Sb7  1  0.000000  0.000000  0.000000  1
  O  O8  1  0.669405  0.928132  0.466031  1
  O  O9  1  0.928132  0.669405  0.533969  1
  O  O10  1  0.669405  0.928132  0.033969  1
  O  O11  1  0.928132  0.669405  0.966031  1
  O  O12  1  0.330595  0.071868  0.533969  1
  O  O13  1  0.071868  0.330595  0.466031  1
  O  O14  1  0.330595  0.071868  0.966031  1
  O  O15  1  0.071868  0.330595  0.033969  1
  O  O16  1  0.923723  0.076277  0.750000  1
  O  O17  1  0.076277  0.923723  0.250000  1
  O  O18  1  0.355721  0.644279  0.750000  1
  O  O19  1  0.644279  0.355721  0.250000  1
  O  O20  1  0.651199  0.348801  0.750000  1
  O  O21  1  0.348801  0.651199  0.250000  1
