# generated using pymatgen
data_Dy6Ho4(SnSb)3
_symmetry_space_group_name_H-M   'P 1'
_cell_length_a   6.39314800
_cell_length_b   8.96960454
_cell_length_c   8.97115805
_cell_angle_alpha   119.99427619
_cell_angle_beta   89.99978749
_cell_angle_gamma   90.00040604
_symmetry_Int_Tables_number   1
_chemical_formula_structural   Dy6Ho4(SnSb)3
_chemical_formula_sum   'Dy6 Ho4 Sn3 Sb3'
_cell_volume   445.54568250
_cell_formula_units_Z   1
loop_
 _symmetry_equiv_pos_site_id
 _symmetry_equiv_pos_as_xyz
  1  'x, y, z'
loop_
 _atom_site_type_symbol
 _atom_site_label
 _atom_site_symmetry_multiplicity
 _atom_site_fract_x
 _atom_site_fract_y
 _atom_site_fract_z
 _atom_site_occupancy
  Dy  Dy0  1  0.749998  0.241624  0.000000  1
  Dy  Dy1  1  0.750001  0.758387  0.758379  1
  Dy  Dy2  1  0.750001  0.000009  0.241621  1
  Dy  Dy3  1  0.249999  0.757905  0.000000  1
  Dy  Dy4  1  0.250000  0.242111  0.242116  1
  Dy  Dy5  1  0.250000  0.999995  0.757884  1
  Ho  Ho6  1  0.500717  0.333343  0.666688  1
  Ho  Ho7  1  0.500717  0.666655  0.333312  1
  Ho  Ho8  1  0.999284  0.666657  0.333314  1
  Ho  Ho9  1  0.999284  0.333343  0.666686  1
  Sn  Sn10  1  0.750000  0.607060  0.000000  1
  Sn  Sn11  1  0.750000  0.392970  0.392980  1
  Sn  Sn12  1  0.750000  0.999988  0.607020  1
  Sb  Sb13  1  0.249988  0.391740  0.000000  1
  Sb  Sb14  1  0.250008  0.608248  0.608282  1
  Sb  Sb15  1  0.250008  0.999966  0.391718  1
