# generated using pymatgen
data_Tm2Th3Ni19
_symmetry_space_group_name_H-M   'P 1'
_cell_length_a   4.90857632
_cell_length_b   4.90857653
_cell_length_c   16.47951404
_cell_angle_alpha   81.43509282
_cell_angle_beta   81.43509401
_cell_angle_gamma   59.99999400
_symmetry_Int_Tables_number   1
_chemical_formula_structural   Tm2Th3Ni19
_chemical_formula_sum   'Tm2 Th3 Ni19'
_cell_volume   338.74076532
_cell_formula_units_Z   1
loop_
 _symmetry_equiv_pos_site_id
 _symmetry_equiv_pos_as_xyz
  1  'x, y, z'
loop_
 _atom_site_type_symbol
 _atom_site_label
 _atom_site_symmetry_multiplicity
 _atom_site_fract_x
 _atom_site_fract_y
 _atom_site_fract_z
 _atom_site_occupancy
  Tm  Tm0  1  0.846999  0.846999  0.459005  1
  Tm  Tm1  1  0.153001  0.153001  0.540995  1
  Th  Th2  1  0.000000  0.000000  0.000000  1
  Th  Th3  1  0.919732  0.919732  0.240805  1
  Th  Th4  1  0.080268  0.080268  0.759195  1
  Ni  Ni5  1  0.500000  0.500000  0.500000  1
  Ni  Ni6  1  0.749928  0.749929  0.750215  1
  Ni  Ni7  1  0.250071  0.250071  0.249786  1
  Ni  Ni8  1  0.666621  0.666621  0.000140  1
  Ni  Ni9  1  0.333379  0.333379  0.999860  1
  Ni  Ni10  1  0.583459  0.583459  0.249625  1
  Ni  Ni11  1  0.416541  0.416541  0.750375  1
  Ni  Ni12  1  0.374391  0.374391  0.374662  1
  Ni  Ni13  1  0.876555  0.374391  0.374662  1
  Ni  Ni14  1  0.374391  0.876555  0.374662  1
  Ni  Ni15  1  0.625609  0.625609  0.625338  1
  Ni  Ni16  1  0.123445  0.625609  0.625338  1
  Ni  Ni17  1  0.625609  0.123445  0.625338  1
  Ni  Ni18  1  0.458627  0.458627  0.124030  1
  Ni  Ni19  1  0.958715  0.458627  0.124030  1
  Ni  Ni20  1  0.458627  0.958715  0.124030  1
  Ni  Ni21  1  0.541373  0.541373  0.875970  1
  Ni  Ni22  1  0.041285  0.541373  0.875970  1
  Ni  Ni23  1  0.541373  0.041285  0.875970  1
