# generated using pymatgen
data_Sm2Zn2SiPIr4
_symmetry_space_group_name_H-M   'P 1'
_cell_length_a   4.06018800
_cell_length_b   4.06018800
_cell_length_c   10.61766900
_cell_angle_alpha   90.00000000
_cell_angle_beta   90.00000000
_cell_angle_gamma   90.00000000
_symmetry_Int_Tables_number   1
_chemical_formula_structural   Sm2Zn2SiPIr4
_chemical_formula_sum   'Sm2 Zn2 Si1 P1 Ir4'
_cell_volume   175.03361761
_cell_formula_units_Z   1
loop_
 _symmetry_equiv_pos_site_id
 _symmetry_equiv_pos_as_xyz
  1  'x, y, z'
loop_
 _atom_site_type_symbol
 _atom_site_label
 _atom_site_symmetry_multiplicity
 _atom_site_fract_x
 _atom_site_fract_y
 _atom_site_fract_z
 _atom_site_occupancy
  Sm  Sm0  1  0.000000  0.500000  0.248906  1
  Sm  Sm1  1  0.500000  0.000000  0.753105  1
  Zn  Zn2  1  0.000000  0.000000  0.501541  1
  Zn  Zn3  1  0.500000  0.500000  0.501541  1
  Si  Si4  1  0.500000  0.000000  0.124104  1
  P  P5  1  0.000000  0.500000  0.875433  1
  Ir  Ir6  1  0.000000  0.000000  0.995553  1
  Ir  Ir7  1  0.500000  0.500000  0.995553  1
  Ir  Ir8  1  0.000000  0.500000  0.659033  1
  Ir  Ir9  1  0.500000  0.000000  0.345229  1
