# generated using pymatgen
data_Cs2NaIrCl6
_symmetry_space_group_name_H-M   'P 1'
_cell_length_a   13.29525681
_cell_length_b   13.29525729
_cell_length_c   13.29525600
_cell_angle_alpha   32.42302200
_cell_angle_beta   32.42301986
_cell_angle_gamma   32.42302102
_symmetry_Int_Tables_number   1
_chemical_formula_structural   Cs2NaIrCl6
_chemical_formula_sum   'Cs4 Na2 Ir2 Cl12'
_cell_volume   600.66746097
_cell_formula_units_Z   2
loop_
 _symmetry_equiv_pos_site_id
 _symmetry_equiv_pos_as_xyz
  1  'x, y, z'
loop_
 _atom_site_type_symbol
 _atom_site_label
 _atom_site_symmetry_multiplicity
 _atom_site_fract_x
 _atom_site_fract_y
 _atom_site_fract_z
 _atom_site_occupancy
  Cs  Cs0  1  0.125305  0.125305  0.125305  1
  Cs  Cs1  1  0.294230  0.294230  0.294230  1
  Cs  Cs2  1  0.705770  0.705770  0.705770  1
  Cs  Cs3  1  0.874695  0.874695  0.874695  1
  Na  Na4  1  0.412734  0.412734  0.412734  1
  Na  Na5  1  0.587266  0.587266  0.587266  1
  Ir  Ir6  1  0.000000  0.000000  0.000000  1
  Ir  Ir7  1  0.500000  0.500000  0.500000  1
  Cl  Cl8  1  0.616277  0.616277  0.158671  1
  Cl  Cl9  1  0.735205  0.187453  0.187453  1
  Cl  Cl10  1  0.187453  0.735205  0.187453  1
  Cl  Cl11  1  0.812547  0.812547  0.264796  1
  Cl  Cl12  1  0.841330  0.383722  0.383722  1
  Cl  Cl13  1  0.383722  0.841330  0.383722  1
  Cl  Cl14  1  0.616278  0.158670  0.616278  1
  Cl  Cl15  1  0.158670  0.616278  0.616278  1
  Cl  Cl16  1  0.187453  0.187453  0.735204  1
  Cl  Cl17  1  0.812547  0.264795  0.812547  1
  Cl  Cl18  1  0.264795  0.812547  0.812547  1
  Cl  Cl19  1  0.383723  0.383723  0.841329  1
