# generated using pymatgen
data_La8Si15Ru
_symmetry_space_group_name_H-M   'P 1'
_cell_length_a   8.28327800
_cell_length_b   8.28327871
_cell_length_c   8.73113400
_cell_angle_alpha   90.00000000
_cell_angle_beta   90.00000000
_cell_angle_gamma   119.99999715
_symmetry_Int_Tables_number   1
_chemical_formula_structural   La8Si15Ru
_chemical_formula_sum   'La8 Si15 Ru1'
_cell_volume   518.80697908
_cell_formula_units_Z   1
loop_
 _symmetry_equiv_pos_site_id
 _symmetry_equiv_pos_as_xyz
  1  'x, y, z'
loop_
 _atom_site_type_symbol
 _atom_site_label
 _atom_site_symmetry_multiplicity
 _atom_site_fract_x
 _atom_site_fract_y
 _atom_site_fract_z
 _atom_site_occupancy
  La  La0  1  0.501494  0.498506  0.750567  1
  La  La1  1  0.501476  0.498524  0.249423  1
  La  La2  1  0.997013  0.498506  0.750567  1
  La  La3  1  0.997048  0.498524  0.249423  1
  La  La4  1  0.501494  0.002987  0.750567  1
  La  La5  1  0.501476  0.002952  0.249423  1
  La  La6  1  0.000000  0.000000  0.750100  1
  La  La7  1  0.000000  0.000000  0.250015  1
  Si  Si8  1  0.666667  0.333333  0.999848  1
  Si  Si9  1  0.333333  0.666667  0.999906  1
  Si  Si10  1  0.333333  0.666667  0.499891  1
  Si  Si11  1  0.834179  0.165821  0.000059  1
  Si  Si12  1  0.167456  0.832544  0.000026  1
  Si  Si13  1  0.331640  0.165821  0.000059  1
  Si  Si14  1  0.162467  0.837533  0.500066  1
  Si  Si15  1  0.665089  0.832544  0.000026  1
  Si  Si16  1  0.829539  0.170461  0.500048  1
  Si  Si17  1  0.834179  0.668360  0.000059  1
  Si  Si18  1  0.675064  0.837533  0.500066  1
  Si  Si19  1  0.167456  0.334911  0.000026  1
  Si  Si20  1  0.340922  0.170461  0.500048  1
  Si  Si21  1  0.162467  0.324936  0.500066  1
  Si  Si22  1  0.829539  0.659078  0.500048  1
  Ru  Ru23  1  0.666667  0.333333  0.499672  1
