# generated using pymatgen
data_DyY7Sc11Si16Ag
_symmetry_space_group_name_H-M   'P 1'
_cell_length_a   7.03208010
_cell_length_b   7.39117588
_cell_length_c   14.01768401
_cell_angle_alpha   90.00331154
_cell_angle_beta   89.99594767
_cell_angle_gamma   89.93144329
_symmetry_Int_Tables_number   1
_chemical_formula_structural   DyY7Sc11Si16Ag
_chemical_formula_sum   'Dy1 Y7 Sc11 Si16 Ag1'
_cell_volume   728.57337984
_cell_formula_units_Z   1
loop_
 _symmetry_equiv_pos_site_id
 _symmetry_equiv_pos_as_xyz
  1  'x, y, z'
loop_
 _atom_site_type_symbol
 _atom_site_label
 _atom_site_symmetry_multiplicity
 _atom_site_fract_x
 _atom_site_fract_y
 _atom_site_fract_z
 _atom_site_occupancy
  Dy  Dy0  1  0.483916  0.673722  0.598828  1
  Y  Y1  1  0.010982  0.174800  0.096479  1
  Y  Y2  1  0.990406  0.815360  0.900946  1
  Y  Y3  1  0.484076  0.673443  0.901361  1
  Y  Y4  1  0.990397  0.815294  0.599032  1
  Y  Y5  1  0.510683  0.323811  0.096469  1
  Y  Y6  1  0.011051  0.174905  0.403520  1
  Y  Y7  1  0.510683  0.323905  0.403622  1
  Sc  Sc8  1  0.838681  0.497800  0.250002  1
  Sc  Sc9  1  0.340303  0.002308  0.250029  1
  Sc  Sc10  1  0.657641  0.998561  0.749927  1
  Sc  Sc11  1  0.326092  0.183040  0.626621  1
  Sc  Sc12  1  0.671114  0.823255  0.375007  1
  Sc  Sc13  1  0.170565  0.678666  0.373888  1
  Sc  Sc14  1  0.671203  0.823322  0.124990  1
  Sc  Sc15  1  0.835787  0.327302  0.626473  1
  Sc  Sc16  1  0.326116  0.183057  0.873361  1
  Sc  Sc17  1  0.835900  0.327163  0.873492  1
  Sc  Sc18  1  0.170567  0.678725  0.126091  1
  Si  Si19  1  0.028419  0.101009  0.750016  1
  Si  Si20  1  0.968714  0.886448  0.249986  1
  Si  Si21  1  0.467472  0.617498  0.249963  1
  Si  Si22  1  0.537593  0.384225  0.749878  1
  Si  Si23  1  0.288468  0.884907  0.749832  1
  Si  Si24  1  0.713747  0.126587  0.250015  1
  Si  Si25  1  0.212904  0.373268  0.249999  1
  Si  Si26  1  0.776012  0.628396  0.749915  1
  Si  Si27  1  0.160993  0.460146  0.531744  1
  Si  Si28  1  0.843381  0.535822  0.461838  1
  Si  Si29  1  0.345142  0.964671  0.462704  1
  Si  Si30  1  0.843530  0.535680  0.038223  1
  Si  Si31  1  0.657072  0.033870  0.540442  1
  Si  Si32  1  0.160577  0.459869  0.968331  1
  Si  Si33  1  0.657165  0.034215  0.959626  1
  Si  Si34  1  0.345125  0.964920  0.037411  1
  Ag  Ag35  1  0.157521  0.510024  0.749941  1
