# generated using pymatgen
data_Ho4Tc2Ru5W
_symmetry_space_group_name_H-M   'P 1'
_cell_length_a   5.50304094
_cell_length_b   5.13625815
_cell_length_c   9.08199200
_cell_angle_alpha   90.00000000
_cell_angle_beta   90.00000000
_cell_angle_gamma   121.26577890
_symmetry_Int_Tables_number   1
_chemical_formula_structural   Ho4Tc2Ru5W
_chemical_formula_sum   'Ho4 Tc2 Ru5 W1'
_cell_volume   219.42163682
_cell_formula_units_Z   1
loop_
 _symmetry_equiv_pos_site_id
 _symmetry_equiv_pos_as_xyz
  1  'x, y, z'
loop_
 _atom_site_type_symbol
 _atom_site_label
 _atom_site_symmetry_multiplicity
 _atom_site_fract_x
 _atom_site_fract_y
 _atom_site_fract_z
 _atom_site_occupancy
  Ho  Ho0  1  0.673774  0.344725  0.564784  1
  Ho  Ho1  1  0.329771  0.665514  0.433520  1
  Ho  Ho2  1  0.329771  0.665514  0.066480  1
  Ho  Ho3  1  0.673774  0.344725  0.935216  1
  Tc  Tc4  1  0.835022  0.656357  0.250000  1
  Tc  Tc5  1  0.832964  0.172078  0.250000  1
  Ru  Ru6  1  0.996572  0.011420  0.499559  1
  Ru  Ru7  1  0.996572  0.011420  0.000441  1
  Ru  Ru8  1  0.172212  0.816971  0.750000  1
  Ru  Ru9  1  0.650747  0.819960  0.750000  1
  Ru  Ru10  1  0.345188  0.172858  0.250000  1
  W  W11  1  0.163632  0.318457  0.750000  1
