# generated using pymatgen
data_Dy5Al7Ni12
_symmetry_space_group_name_H-M   'P 1'
_cell_length_a   5.15984701
_cell_length_b   5.15984642
_cell_length_c   15.91278600
_cell_angle_alpha   80.66950443
_cell_angle_beta   80.66950551
_cell_angle_gamma   59.99998774
_symmetry_Int_Tables_number   1
_chemical_formula_structural   Dy5Al7Ni12
_chemical_formula_sum   'Dy5 Al7 Ni12'
_cell_volume   360.41537528
_cell_formula_units_Z   1
loop_
 _symmetry_equiv_pos_site_id
 _symmetry_equiv_pos_as_xyz
  1  'x, y, z'
loop_
 _atom_site_type_symbol
 _atom_site_label
 _atom_site_symmetry_multiplicity
 _atom_site_fract_x
 _atom_site_fract_y
 _atom_site_fract_z
 _atom_site_occupancy
  Dy  Dy0  1  0.000000  0.000000  0.000000  1
  Dy  Dy1  1  0.926227  0.926227  0.221323  1
  Dy  Dy2  1  0.073773  0.073773  0.778677  1
  Dy  Dy3  1  0.850917  0.850917  0.447249  1
  Dy  Dy4  1  0.149083  0.149083  0.552751  1
  Al  Al5  1  0.500000  0.500000  0.500000  1
  Al  Al6  1  0.750247  0.750248  0.749259  1
  Al  Al7  1  0.249752  0.249752  0.250742  1
  Al  Al8  1  0.666746  0.666746  0.999764  1
  Al  Al9  1  0.333254  0.333254  0.000236  1
  Al  Al10  1  0.582469  0.582469  0.252595  1
  Al  Al11  1  0.417531  0.417531  0.747405  1
  Ni  Ni12  1  0.372203  0.372203  0.374859  1
  Ni  Ni13  1  0.880734  0.372203  0.374859  1
  Ni  Ni14  1  0.372203  0.880734  0.374859  1
  Ni  Ni15  1  0.627797  0.627797  0.625141  1
  Ni  Ni16  1  0.119266  0.627797  0.625141  1
  Ni  Ni17  1  0.627797  0.119266  0.625141  1
  Ni  Ni18  1  0.458831  0.458831  0.124557  1
  Ni  Ni19  1  0.957781  0.458831  0.124557  1
  Ni  Ni20  1  0.458831  0.957781  0.124557  1
  Ni  Ni21  1  0.541169  0.541169  0.875443  1
  Ni  Ni22  1  0.042219  0.541169  0.875443  1
  Ni  Ni23  1  0.541169  0.042219  0.875443  1
