# generated using pymatgen
data_Dy2Er6In3Tc
_symmetry_space_group_name_H-M   'P 1'
_cell_length_a   10.35657700
_cell_length_b   10.35720404
_cell_length_c   7.02650635
_cell_angle_alpha   90.06475169
_cell_angle_beta   90.00000000
_cell_angle_gamma   119.99799413
_symmetry_Int_Tables_number   1
_chemical_formula_structural   Dy2Er6In3Tc
_chemical_formula_sum   'Dy4 Er12 In6 Tc2'
_cell_volume   652.73553052
_cell_formula_units_Z   2
loop_
 _symmetry_equiv_pos_site_id
 _symmetry_equiv_pos_as_xyz
  1  'x, y, z'
loop_
 _atom_site_type_symbol
 _atom_site_label
 _atom_site_symmetry_multiplicity
 _atom_site_fract_x
 _atom_site_fract_y
 _atom_site_fract_z
 _atom_site_occupancy
  Dy  Dy0  1  0.531062  0.062124  0.795921  1
  Dy  Dy1  1  0.937870  0.468796  0.796666  1
  Dy  Dy2  1  0.530927  0.468796  0.796666  1
  Dy  Dy3  1  0.468257  0.936514  0.296455  1
  Er  Er4  1  0.063755  0.531792  0.297151  1
  Er  Er5  1  0.468037  0.531792  0.297151  1
  Er  Er6  1  0.822757  0.645515  0.498220  1
  Er  Er7  1  0.354056  0.177286  0.498275  1
  Er  Er8  1  0.823230  0.177286  0.498275  1
  Er  Er9  1  0.177472  0.354944  0.999662  1
  Er  Er10  1  0.645591  0.822547  0.999332  1
  Er  Er11  1  0.176956  0.822547  0.999332  1
  Er  Er12  1  0.666860  0.333719  0.170164  1
  Er  Er13  1  0.333157  0.666316  0.668524  1
  Er  Er14  1  0.000090  0.000179  0.776123  1
  Er  Er15  1  0.000093  0.000185  0.275874  1
  In  In16  1  0.837136  0.674274  0.038916  1
  In  In17  1  0.325622  0.162874  0.038926  1
  In  In18  1  0.837251  0.162874  0.038926  1
  In  In19  1  0.163055  0.326110  0.538694  1
  In  In20  1  0.674293  0.836977  0.539022  1
  In  In21  1  0.162684  0.836977  0.539022  1
  Tc  Tc22  1  0.666570  0.333138  0.569734  1
  Tc  Tc23  1  0.333218  0.666436  0.068874  1
