# generated using pymatgen
data_EuCdCuPt3
_symmetry_space_group_name_H-M   'P 1'
_cell_length_a   5.26863884
_cell_length_b   5.48655032
_cell_length_c   5.48655200
_cell_angle_alpha   60.00000192
_cell_angle_beta   58.62212277
_cell_angle_gamma   58.62212771
_symmetry_Int_Tables_number   1
_chemical_formula_structural   EuCdCuPt3
_chemical_formula_sum   'Eu1 Cd1 Cu1 Pt3'
_cell_volume   109.75296252
_cell_formula_units_Z   1
loop_
 _symmetry_equiv_pos_site_id
 _symmetry_equiv_pos_as_xyz
  1  'x, y, z'
loop_
 _atom_site_type_symbol
 _atom_site_label
 _atom_site_symmetry_multiplicity
 _atom_site_fract_x
 _atom_site_fract_y
 _atom_site_fract_z
 _atom_site_occupancy
  Eu  Eu0  1  0.746717  0.751094  0.751094  1
  Cd  Cd1  1  0.993564  0.002145  0.002145  1
  Cu  Cu2  1  0.877872  0.374043  0.374043  1
  Pt  Pt3  1  0.377282  0.373132  0.876454  1
  Pt  Pt4  1  0.377282  0.876454  0.373132  1
  Pt  Pt5  1  0.377282  0.373132  0.373132  1
