# generated using pymatgen
data_B(IBr4)3
_symmetry_space_group_name_H-M   'P 1'
_cell_length_a   7.27769024
_cell_length_b   11.34700044
_cell_length_c   12.31651301
_cell_angle_alpha   54.08007476
_cell_angle_beta   90.60804715
_cell_angle_gamma   96.39919097
_symmetry_Int_Tables_number   1
_chemical_formula_structural   B(IBr4)3
_chemical_formula_sum   'B1 I3 Br12'
_cell_volume   816.65359857
_cell_formula_units_Z   1
loop_
 _symmetry_equiv_pos_site_id
 _symmetry_equiv_pos_as_xyz
  1  'x, y, z'
loop_
 _atom_site_type_symbol
 _atom_site_label
 _atom_site_symmetry_multiplicity
 _atom_site_fract_x
 _atom_site_fract_y
 _atom_site_fract_z
 _atom_site_occupancy
  B  B0  1  0.512192  0.162910  0.492918  1
  I  I1  1  0.881842  0.201579  0.992489  1
  I  I2  1  0.546833  0.816885  0.486435  1
  I  I3  1  0.047107  0.726645  0.049535  1
  Br  Br4  1  0.812314  0.415173  0.747613  1
  Br  Br5  1  0.380520  0.592702  0.756573  1
  Br  Br6  1  0.289211  0.782836  0.199189  1
  Br  Br7  1  0.595757  0.344621  0.314435  1
  Br  Br8  1  0.250011  0.405047  0.983670  1
  Br  Br9  1  0.744857  0.628969  0.489628  1
  Br  Br10  1  0.796474  0.649279  0.942687  1
  Br  Br11  1  0.323699  0.220277  0.575426  1
  Br  Br12  1  0.589001  0.002535  0.073159  1
  Br  Br13  1  0.334806  0.018564  0.465501  1
  Br  Br14  1  0.192023  0.973009  0.816055  1
  Br  Br15  1  0.703353  0.058972  0.614687  1
