# generated using pymatgen
data_Dy3HoCo16(P3Ru)4
_symmetry_space_group_name_H-M   'P 1'
_cell_length_a   3.68862700
_cell_length_b   10.38755100
_cell_length_c   11.76725500
_cell_angle_alpha   90.00172229
_cell_angle_beta   90.00000000
_cell_angle_gamma   90.00000000
_symmetry_Int_Tables_number   1
_chemical_formula_structural   Dy3HoCo16(P3Ru)4
_chemical_formula_sum   'Dy3 Ho1 Co16 P12 Ru4'
_cell_volume   450.87180176
_cell_formula_units_Z   1
loop_
 _symmetry_equiv_pos_site_id
 _symmetry_equiv_pos_as_xyz
  1  'x, y, z'
loop_
 _atom_site_type_symbol
 _atom_site_label
 _atom_site_symmetry_multiplicity
 _atom_site_fract_x
 _atom_site_fract_y
 _atom_site_fract_z
 _atom_site_occupancy
  Dy  Dy0  1  0.250000  0.914049  0.203991  1
  Dy  Dy1  1  0.750000  0.414106  0.296008  1
  Dy  Dy2  1  0.750000  0.085912  0.795962  1
  Ho  Ho3  1  0.250000  0.585891  0.703963  1
  Co  Co4  1  0.250000  0.408713  0.489561  1
  Co  Co5  1  0.250000  0.091324  0.989491  1
  Co  Co6  1  0.750000  0.591331  0.510710  1
  Co  Co7  1  0.750000  0.908660  0.010501  1
  Co  Co8  1  0.250000  0.221112  0.176784  1
  Co  Co9  1  0.250000  0.278955  0.676804  1
  Co  Co10  1  0.750000  0.778752  0.823114  1
  Co  Co11  1  0.750000  0.721097  0.323227  1
  Co  Co12  1  0.250000  0.886968  0.702379  1
  Co  Co13  1  0.250000  0.612957  0.202391  1
  Co  Co14  1  0.750000  0.112953  0.297635  1
  Co  Co15  1  0.750000  0.387210  0.797490  1
  Co  Co16  1  0.250000  0.465112  0.930512  1
  Co  Co17  1  0.250000  0.034933  0.430664  1
  Co  Co18  1  0.750000  0.534946  0.069333  1
  Co  Co19  1  0.750000  0.965008  0.569381  1
  P  P20  1  0.250000  0.419764  0.111759  1
  P  P21  1  0.250000  0.080250  0.611791  1
  P  P22  1  0.750000  0.580276  0.888012  1
  P  P23  1  0.750000  0.919741  0.388227  1
  P  P24  1  0.250000  0.271612  0.867159  1
  P  P25  1  0.250000  0.228392  0.367149  1
  P  P26  1  0.750000  0.728365  0.132844  1
  P  P27  1  0.750000  0.771350  0.632943  1
  P  P28  1  0.250000  0.596007  0.390127  1
  P  P29  1  0.250000  0.904021  0.890145  1
  P  P30  1  0.750000  0.404222  0.609955  1
  P  P31  1  0.750000  0.095990  0.109870  1
  Ru  Ru32  1  0.250000  0.716843  0.992143  1
  Ru  Ru33  1  0.250000  0.783129  0.492200  1
  Ru  Ru34  1  0.750000  0.283187  0.007860  1
  Ru  Ru35  1  0.750000  0.216867  0.507914  1
