# generated using pymatgen
data_Li12Ge4IrRh3
_symmetry_space_group_name_H-M   'P 1'
_cell_length_a   6.66971953
_cell_length_b   6.66971953
_cell_length_c   6.66971953
_cell_angle_alpha   89.90556947
_cell_angle_beta   89.90556947
_cell_angle_gamma   89.90556947
_symmetry_Int_Tables_number   1
_chemical_formula_structural   Li12Ge4IrRh3
_chemical_formula_sum   'Li12 Ge4 Ir1 Rh3'
_cell_volume   296.70232299
_cell_formula_units_Z   1
loop_
 _symmetry_equiv_pos_site_id
 _symmetry_equiv_pos_as_xyz
  1  'x, y, z'
loop_
 _atom_site_type_symbol
 _atom_site_label
 _atom_site_symmetry_multiplicity
 _atom_site_fract_x
 _atom_site_fract_y
 _atom_site_fract_z
 _atom_site_occupancy
  Li  Li0  1  0.128468  0.198286  0.456943  1
  Li  Li1  1  0.456943  0.128468  0.198286  1
  Li  Li2  1  0.198286  0.456943  0.128468  1
  Li  Li3  1  0.302522  0.543225  0.627837  1
  Li  Li4  1  0.956543  0.372782  0.801769  1
  Li  Li5  1  0.801769  0.956543  0.372782  1
  Li  Li6  1  0.041534  0.871524  0.698744  1
  Li  Li7  1  0.543225  0.627837  0.302522  1
  Li  Li8  1  0.698744  0.041534  0.871524  1
  Li  Li9  1  0.627837  0.302522  0.543225  1
  Li  Li10  1  0.871524  0.698744  0.041534  1
  Li  Li11  1  0.372782  0.801769  0.956543  1
  Ge  Ge12  1  0.931796  0.568297  0.432326  1
  Ge  Ge13  1  0.568297  0.432326  0.931796  1
  Ge  Ge14  1  0.432326  0.931796  0.568297  1
  Ge  Ge15  1  0.068249  0.068249  0.068249  1
  Ir  Ir16  1  0.682183  0.682183  0.682183  1
  Rh  Rh17  1  0.316623  0.182896  0.817455  1
  Rh  Rh18  1  0.182896  0.817455  0.316623  1
  Rh  Rh19  1  0.817455  0.316623  0.182896  1
