# generated using pymatgen
data_Ho4Si10Ir5Os
_symmetry_space_group_name_H-M   'P 1'
_cell_length_a   8.14062455
_cell_length_b   8.14062465
_cell_length_c   8.14062477
_cell_angle_alpha   137.97013336
_cell_angle_beta   104.81596055
_cell_angle_gamma   90.08531337
_symmetry_Int_Tables_number   1
_chemical_formula_structural   Ho4Si10Ir5Os
_chemical_formula_sum   'Ho4 Si10 Ir5 Os1'
_cell_volume   333.55937582
_cell_formula_units_Z   1
loop_
 _symmetry_equiv_pos_site_id
 _symmetry_equiv_pos_as_xyz
  1  'x, y, z'
loop_
 _atom_site_type_symbol
 _atom_site_label
 _atom_site_symmetry_multiplicity
 _atom_site_fract_x
 _atom_site_fract_y
 _atom_site_fract_z
 _atom_site_occupancy
  Ho  Ho0  1  0.598728  0.872872  0.734003  1
  Ho  Ho1  1  0.138871  0.364726  0.765997  1
  Ho  Ho2  1  0.861129  0.627128  0.225856  1
  Ho  Ho3  1  0.401272  0.135274  0.274144  1
  Si  Si4  1  0.777692  0.027692  0.250000  1
  Si  Si5  1  0.225141  0.975141  0.750000  1
  Si  Si6  1  0.774859  0.524859  0.750000  1
  Si  Si7  1  0.949000  0.104400  0.844850  1
  Si  Si8  1  0.051000  0.895851  0.155400  1
  Si  Si9  1  0.500000  0.250000  0.750000  1
  Si  Si10  1  0.500000  0.750000  0.250000  1
  Si  Si11  1  0.740450  0.395600  0.344600  1
  Si  Si12  1  0.259550  0.604149  0.655150  1
  Si  Si13  1  0.222308  0.472308  0.250000  1
  Ir  Ir14  1  0.000000  0.750000  0.750000  1
  Ir  Ir15  1  0.245873  0.856483  0.383408  1
  Ir  Ir16  1  0.526925  0.643517  0.889391  1
  Ir  Ir17  1  0.473075  0.362466  0.116592  1
  Ir  Ir18  1  0.754127  0.137534  0.610609  1
  Os  Os19  1  0.000000  0.250000  0.250000  1
