# generated using pymatgen
data_Nb8FeS20
_symmetry_space_group_name_H-M   'P 1'
_cell_length_a   10.28371520
_cell_length_b   10.28371471
_cell_length_c   18.80395411
_cell_angle_alpha   77.70424457
_cell_angle_beta   77.70425059
_cell_angle_gamma   18.86312365
_symmetry_Int_Tables_number   1
_chemical_formula_structural   Nb8FeS20
_chemical_formula_sum   'Nb8 Fe1 S20'
_cell_volume   627.77393918
_cell_formula_units_Z   1
loop_
 _symmetry_equiv_pos_site_id
 _symmetry_equiv_pos_as_xyz
  1  'x, y, z'
loop_
 _atom_site_type_symbol
 _atom_site_label
 _atom_site_symmetry_multiplicity
 _atom_site_fract_x
 _atom_site_fract_y
 _atom_site_fract_z
 _atom_site_occupancy
  Nb  Nb0  1  0.075942  0.075942  0.088639  1
  Nb  Nb1  1  0.924058  0.924058  0.911361  1
  Nb  Nb2  1  0.332473  0.332473  0.812479  1
  Nb  Nb3  1  0.667527  0.667527  0.187521  1
  Nb  Nb4  1  0.266122  0.266122  0.280386  1
  Nb  Nb5  1  0.733878  0.733878  0.719614  1
  Nb  Nb6  1  0.160718  0.160718  0.552652  1
  Nb  Nb7  1  0.839282  0.839282  0.447348  1
  Fe  Fe8  1  0.500000  0.500000  0.000000  1
  S  S9  1  0.433248  0.433248  0.404875  1
  S  S10  1  0.566752  0.566752  0.595125  1
  S  S11  1  0.397493  0.397493  0.515443  1
  S  S12  1  0.602507  0.602507  0.484557  1
  S  S13  1  0.151790  0.151790  0.690757  1
  S  S14  1  0.848210  0.848210  0.309243  1
  S  S15  1  0.388743  0.388743  0.008231  1
  S  S16  1  0.611257  0.611257  0.991769  1
  S  S17  1  0.207940  0.207940  0.819906  1
  S  S18  1  0.792060  0.792060  0.180094  1
  S  S19  1  0.252610  0.252610  0.429309  1
  S  S20  1  0.747390  0.747390  0.570691  1
  S  S21  1  0.326789  0.326789  0.681194  1
  S  S22  1  0.673211  0.673211  0.318806  1
  S  S23  1  0.485140  0.485140  0.121630  1
  S  S24  1  0.514860  0.514860  0.878370  1
  S  S25  1  0.198574  0.198574  0.089650  1
  S  S26  1  0.801426  0.801426  0.910350  1
  S  S27  1  0.076247  0.076247  0.222095  1
  S  S28  1  0.923753  0.923753  0.777905  1
