# generated using pymatgen
data_Lu4ScFe(TeO6)3
_symmetry_space_group_name_H-M   'P 1'
_cell_length_a   8.92548724
_cell_length_b   8.93861003
_cell_length_c   4.99066213
_cell_angle_alpha   89.48474564
_cell_angle_beta   90.27497011
_cell_angle_gamma   119.96973458
_symmetry_Int_Tables_number   1
_chemical_formula_structural   Lu4ScFe(TeO6)3
_chemical_formula_sum   'Lu4 Sc1 Fe1 Te3 O18'
_cell_volume   344.90977631
_cell_formula_units_Z   1
loop_
 _symmetry_equiv_pos_site_id
 _symmetry_equiv_pos_as_xyz
  1  'x, y, z'
loop_
 _atom_site_type_symbol
 _atom_site_label
 _atom_site_symmetry_multiplicity
 _atom_site_fract_x
 _atom_site_fract_y
 _atom_site_fract_z
 _atom_site_occupancy
  Lu  Lu0  1  0.627627  0.001376  0.000747  1
  Lu  Lu1  1  0.714031  0.714391  0.499923  1
  Lu  Lu2  1  0.001286  0.625896  0.998629  1
  Lu  Lu3  1  0.372878  0.372959  0.001094  1
  Sc  Sc4  1  0.999265  0.291148  0.499928  1
  Fe  Fe5  1  0.298413  0.999865  0.500321  1
  Te  Te6  1  0.007558  0.003045  0.999828  1
  Te  Te7  1  0.663024  0.328666  0.498649  1
  Te  Te8  1  0.330083  0.668576  0.501438  1
  O  O9  1  0.888005  0.087897  0.227665  1
  O  O10  1  0.456544  0.588569  0.722447  1
  O  O11  1  0.223429  0.775408  0.288340  1
  O  O12  1  0.768388  0.223259  0.716081  1
  O  O13  1  0.536832  0.774840  0.277889  1
  O  O14  1  0.228362  0.459503  0.281528  1
  O  O15  1  0.124449  0.539217  0.717613  1
  O  O16  1  0.585227  0.456589  0.279399  1
  O  O17  1  0.535491  0.122464  0.282823  1
  O  O18  1  0.870172  0.409414  0.279480  1
  O  O19  1  0.450212  0.223312  0.712759  1
  O  O20  1  0.212810  0.112429  0.226494  1
  O  O21  1  0.910890  0.788697  0.198478  1
  O  O22  1  0.118196  0.214624  0.791637  1
  O  O23  1  0.797646  0.917327  0.789132  1
  O  O24  1  0.097698  0.890726  0.765751  1
  O  O25  1  0.411237  0.875623  0.718371  1
  O  O26  1  0.770247  0.534183  0.723557  1
