# generated using pymatgen
data_Tm2Fe3Co7Ni2As7
_symmetry_space_group_name_H-M   'P 1'
_cell_length_a   9.33409835
_cell_length_b   9.32639654
_cell_length_c   3.76331400
_cell_angle_alpha   90.00000000
_cell_angle_beta   90.00000000
_cell_angle_gamma   120.09324596
_symmetry_Int_Tables_number   1
_chemical_formula_structural   Tm2Fe3Co7Ni2As7
_chemical_formula_sum   'Tm2 Fe3 Co7 Ni2 As7'
_cell_volume   283.45133289
_cell_formula_units_Z   1
loop_
 _symmetry_equiv_pos_site_id
 _symmetry_equiv_pos_as_xyz
  1  'x, y, z'
loop_
 _atom_site_type_symbol
 _atom_site_label
 _atom_site_symmetry_multiplicity
 _atom_site_fract_x
 _atom_site_fract_y
 _atom_site_fract_z
 _atom_site_occupancy
  Tm  Tm0  1  0.000103  0.001832  0.000000  1
  Tm  Tm1  1  0.331873  0.664629  0.500000  1
  Fe  Fe2  1  0.882687  0.428004  0.500000  1
  Fe  Fe3  1  0.572182  0.453060  0.500000  1
  Fe  Fe4  1  0.546425  0.119165  0.500000  1
  Co  Co5  1  0.823036  0.613274  0.000000  1
  Co  Co6  1  0.387588  0.210045  0.000000  1
  Co  Co7  1  0.788915  0.177944  0.000000  1
  Co  Co8  1  0.049468  0.764172  0.500000  1
  Co  Co9  1  0.236095  0.283836  0.500000  1
  Co  Co10  1  0.716815  0.952383  0.500000  1
  Co  Co11  1  0.100768  0.392414  0.000000  1
  Ni  Ni12  1  0.606909  0.707871  0.000000  1
  Ni  Ni13  1  0.290662  0.897337  0.000000  1
  As  As14  1  0.667188  0.334418  0.000000  1
  As  As15  1  0.785178  0.742358  0.500000  1
  As  As16  1  0.257713  0.041999  0.500000  1
  As  As17  1  0.960182  0.219786  0.500000  1
  As  As18  1  0.073147  0.622844  0.000000  1
  As  As19  1  0.370854  0.447143  0.000000  1
  As  As20  1  0.552212  0.925483  0.000000  1
