# generated using pymatgen
data_La13Pr3Cd4(OsPd)2
_symmetry_space_group_name_H-M   'P 1'
_cell_length_a   10.13105244
_cell_length_b   10.14492046
_cell_length_c   10.24903668
_cell_angle_alpha   59.61639055
_cell_angle_beta   59.50474423
_cell_angle_gamma   59.64389681
_symmetry_Int_Tables_number   1
_chemical_formula_structural   La13Pr3Cd4(OsPd)2
_chemical_formula_sum   'La13 Pr3 Cd4 Os2 Pd2'
_cell_volume   737.88201033
_cell_formula_units_Z   1
loop_
 _symmetry_equiv_pos_site_id
 _symmetry_equiv_pos_as_xyz
  1  'x, y, z'
loop_
 _atom_site_type_symbol
 _atom_site_label
 _atom_site_symmetry_multiplicity
 _atom_site_fract_x
 _atom_site_fract_y
 _atom_site_fract_z
 _atom_site_occupancy
  La  La0  1  0.346173  0.345251  0.355874  1
  La  La1  1  0.347194  0.347546  0.949380  1
  La  La2  1  0.342014  0.960143  0.347622  1
  La  La3  1  0.959924  0.342064  0.347555  1
  La  La4  1  0.817496  0.190283  0.190949  1
  La  La5  1  0.188508  0.815788  0.802058  1
  La  La6  1  0.189486  0.816970  0.191844  1
  La  La7  1  0.816640  0.188693  0.801836  1
  La  La8  1  0.187972  0.188853  0.811879  1
  La  La9  1  0.803759  0.803282  0.195960  1
  La  La10  1  0.937297  0.558029  0.567076  1
  La  La11  1  0.555936  0.937860  0.939938  1
  La  La12  1  0.557083  0.938295  0.566327  1
  Pr  Pr13  1  0.937416  0.557648  0.938606  1
  Pr  Pr14  1  0.563380  0.563001  0.938936  1
  Pr  Pr15  1  0.938883  0.938691  0.560915  1
  Cd  Cd16  1  0.579041  0.578989  0.580260  1
  Cd  Cd17  1  0.580023  0.579154  0.260427  1
  Cd  Cd18  1  0.581333  0.258941  0.579802  1
  Cd  Cd19  1  0.258720  0.580886  0.580411  1
  Os  Os20  1  0.144489  0.143006  0.136258  1
  Os  Os21  1  0.143348  0.143269  0.578231  1
  Pd  Pd22  1  0.147459  0.575971  0.138940  1
  Pd  Pd23  1  0.576426  0.147385  0.138917  1
