# generated using pymatgen
data_TbYbGaIr2
_symmetry_space_group_name_H-M   'P 1'
_cell_length_a   5.70830185
_cell_length_b   5.70830128
_cell_length_c   7.72680742
_cell_angle_alpha   102.26177726
_cell_angle_beta   102.26177774
_cell_angle_gamma   57.94410812
_symmetry_Int_Tables_number   1
_chemical_formula_structural   TbYbGaIr2
_chemical_formula_sum   'Tb2 Yb2 Ga2 Ir4'
_cell_volume   207.00458919
_cell_formula_units_Z   2
loop_
 _symmetry_equiv_pos_site_id
 _symmetry_equiv_pos_as_xyz
  1  'x, y, z'
loop_
 _atom_site_type_symbol
 _atom_site_label
 _atom_site_symmetry_multiplicity
 _atom_site_fract_x
 _atom_site_fract_y
 _atom_site_fract_z
 _atom_site_occupancy
  Tb  Tb0  1  0.792849  0.496827  0.144176  1
  Tb  Tb1  1  0.503173  0.207151  0.355823  1
  Yb  Yb2  1  0.499590  0.791805  0.646491  1
  Yb  Yb3  1  0.208195  0.500410  0.853509  1
  Ga  Ga4  1  0.118528  0.881472  0.249999  1
  Ga  Ga5  1  0.891884  0.108116  0.750000  1
  Ir  Ir6  1  0.288064  0.996862  0.017058  1
  Ir  Ir7  1  0.003137  0.711936  0.482942  1
  Ir  Ir8  1  0.980237  0.285657  0.507470  1
  Ir  Ir9  1  0.714342  0.019762  0.992531  1
