# generated using pymatgen
data_Lu3Ga5Cu6
_symmetry_space_group_name_H-M   'P 1'
_cell_length_a   7.93043164
_cell_length_b   7.93043246
_cell_length_c   7.93043200
_cell_angle_alpha   148.84427445
_cell_angle_beta   113.01561594
_cell_angle_gamma   75.71494451
_symmetry_Int_Tables_number   1
_chemical_formula_structural   Lu3Ga5Cu6
_chemical_formula_sum   'Lu3 Ga5 Cu6'
_cell_volume   233.42427643
_cell_formula_units_Z   1
loop_
 _symmetry_equiv_pos_site_id
 _symmetry_equiv_pos_as_xyz
  1  'x, y, z'
loop_
 _atom_site_type_symbol
 _atom_site_label
 _atom_site_symmetry_multiplicity
 _atom_site_fract_x
 _atom_site_fract_y
 _atom_site_fract_z
 _atom_site_occupancy
  Lu  Lu0  1  0.000000  0.000000  0.000000  1
  Lu  Lu1  1  0.695259  0.695259  0.000000  1
  Lu  Lu2  1  0.304741  0.304741  0.000000  1
  Ga  Ga3  1  0.313434  0.667147  0.646287  1
  Ga  Ga4  1  0.500000  0.000000  0.500000  1
  Ga  Ga5  1  0.686566  0.332853  0.353713  1
  Ga  Ga6  1  0.979140  0.332853  0.646287  1
  Ga  Ga7  1  0.020860  0.667147  0.353713  1
  Cu  Cu8  1  0.304371  0.500000  0.804371  1
  Cu  Cu9  1  0.695629  0.500000  0.195629  1
  Cu  Cu10  1  0.406598  0.128437  0.278159  1
  Cu  Cu11  1  0.850278  0.128437  0.721841  1
  Cu  Cu12  1  0.149722  0.871563  0.278159  1
  Cu  Cu13  1  0.593402  0.871563  0.721841  1
