# generated using pymatgen
data_Pr6UO12
_symmetry_space_group_name_H-M   'P 1'
_cell_length_a   6.86606376
_cell_length_b   6.86606325
_cell_length_c   6.86606441
_cell_angle_alpha   98.78679836
_cell_angle_beta   98.78679512
_cell_angle_gamma   98.78681672
_symmetry_Int_Tables_number   1
_chemical_formula_structural   Pr6UO12
_chemical_formula_sum   'Pr6 U1 O12'
_cell_volume   310.95154407
_cell_formula_units_Z   1
loop_
 _symmetry_equiv_pos_site_id
 _symmetry_equiv_pos_as_xyz
  1  'x, y, z'
loop_
 _atom_site_type_symbol
 _atom_site_label
 _atom_site_symmetry_multiplicity
 _atom_site_fract_x
 _atom_site_fract_y
 _atom_site_fract_z
 _atom_site_occupancy
  Pr  Pr0  1  0.314220  0.610151  0.145286  1
  Pr  Pr1  1  0.610151  0.145286  0.314220  1
  Pr  Pr2  1  0.389849  0.854714  0.685780  1
  Pr  Pr3  1  0.685780  0.389849  0.854714  1
  Pr  Pr4  1  0.854714  0.685780  0.389849  1
  Pr  Pr5  1  0.145286  0.314220  0.610151  1
  U  U6  1  0.000000  0.000000  0.000000  1
  O  O7  1  0.436662  0.177666  0.590648  1
  O  O8  1  0.929434  0.701918  0.044042  1
  O  O9  1  0.177666  0.590648  0.436662  1
  O  O10  1  0.822334  0.409352  0.563338  1
  O  O11  1  0.563338  0.822334  0.409352  1
  O  O12  1  0.590648  0.436662  0.177666  1
  O  O13  1  0.409352  0.563338  0.822334  1
  O  O14  1  0.955958  0.070566  0.298082  1
  O  O15  1  0.044042  0.929434  0.701918  1
  O  O16  1  0.701918  0.044042  0.929434  1
  O  O17  1  0.070566  0.298082  0.955958  1
  O  O18  1  0.298082  0.955958  0.070566  1
