# generated using pymatgen
data_Ac3DyO6
_symmetry_space_group_name_H-M   'P 1'
_cell_length_a   7.27952840
_cell_length_b   7.27952800
_cell_length_c   7.27952831
_cell_angle_alpha   92.21283313
_cell_angle_beta   92.21283291
_cell_angle_gamma   92.21284387
_symmetry_Int_Tables_number   1
_chemical_formula_structural   Ac3DyO6
_chemical_formula_sum   'Ac6 Dy2 O12'
_cell_volume   384.86746805
_cell_formula_units_Z   2
loop_
 _symmetry_equiv_pos_site_id
 _symmetry_equiv_pos_as_xyz
  1  'x, y, z'
loop_
 _atom_site_type_symbol
 _atom_site_label
 _atom_site_symmetry_multiplicity
 _atom_site_fract_x
 _atom_site_fract_y
 _atom_site_fract_z
 _atom_site_occupancy
  Ac  Ac0  1  0.558974  0.065753  0.253574  1
  Ac  Ac1  1  0.065753  0.253574  0.558974  1
  Ac  Ac2  1  0.746426  0.441026  0.934247  1
  Ac  Ac3  1  0.253574  0.558974  0.065753  1
  Ac  Ac4  1  0.934247  0.746426  0.441026  1
  Ac  Ac5  1  0.441026  0.934247  0.746426  1
  Dy  Dy6  1  0.000000  0.000000  0.000000  1
  Dy  Dy7  1  0.500000  0.500000  0.500000  1
  O  O8  1  0.698097  0.084473  0.937519  1
  O  O9  1  0.915527  0.062481  0.301903  1
  O  O10  1  0.407441  0.198223  0.536177  1
  O  O11  1  0.062481  0.301903  0.915527  1
  O  O12  1  0.536177  0.407441  0.198223  1
  O  O13  1  0.801777  0.463823  0.592559  1
  O  O14  1  0.198223  0.536177  0.407441  1
  O  O15  1  0.463823  0.592559  0.801777  1
  O  O16  1  0.937519  0.698097  0.084473  1
  O  O17  1  0.592559  0.801777  0.463823  1
  O  O18  1  0.084473  0.937519  0.698097  1
  O  O19  1  0.301903  0.915527  0.062481  1
