# generated using pymatgen
data_Ca5Cd4Hg
_symmetry_space_group_name_H-M   'P 1'
_cell_length_a   3.84703600
_cell_length_b   3.84703600
_cell_length_c   19.22775500
_cell_angle_alpha   90.00000000
_cell_angle_beta   90.00000000
_cell_angle_gamma   90.00000000
_symmetry_Int_Tables_number   1
_chemical_formula_structural   Ca5Cd4Hg
_chemical_formula_sum   'Ca5 Cd4 Hg1'
_cell_volume   284.56473620
_cell_formula_units_Z   1
loop_
 _symmetry_equiv_pos_site_id
 _symmetry_equiv_pos_as_xyz
  1  'x, y, z'
loop_
 _atom_site_type_symbol
 _atom_site_label
 _atom_site_symmetry_multiplicity
 _atom_site_fract_x
 _atom_site_fract_y
 _atom_site_fract_z
 _atom_site_occupancy
  Ca  Ca0  1  0.500000  0.500000  0.096700  1
  Ca  Ca1  1  0.500000  0.500000  0.299568  1
  Ca  Ca2  1  0.500000  0.500000  0.500000  1
  Ca  Ca3  1  0.500000  0.500000  0.700432  1
  Ca  Ca4  1  0.500000  0.500000  0.903300  1
  Cd  Cd5  1  0.000000  0.000000  0.199479  1
  Cd  Cd6  1  0.000000  0.000000  0.399837  1
  Cd  Cd7  1  0.000000  0.000000  0.600163  1
  Cd  Cd8  1  0.000000  0.000000  0.800521  1
  Hg  Hg9  1  0.000000  0.000000  0.000000  1
