# generated using pymatgen
data_Th14Fe5Ni
_symmetry_space_group_name_H-M   'P 1'
_cell_length_a   9.71428320
_cell_length_b   9.71428202
_cell_length_c   6.25181151
_cell_angle_alpha   89.79385911
_cell_angle_beta   90.20614136
_cell_angle_gamma   120.23877252
_symmetry_Int_Tables_number   1
_chemical_formula_structural   Th14Fe5Ni
_chemical_formula_sum   'Th14 Fe5 Ni1'
_cell_volume   509.68784207
_cell_formula_units_Z   1
loop_
 _symmetry_equiv_pos_site_id
 _symmetry_equiv_pos_as_xyz
  1  'x, y, z'
loop_
 _atom_site_type_symbol
 _atom_site_label
 _atom_site_symmetry_multiplicity
 _atom_site_fract_x
 _atom_site_fract_y
 _atom_site_fract_z
 _atom_site_occupancy
  Th  Th0  1  0.334752  0.665248  0.038346  1
  Th  Th1  1  0.667213  0.332787  0.526393  1
  Th  Th2  1  0.122230  0.877770  0.261125  1
  Th  Th3  1  0.251435  0.131745  0.752715  1
  Th  Th4  1  0.868255  0.748565  0.752715  1
  Th  Th5  1  0.124656  0.248545  0.251657  1
  Th  Th6  1  0.751455  0.875344  0.251657  1
  Th  Th7  1  0.876722  0.123278  0.754100  1
  Th  Th8  1  0.542766  0.457234  0.054681  1
  Th  Th9  1  0.080983  0.535291  0.547300  1
  Th  Th10  1  0.464709  0.919017  0.547300  1
  Th  Th11  1  0.543537  0.082902  0.050859  1
  Th  Th12  1  0.917098  0.456463  0.050859  1
  Th  Th13  1  0.457254  0.542746  0.551833  1
  Fe  Fe14  1  0.816292  0.183708  0.291206  1
  Fe  Fe15  1  0.628943  0.818651  0.791983  1
  Fe  Fe16  1  0.181349  0.371057  0.791983  1
  Fe  Fe17  1  0.819257  0.633949  0.294197  1
  Fe  Fe18  1  0.366051  0.180743  0.294197  1
  Ni  Ni19  1  0.185043  0.814957  0.804905  1
