# generated using pymatgen
data_Sr12Ac8Si15Pd
_symmetry_space_group_name_H-M   'P 1'
_cell_length_a   8.40072212
_cell_length_b   8.37477728
_cell_length_c   15.85362600
_cell_angle_alpha   89.74630382
_cell_angle_beta   89.46070777
_cell_angle_gamma   89.98572904
_symmetry_Int_Tables_number   1
_chemical_formula_structural   Sr12Ac8Si15Pd
_chemical_formula_sum   'Sr12 Ac8 Si15 Pd1'
_cell_volume   1115.30844136
_cell_formula_units_Z   1
loop_
 _symmetry_equiv_pos_site_id
 _symmetry_equiv_pos_as_xyz
  1  'x, y, z'
loop_
 _atom_site_type_symbol
 _atom_site_label
 _atom_site_symmetry_multiplicity
 _atom_site_fract_x
 _atom_site_fract_y
 _atom_site_fract_z
 _atom_site_occupancy
  Sr  Sr0  1  0.312057  0.310398  0.999287  1
  Sr  Sr1  1  0.188065  0.807680  0.249509  1
  Sr  Sr2  1  0.808573  0.192244  0.749393  1
  Sr  Sr3  1  0.686447  0.687769  0.500612  1
  Sr  Sr4  1  0.372963  0.006534  0.449201  1
  Sr  Sr5  1  0.496284  0.871433  0.701190  1
  Sr  Sr6  1  0.510188  0.125420  0.202742  1
  Sr  Sr7  1  0.872522  0.488043  0.296286  1
  Sr  Sr8  1  0.123833  0.513151  0.797751  1
  Sr  Sr9  1  0.627409  0.993246  0.953057  1
  Sr  Sr10  1  0.000959  0.375947  0.545936  1
  Sr  Sr11  1  0.992409  0.626070  0.047260  1
  Ac  Ac12  1  0.134043  0.990997  0.873194  1
  Ac  Ac13  1  0.513696  0.627726  0.124777  1
  Ac  Ac14  1  0.477459  0.362791  0.627902  1
  Ac  Ac15  1  0.631414  0.513700  0.875175  1
  Ac  Ac16  1  0.370176  0.484586  0.375749  1
  Ac  Ac17  1  0.870167  0.011295  0.376054  1
  Ac  Ac18  1  0.988271  0.126993  0.124155  1
  Ac  Ac19  1  0.018052  0.883831  0.623034  1
  Si  Si20  1  0.343629  0.709291  0.947458  1
  Si  Si21  1  0.654551  0.289779  0.449277  1
  Si  Si22  1  0.713636  0.346046  0.053086  1
  Si  Si23  1  0.288260  0.658866  0.552656  1
  Si  Si24  1  0.789948  0.843273  0.198689  1
  Si  Si25  1  0.156451  0.206920  0.300480  1
  Si  Si26  1  0.848434  0.793926  0.798046  1
  Si  Si27  1  0.277557  0.911874  0.054357  1
  Si  Si28  1  0.585603  0.777875  0.305509  1
  Si  Si29  1  0.428203  0.211935  0.811081  1
  Si  Si30  1  0.777107  0.589193  0.693275  1
  Si  Si31  1  0.223051  0.411372  0.194604  1
  Si  Si32  1  0.706740  0.079895  0.555226  1
  Si  Si33  1  0.916738  0.281387  0.944575  1
  Si  Si34  1  0.085028  0.721698  0.445570  1
  Pd  Pd35  1  0.210076  0.166814  0.703842  1
