# generated using pymatgen
data_Dy3Tm13Cd4(CoNi)2
_symmetry_space_group_name_H-M   'P 1'
_cell_length_a   9.41846387
_cell_length_b   9.42290407
_cell_length_c   9.43447000
_cell_angle_alpha   59.95938168
_cell_angle_beta   59.94375996
_cell_angle_gamma   59.96409384
_symmetry_Int_Tables_number   1
_chemical_formula_structural   Dy3Tm13Cd4(CoNi)2
_chemical_formula_sum   'Dy3 Tm13 Cd4 Co2 Ni2'
_cell_volume   591.46796681
_cell_formula_units_Z   1
loop_
 _symmetry_equiv_pos_site_id
 _symmetry_equiv_pos_as_xyz
  1  'x, y, z'
loop_
 _atom_site_type_symbol
 _atom_site_label
 _atom_site_symmetry_multiplicity
 _atom_site_fract_x
 _atom_site_fract_y
 _atom_site_fract_z
 _atom_site_occupancy
  Dy  Dy0  1  0.596767  0.597172  0.600752  1
  Dy  Dy1  1  0.596767  0.597172  0.205309  1
  Dy  Dy2  1  0.595184  0.208229  0.598294  1
  Tm  Tm3  1  0.207877  0.595713  0.598205  1
  Tm  Tm4  1  0.065266  0.437579  0.438853  1
  Tm  Tm5  1  0.437532  0.065050  0.058649  1
  Tm  Tm6  1  0.437532  0.065050  0.438768  1
  Tm  Tm7  1  0.065266  0.437579  0.058303  1
  Tm  Tm8  1  0.437866  0.437748  0.062193  1
  Tm  Tm9  1  0.061426  0.061224  0.438676  1
  Tm  Tm10  1  0.186783  0.811406  0.814441  1
  Tm  Tm11  1  0.811343  0.186774  0.187454  1
  Tm  Tm12  1  0.811343  0.186774  0.814429  1
  Tm  Tm13  1  0.186783  0.811406  0.187371  1
  Tm  Tm14  1  0.812833  0.812993  0.187087  1
  Tm  Tm15  1  0.187364  0.187448  0.812594  1
  Cd  Cd16  1  0.830812  0.830235  0.830849  1
  Cd  Cd17  1  0.830812  0.830235  0.508102  1
  Cd  Cd18  1  0.831581  0.505822  0.831299  1
  Cd  Cd19  1  0.505904  0.831230  0.831433  1
  Co  Co20  1  0.392574  0.392734  0.390830  1
  Co  Co21  1  0.392574  0.392734  0.823864  1
  Ni  Ni22  1  0.392489  0.825219  0.391147  1
  Ni  Ni23  1  0.825321  0.392477  0.391101  1
