# generated using pymatgen
data_Lu3Zr2Sn3N
_symmetry_space_group_name_H-M   'P 1'
_cell_length_a   8.64470213
_cell_length_b   8.64181976
_cell_length_c   6.04692607
_cell_angle_alpha   90.00528916
_cell_angle_beta   89.98246034
_cell_angle_gamma   120.02036148
_symmetry_Int_Tables_number   1
_chemical_formula_structural   Lu3Zr2Sn3N
_chemical_formula_sum   'Lu6 Zr4 Sn6 N2'
_cell_volume   391.13921849
_cell_formula_units_Z   2
loop_
 _symmetry_equiv_pos_site_id
 _symmetry_equiv_pos_as_xyz
  1  'x, y, z'
loop_
 _atom_site_type_symbol
 _atom_site_label
 _atom_site_symmetry_multiplicity
 _atom_site_fract_x
 _atom_site_fract_y
 _atom_site_fract_z
 _atom_site_occupancy
  Lu  Lu0  1  0.784710  0.784676  0.750022  1
  Lu  Lu1  1  0.215107  0.999943  0.750035  1
  Lu  Lu2  1  0.000036  0.215245  0.749970  1
  Lu  Lu3  1  0.215193  0.215159  0.249917  1
  Lu  Lu4  1  0.784422  0.999985  0.249909  1
  Lu  Lu5  1  0.999946  0.784790  0.249975  1
  Zr  Zr6  1  0.666572  0.333272  0.000148  1
  Zr  Zr7  1  0.333388  0.666805  0.000446  1
  Zr  Zr8  1  0.333373  0.666781  0.499557  1
  Zr  Zr9  1  0.666694  0.333316  0.499841  1
  Sn  Sn10  1  0.405925  0.406233  0.749568  1
  Sn  Sn11  1  0.594868  0.000047  0.749627  1
  Sn  Sn12  1  0.999568  0.593562  0.750008  1
  Sn  Sn13  1  0.593694  0.593638  0.250360  1
  Sn  Sn14  1  0.405762  0.000014  0.250720  1
  Sn  Sn15  1  0.000637  0.406158  0.250071  1
  N  N16  1  0.999799  0.000032  0.999885  1
  N  N17  1  0.000305  0.000344  0.499941  1
