# generated using pymatgen
data_TbLu7Sc12Si15Ru
_symmetry_space_group_name_H-M   'P 1'
_cell_length_a   7.01250746
_cell_length_b   7.38088752
_cell_length_c   13.84286346
_cell_angle_alpha   90.06737098
_cell_angle_beta   89.98841211
_cell_angle_gamma   90.20373526
_symmetry_Int_Tables_number   1
_chemical_formula_structural   TbLu7Sc12Si15Ru
_chemical_formula_sum   'Tb1 Lu7 Sc12 Si15 Ru1'
_cell_volume   716.48120756
_cell_formula_units_Z   1
loop_
 _symmetry_equiv_pos_site_id
 _symmetry_equiv_pos_as_xyz
  1  'x, y, z'
loop_
 _atom_site_type_symbol
 _atom_site_label
 _atom_site_symmetry_multiplicity
 _atom_site_fract_x
 _atom_site_fract_y
 _atom_site_fract_z
 _atom_site_occupancy
  Tb  Tb0  1  0.489318  0.675660  0.594656  1
  Lu  Lu1  1  0.011402  0.179140  0.095771  1
  Lu  Lu2  1  0.991066  0.826884  0.905162  1
  Lu  Lu3  1  0.489134  0.677548  0.904209  1
  Lu  Lu4  1  0.990928  0.827212  0.595387  1
  Lu  Lu5  1  0.511260  0.322031  0.095831  1
  Lu  Lu6  1  0.011043  0.179051  0.403918  1
  Lu  Lu7  1  0.511343  0.321978  0.403496  1
  Sc  Sc8  1  0.157678  0.503439  0.750372  1
  Sc  Sc9  1  0.837794  0.493894  0.249983  1
  Sc  Sc10  1  0.339235  0.006739  0.249913  1
  Sc  Sc11  1  0.669657  0.997660  0.750326  1
  Sc  Sc12  1  0.316586  0.171533  0.627504  1
  Sc  Sc13  1  0.672682  0.825942  0.374025  1
  Sc  Sc14  1  0.171183  0.678155  0.374141  1
  Sc  Sc15  1  0.672093  0.825365  0.125621  1
  Sc  Sc16  1  0.837328  0.319956  0.627203  1
  Sc  Sc17  1  0.316705  0.171809  0.872861  1
  Sc  Sc18  1  0.837436  0.319964  0.873239  1
  Sc  Sc19  1  0.171465  0.678151  0.125616  1
  Si  Si20  1  0.969289  0.888172  0.249901  1
  Si  Si21  1  0.469731  0.611852  0.249814  1
  Si  Si22  1  0.529898  0.388369  0.750881  1
  Si  Si23  1  0.285241  0.864368  0.751127  1
  Si  Si24  1  0.713855  0.133099  0.249841  1
  Si  Si25  1  0.214302  0.367997  0.249876  1
  Si  Si26  1  0.780692  0.629174  0.751262  1
  Si  Si27  1  0.159171  0.467245  0.536847  1
  Si  Si28  1  0.842196  0.534733  0.461050  1
  Si  Si29  1  0.342030  0.968889  0.459614  1
  Si  Si30  1  0.841889  0.534834  0.038551  1
  Si  Si31  1  0.658251  0.036010  0.538028  1
  Si  Si32  1  0.162317  0.468993  0.962592  1
  Si  Si33  1  0.657468  0.033574  0.961389  1
  Si  Si34  1  0.342106  0.967010  0.039790  1
  Ru  Ru35  1  0.026229  0.103571  0.750205  1
