# generated using pymatgen
data_Ba12Sr2(SnAs4)3
_symmetry_space_group_name_H-M   'P 1'
_cell_length_a   10.00393359
_cell_length_b   10.00391452
_cell_length_c   10.00392842
_cell_angle_alpha   87.42569065
_cell_angle_beta   87.42582982
_cell_angle_gamma   87.42569498
_symmetry_Int_Tables_number   1
_chemical_formula_structural   Ba12Sr2(SnAs4)3
_chemical_formula_sum   'Ba12 Sr2 Sn3 As12'
_cell_volume   998.23500521
_cell_formula_units_Z   1
loop_
 _symmetry_equiv_pos_site_id
 _symmetry_equiv_pos_as_xyz
  1  'x, y, z'
loop_
 _atom_site_type_symbol
 _atom_site_label
 _atom_site_symmetry_multiplicity
 _atom_site_fract_x
 _atom_site_fract_y
 _atom_site_fract_z
 _atom_site_occupancy
  Ba  Ba0  1  0.412099  0.271509  0.773476  1
  Ba  Ba1  1  0.773477  0.412099  0.271510  1
  Ba  Ba2  1  0.271509  0.773477  0.412099  1
  Ba  Ba3  1  0.987770  0.537193  0.653344  1
  Ba  Ba4  1  0.653345  0.987770  0.537193  1
  Ba  Ba5  1  0.537192  0.653343  0.987771  1
  Ba  Ba6  1  0.175206  0.535976  0.021777  1
  Ba  Ba7  1  0.021776  0.175208  0.535975  1
  Ba  Ba8  1  0.535978  0.021776  0.175207  1
  Ba  Ba9  1  0.765023  0.264257  0.909826  1
  Ba  Ba10  1  0.909827  0.765022  0.264258  1
  Ba  Ba11  1  0.264257  0.909827  0.765021  1
  Sr  Sr12  1  0.186345  0.186350  0.186347  1
  Sr  Sr13  1  0.397701  0.397691  0.397691  1
  Sn  Sn14  1  0.001270  0.001273  0.001273  1
  Sn  Sn15  1  0.838678  0.838678  0.838676  1
  Sn  Sn16  1  0.604587  0.604589  0.604590  1
  As  As17  1  0.699981  0.336399  0.585127  1
  As  As18  1  0.585127  0.699981  0.336399  1
  As  As19  1  0.336398  0.585127  0.699981  1
  As  As20  1  0.596156  0.965937  0.856482  1
  As  As21  1  0.856481  0.596156  0.965937  1
  As  As22  1  0.965937  0.856481  0.596156  1
  As  As23  1  0.468263  0.339335  0.091576  1
  As  As24  1  0.091575  0.468262  0.339335  1
  As  As25  1  0.339335  0.091576  0.468263  1
  As  As26  1  0.095516  0.219486  0.864437  1
  As  As27  1  0.864436  0.095517  0.219485  1
  As  As28  1  0.219485  0.864436  0.095516  1
