# generated using pymatgen
data_Nb8RhS20
_symmetry_space_group_name_H-M   'P 1'
_cell_length_a   10.20737051
_cell_length_b   10.20737100
_cell_length_c   18.93290374
_cell_angle_alpha   75.94200064
_cell_angle_beta   75.94199979
_cell_angle_gamma   18.93189535
_symmetry_Int_Tables_number   1
_chemical_formula_structural   Nb8RhS20
_chemical_formula_sum   'Nb8 Rh1 S20'
_cell_volume   620.29778861
_cell_formula_units_Z   1
loop_
 _symmetry_equiv_pos_site_id
 _symmetry_equiv_pos_as_xyz
  1  'x, y, z'
loop_
 _atom_site_type_symbol
 _atom_site_label
 _atom_site_symmetry_multiplicity
 _atom_site_fract_x
 _atom_site_fract_y
 _atom_site_fract_z
 _atom_site_occupancy
  Nb  Nb0  1  0.077028  0.077028  0.090800  1
  Nb  Nb1  1  0.922972  0.922972  0.909200  1
  Nb  Nb2  1  0.330933  0.330933  0.809805  1
  Nb  Nb3  1  0.669067  0.669067  0.190195  1
  Nb  Nb4  1  0.268105  0.268105  0.280107  1
  Nb  Nb5  1  0.731895  0.731895  0.719893  1
  Nb  Nb6  1  0.159015  0.159015  0.555390  1
  Nb  Nb7  1  0.840985  0.840985  0.444610  1
  Rh  Rh8  1  0.500000  0.500000  0.000000  1
  S  S9  1  0.437177  0.437177  0.399642  1
  S  S10  1  0.562823  0.562823  0.600358  1
  S  S11  1  0.400156  0.400156  0.510339  1
  S  S12  1  0.599844  0.599844  0.489661  1
  S  S13  1  0.148887  0.148887  0.693117  1
  S  S14  1  0.851113  0.851113  0.306883  1
  S  S15  1  0.383389  0.383389  0.006910  1
  S  S16  1  0.616611  0.616611  0.993090  1
  S  S17  1  0.204596  0.204596  0.820695  1
  S  S18  1  0.795404  0.795404  0.179305  1
  S  S19  1  0.252799  0.252799  0.429335  1
  S  S20  1  0.747201  0.747201  0.570665  1
  S  S21  1  0.326897  0.326897  0.679278  1
  S  S22  1  0.673103  0.673103  0.320722  1
  S  S23  1  0.483819  0.483819  0.126294  1
  S  S24  1  0.516181  0.516181  0.873706  1
  S  S25  1  0.200895  0.200895  0.091642  1
  S  S26  1  0.799105  0.799105  0.908358  1
  S  S27  1  0.075441  0.075441  0.224444  1
  S  S28  1  0.924559  0.924559  0.775556  1
