# generated using pymatgen
data_Nb13Ni8Mo3N4
_symmetry_space_group_name_H-M   'P 1'
_cell_length_a   8.18964261
_cell_length_b   8.18954654
_cell_length_c   8.18967676
_cell_angle_alpha   60.21980844
_cell_angle_beta   60.22056976
_cell_angle_gamma   60.21934318
_symmetry_Int_Tables_number   1
_chemical_formula_structural   Nb13Ni8Mo3N4
_chemical_formula_sum   'Nb13 Ni8 Mo3 N4'
_cell_volume   390.33141492
_cell_formula_units_Z   1
loop_
 _symmetry_equiv_pos_site_id
 _symmetry_equiv_pos_as_xyz
  1  'x, y, z'
loop_
 _atom_site_type_symbol
 _atom_site_label
 _atom_site_symmetry_multiplicity
 _atom_site_fract_x
 _atom_site_fract_y
 _atom_site_fract_z
 _atom_site_occupancy
  Nb  Nb0  1  0.312949  0.686916  0.686877  1
  Nb  Nb1  1  0.563109  0.563152  0.937010  1
  Nb  Nb2  1  0.314792  0.683562  0.314777  1
  Nb  Nb3  1  0.314808  0.314799  0.683545  1
  Nb  Nb4  1  0.683577  0.314794  0.314788  1
  Nb  Nb5  1  0.935192  0.935201  0.566455  1
  Nb  Nb6  1  0.935208  0.566438  0.935223  1
  Nb  Nb7  1  0.937051  0.563084  0.563123  1
  Nb  Nb8  1  0.566423  0.935206  0.935212  1
  Nb  Nb9  1  0.125000  0.125000  0.125000  1
  Nb  Nb10  1  0.686891  0.686848  0.312990  1
  Nb  Nb11  1  0.686921  0.312966  0.686837  1
  Nb  Nb12  1  0.563079  0.937034  0.563163  1
  Ni  Ni13  1  0.010487  0.331430  0.331444  1
  Ni  Ni14  1  0.921620  0.921601  0.921608  1
  Ni  Ni15  1  0.331401  0.331427  0.010582  1
  Ni  Ni16  1  0.918599  0.918573  0.239418  1
  Ni  Ni17  1  0.239513  0.918570  0.918556  1
  Ni  Ni18  1  0.331413  0.010547  0.331448  1
  Ni  Ni19  1  0.918587  0.239453  0.918552  1
  Ni  Ni20  1  0.328380  0.328399  0.328392  1
  Mo  Mo21  1  0.125000  0.125000  0.625000  1
  Mo  Mo22  1  0.625000  0.125000  0.125000  1
  Mo  Mo23  1  0.125000  0.625000  0.125000  1
  N  N24  1  0.625000  0.125000  0.625000  1
  N  N25  1  0.625000  0.625000  0.125000  1
  N  N26  1  0.125000  0.625000  0.625000  1
  N  N27  1  0.625000  0.625000  0.625000  1
