# generated using pymatgen
data_Cs5Tc3AgH27
_symmetry_space_group_name_H-M   'P 1'
_cell_length_a   10.22673792
_cell_length_b   10.22673718
_cell_length_c   6.48873200
_cell_angle_alpha   90.00000000
_cell_angle_beta   90.00000000
_cell_angle_gamma   121.90748621
_symmetry_Int_Tables_number   1
_chemical_formula_structural   Cs5Tc3AgH27
_chemical_formula_sum   'Cs5 Tc3 Ag1 H27'
_cell_volume   576.09212703
_cell_formula_units_Z   1
loop_
 _symmetry_equiv_pos_site_id
 _symmetry_equiv_pos_as_xyz
  1  'x, y, z'
loop_
 _atom_site_type_symbol
 _atom_site_label
 _atom_site_symmetry_multiplicity
 _atom_site_fract_x
 _atom_site_fract_y
 _atom_site_fract_z
 _atom_site_occupancy
  Cs  Cs0  1  0.230544  0.984278  0.500000  1
  Cs  Cs1  1  0.984278  0.230544  0.500000  1
  Cs  Cs2  1  0.593228  0.975700  0.000000  1
  Cs  Cs3  1  0.975700  0.593228  0.000000  1
  Cs  Cs4  1  0.404347  0.404347  0.000000  1
  Tc  Tc5  1  0.997101  0.997101  0.000000  1
  Tc  Tc6  1  0.360864  0.671000  0.500000  1
  Tc  Tc7  1  0.671000  0.360864  0.500000  1
  Ag  Ag8  1  0.574925  0.574925  0.500000  1
  H  H9  1  0.875317  0.983544  0.184992  1
  H  H10  1  0.983544  0.875317  0.184992  1
  H  H11  1  0.875317  0.983544  0.815008  1
  H  H12  1  0.983544  0.875317  0.815008  1
  H  H13  1  0.120381  0.120381  0.183620  1
  H  H14  1  0.120381  0.120381  0.816380  1
  H  H15  1  0.157328  0.989541  0.000000  1
  H  H16  1  0.989541  0.157328  0.000000  1
  H  H17  1  0.830619  0.830619  0.000000  1
  H  H18  1  0.273790  0.576597  0.283644  1
  H  H19  1  0.500708  0.690665  0.328400  1
  H  H20  1  0.273790  0.576597  0.716356  1
  H  H21  1  0.576597  0.273790  0.716356  1
  H  H22  1  0.333837  0.782078  0.337285  1
  H  H23  1  0.500708  0.690665  0.671600  1
  H  H24  1  0.690665  0.500708  0.671600  1
  H  H25  1  0.576597  0.273790  0.283644  1
  H  H26  1  0.333837  0.782078  0.662715  1
  H  H27  1  0.690665  0.500708  0.328400  1
  H  H28  1  0.782078  0.333837  0.662715  1
  H  H29  1  0.782078  0.333837  0.337285  1
  H  H30  1  0.325352  0.487883  0.500000  1
  H  H31  1  0.510448  0.852053  0.500000  1
  H  H32  1  0.487883  0.325352  0.500000  1
  H  H33  1  0.173009  0.607944  0.500000  1
  H  H34  1  0.852053  0.510448  0.500000  1
  H  H35  1  0.607944  0.173009  0.500000  1
