# generated using pymatgen
data_Hf9MnRe3Ni
_symmetry_space_group_name_H-M   'P 1'
_cell_length_a   8.53871100
_cell_length_b   8.53871156
_cell_length_c   8.42482300
_cell_angle_alpha   90.00000000
_cell_angle_beta   90.00000000
_cell_angle_gamma   120.00000170
_symmetry_Int_Tables_number   1
_chemical_formula_structural   Hf9MnRe3Ni
_chemical_formula_sum   'Hf18 Mn2 Re6 Ni2'
_cell_volume   531.95643593
_cell_formula_units_Z   2
loop_
 _symmetry_equiv_pos_site_id
 _symmetry_equiv_pos_as_xyz
  1  'x, y, z'
loop_
 _atom_site_type_symbol
 _atom_site_label
 _atom_site_symmetry_multiplicity
 _atom_site_fract_x
 _atom_site_fract_y
 _atom_site_fract_z
 _atom_site_occupancy
  Hf  Hf0  1  0.196042  0.803958  0.443488  1
  Hf  Hf1  1  0.196042  0.392085  0.443488  1
  Hf  Hf2  1  0.607915  0.803958  0.443488  1
  Hf  Hf3  1  0.803958  0.196042  0.556512  1
  Hf  Hf4  1  0.803958  0.607915  0.556512  1
  Hf  Hf5  1  0.392085  0.196042  0.556512  1
  Hf  Hf6  1  0.803958  0.196042  0.943488  1
  Hf  Hf7  1  0.803958  0.607915  0.943488  1
  Hf  Hf8  1  0.392085  0.196042  0.943488  1
  Hf  Hf9  1  0.196042  0.803958  0.056512  1
  Hf  Hf10  1  0.196042  0.392085  0.056512  1
  Hf  Hf11  1  0.607915  0.803958  0.056512  1
  Hf  Hf12  1  0.541917  0.458083  0.250000  1
  Hf  Hf13  1  0.541917  0.083835  0.250000  1
  Hf  Hf14  1  0.916165  0.458083  0.250000  1
  Hf  Hf15  1  0.458083  0.541917  0.750000  1
  Hf  Hf16  1  0.458083  0.916165  0.750000  1
  Hf  Hf17  1  0.083835  0.541917  0.750000  1
  Mn  Mn18  1  0.000000  0.000000  0.500000  1
  Mn  Mn19  1  0.000000  0.000000  0.000000  1
  Re  Re20  1  0.891745  0.108255  0.250000  1
  Re  Re21  1  0.891745  0.783487  0.250000  1
  Re  Re22  1  0.216513  0.108255  0.250000  1
  Re  Re23  1  0.108255  0.891745  0.750000  1
  Re  Re24  1  0.108255  0.216513  0.750000  1
  Re  Re25  1  0.783487  0.891745  0.750000  1
  Ni  Ni26  1  0.333333  0.666667  0.250000  1
  Ni  Ni27  1  0.666667  0.333333  0.750000  1
