# generated using pymatgen
data_Pr12Ru(PtBr4)3
_symmetry_space_group_name_H-M   'P 1'
_cell_length_a   10.55735882
_cell_length_b   10.55735876
_cell_length_c   10.55735997
_cell_angle_alpha   109.18630580
_cell_angle_beta   109.18631562
_cell_angle_gamma   109.18632003
_symmetry_Int_Tables_number   1
_chemical_formula_structural   Pr12Ru(PtBr4)3
_chemical_formula_sum   'Pr12 Ru1 Pt3 Br12'
_cell_volume   915.25465822
_cell_formula_units_Z   1
loop_
 _symmetry_equiv_pos_site_id
 _symmetry_equiv_pos_as_xyz
  1  'x, y, z'
loop_
 _atom_site_type_symbol
 _atom_site_label
 _atom_site_symmetry_multiplicity
 _atom_site_fract_x
 _atom_site_fract_y
 _atom_site_fract_z
 _atom_site_occupancy
  Pr  Pr0  1  0.470196  0.480586  0.238729  1
  Pr  Pr1  1  0.750000  0.236150  0.263850  1
  Pr  Pr2  1  0.750000  0.014564  0.485436  1
  Pr  Pr3  1  0.238729  0.470196  0.480586  1
  Pr  Pr4  1  0.263850  0.750000  0.236150  1
  Pr  Pr5  1  0.029804  0.261271  0.019414  1
  Pr  Pr6  1  0.019414  0.029804  0.261271  1
  Pr  Pr7  1  0.485436  0.750000  0.014564  1
  Pr  Pr8  1  0.480586  0.238729  0.470196  1
  Pr  Pr9  1  0.014564  0.485436  0.750000  1
  Pr  Pr10  1  0.261271  0.019414  0.029804  1
  Pr  Pr11  1  0.236150  0.263850  0.750000  1
  Ru  Ru12  1  0.250000  0.250000  0.250000  1
  Pt  Pt13  1  0.499420  0.000580  0.250000  1
  Pt  Pt14  1  0.000580  0.250000  0.499420  1
  Pt  Pt15  1  0.250000  0.499420  0.000580  1
  Br  Br16  1  0.250000  0.753061  0.746939  1
  Br  Br17  1  0.508972  0.505001  0.755040  1
  Br  Br18  1  0.991028  0.744960  0.994999  1
  Br  Br19  1  0.746939  0.250000  0.753061  1
  Br  Br20  1  0.994999  0.991028  0.744960  1
  Br  Br21  1  0.250000  0.994895  0.505105  1
  Br  Br22  1  0.755040  0.508972  0.505001  1
  Br  Br23  1  0.505105  0.250000  0.994895  1
  Br  Br24  1  0.753061  0.746939  0.250000  1
  Br  Br25  1  0.744960  0.994999  0.991028  1
  Br  Br26  1  0.994895  0.505105  0.250000  1
  Br  Br27  1  0.505001  0.755040  0.508972  1
