# generated using pymatgen
data_Cr3Ni2Os3
_symmetry_space_group_name_H-M   'P 1'
_cell_length_a   5.20260130
_cell_length_b   5.29449076
_cell_length_c   4.20496000
_cell_angle_alpha   90.00000000
_cell_angle_beta   90.00000000
_cell_angle_gamma   120.33121037
_symmetry_Int_Tables_number   1
_chemical_formula_structural   Cr3Ni2Os3
_chemical_formula_sum   'Cr3 Ni2 Os3'
_cell_volume   99.97193268
_cell_formula_units_Z   1
loop_
 _symmetry_equiv_pos_site_id
 _symmetry_equiv_pos_as_xyz
  1  'x, y, z'
loop_
 _atom_site_type_symbol
 _atom_site_label
 _atom_site_symmetry_multiplicity
 _atom_site_fract_x
 _atom_site_fract_y
 _atom_site_fract_z
 _atom_site_occupancy
  Cr  Cr0  1  0.327679  0.167016  0.750000  1
  Cr  Cr1  1  0.836121  0.160811  0.750000  1
  Cr  Cr2  1  0.674090  0.839801  0.250000  1
  Ni  Ni3  1  0.666033  0.332277  0.250000  1
  Ni  Ni4  1  0.333577  0.668393  0.750000  1
  Os  Os5  1  0.162804  0.328845  0.250000  1
  Os  Os6  1  0.827251  0.667368  0.750000  1
  Os  Os7  1  0.172450  0.835489  0.250000  1
