# generated using pymatgen
data_Ac2Sn4Pd3Rh
_symmetry_space_group_name_H-M   'P 1'
_cell_length_a   4.68585800
_cell_length_b   4.68585800
_cell_length_c   10.37716600
_cell_angle_alpha   90.00000000
_cell_angle_beta   90.00000000
_cell_angle_gamma   90.00000000
_symmetry_Int_Tables_number   1
_chemical_formula_structural   Ac2Sn4Pd3Rh
_chemical_formula_sum   'Ac2 Sn4 Pd3 Rh1'
_cell_volume   227.85418585
_cell_formula_units_Z   1
loop_
 _symmetry_equiv_pos_site_id
 _symmetry_equiv_pos_as_xyz
  1  'x, y, z'
loop_
 _atom_site_type_symbol
 _atom_site_label
 _atom_site_symmetry_multiplicity
 _atom_site_fract_x
 _atom_site_fract_y
 _atom_site_fract_z
 _atom_site_occupancy
  Ac  Ac0  1  0.000000  0.499999  0.245950  1
  Ac  Ac1  1  0.499999  0.000000  0.756398  1
  Sn  Sn2  1  0.499999  0.000000  0.122334  1
  Sn  Sn3  1  0.000000  0.000000  0.502656  1
  Sn  Sn4  1  0.499999  0.499999  0.502656  1
  Sn  Sn5  1  0.000000  0.499999  0.873456  1
  Pd  Pd6  1  0.000000  0.000000  0.999467  1
  Pd  Pd7  1  0.499999  0.499999  0.999467  1
  Pd  Pd8  1  0.499999  0.000000  0.373167  1
  Rh  Rh9  1  0.000000  0.499999  0.624448  1
