# generated using pymatgen
data_Sr5YbPb18
_symmetry_space_group_name_H-M   'P 1'
_cell_length_a   7.14247940
_cell_length_b   7.10870579
_cell_length_c   17.51029743
_cell_angle_alpha   89.82594758
_cell_angle_beta   90.28459740
_cell_angle_gamma   120.15288385
_symmetry_Int_Tables_number   1
_chemical_formula_structural   Sr5YbPb18
_chemical_formula_sum   'Sr5 Yb1 Pb18'
_cell_volume   768.75354043
_cell_formula_units_Z   1
loop_
 _symmetry_equiv_pos_site_id
 _symmetry_equiv_pos_as_xyz
  1  'x, y, z'
loop_
 _atom_site_type_symbol
 _atom_site_label
 _atom_site_symmetry_multiplicity
 _atom_site_fract_x
 _atom_site_fract_y
 _atom_site_fract_z
 _atom_site_occupancy
  Sr  Sr0  1  0.666873  0.332358  0.585627  1
  Sr  Sr1  1  0.666751  0.333620  0.914386  1
  Sr  Sr2  1  0.999935  0.998883  0.084526  1
  Sr  Sr3  1  0.332146  0.663747  0.249812  1
  Sr  Sr4  1  0.335678  0.671310  0.747892  1
  Yb  Yb5  1  0.999013  0.999913  0.417061  1
  Pb  Pb6  1  0.002158  0.501009  0.418556  1
  Pb  Pb7  1  0.497735  0.499575  0.418217  1
  Pb  Pb8  1  0.496963  0.996068  0.418027  1
  Pb  Pb9  1  0.671465  0.835267  0.579047  1
  Pb  Pb10  1  0.167481  0.835081  0.578422  1
  Pb  Pb11  1  0.168808  0.334779  0.578868  1
  Pb  Pb12  1  0.659400  0.831066  0.918443  1
  Pb  Pb13  1  0.168767  0.832830  0.918227  1
  Pb  Pb14  1  0.168776  0.339410  0.917769  1
  Pb  Pb15  1  0.000300  0.498173  0.082278  1
  Pb  Pb16  1  0.498184  0.499477  0.081708  1
  Pb  Pb17  1  0.498696  0.995661  0.082513  1
  Pb  Pb18  1  0.351576  0.174380  0.253427  1
  Pb  Pb19  1  0.823086  0.174640  0.252345  1
  Pb  Pb20  1  0.826382  0.652240  0.253467  1
  Pb  Pb21  1  0.305144  0.155127  0.749348  1
  Pb  Pb22  1  0.849498  0.155381  0.749757  1
  Pb  Pb23  1  0.845187  0.690006  0.749736  1
