# generated using pymatgen
data_Y6Co17Si12Mo
_symmetry_space_group_name_H-M   'P 1'
_cell_length_a   3.79860200
_cell_length_b   10.74128100
_cell_length_c   12.44403100
_cell_angle_alpha   90.00000000
_cell_angle_beta   90.00000000
_cell_angle_gamma   90.00000000
_symmetry_Int_Tables_number   1
_chemical_formula_structural   Y6Co17Si12Mo
_chemical_formula_sum   'Y6 Co17 Si12 Mo1'
_cell_volume   507.73950479
_cell_formula_units_Z   1
loop_
 _symmetry_equiv_pos_site_id
 _symmetry_equiv_pos_as_xyz
  1  'x, y, z'
loop_
 _atom_site_type_symbol
 _atom_site_label
 _atom_site_symmetry_multiplicity
 _atom_site_fract_x
 _atom_site_fract_y
 _atom_site_fract_z
 _atom_site_occupancy
  Y  Y0  1  0.000000  0.500000  0.526992  1
  Y  Y1  1  0.500000  0.000000  0.473912  1
  Y  Y2  1  0.500000  0.819553  0.206719  1
  Y  Y3  1  0.500000  0.180447  0.206719  1
  Y  Y4  1  0.000000  0.681926  0.796798  1
  Y  Y5  1  0.000000  0.318074  0.796798  1
  Co  Co6  1  0.000000  0.000000  0.846527  1
  Co  Co7  1  0.500000  0.500000  0.697377  1
  Co  Co8  1  0.000000  0.000000  0.302143  1
  Co  Co9  1  0.000000  0.500000  0.983550  1
  Co  Co10  1  0.500000  0.000000  0.016440  1
  Co  Co11  1  0.500000  0.327109  0.992514  1
  Co  Co12  1  0.500000  0.672891  0.992514  1
  Co  Co13  1  0.000000  0.165352  0.002454  1
  Co  Co14  1  0.000000  0.834648  0.002454  1
  Co  Co15  1  0.500000  0.300131  0.432087  1
  Co  Co16  1  0.500000  0.699869  0.432087  1
  Co  Co17  1  0.000000  0.197745  0.571750  1
  Co  Co18  1  0.000000  0.802255  0.571750  1
  Co  Co19  1  0.500000  0.883833  0.707418  1
  Co  Co20  1  0.500000  0.116167  0.707418  1
  Co  Co21  1  0.000000  0.619386  0.293411  1
  Co  Co22  1  0.000000  0.380614  0.293411  1
  Si  Si23  1  0.500000  0.500000  0.885123  1
  Si  Si24  1  0.000000  0.000000  0.115328  1
  Si  Si25  1  0.500000  0.500000  0.344608  1
  Si  Si26  1  0.000000  0.000000  0.661693  1
  Si  Si27  1  0.500000  0.302989  0.615213  1
  Si  Si28  1  0.500000  0.697011  0.615213  1
  Si  Si29  1  0.000000  0.196270  0.387653  1
  Si  Si30  1  0.000000  0.803730  0.387653  1
  Si  Si31  1  0.500000  0.855167  0.891174  1
  Si  Si32  1  0.500000  0.144833  0.891174  1
  Si  Si33  1  0.000000  0.656493  0.102902  1
  Si  Si34  1  0.000000  0.343507  0.102902  1
  Mo  Mo35  1  0.500000  0.500000  0.146119  1
