# generated using pymatgen
data_Ac2PaNi13B2
_symmetry_space_group_name_H-M   'P 1'
_cell_length_a   5.03259900
_cell_length_b   5.03259911
_cell_length_c   11.09002200
_cell_angle_alpha   90.00000000
_cell_angle_beta   90.00000000
_cell_angle_gamma   119.99999269
_symmetry_Int_Tables_number   1
_chemical_formula_structural   Ac2PaNi13B2
_chemical_formula_sum   'Ac2 Pa1 Ni13 B2'
_cell_volume   243.24713572
_cell_formula_units_Z   1
loop_
 _symmetry_equiv_pos_site_id
 _symmetry_equiv_pos_as_xyz
  1  'x, y, z'
loop_
 _atom_site_type_symbol
 _atom_site_label
 _atom_site_symmetry_multiplicity
 _atom_site_fract_x
 _atom_site_fract_y
 _atom_site_fract_z
 _atom_site_occupancy
  Ac  Ac0  1  0.000000  0.000000  0.329471  1
  Ac  Ac1  1  0.000000  0.000000  0.670529  1
  Pa  Pa2  1  0.000000  0.000000  0.000000  1
  Ni  Ni3  1  0.500000  0.000000  0.500000  1
  Ni  Ni4  1  0.500000  0.500000  0.500000  1
  Ni  Ni5  1  0.000000  0.500000  0.500000  1
  Ni  Ni6  1  0.333333  0.666667  0.316187  1
  Ni  Ni7  1  0.666667  0.333333  0.316187  1
  Ni  Ni8  1  0.666667  0.333333  0.683813  1
  Ni  Ni9  1  0.333333  0.666667  0.683813  1
  Ni  Ni10  1  0.500000  0.000000  0.129408  1
  Ni  Ni11  1  0.500000  0.500000  0.129408  1
  Ni  Ni12  1  0.000000  0.500000  0.129408  1
  Ni  Ni13  1  0.500000  0.000000  0.870592  1
  Ni  Ni14  1  0.500000  0.500000  0.870592  1
  Ni  Ni15  1  0.000000  0.500000  0.870592  1
  B  B16  1  0.333333  0.666667  0.000000  1
  B  B17  1  0.666667  0.333333  0.000000  1
