# generated using pymatgen
data_PrTiF7
_symmetry_space_group_name_H-M   'P 1'
_cell_length_a   5.66388600
_cell_length_b   9.17599172
_cell_length_c   12.28280300
_cell_angle_alpha   61.85777684
_cell_angle_beta   90.00000000
_cell_angle_gamma   90.00000000
_symmetry_Int_Tables_number   1
_chemical_formula_structural   PrTiF7
_chemical_formula_sum   'Pr4 Ti4 F28'
_cell_volume   562.89191646
_cell_formula_units_Z   4
loop_
 _symmetry_equiv_pos_site_id
 _symmetry_equiv_pos_as_xyz
  1  'x, y, z'
loop_
 _atom_site_type_symbol
 _atom_site_label
 _atom_site_symmetry_multiplicity
 _atom_site_fract_x
 _atom_site_fract_y
 _atom_site_fract_z
 _atom_site_occupancy
  Pr  Pr0  1  0.758488  0.809644  0.764250  1
  Pr  Pr1  1  0.258488  0.190356  0.735750  1
  Pr  Pr2  1  0.241512  0.190356  0.235750  1
  Pr  Pr3  1  0.741512  0.809644  0.264250  1
  Ti  Ti4  1  0.755573  0.274435  0.957539  1
  Ti  Ti5  1  0.255573  0.725565  0.542461  1
  Ti  Ti6  1  0.244427  0.725565  0.042461  1
  Ti  Ti7  1  0.744427  0.274435  0.457539  1
  F  F8  1  0.436347  0.710400  0.923032  1
  F  F9  1  0.936347  0.289600  0.576968  1
  F  F10  1  0.563653  0.289600  0.076968  1
  F  F11  1  0.063653  0.710400  0.423032  1
  F  F12  1  0.464300  0.281126  0.540767  1
  F  F13  1  0.964300  0.718874  0.959233  1
  F  F14  1  0.535700  0.718874  0.459233  1
  F  F15  1  0.035700  0.281126  0.040767  1
  F  F16  1  0.769655  0.508151  0.865444  1
  F  F17  1  0.269655  0.491849  0.634556  1
  F  F18  1  0.230345  0.491849  0.134556  1
  F  F19  1  0.730345  0.508151  0.365444  1
  F  F20  1  0.761544  0.042287  0.050221  1
  F  F21  1  0.261544  0.957713  0.449779  1
  F  F22  1  0.238456  0.957713  0.949779  1
  F  F23  1  0.738456  0.042287  0.550221  1
  F  F24  1  0.984670  0.730112  0.630720  1
  F  F25  1  0.484670  0.269888  0.869280  1
  F  F26  1  0.015330  0.269888  0.369280  1
  F  F27  1  0.515330  0.730112  0.130720  1
  F  F28  1  0.056735  0.741419  0.165522  1
  F  F29  1  0.556735  0.258581  0.334478  1
  F  F30  1  0.943265  0.258581  0.834478  1
  F  F31  1  0.443265  0.741419  0.665522  1
  F  F32  1  0.402265  0.966816  0.227030  1
  F  F33  1  0.902265  0.033184  0.272970  1
  F  F34  1  0.597735  0.033184  0.772970  1
  F  F35  1  0.097735  0.966816  0.727030  1
