# generated using pymatgen
data_Zr2MnIr5
_symmetry_space_group_name_H-M   'P 1'
_cell_length_a   5.60185082
_cell_length_b   5.60184924
_cell_length_c   8.11370500
_cell_angle_alpha   90.00000000
_cell_angle_beta   90.00000000
_cell_angle_gamma   93.94048419
_symmetry_Int_Tables_number   1
_chemical_formula_structural   Zr2MnIr5
_chemical_formula_sum   'Zr4 Mn2 Ir10'
_cell_volume   254.01202054
_cell_formula_units_Z   2
loop_
 _symmetry_equiv_pos_site_id
 _symmetry_equiv_pos_as_xyz
  1  'x, y, z'
loop_
 _atom_site_type_symbol
 _atom_site_label
 _atom_site_symmetry_multiplicity
 _atom_site_fract_x
 _atom_site_fract_y
 _atom_site_fract_z
 _atom_site_occupancy
  Zr  Zr0  1  0.768518  0.231482  0.500000  1
  Zr  Zr1  1  0.231482  0.768518  0.000000  1
  Zr  Zr2  1  0.231482  0.768518  0.500000  1
  Zr  Zr3  1  0.768518  0.231482  0.000000  1
  Mn  Mn4  1  0.500914  0.500914  0.750000  1
  Mn  Mn5  1  0.499086  0.499086  0.250000  1
  Ir  Ir6  1  0.732762  0.732762  0.000129  1
  Ir  Ir7  1  0.732762  0.732762  0.499871  1
  Ir  Ir8  1  0.267238  0.267238  0.999871  1
  Ir  Ir9  1  0.267238  0.267238  0.500129  1
  Ir  Ir10  1  0.500040  0.000144  0.750000  1
  Ir  Ir11  1  0.499960  0.999856  0.250000  1
  Ir  Ir12  1  0.000125  0.000125  0.250000  1
  Ir  Ir13  1  0.999875  0.999875  0.750000  1
  Ir  Ir14  1  0.000144  0.500040  0.750000  1
  Ir  Ir15  1  0.999856  0.499960  0.250000  1
