# generated using pymatgen
data_Tb3Dy8YRh4
_symmetry_space_group_name_H-M   'P 1'
_cell_length_a   6.28550545
_cell_length_b   7.17841203
_cell_length_c   9.51245300
_cell_angle_alpha   90.00000000
_cell_angle_beta   90.00000000
_cell_angle_gamma   90.08121129
_symmetry_Int_Tables_number   1
_chemical_formula_structural   Tb3Dy8YRh4
_chemical_formula_sum   'Tb3 Dy8 Y1 Rh4'
_cell_volume   429.20095258
_cell_formula_units_Z   1
loop_
 _symmetry_equiv_pos_site_id
 _symmetry_equiv_pos_as_xyz
  1  'x, y, z'
loop_
 _atom_site_type_symbol
 _atom_site_label
 _atom_site_symmetry_multiplicity
 _atom_site_fract_x
 _atom_site_fract_y
 _atom_site_fract_z
 _atom_site_occupancy
  Tb  Tb0  1  0.865967  0.532939  0.250000  1
  Tb  Tb1  1  0.633925  0.032910  0.250000  1
  Tb  Tb2  1  0.134408  0.466748  0.750000  1
  Dy  Dy3  1  0.329609  0.676570  0.063287  1
  Dy  Dy4  1  0.170125  0.176565  0.436814  1
  Dy  Dy5  1  0.670727  0.323850  0.562905  1
  Dy  Dy6  1  0.829770  0.823349  0.936597  1
  Dy  Dy7  1  0.670727  0.323850  0.937095  1
  Dy  Dy8  1  0.829770  0.823349  0.563403  1
  Dy  Dy9  1  0.329609  0.676570  0.436713  1
  Dy  Dy10  1  0.170125  0.176565  0.063186  1
  Y  Y11  1  0.366216  0.967532  0.750000  1
  Rh  Rh12  1  0.061402  0.882064  0.250000  1
  Rh  Rh13  1  0.438988  0.382165  0.250000  1
  Rh  Rh14  1  0.937081  0.118505  0.750000  1
  Rh  Rh15  1  0.561551  0.616467  0.750000  1
