# generated using pymatgen
data_Y2Co9Si(As2Rh)3
_symmetry_space_group_name_H-M   'P 1'
_cell_length_a   3.80837200
_cell_length_b   9.41648269
_cell_length_c   9.41648200
_cell_angle_alpha   120.00000272
_cell_angle_beta   90.00000000
_cell_angle_gamma   90.00000000
_symmetry_Int_Tables_number   1
_chemical_formula_structural   Y2Co9Si(As2Rh)3
_chemical_formula_sum   'Y2 Co9 Si1 As6 Rh3'
_cell_volume   292.44713844
_cell_formula_units_Z   1
loop_
 _symmetry_equiv_pos_site_id
 _symmetry_equiv_pos_as_xyz
  1  'x, y, z'
loop_
 _atom_site_type_symbol
 _atom_site_label
 _atom_site_symmetry_multiplicity
 _atom_site_fract_x
 _atom_site_fract_y
 _atom_site_fract_z
 _atom_site_occupancy
  Y  Y0  1  0.000000  0.666667  0.333333  1
  Y  Y1  1  0.500000  0.333333  0.666667  1
  Co  Co2  1  0.000000  0.571446  0.942056  1
  Co  Co3  1  0.000000  0.370610  0.428554  1
  Co  Co4  1  0.000000  0.057944  0.629390  1
  Co  Co5  1  0.000000  0.877144  0.158627  1
  Co  Co6  1  0.000000  0.281483  0.122856  1
  Co  Co7  1  0.000000  0.841373  0.718517  1
  Co  Co8  1  0.500000  0.948779  0.384784  1
  Co  Co9  1  0.500000  0.436004  0.051221  1
  Co  Co10  1  0.500000  0.615216  0.563996  1
  Si  Si11  1  0.000000  0.000000  0.000000  1
  As  As12  1  0.500000  0.709926  0.118852  1
  As  As13  1  0.500000  0.408925  0.290074  1
  As  As14  1  0.500000  0.881148  0.591075  1
  As  As15  1  0.000000  0.587055  0.699611  1
  As  As16  1  0.000000  0.112556  0.412945  1
  As  As17  1  0.000000  0.300389  0.887444  1
  Rh  Rh18  1  0.500000  0.788514  0.905319  1
  Rh  Rh19  1  0.500000  0.116805  0.211486  1
  Rh  Rh20  1  0.500000  0.094681  0.883195  1
