# generated using pymatgen
data_Nd8Er12Si15Pb
_symmetry_space_group_name_H-M   'P 1'
_cell_length_a   7.50108855
_cell_length_b   14.80529294
_cell_length_c   7.79700916
_cell_angle_alpha   89.89702035
_cell_angle_beta   89.91787221
_cell_angle_gamma   89.24883784
_symmetry_Int_Tables_number   1
_chemical_formula_structural   Nd8Er12Si15Pb
_chemical_formula_sum   'Nd8 Er12 Si15 Pb1'
_cell_volume   865.82652130
_cell_formula_units_Z   1
loop_
 _symmetry_equiv_pos_site_id
 _symmetry_equiv_pos_as_xyz
  1  'x, y, z'
loop_
 _atom_site_type_symbol
 _atom_site_label
 _atom_site_symmetry_multiplicity
 _atom_site_fract_x
 _atom_site_fract_y
 _atom_site_fract_z
 _atom_site_occupancy
  Nd  Nd0  1  0.021234  0.098631  0.179477  1
  Nd  Nd1  1  0.021384  0.398109  0.181177  1
  Nd  Nd2  1  0.521514  0.097911  0.320234  1
  Nd  Nd3  1  0.514631  0.397167  0.328488  1
  Nd  Nd4  1  0.479331  0.600097  0.673126  1
  Nd  Nd5  1  0.478154  0.902969  0.678525  1
  Nd  Nd6  1  0.993697  0.602175  0.812794  1
  Nd  Nd7  1  0.978579  0.902496  0.820327  1
  Er  Er8  1  0.343570  0.249340  0.009404  1
  Er  Er9  1  0.315275  0.624544  0.176403  1
  Er  Er10  1  0.320466  0.877929  0.177421  1
  Er  Er11  1  0.834587  0.630437  0.338559  1
  Er  Er12  1  0.819796  0.877934  0.323962  1
  Er  Er13  1  0.845400  0.248606  0.489806  1
  Er  Er14  1  0.157485  0.752984  0.509708  1
  Er  Er15  1  0.177606  0.121942  0.678002  1
  Er  Er16  1  0.172359  0.374020  0.675812  1
  Er  Er17  1  0.678646  0.122812  0.822369  1
  Er  Er18  1  0.670179  0.370363  0.813473  1
  Er  Er19  1  0.655352  0.755412  0.991650  1
  Si  Si20  1  0.644953  0.960917  0.031508  1
  Si  Si21  1  0.026871  0.752844  0.113589  1
  Si  Si22  1  0.724122  0.248876  0.121758  1
  Si  Si23  1  0.224583  0.247298  0.377855  1
  Si  Si24  1  0.527164  0.751483  0.382928  1
  Si  Si25  1  0.152335  0.538021  0.465613  1
  Si  Si26  1  0.144743  0.960493  0.467955  1
  Si  Si27  1  0.853702  0.040552  0.530909  1
  Si  Si28  1  0.848749  0.460033  0.532382  1
  Si  Si29  1  0.469724  0.246222  0.611326  1
  Si  Si30  1  0.774881  0.752953  0.627268  1
  Si  Si31  1  0.278083  0.751701  0.876468  1
  Si  Si32  1  0.970592  0.248031  0.886134  1
  Si  Si33  1  0.354123  0.040245  0.968968  1
  Si  Si34  1  0.335389  0.457267  0.963528  1
  Pb  Pb35  1  0.670742  0.537183  0.041094  1
