# generated using pymatgen
data_Hf7U(Co4P3)4
_symmetry_space_group_name_H-M   'P 1'
_cell_length_a   12.08904381
_cell_length_b   12.08904368
_cell_length_c   3.66777300
_cell_angle_alpha   90.00000000
_cell_angle_beta   90.00000000
_cell_angle_gamma   120.17939507
_symmetry_Int_Tables_number   1
_chemical_formula_structural   Hf7U(Co4P3)4
_chemical_formula_sum   'Hf7 U1 Co16 P12'
_cell_volume   463.37122557
_cell_formula_units_Z   1
loop_
 _symmetry_equiv_pos_site_id
 _symmetry_equiv_pos_as_xyz
  1  'x, y, z'
loop_
 _atom_site_type_symbol
 _atom_site_label
 _atom_site_symmetry_multiplicity
 _atom_site_fract_x
 _atom_site_fract_y
 _atom_site_fract_z
 _atom_site_occupancy
  Hf  Hf0  1  0.441076  0.441076  0.000000  1
  Hf  Hf1  1  0.000699  0.179507  0.500000  1
  Hf  Hf2  1  0.556423  0.000341  0.000000  1
  Hf  Hf3  1  0.333795  0.666081  0.000000  1
  Hf  Hf4  1  0.666081  0.333795  0.000000  1
  Hf  Hf5  1  0.000341  0.556423  0.000000  1
  Hf  Hf6  1  0.179507  0.000699  0.500000  1
  U  U7  1  0.826656  0.826656  0.500000  1
  Co  Co8  1  0.624404  0.820633  0.000000  1
  Co  Co9  1  0.372499  0.192752  0.000000  1
  Co  Co10  1  0.002028  0.720910  0.500000  1
  Co  Co11  1  0.276279  0.276279  0.500000  1
  Co  Co12  1  0.873286  0.356575  0.500000  1
  Co  Co13  1  0.720910  0.002028  0.500000  1
  Co  Co14  1  0.820633  0.624404  0.000000  1
  Co  Co15  1  0.182378  0.806709  0.000000  1
  Co  Co16  1  0.356575  0.873286  0.500000  1
  Co  Co17  1  0.126806  0.482226  0.500000  1
  Co  Co18  1  0.643522  0.517225  0.500000  1
  Co  Co19  1  0.997129  0.997129  0.000000  1
  Co  Co20  1  0.517225  0.643522  0.500000  1
  Co  Co21  1  0.482226  0.126806  0.500000  1
  Co  Co22  1  0.192752  0.372499  0.000000  1
  Co  Co23  1  0.806709  0.182378  0.000000  1
  P  P24  1  0.000529  0.346631  0.000000  1
  P  P25  1  0.826202  0.516924  0.500000  1
  P  P26  1  0.690192  0.174675  0.500000  1
  P  P27  1  0.174677  0.174677  0.000000  1
  P  P28  1  0.650693  0.650693  0.000000  1
  P  P29  1  0.823300  0.006309  0.000000  1
  P  P30  1  0.516924  0.826202  0.500000  1
  P  P31  1  0.174675  0.690192  0.500000  1
  P  P32  1  0.346631  0.000529  0.000000  1
  P  P33  1  0.481572  0.308359  0.500000  1
  P  P34  1  0.006309  0.823300  0.000000  1
  P  P35  1  0.308359  0.481572  0.500000  1
