# generated using pymatgen
data_Ho8Si12IrPt3
_symmetry_space_group_name_H-M   'P 1'
_cell_length_a   8.16932900
_cell_length_b   8.16932973
_cell_length_c   7.91239400
_cell_angle_alpha   90.00000000
_cell_angle_beta   90.00000000
_cell_angle_gamma   120.00000109
_symmetry_Int_Tables_number   1
_chemical_formula_structural   Ho8Si12IrPt3
_chemical_formula_sum   'Ho8 Si12 Ir1 Pt3'
_cell_volume   457.31067982
_cell_formula_units_Z   1
loop_
 _symmetry_equiv_pos_site_id
 _symmetry_equiv_pos_as_xyz
  1  'x, y, z'
loop_
 _atom_site_type_symbol
 _atom_site_label
 _atom_site_symmetry_multiplicity
 _atom_site_fract_x
 _atom_site_fract_y
 _atom_site_fract_z
 _atom_site_occupancy
  Ho  Ho0  1  0.000000  0.000000  0.250278  1
  Ho  Ho1  1  0.000000  0.000000  0.750605  1
  Ho  Ho2  1  0.508849  0.491151  0.247818  1
  Ho  Ho3  1  0.508849  0.017697  0.247818  1
  Ho  Ho4  1  0.982303  0.491151  0.247818  1
  Ho  Ho5  1  0.489010  0.510990  0.751871  1
  Ho  Ho6  1  0.489010  0.978018  0.751871  1
  Ho  Ho7  1  0.021982  0.510990  0.751871  1
  Si  Si8  1  0.165098  0.834902  0.499708  1
  Si  Si9  1  0.165098  0.330196  0.499708  1
  Si  Si10  1  0.669804  0.834902  0.499708  1
  Si  Si11  1  0.834841  0.165159  0.500865  1
  Si  Si12  1  0.834841  0.669683  0.500865  1
  Si  Si13  1  0.330317  0.165159  0.500865  1
  Si  Si14  1  0.835491  0.164509  0.998668  1
  Si  Si15  1  0.835491  0.670982  0.998668  1
  Si  Si16  1  0.329018  0.164509  0.998668  1
  Si  Si17  1  0.167052  0.832948  0.001570  1
  Si  Si18  1  0.167052  0.334105  0.001570  1
  Si  Si19  1  0.665895  0.832948  0.001570  1
  Ir  Ir20  1  0.333333  0.666667  0.034338  1
  Pt  Pt21  1  0.333333  0.666667  0.463135  1
  Pt  Pt22  1  0.666667  0.333333  0.532604  1
  Pt  Pt23  1  0.666667  0.333333  0.967537  1
