# generated using pymatgen
data_Tb10CdBi5Cl2
_symmetry_space_group_name_H-M   'P 1'
_cell_length_a   9.26672852
_cell_length_b   9.26672906
_cell_length_c   6.53215900
_cell_angle_alpha   90.00000000
_cell_angle_beta   90.00000000
_cell_angle_gamma   119.58928054
_symmetry_Int_Tables_number   1
_chemical_formula_structural   Tb10CdBi5Cl2
_chemical_formula_sum   'Tb10 Cd1 Bi5 Cl2'
_cell_volume   487.77872514
_cell_formula_units_Z   1
loop_
 _symmetry_equiv_pos_site_id
 _symmetry_equiv_pos_as_xyz
  1  'x, y, z'
loop_
 _atom_site_type_symbol
 _atom_site_label
 _atom_site_symmetry_multiplicity
 _atom_site_fract_x
 _atom_site_fract_y
 _atom_site_fract_z
 _atom_site_occupancy
  Tb  Tb0  1  0.662717  0.334651  0.499943  1
  Tb  Tb1  1  0.334651  0.662717  0.499943  1
  Tb  Tb2  1  0.334651  0.662717  0.000057  1
  Tb  Tb3  1  0.662717  0.334651  0.000057  1
  Tb  Tb4  1  0.732686  0.732686  0.250000  1
  Tb  Tb5  1  0.266311  0.007317  0.250000  1
  Tb  Tb6  1  0.007317  0.266311  0.250000  1
  Tb  Tb7  1  0.267647  0.267647  0.750000  1
  Tb  Tb8  1  0.735990  0.999861  0.750000  1
  Tb  Tb9  1  0.999861  0.735990  0.750000  1
  Cd  Cd10  1  0.389141  0.389141  0.250000  1
  Bi  Bi11  1  0.614019  0.002130  0.250000  1
  Bi  Bi12  1  0.002130  0.614019  0.250000  1
  Bi  Bi13  1  0.611879  0.611879  0.750000  1
  Bi  Bi14  1  0.385519  0.998433  0.750000  1
  Bi  Bi15  1  0.998433  0.385519  0.750000  1
  Cl  Cl16  1  0.997167  0.997167  0.501197  1
  Cl  Cl17  1  0.997167  0.997167  0.998803  1
