# generated using pymatgen
data_NaCe(BIr)4
_symmetry_space_group_name_H-M   'P 1'
_cell_length_a   7.06279993
_cell_length_b   6.12310402
_cell_length_c   5.50688365
_cell_angle_alpha   74.57678204
_cell_angle_beta   56.69198026
_cell_angle_gamma   48.73123227
_symmetry_Int_Tables_number   1
_chemical_formula_structural   NaCe(BIr)4
_chemical_formula_sum   'Na1 Ce1 B4 Ir4'
_cell_volume   147.82943089
_cell_formula_units_Z   1
loop_
 _symmetry_equiv_pos_site_id
 _symmetry_equiv_pos_as_xyz
  1  'x, y, z'
loop_
 _atom_site_type_symbol
 _atom_site_label
 _atom_site_symmetry_multiplicity
 _atom_site_fract_x
 _atom_site_fract_y
 _atom_site_fract_z
 _atom_site_occupancy
  Na  Na0  1  0.750000  0.750000  0.750000  1
  Ce  Ce1  1  0.500000  0.500000  0.500000  1
  B  B2  1  0.068091  0.431909  0.068091  1
  B  B3  1  0.824613  0.175387  0.824613  1
  B  B4  1  0.431909  0.068091  0.431909  1
  B  B5  1  0.175387  0.824613  0.175387  1
  Ir  Ir6  1  0.379204  0.379204  0.120796  1
  Ir  Ir7  1  0.132148  0.132148  0.867852  1
  Ir  Ir8  1  0.867852  0.867852  0.132148  1
  Ir  Ir9  1  0.120796  0.120796  0.379204  1
