# generated using pymatgen
data_Li4Pr3Pb4
_symmetry_space_group_name_H-M   'P 1'
_cell_length_a   4.81089978
_cell_length_b   7.33433516
_cell_length_c   9.03599159
_cell_angle_alpha   113.94378063
_cell_angle_beta   105.43871925
_cell_angle_gamma   90.00000816
_symmetry_Int_Tables_number   1
_chemical_formula_structural   Li4Pr3Pb4
_chemical_formula_sum   'Li4 Pr3 Pb4'
_cell_volume   278.76034034
_cell_formula_units_Z   1
loop_
 _symmetry_equiv_pos_site_id
 _symmetry_equiv_pos_as_xyz
  1  'x, y, z'
loop_
 _atom_site_type_symbol
 _atom_site_label
 _atom_site_symmetry_multiplicity
 _atom_site_fract_x
 _atom_site_fract_y
 _atom_site_fract_z
 _atom_site_occupancy
  Li  Li0  1  0.671607  0.982013  0.343213  1
  Li  Li1  1  0.328393  0.017987  0.656787  1
  Li  Li2  1  0.328393  0.638800  0.656787  1
  Li  Li3  1  0.671607  0.361200  0.343213  1
  Pr  Pr4  1  0.000000  0.000000  0.000000  1
  Pr  Pr5  1  0.130214  0.630214  0.260428  1
  Pr  Pr6  1  0.869786  0.369786  0.739572  1
  Pb  Pb7  1  0.500000  0.703640  0.000000  1
  Pb  Pb8  1  0.500000  0.296360  0.000000  1
  Pb  Pb9  1  0.787055  0.787055  0.574109  1
  Pb  Pb10  1  0.212945  0.212945  0.425891  1
