# generated using pymatgen
data_EuDyLu2(ZnSn)4
_symmetry_space_group_name_H-M   'P 1'
_cell_length_a   4.52324500
_cell_length_b   4.52324518
_cell_length_c   15.92585400
_cell_angle_alpha   90.00000000
_cell_angle_beta   90.00000000
_cell_angle_gamma   120.00000598
_symmetry_Int_Tables_number   1
_chemical_formula_structural   EuDyLu2(ZnSn)4
_chemical_formula_sum   'Eu1 Dy1 Lu2 Zn4 Sn4'
_cell_volume   282.18477408
_cell_formula_units_Z   1
loop_
 _symmetry_equiv_pos_site_id
 _symmetry_equiv_pos_as_xyz
  1  'x, y, z'
loop_
 _atom_site_type_symbol
 _atom_site_label
 _atom_site_symmetry_multiplicity
 _atom_site_fract_x
 _atom_site_fract_y
 _atom_site_fract_z
 _atom_site_occupancy
  Eu  Eu0  1  0.000000  0.000000  0.000000  1
  Dy  Dy1  1  0.000000  0.000000  0.500000  1
  Lu  Lu2  1  0.000000  0.000000  0.254454  1
  Lu  Lu3  1  0.000000  0.000000  0.745546  1
  Zn  Zn4  1  0.333333  0.666667  0.168906  1
  Zn  Zn5  1  0.666667  0.333333  0.831094  1
  Zn  Zn6  1  0.666667  0.333333  0.662620  1
  Zn  Zn7  1  0.333333  0.666667  0.337380  1
  Sn  Sn8  1  0.333333  0.666667  0.612178  1
  Sn  Sn9  1  0.666667  0.333333  0.387822  1
  Sn  Sn10  1  0.666667  0.333333  0.123333  1
  Sn  Sn11  1  0.333333  0.666667  0.876667  1
