# generated using pymatgen
data_Er6Al24IrRu5Pt2
_symmetry_space_group_name_H-M   'P 1'
_cell_length_a   8.82480553
_cell_length_b   8.81437597
_cell_length_c   9.51129322
_cell_angle_alpha   89.99999816
_cell_angle_beta   90.32084361
_cell_angle_gamma   119.96090500
_symmetry_Int_Tables_number   1
_chemical_formula_structural   Er6Al24IrRu5Pt2
_chemical_formula_sum   'Er6 Al24 Ir1 Ru5 Pt2'
_cell_volume   640.95685990
_cell_formula_units_Z   1
loop_
 _symmetry_equiv_pos_site_id
 _symmetry_equiv_pos_as_xyz
  1  'x, y, z'
loop_
 _atom_site_type_symbol
 _atom_site_label
 _atom_site_symmetry_multiplicity
 _atom_site_fract_x
 _atom_site_fract_y
 _atom_site_fract_z
 _atom_site_occupancy
  Er  Er0  1  0.192698  0.387993  0.251254  1
  Er  Er1  1  0.807302  0.612007  0.748746  1
  Er  Er2  1  0.613064  0.806532  0.251247  1
  Er  Er3  1  0.386936  0.193468  0.748753  1
  Er  Er4  1  0.192698  0.804704  0.251254  1
  Er  Er5  1  0.807302  0.195296  0.748746  1
  Al  Al6  1  0.328000  0.664000  0.028255  1
  Al  Al7  1  0.672000  0.336000  0.971745  1
  Al  Al8  1  0.664482  0.332241  0.523219  1
  Al  Al9  1  0.335518  0.667759  0.476781  1
  Al  Al10  1  0.164406  0.325837  0.577333  1
  Al  Al11  1  0.835594  0.674163  0.422667  1
  Al  Al12  1  0.674949  0.837475  0.577927  1
  Al  Al13  1  0.841799  0.675160  0.078176  1
  Al  Al14  1  0.325051  0.162525  0.422073  1
  Al  Al15  1  0.158201  0.324840  0.921824  1
  Al  Al16  1  0.164406  0.838570  0.577333  1
  Al  Al17  1  0.322647  0.161324  0.079273  1
  Al  Al18  1  0.835594  0.161430  0.422667  1
  Al  Al19  1  0.677353  0.838676  0.920727  1
  Al  Al20  1  0.841799  0.166639  0.078176  1
  Al  Al21  1  0.158201  0.833361  0.921824  1
  Al  Al22  1  0.562264  0.124931  0.252579  1
  Al  Al23  1  0.437736  0.875069  0.747421  1
  Al  Al24  1  0.876264  0.438132  0.247416  1
  Al  Al25  1  0.123736  0.561868  0.752584  1
  Al  Al26  1  0.562264  0.437334  0.252579  1
  Al  Al27  1  0.437736  0.562666  0.747421  1
  Al  Al28  1  0.999378  0.999689  0.250152  1
  Al  Al29  1  0.000622  0.000311  0.749848  1
  Ir  Ir30  1  0.000000  0.500000  0.500000  1
  Ru  Ru31  1  0.000000  0.500000  0.000000  1
  Ru  Ru32  1  0.500000  0.000000  0.500000  1
  Ru  Ru33  1  0.500000  0.500000  0.500000  1
  Ru  Ru34  1  0.000000  0.000000  0.000000  1
  Ru  Ru35  1  0.000000  0.000000  0.500000  1
  Pt  Pt36  1  0.500000  0.000000  0.000000  1
  Pt  Pt37  1  0.500000  0.500000  0.000000  1
