# generated using pymatgen
data_MgPa2(SnRh)3
_symmetry_space_group_name_H-M   'P 1'
_cell_length_a   7.37509548
_cell_length_b   7.35970628
_cell_length_c   3.99253800
_cell_angle_alpha   90.00000000
_cell_angle_beta   90.00000000
_cell_angle_gamma   119.93099609
_symmetry_Int_Tables_number   1
_chemical_formula_structural   MgPa2(SnRh)3
_chemical_formula_sum   'Mg1 Pa2 Sn3 Rh3'
_cell_volume   187.80596302
_cell_formula_units_Z   1
loop_
 _symmetry_equiv_pos_site_id
 _symmetry_equiv_pos_as_xyz
  1  'x, y, z'
loop_
 _atom_site_type_symbol
 _atom_site_label
 _atom_site_symmetry_multiplicity
 _atom_site_fract_x
 _atom_site_fract_y
 _atom_site_fract_z
 _atom_site_occupancy
  Mg  Mg0  1  0.000000  0.596084  0.500000  1
  Pa  Pa1  1  0.414490  0.412391  0.500000  1
  Pa  Pa2  1  0.585510  0.997902  0.500000  1
  Sn  Sn3  1  0.757598  0.741832  0.000000  1
  Sn  Sn4  1  0.242402  0.984235  0.000000  1
  Sn  Sn5  1  0.000000  0.269961  0.000000  1
  Rh  Rh6  1  0.645538  0.316911  0.000000  1
  Rh  Rh7  1  0.354462  0.671376  0.000000  1
  Rh  Rh8  1  0.000000  0.009308  0.500000  1
