# generated using pymatgen
data_La8Sc12Si15P
_symmetry_space_group_name_H-M   'P 1'
_cell_length_a   7.34030647
_cell_length_b   7.58966844
_cell_length_c   14.26924124
_cell_angle_alpha   89.76648506
_cell_angle_beta   89.21562301
_cell_angle_gamma   89.61465386
_symmetry_Int_Tables_number   1
_chemical_formula_structural   La8Sc12Si15P
_chemical_formula_sum   'La8 Sc12 Si15 P1'
_cell_volume   794.84767914
_cell_formula_units_Z   1
loop_
 _symmetry_equiv_pos_site_id
 _symmetry_equiv_pos_as_xyz
  1  'x, y, z'
loop_
 _atom_site_type_symbol
 _atom_site_label
 _atom_site_symmetry_multiplicity
 _atom_site_fract_x
 _atom_site_fract_y
 _atom_site_fract_z
 _atom_site_occupancy
  La  La0  1  0.993075  0.679479  0.595463  1
  La  La1  1  0.009277  0.320254  0.404822  1
  La  La2  1  0.500381  0.172602  0.402406  1
  La  La3  1  0.010923  0.329040  0.098044  1
  La  La4  1  0.496543  0.830951  0.597601  1
  La  La5  1  0.989654  0.670527  0.901367  1
  La  La6  1  0.490144  0.829002  0.901691  1
  La  La7  1  0.510469  0.170070  0.097936  1
  Sc  Sc8  1  0.163620  0.005732  0.747664  1
  Sc  Sc9  1  0.835944  0.994942  0.253181  1
  Sc  Sc10  1  0.337007  0.506760  0.251377  1
  Sc  Sc11  1  0.663368  0.493870  0.748280  1
  Sc  Sc12  1  0.336449  0.325487  0.626208  1
  Sc  Sc13  1  0.662251  0.670997  0.373252  1
  Sc  Sc14  1  0.159629  0.831645  0.380016  1
  Sc  Sc15  1  0.667778  0.674473  0.126704  1
  Sc  Sc16  1  0.842448  0.169036  0.620410  1
  Sc  Sc17  1  0.332367  0.325476  0.873097  1
  Sc  Sc18  1  0.832908  0.177143  0.874191  1
  Sc  Sc19  1  0.167225  0.822765  0.125044  1
  Si  Si20  1  0.035870  0.372820  0.747430  1
  Si  Si21  1  0.964489  0.627610  0.252047  1
  Si  Si22  1  0.457110  0.871711  0.249540  1
  Si  Si23  1  0.542674  0.128685  0.750283  1
  Si  Si24  1  0.293250  0.615724  0.749278  1
  Si  Si25  1  0.707839  0.383197  0.250316  1
  Si  Si26  1  0.205760  0.110683  0.250073  1
  Si  Si27  1  0.794995  0.888743  0.749580  1
  Si  Si28  1  0.819666  0.956580  0.453135  1
  Si  Si29  1  0.344611  0.539605  0.461193  1
  Si  Si30  1  0.849927  0.962786  0.039438  1
  Si  Si31  1  0.655015  0.461862  0.540459  1
  Si  Si32  1  0.150142  0.036296  0.959678  1
  Si  Si33  1  0.650182  0.463468  0.959451  1
  Si  Si34  1  0.350293  0.535861  0.040087  1
  P  P35  1  0.176718  0.044117  0.549259  1
