# generated using pymatgen
data_Sm(Ga3Pt)3
_symmetry_space_group_name_H-M   'P 1'
_cell_length_a   10.50059184
_cell_length_b   10.50059137
_cell_length_c   10.50059081
_cell_angle_alpha   42.57130267
_cell_angle_beta   42.57130467
_cell_angle_gamma   42.57129817
_symmetry_Int_Tables_number   1
_chemical_formula_structural   Sm(Ga3Pt)3
_chemical_formula_sum   'Sm2 Ga18 Pt6'
_cell_volume   479.87501692
_cell_formula_units_Z   2
loop_
 _symmetry_equiv_pos_site_id
 _symmetry_equiv_pos_as_xyz
  1  'x, y, z'
loop_
 _atom_site_type_symbol
 _atom_site_label
 _atom_site_symmetry_multiplicity
 _atom_site_fract_x
 _atom_site_fract_y
 _atom_site_fract_z
 _atom_site_occupancy
  Sm  Sm0  1  0.166803  0.166803  0.166803  1
  Sm  Sm1  1  0.833197  0.833197  0.833197  1
  Ga  Ga2  1  0.108150  0.437623  0.767662  1
  Ga  Ga3  1  0.437623  0.767662  0.108150  1
  Ga  Ga4  1  0.562377  0.891850  0.232338  1
  Ga  Ga5  1  0.951054  0.951054  0.951054  1
  Ga  Ga6  1  0.048946  0.048946  0.048946  1
  Ga  Ga7  1  0.297525  0.702475  0.500000  1
  Ga  Ga8  1  0.891850  0.232338  0.562377  1
  Ga  Ga9  1  0.383741  0.383741  0.383741  1
  Ga  Ga10  1  0.500000  0.297525  0.702475  1
  Ga  Ga11  1  0.232338  0.562377  0.891850  1
  Ga  Ga12  1  0.715049  0.715049  0.715049  1
  Ga  Ga13  1  0.616259  0.616259  0.616259  1
  Ga  Ga14  1  0.333598  0.000000  0.666402  1
  Ga  Ga15  1  0.702475  0.500000  0.297525  1
  Ga  Ga16  1  0.666402  0.333598  0.000000  1
  Ga  Ga17  1  0.284951  0.284951  0.284951  1
  Ga  Ga18  1  0.000000  0.666402  0.333598  1
  Ga  Ga19  1  0.767662  0.108150  0.437623  1
  Pt  Pt20  1  0.418739  0.078222  0.759003  1
  Pt  Pt21  1  0.581261  0.240997  0.921778  1
  Pt  Pt22  1  0.078222  0.759003  0.418739  1
  Pt  Pt23  1  0.759003  0.418739  0.078222  1
  Pt  Pt24  1  0.921778  0.581261  0.240997  1
  Pt  Pt25  1  0.240997  0.921778  0.581261  1
