# generated using pymatgen
data_Pr(NbS2)5
_symmetry_space_group_name_H-M   'P 1'
_cell_length_a   5.84445500
_cell_length_b   8.06599642
_cell_length_c   8.77396700
_cell_angle_alpha   116.03033572
_cell_angle_beta   96.59073320
_cell_angle_gamma   103.90143440
_symmetry_Int_Tables_number   1
_chemical_formula_structural   Pr(NbS2)5
_chemical_formula_sum   'Pr1 Nb5 S10'
_cell_volume   349.08753168
_cell_formula_units_Z   1
loop_
 _symmetry_equiv_pos_site_id
 _symmetry_equiv_pos_as_xyz
  1  'x, y, z'
loop_
 _atom_site_type_symbol
 _atom_site_label
 _atom_site_symmetry_multiplicity
 _atom_site_fract_x
 _atom_site_fract_y
 _atom_site_fract_z
 _atom_site_occupancy
  Pr  Pr0  1  0.668694  0.508032  0.995456  1
  Nb  Nb1  1  0.002448  0.996748  0.999962  1
  Nb  Nb2  1  0.599272  0.203352  0.202905  1
  Nb  Nb3  1  0.198274  0.398866  0.399510  1
  Nb  Nb4  1  0.798909  0.600169  0.602065  1
  Nb  Nb5  1  0.400419  0.797004  0.797251  1
  S  S6  1  0.237331  0.068325  0.288145  1
  S  S7  1  0.049179  0.664845  0.888598  1
  S  S8  1  0.836479  0.267468  0.486787  1
  S  S9  1  0.636021  0.875208  0.095131  1
  S  S10  1  0.428334  0.457322  0.680534  1
  S  S11  1  0.899274  0.537761  0.316390  1
  S  S12  1  0.697188  0.128995  0.910596  1
  S  S13  1  0.495227  0.730562  0.513173  1
  S  S14  1  0.290115  0.332664  0.111160  1
  S  S15  1  0.095639  0.930282  0.713938  1
