# generated using pymatgen
data_Er3In3HgPtRh
_symmetry_space_group_name_H-M   'P 1'
_cell_length_a   7.77343500
_cell_length_b   7.77343632
_cell_length_c   3.85849200
_cell_angle_alpha   90.00000000
_cell_angle_beta   90.00000000
_cell_angle_gamma   119.99999012
_symmetry_Int_Tables_number   1
_chemical_formula_structural   Er3In3HgPtRh
_chemical_formula_sum   'Er3 In3 Hg1 Pt1 Rh1'
_cell_volume   201.91765591
_cell_formula_units_Z   1
loop_
 _symmetry_equiv_pos_site_id
 _symmetry_equiv_pos_as_xyz
  1  'x, y, z'
loop_
 _atom_site_type_symbol
 _atom_site_label
 _atom_site_symmetry_multiplicity
 _atom_site_fract_x
 _atom_site_fract_y
 _atom_site_fract_z
 _atom_site_occupancy
  Er  Er0  1  0.025315  0.613029  0.500000  1
  Er  Er1  1  0.386971  0.412286  0.500000  1
  Er  Er2  1  0.587714  0.974685  0.500000  1
  In  In3  1  0.256143  0.001092  0.000000  1
  In  In4  1  0.744948  0.743857  0.000000  1
  In  In5  1  0.998908  0.255052  0.000000  1
  Hg  Hg6  1  0.666667  0.333333  0.000000  1
  Pt  Pt7  1  0.333333  0.666667  0.000000  1
  Rh  Rh8  1  0.000000  0.000000  0.500000  1
