# generated using pymatgen
data_Lu5Sc15(BiSb5)2
_symmetry_space_group_name_H-M   'P 1'
_cell_length_a   7.71053461
_cell_length_b   8.88985389
_cell_length_c   11.35636848
_cell_angle_alpha   90.05906294
_cell_angle_beta   89.85425183
_cell_angle_gamma   90.07118178
_symmetry_Int_Tables_number   1
_chemical_formula_structural   Lu5Sc15(BiSb5)2
_chemical_formula_sum   'Lu5 Sc15 Bi2 Sb10'
_cell_volume   778.42472231
_cell_formula_units_Z   1
loop_
 _symmetry_equiv_pos_site_id
 _symmetry_equiv_pos_as_xyz
  1  'x, y, z'
loop_
 _atom_site_type_symbol
 _atom_site_label
 _atom_site_symmetry_multiplicity
 _atom_site_fract_x
 _atom_site_fract_y
 _atom_site_fract_z
 _atom_site_occupancy
  Lu  Lu0  1  0.854129  0.247081  0.218109  1
  Lu  Lu1  1  0.183300  0.246077  0.778787  1
  Lu  Lu2  1  0.818972  0.754009  0.219979  1
  Lu  Lu3  1  0.314783  0.753044  0.281986  1
  Lu  Lu4  1  0.686583  0.246911  0.717512  1
  Sc  Sc5  1  0.022431  0.249987  0.511181  1
  Sc  Sc6  1  0.976792  0.750038  0.490570  1
  Sc  Sc7  1  0.476136  0.755115  0.010328  1
  Sc  Sc8  1  0.521742  0.244859  0.987838  1
  Sc  Sc9  1  0.347106  0.246681  0.283146  1
  Sc  Sc10  1  0.652818  0.753372  0.716642  1
  Sc  Sc11  1  0.145686  0.752771  0.781763  1
  Sc  Sc12  1  0.192499  0.063244  0.060752  1
  Sc  Sc13  1  0.807425  0.936699  0.938361  1
  Sc  Sc14  1  0.306813  0.936888  0.562517  1
  Sc  Sc15  1  0.810265  0.565239  0.937189  1
  Sc  Sc16  1  0.692821  0.062139  0.440386  1
  Sc  Sc17  1  0.189662  0.434842  0.061680  1
  Sc  Sc18  1  0.694866  0.436960  0.442592  1
  Sc  Sc19  1  0.304846  0.563894  0.559879  1
  Bi  Bi20  1  0.562810  0.494107  0.172270  1
  Bi  Bi21  1  0.435233  0.507921  0.826771  1
  Sb  Sb22  1  0.406351  0.250332  0.534691  1
  Sb  Sb23  1  0.592419  0.749709  0.465658  1
  Sb  Sb24  1  0.093678  0.749722  0.034138  1
  Sb  Sb25  1  0.905410  0.250345  0.960605  1
  Sb  Sb26  1  0.066898  0.005239  0.331727  1
  Sb  Sb27  1  0.936307  0.991904  0.671352  1
  Sb  Sb28  1  0.436057  0.991712  0.826639  1
  Sb  Sb29  1  0.936480  0.507692  0.672359  1
  Sb  Sb30  1  0.562073  0.006353  0.172284  1
  Sb  Sb31  1  0.066609  0.495117  0.330312  1
