# generated using pymatgen
data_Ba4Y(OsO6)2
_symmetry_space_group_name_H-M   'P 1'
_cell_length_a   10.11820193
_cell_length_b   10.11820234
_cell_length_c   10.11820357
_cell_angle_alpha   33.89184362
_cell_angle_beta   33.89183934
_cell_angle_gamma   33.89184280
_symmetry_Int_Tables_number   1
_chemical_formula_structural   Ba4Y(OsO6)2
_chemical_formula_sum   'Ba4 Y1 Os2 O12'
_cell_volume   287.06518171
_cell_formula_units_Z   1
loop_
 _symmetry_equiv_pos_site_id
 _symmetry_equiv_pos_as_xyz
  1  'x, y, z'
loop_
 _atom_site_type_symbol
 _atom_site_label
 _atom_site_symmetry_multiplicity
 _atom_site_fract_x
 _atom_site_fract_y
 _atom_site_fract_z
 _atom_site_occupancy
  Ba  Ba0  1  0.712147  0.712147  0.712147  1
  Ba  Ba1  1  0.287853  0.287853  0.287853  1
  Ba  Ba2  1  0.866203  0.866203  0.866203  1
  Ba  Ba3  1  0.133797  0.133797  0.133797  1
  Y  Y4  1  0.000000  0.000000  0.000000  1
  Os  Os5  1  0.579101  0.579101  0.579101  1
  Os  Os6  1  0.420899  0.420899  0.420899  1
  O  O7  1  0.223648  0.688725  0.223648  1
  O  O8  1  0.223648  0.223648  0.688725  1
  O  O9  1  0.688725  0.223648  0.223648  1
  O  O10  1  0.776352  0.311275  0.776352  1
  O  O11  1  0.776352  0.776352  0.311275  1
  O  O12  1  0.311275  0.776352  0.776352  1
  O  O13  1  0.388321  0.857764  0.388321  1
  O  O14  1  0.388321  0.388321  0.857764  1
  O  O15  1  0.857764  0.388321  0.388321  1
  O  O16  1  0.611679  0.142236  0.611679  1
  O  O17  1  0.611679  0.611679  0.142236  1
  O  O18  1  0.142236  0.611679  0.611679  1
