# generated using pymatgen
data_TbY3Ga18OsRh5
_symmetry_space_group_name_H-M   'P 1'
_cell_length_a   7.57532226
_cell_length_b   7.57595596
_cell_length_c   9.58077402
_cell_angle_alpha   90.05575507
_cell_angle_beta   90.05921646
_cell_angle_gamma   119.89935281
_symmetry_Int_Tables_number   1
_chemical_formula_structural   TbY3Ga18OsRh5
_chemical_formula_sum   'Tb1 Y3 Ga18 Os1 Rh5'
_cell_volume   476.65974232
_cell_formula_units_Z   1
loop_
 _symmetry_equiv_pos_site_id
 _symmetry_equiv_pos_as_xyz
  1  'x, y, z'
loop_
 _atom_site_type_symbol
 _atom_site_label
 _atom_site_symmetry_multiplicity
 _atom_site_fract_x
 _atom_site_fract_y
 _atom_site_fract_z
 _atom_site_occupancy
  Tb  Tb0  1  0.996401  0.666170  0.248205  1
  Y  Y1  1  0.000678  0.332781  0.751182  1
  Y  Y2  1  0.667224  0.999344  0.248842  1
  Y  Y3  1  0.333836  0.003564  0.751798  1
  Ga  Ga4  1  0.332560  0.332779  0.562911  1
  Ga  Ga5  1  0.667253  0.667440  0.437052  1
  Ga  Ga6  1  0.666121  0.665304  0.062453  1
  Ga  Ga7  1  0.334711  0.333836  0.937570  1
  Ga  Ga8  1  0.338652  0.546598  0.250183  1
  Ga  Ga9  1  0.661422  0.453821  0.749879  1
  Ga  Ga10  1  0.546193  0.338682  0.250129  1
  Ga  Ga11  1  0.453385  0.661326  0.749828  1
  Ga  Ga12  1  0.001090  0.333432  0.079067  1
  Ga  Ga13  1  0.998373  0.665234  0.920135  1
  Ga  Ga14  1  0.999357  0.666158  0.579647  1
  Ga  Ga15  1  0.333879  0.000605  0.420265  1
  Ga  Ga16  1  0.001175  0.334359  0.421780  1
  Ga  Ga17  1  0.665617  0.998843  0.578160  1
  Ga  Ga18  1  0.666492  0.998941  0.920969  1
  Ga  Ga19  1  0.334804  0.001621  0.079893  1
  Ga  Ga20  1  0.122651  0.123485  0.250439  1
  Ga  Ga21  1  0.876522  0.877406  0.749583  1
  Os  Os22  1  0.672536  0.327441  0.999966  1
  Rh  Rh23  1  0.000010  0.000006  0.000014  1
  Rh  Rh24  1  0.000276  0.999750  0.500036  1
  Rh  Rh25  1  0.328506  0.671428  0.999974  1
  Rh  Rh26  1  0.328810  0.671177  0.500006  1
  Rh  Rh27  1  0.671463  0.328470  0.500038  1
