# generated using pymatgen
data_TbYLu2(B6Rh)2
_symmetry_space_group_name_H-M   'P 1'
_cell_length_a   3.63235300
_cell_length_b   9.12183002
_cell_length_c   11.47458202
_cell_angle_alpha   89.99281829
_cell_angle_beta   90.00000000
_cell_angle_gamma   90.00000000
_symmetry_Int_Tables_number   1
_chemical_formula_structural   TbYLu2(B6Rh)2
_chemical_formula_sum   'Tb2 Y2 Lu4 B24 Rh4'
_cell_volume   380.19543146
_cell_formula_units_Z   2
loop_
 _symmetry_equiv_pos_site_id
 _symmetry_equiv_pos_as_xyz
  1  'x, y, z'
loop_
 _atom_site_type_symbol
 _atom_site_label
 _atom_site_symmetry_multiplicity
 _atom_site_fract_x
 _atom_site_fract_y
 _atom_site_fract_z
 _atom_site_occupancy
  Tb  Tb0  1  0.500000  0.178424  0.913998  1
  Tb  Tb1  1  0.500000  0.821576  0.086002  1
  Y  Y2  1  0.500000  0.321433  0.414052  1
  Y  Y3  1  0.500000  0.678567  0.585948  1
  Lu  Lu4  1  0.500000  0.444272  0.127044  1
  Lu  Lu5  1  0.500000  0.555728  0.872956  1
  Lu  Lu6  1  0.500000  0.055733  0.627060  1
  Lu  Lu7  1  0.500000  0.944267  0.372940  1
  B  B8  1  0.000000  0.105061  0.471754  1
  B  B9  1  0.000000  0.894939  0.528246  1
  B  B10  1  0.000000  0.395101  0.971823  1
  B  B11  1  0.000000  0.604899  0.028177  1
  B  B12  1  0.000000  0.131767  0.317075  1
  B  B13  1  0.000000  0.868233  0.682925  1
  B  B14  1  0.000000  0.368255  0.817065  1
  B  B15  1  0.000000  0.631745  0.182935  1
  B  B16  1  0.000000  0.054634  0.065976  1
  B  B17  1  0.000000  0.945366  0.934024  1
  B  B18  1  0.000000  0.445460  0.565781  1
  B  B19  1  0.000000  0.554540  0.434219  1
  B  B20  1  0.000000  0.482899  0.285909  1
  B  B21  1  0.000000  0.517101  0.714091  1
  B  B22  1  0.000000  0.017001  0.785898  1
  B  B23  1  0.000000  0.982999  0.214102  1
  B  B24  1  0.000000  0.251354  0.080506  1
  B  B25  1  0.000000  0.748646  0.919494  1
  B  B26  1  0.000000  0.248678  0.580438  1
  B  B27  1  0.000000  0.751322  0.419562  1
  B  B28  1  0.000000  0.294811  0.235936  1
  B  B29  1  0.000000  0.705189  0.764064  1
  B  B30  1  0.000000  0.205312  0.735838  1
  B  B31  1  0.000000  0.794688  0.264162  1
  Rh  Rh32  1  0.500000  0.140422  0.180271  1
  Rh  Rh33  1  0.500000  0.859578  0.819729  1
  Rh  Rh34  1  0.500000  0.359551  0.680301  1
  Rh  Rh35  1  0.500000  0.640449  0.319699  1
