# generated using pymatgen
data_Nd2Re14(MoC)3
_symmetry_space_group_name_H-M   'P 1'
_cell_length_a   7.07224424
_cell_length_b   7.07224379
_cell_length_c   7.10296346
_cell_angle_alpha   82.72519126
_cell_angle_beta   82.72519890
_cell_angle_gamma   82.75425151
_symmetry_Int_Tables_number   1
_chemical_formula_structural   Nd2Re14(MoC)3
_chemical_formula_sum   'Nd2 Re14 Mo3 C3'
_cell_volume   347.37484624
_cell_formula_units_Z   1
loop_
 _symmetry_equiv_pos_site_id
 _symmetry_equiv_pos_as_xyz
  1  'x, y, z'
loop_
 _atom_site_type_symbol
 _atom_site_label
 _atom_site_symmetry_multiplicity
 _atom_site_fract_x
 _atom_site_fract_y
 _atom_site_fract_z
 _atom_site_occupancy
  Nd  Nd0  1  0.650410  0.650410  0.650460  1
  Nd  Nd1  1  0.349482  0.349482  0.349430  1
  Re  Re2  1  0.000710  0.000710  0.498392  1
  Re  Re3  1  0.498710  0.000495  0.000789  1
  Re  Re4  1  0.000495  0.498710  0.000789  1
  Re  Re5  1  0.717936  0.281768  0.000129  1
  Re  Re6  1  0.001905  0.719677  0.280204  1
  Re  Re7  1  0.279933  0.998306  0.719390  1
  Re  Re8  1  0.998306  0.279933  0.719390  1
  Re  Re9  1  0.719677  0.001905  0.280204  1
  Re  Re10  1  0.281768  0.717936  0.000129  1
  Re  Re11  1  0.347048  0.863475  0.348332  1
  Re  Re12  1  0.863475  0.347048  0.348332  1
  Re  Re13  1  0.652024  0.138392  0.650960  1
  Re  Re14  1  0.138392  0.652024  0.650960  1
  Re  Re15  1  0.096482  0.096482  0.099331  1
  Mo  Mo16  1  0.345144  0.345144  0.859070  1
  Mo  Mo17  1  0.654158  0.654158  0.142608  1
  Mo  Mo18  1  0.903970  0.903970  0.900810  1
  C  C19  1  0.499984  0.499984  0.000068  1
  C  C20  1  0.999974  0.500017  0.500111  1
  C  C21  1  0.500017  0.999974  0.500111  1
