# generated using pymatgen
data_Tm10Ga3SiSb2
_symmetry_space_group_name_H-M   'P 1'
_cell_length_a   8.56395100
_cell_length_b   8.56054848
_cell_length_c   6.29989000
_cell_angle_alpha   90.00000000
_cell_angle_beta   90.00000000
_cell_angle_gamma   120.04028682
_symmetry_Int_Tables_number   1
_chemical_formula_structural   Tm10Ga3SiSb2
_chemical_formula_sum   'Tm10 Ga3 Si1 Sb2'
_cell_volume   399.81852726
_cell_formula_units_Z   1
loop_
 _symmetry_equiv_pos_site_id
 _symmetry_equiv_pos_as_xyz
  1  'x, y, z'
loop_
 _atom_site_type_symbol
 _atom_site_label
 _atom_site_symmetry_multiplicity
 _atom_site_fract_x
 _atom_site_fract_y
 _atom_site_fract_z
 _atom_site_occupancy
  Tm  Tm0  1  0.314029  0.656174  0.999738  1
  Tm  Tm1  1  0.672453  0.336146  0.500295  1
  Tm  Tm2  1  0.672453  0.336146  0.999705  1
  Tm  Tm3  1  0.314029  0.656174  0.500262  1
  Tm  Tm4  1  0.232844  0.000155  0.250000  1
  Tm  Tm5  1  0.232345  0.233713  0.750000  1
  Tm  Tm6  1  0.012691  0.763366  0.750000  1
  Tm  Tm7  1  0.012998  0.248525  0.250000  1
  Tm  Tm8  1  0.765642  0.752375  0.250000  1
  Tm  Tm9  1  0.766041  0.014660  0.750000  1
  Ga  Ga10  1  0.997645  0.601495  0.250000  1
  Ga  Ga11  1  0.399349  0.397027  0.250000  1
  Ga  Ga12  1  0.399501  0.003069  0.750000  1
  Si  Si13  1  0.997394  0.394961  0.750000  1
  Sb  Sb14  1  0.605117  0.995319  0.250000  1
  Sb  Sb15  1  0.605466  0.610694  0.750000  1
