# generated using pymatgen
data_Rb2SmU(AuSe3)2
_symmetry_space_group_name_H-M   'P 1'
_cell_length_a   8.05197678
_cell_length_b   8.05197698
_cell_length_c   10.82188052
_cell_angle_alpha   89.17978046
_cell_angle_beta   89.17978111
_cell_angle_gamma   30.45943364
_symmetry_Int_Tables_number   1
_chemical_formula_structural   Rb2SmU(AuSe3)2
_chemical_formula_sum   'Rb2 Sm1 U1 Au2 Se6'
_cell_volume   355.63656971
_cell_formula_units_Z   1
loop_
 _symmetry_equiv_pos_site_id
 _symmetry_equiv_pos_as_xyz
  1  'x, y, z'
loop_
 _atom_site_type_symbol
 _atom_site_label
 _atom_site_symmetry_multiplicity
 _atom_site_fract_x
 _atom_site_fract_y
 _atom_site_fract_z
 _atom_site_occupancy
  Rb  Rb0  1  0.748328  0.748328  0.237685  1
  Rb  Rb1  1  0.251672  0.251672  0.762314  1
  Sm  Sm2  1  0.000000  0.000000  0.000000  1
  U  U3  1  0.000000  0.000000  0.500001  1
  Au  Au4  1  0.455191  0.455191  0.249342  1
  Au  Au5  1  0.544809  0.544809  0.750657  1
  Se  Se6  1  0.064576  0.064576  0.262521  1
  Se  Se7  1  0.935424  0.935424  0.737478  1
  Se  Se8  1  0.372225  0.372225  0.047125  1
  Se  Se9  1  0.619931  0.619931  0.536018  1
  Se  Se10  1  0.627775  0.627775  0.952874  1
  Se  Se11  1  0.380069  0.380069  0.463982  1
