# generated using pymatgen
data_Dy5Y(Tm2Bi3)2
_symmetry_space_group_name_H-M   'P 1'
_cell_length_a   8.21954400
_cell_length_b   9.48133700
_cell_length_c   12.02953200
_cell_angle_alpha   90.00214603
_cell_angle_beta   90.00000000
_cell_angle_gamma   90.00000000
_symmetry_Int_Tables_number   1
_chemical_formula_structural   Dy5Y(Tm2Bi3)2
_chemical_formula_sum   'Dy10 Y2 Tm8 Bi12'
_cell_volume   937.48869517
_cell_formula_units_Z   2
loop_
 _symmetry_equiv_pos_site_id
 _symmetry_equiv_pos_as_xyz
  1  'x, y, z'
loop_
 _atom_site_type_symbol
 _atom_site_label
 _atom_site_symmetry_multiplicity
 _atom_site_fract_x
 _atom_site_fract_y
 _atom_site_fract_z
 _atom_site_occupancy
  Dy  Dy0  1  0.186437  0.749666  0.718876  1
  Dy  Dy1  1  0.686437  0.750334  0.781124  1
  Dy  Dy2  1  0.813562  0.249667  0.281128  1
  Dy  Dy3  1  0.313562  0.250333  0.218872  1
  Dy  Dy4  1  0.693662  0.563074  0.059713  1
  Dy  Dy5  1  0.193662  0.936926  0.440287  1
  Dy  Dy6  1  0.306318  0.062972  0.940410  1
  Dy  Dy7  1  0.806318  0.437028  0.559590  1
  Dy  Dy8  1  0.354069  0.750058  0.215943  1
  Dy  Dy9  1  0.854069  0.749942  0.284057  1
  Y  Y10  1  0.646007  0.250048  0.784250  1
  Y  Y11  1  0.146007  0.249952  0.715750  1
  Tm  Tm12  1  0.025255  0.750193  0.988898  1
  Tm  Tm13  1  0.525255  0.749807  0.511102  1
  Tm  Tm14  1  0.974734  0.250198  0.011172  1
  Tm  Tm15  1  0.474734  0.249802  0.488828  1
  Tm  Tm16  1  0.306577  0.434407  0.940523  1
  Tm  Tm17  1  0.806577  0.065593  0.559477  1
  Tm  Tm18  1  0.693401  0.934328  0.059591  1
  Tm  Tm19  1  0.193401  0.565672  0.440409  1
  Bi  Bi20  1  0.434148  0.003520  0.672443  1
  Bi  Bi21  1  0.934148  0.496480  0.827557  1
  Bi  Bi22  1  0.565881  0.503660  0.327518  1
  Bi  Bi23  1  0.065881  0.996340  0.172482  1
  Bi  Bi24  1  0.566631  0.996029  0.327610  1
  Bi  Bi25  1  0.066631  0.503971  0.172390  1
  Bi  Bi26  1  0.433400  0.496165  0.672348  1
  Bi  Bi27  1  0.933400  0.003835  0.827652  1
  Bi  Bi28  1  0.407279  0.748000  0.957838  1
  Bi  Bi29  1  0.907279  0.752000  0.542162  1
  Bi  Bi30  1  0.592639  0.248002  0.042151  1
  Bi  Bi31  1  0.092639  0.251998  0.457849  1
