# generated using pymatgen
data_Pr4UP12Ru19
_symmetry_space_group_name_H-M   'P 1'
_cell_length_a   12.67725400
_cell_length_b   12.67951352
_cell_length_c   3.98749700
_cell_angle_alpha   90.00000000
_cell_angle_beta   90.00000000
_cell_angle_gamma   119.99410530
_symmetry_Int_Tables_number   1
_chemical_formula_structural   Pr4UP12Ru19
_chemical_formula_sum   'Pr4 U1 P12 Ru19'
_cell_volume   555.11706386
_cell_formula_units_Z   1
loop_
 _symmetry_equiv_pos_site_id
 _symmetry_equiv_pos_as_xyz
  1  'x, y, z'
loop_
 _atom_site_type_symbol
 _atom_site_label
 _atom_site_symmetry_multiplicity
 _atom_site_fract_x
 _atom_site_fract_y
 _atom_site_fract_z
 _atom_site_occupancy
  Pr  Pr0  1  0.000819  0.813120  0.500000  1
  Pr  Pr1  1  0.187698  0.186880  0.500000  1
  Pr  Pr2  1  0.335804  0.668213  0.000000  1
  Pr  Pr3  1  0.667593  0.331787  0.000000  1
  U  U4  1  0.820929  0.000000  0.500000  1
  P  P5  1  0.185135  0.000000  0.000000  1
  P  P6  1  0.003174  0.189178  0.000000  1
  P  P7  1  0.813996  0.810822  0.000000  1
  P  P8  1  0.523608  0.693176  0.500000  1
  P  P9  1  0.306155  0.829899  0.500000  1
  P  P10  1  0.169383  0.476148  0.500000  1
  P  P11  1  0.476257  0.170101  0.500000  1
  P  P12  1  0.693234  0.523852  0.500000  1
  P  P13  1  0.830432  0.306824  0.500000  1
  P  P14  1  0.624725  0.000000  0.000000  1
  P  P15  1  0.999346  0.622801  0.000000  1
  P  P16  1  0.376545  0.377199  0.000000  1
  Ru  Ru17  1  0.445019  0.000000  0.000000  1
  Ru  Ru18  1  0.993960  0.439753  0.000000  1
  Ru  Ru19  1  0.554207  0.560247  0.000000  1
  Ru  Ru20  1  0.284374  0.000000  0.500000  1
  Ru  Ru21  1  0.997094  0.281975  0.500000  1
  Ru  Ru22  1  0.715119  0.718025  0.500000  1
  Ru  Ru23  1  0.632226  0.816532  0.000000  1
  Ru  Ru24  1  0.194382  0.815578  0.000000  1
  Ru  Ru25  1  0.182787  0.379500  0.000000  1
  Ru  Ru26  1  0.378804  0.184422  0.000000  1
  Ru  Ru27  1  0.803287  0.620500  0.000000  1
  Ru  Ru28  1  0.815695  0.183468  0.000000  1
  Ru  Ru29  1  0.511378  0.875478  0.500000  1
  Ru  Ru30  1  0.122243  0.631865  0.500000  1
  Ru  Ru31  1  0.365214  0.490815  0.500000  1
  Ru  Ru32  1  0.490378  0.368135  0.500000  1
  Ru  Ru33  1  0.874399  0.509185  0.500000  1
  Ru  Ru34  1  0.635899  0.124522  0.500000  1
  Ru  Ru35  1  0.988701  0.000000  0.000000  1
