# generated using pymatgen
data_Y2MnSi2RuC
_symmetry_space_group_name_H-M   'P 1'
_cell_length_a   5.78704291
_cell_length_b   5.78704171
_cell_length_c   6.87184965
_cell_angle_alpha   126.76465258
_cell_angle_beta   126.76464073
_cell_angle_gamma   40.43712022
_symmetry_Int_Tables_number   1
_chemical_formula_structural   Y2MnSi2RuC
_chemical_formula_sum   'Y2 Mn1 Si2 Ru1 C1'
_cell_volume   114.96416013
_cell_formula_units_Z   1
loop_
 _symmetry_equiv_pos_site_id
 _symmetry_equiv_pos_as_xyz
  1  'x, y, z'
loop_
 _atom_site_type_symbol
 _atom_site_label
 _atom_site_symmetry_multiplicity
 _atom_site_fract_x
 _atom_site_fract_y
 _atom_site_fract_z
 _atom_site_occupancy
  Y  Y0  1  0.563739  0.563739  0.295418  1
  Y  Y1  1  0.436763  0.436763  0.703895  1
  Mn  Mn2  1  0.795967  0.795967  0.901638  1
  Si  Si3  1  0.849343  0.849343  0.293364  1
  Si  Si4  1  0.159597  0.159597  0.710320  1
  Ru  Ru5  1  0.204272  0.204272  0.100493  1
  C  C6  1  0.990319  0.990319  0.994872  1
