# generated using pymatgen
data_Sm4MnB16Ru3
_symmetry_space_group_name_H-M   'P 1'
_cell_length_a   3.58188400
_cell_length_b   6.00426146
_cell_length_c   11.61551050
_cell_angle_alpha   89.81916008
_cell_angle_beta   90.00000000
_cell_angle_gamma   90.00000000
_symmetry_Int_Tables_number   1
_chemical_formula_structural   Sm4MnB16Ru3
_chemical_formula_sum   'Sm4 Mn1 B16 Ru3'
_cell_volume   249.80852270
_cell_formula_units_Z   1
loop_
 _symmetry_equiv_pos_site_id
 _symmetry_equiv_pos_as_xyz
  1  'x, y, z'
loop_
 _atom_site_type_symbol
 _atom_site_label
 _atom_site_symmetry_multiplicity
 _atom_site_fract_x
 _atom_site_fract_y
 _atom_site_fract_z
 _atom_site_occupancy
  Sm  Sm0  1  0.000000  0.374914  0.648943  1
  Sm  Sm1  1  0.000000  0.624936  0.349836  1
  Sm  Sm2  1  0.000000  0.873128  0.850128  1
  Sm  Sm3  1  0.000000  0.126696  0.151686  1
  Mn  Mn4  1  0.000000  0.132145  0.411634  1
  B  B5  1  0.500000  0.025224  0.689675  1
  B  B6  1  0.500000  0.977437  0.311167  1
  B  B7  1  0.500000  0.527295  0.809350  1
  B  B8  1  0.500000  0.473121  0.191134  1
  B  B9  1  0.500000  0.387953  0.046244  1
  B  B10  1  0.500000  0.611484  0.954268  1
  B  B11  1  0.500000  0.889797  0.453818  1
  B  B12  1  0.500000  0.112243  0.545174  1
  B  B13  1  0.500000  0.279514  0.317854  1
  B  B14  1  0.500000  0.717270  0.683455  1
  B  B15  1  0.500000  0.783407  0.185782  1
  B  B16  1  0.500000  0.215912  0.814614  1
  B  B17  1  0.500000  0.359470  0.467733  1
  B  B18  1  0.500000  0.638704  0.530926  1
  B  B19  1  0.500000  0.861792  0.031508  1
  B  B20  1  0.500000  0.137925  0.969204  1
  Ru  Ru21  1  0.000000  0.361046  0.907530  1
  Ru  Ru22  1  0.000000  0.637928  0.091575  1
  Ru  Ru23  1  0.000000  0.870658  0.586762  1
