# generated using pymatgen
data_YbHfH6
_symmetry_space_group_name_H-M   'P 1'
_cell_length_a   6.24936800
_cell_length_b   6.31975900
_cell_length_c   6.24936800
_cell_angle_alpha   90.00000000
_cell_angle_beta   90.00000000
_cell_angle_gamma   90.00000000
_symmetry_Int_Tables_number   1
_chemical_formula_structural   YbHfH6
_chemical_formula_sum   'Yb4 Hf4 H24'
_cell_volume   246.81566237
_cell_formula_units_Z   4
loop_
 _symmetry_equiv_pos_site_id
 _symmetry_equiv_pos_as_xyz
  1  'x, y, z'
loop_
 _atom_site_type_symbol
 _atom_site_label
 _atom_site_symmetry_multiplicity
 _atom_site_fract_x
 _atom_site_fract_y
 _atom_site_fract_z
 _atom_site_occupancy
  Yb  Yb0  1  0.242874  0.000000  0.500000  1
  Yb  Yb1  1  0.757126  0.000000  0.500000  1
  Yb  Yb2  1  0.000000  0.500000  0.257126  1
  Yb  Yb3  1  0.000000  0.500000  0.742874  1
  Hf  Hf4  1  0.000000  0.000000  0.000000  1
  Hf  Hf5  1  0.500000  0.500000  0.500000  1
  Hf  Hf6  1  0.500000  0.750000  0.000000  1
  Hf  Hf7  1  0.500000  0.250000  0.000000  1
  H  H8  1  0.000000  0.153636  0.283499  1
  H  H9  1  0.500000  0.223249  0.672400  1
  H  H10  1  0.500000  0.776751  0.327600  1
  H  H11  1  0.783499  0.653636  0.500000  1
  H  H12  1  0.216501  0.653636  0.500000  1
  H  H13  1  0.353378  0.500000  0.820974  1
  H  H14  1  0.646622  0.500000  0.820974  1
  H  H15  1  0.320974  0.000000  0.146622  1
  H  H16  1  0.172400  0.276751  0.000000  1
  H  H17  1  0.827600  0.723249  0.000000  1
  H  H18  1  0.320974  0.000000  0.853378  1
  H  H19  1  0.827600  0.276751  0.000000  1
  H  H20  1  0.679026  0.000000  0.146622  1
  H  H21  1  0.679026  0.000000  0.853378  1
  H  H22  1  0.172400  0.723249  0.000000  1
  H  H23  1  0.000000  0.846364  0.716501  1
  H  H24  1  0.000000  0.153636  0.716501  1
  H  H25  1  0.000000  0.846364  0.283499  1
  H  H26  1  0.646622  0.500000  0.179026  1
  H  H27  1  0.353378  0.500000  0.179026  1
  H  H28  1  0.783499  0.346364  0.500000  1
  H  H29  1  0.216501  0.346364  0.500000  1
  H  H30  1  0.500000  0.776751  0.672400  1
  H  H31  1  0.500000  0.223249  0.327600  1
