# generated using pymatgen
data_Eu4Tm(AlSb3)2
_symmetry_space_group_name_H-M   'P 1'
_cell_length_a   4.43558400
_cell_length_b   7.68526400
_cell_length_c   23.15573300
_cell_angle_alpha   90.00000000
_cell_angle_beta   90.00000000
_cell_angle_gamma   90.00000000
_symmetry_Int_Tables_number   1
_chemical_formula_structural   Eu4Tm(AlSb3)2
_chemical_formula_sum   'Eu8 Tm2 Al4 Sb12'
_cell_volume   789.34730803
_cell_formula_units_Z   2
loop_
 _symmetry_equiv_pos_site_id
 _symmetry_equiv_pos_as_xyz
  1  'x, y, z'
loop_
 _atom_site_type_symbol
 _atom_site_label
 _atom_site_symmetry_multiplicity
 _atom_site_fract_x
 _atom_site_fract_y
 _atom_site_fract_z
 _atom_site_occupancy
  Eu  Eu0  1  0.000000  0.465535  0.917349  1
  Eu  Eu1  1  0.000000  0.284119  0.747413  1
  Eu  Eu2  1  0.000000  0.784119  0.752587  1
  Eu  Eu3  1  0.000000  0.534465  0.082651  1
  Eu  Eu4  1  0.000000  0.965535  0.582651  1
  Eu  Eu5  1  0.000000  0.715881  0.252587  1
  Eu  Eu6  1  0.000000  0.034465  0.417349  1
  Eu  Eu7  1  0.000000  0.215881  0.247413  1
  Tm  Tm8  1  0.000000  0.000000  0.000000  1
  Tm  Tm9  1  0.000000  0.500000  0.500000  1
  Al  Al10  1  0.500000  0.830866  0.880928  1
  Al  Al11  1  0.500000  0.169134  0.119072  1
  Al  Al12  1  0.500000  0.669134  0.380928  1
  Al  Al13  1  0.500000  0.330866  0.619072  1
  Sb  Sb14  1  0.500000  0.774379  0.493945  1
  Sb  Sb15  1  0.000000  0.462777  0.366171  1
  Sb  Sb16  1  0.000000  0.962777  0.133829  1
  Sb  Sb17  1  0.500000  0.533106  0.813961  1
  Sb  Sb18  1  0.500000  0.466894  0.186039  1
  Sb  Sb19  1  0.000000  0.037223  0.866171  1
  Sb  Sb20  1  0.000000  0.537223  0.633829  1
  Sb  Sb21  1  0.500000  0.966894  0.313961  1
  Sb  Sb22  1  0.500000  0.225621  0.506055  1
  Sb  Sb23  1  0.500000  0.033106  0.686039  1
  Sb  Sb24  1  0.500000  0.274379  0.006055  1
  Sb  Sb25  1  0.500000  0.725621  0.993945  1
