# generated using pymatgen
data_Th8Nb11Si16Mo
_symmetry_space_group_name_H-M   'P 1'
_cell_length_a   7.18572443
_cell_length_b   7.18569777
_cell_length_c   13.37966974
_cell_angle_alpha   89.90738723
_cell_angle_beta   89.97521760
_cell_angle_gamma   89.99606062
_symmetry_Int_Tables_number   1
_chemical_formula_structural   Th8Nb11Si16Mo
_chemical_formula_sum   'Th8 Nb11 Si16 Mo1'
_cell_volume   690.85083872
_cell_formula_units_Z   1
loop_
 _symmetry_equiv_pos_site_id
 _symmetry_equiv_pos_as_xyz
  1  'x, y, z'
loop_
 _atom_site_type_symbol
 _atom_site_label
 _atom_site_symmetry_multiplicity
 _atom_site_fract_x
 _atom_site_fract_y
 _atom_site_fract_z
 _atom_site_occupancy
  Th  Th0  1  0.999478  0.337038  0.219338  1
  Th  Th1  1  0.001763  0.663575  0.717257  1
  Th  Th2  1  0.162010  0.499924  0.467778  1
  Th  Th3  1  0.500503  0.837020  0.032908  1
  Th  Th4  1  0.837004  0.501592  0.968173  1
  Th  Th5  1  0.498563  0.162135  0.531037  1
  Th  Th6  1  0.336908  0.998622  0.781703  1
  Th  Th7  1  0.663430  0.000446  0.281627  1
  Nb  Nb8  1  0.167730  0.167457  0.000544  1
  Nb  Nb9  1  0.831955  0.832045  0.499580  1
  Nb  Nb10  1  0.331285  0.668013  0.250392  1
  Nb  Nb11  1  0.668054  0.331818  0.749568  1
  Nb  Nb12  1  0.839536  0.004558  0.873918  1
  Nb  Nb13  1  0.502050  0.660915  0.623642  1
  Nb  Nb14  1  0.339853  0.495982  0.876078  1
  Nb  Nb15  1  0.494948  0.337934  0.124620  1
  Nb  Nb16  1  0.660507  0.504042  0.375904  1
  Nb  Nb17  1  0.996510  0.160360  0.625732  1
  Nb  Nb18  1  0.003242  0.839704  0.125518  1
  Si  Si19  1  0.287054  0.037656  0.188824  1
  Si  Si20  1  0.711435  0.960277  0.685677  1
  Si  Si21  1  0.458098  0.789184  0.435493  1
  Si  Si22  1  0.210999  0.539077  0.063963  1
  Si  Si23  1  0.539758  0.211025  0.936417  1
  Si  Si24  1  0.787449  0.460174  0.563622  1
  Si  Si25  1  0.040303  0.289122  0.813683  1
  Si  Si26  1  0.964512  0.716731  0.313953  1
  Si  Si27  1  0.375764  0.295910  0.314172  1
  Si  Si28  1  0.624185  0.701606  0.813103  1
  Si  Si29  1  0.199712  0.877184  0.560608  1
  Si  Si30  1  0.124029  0.798983  0.936816  1
  Si  Si31  1  0.798158  0.124458  0.063793  1
  Si  Si32  1  0.879717  0.198259  0.436585  1
  Si  Si33  1  0.298332  0.375385  0.686316  1
  Si  Si34  1  0.701662  0.622754  0.186967  1
  Mo  Mo35  1  0.163507  0.999038  0.374687  1
