# generated using pymatgen
data_PuZnAsN
_symmetry_space_group_name_H-M   'P 1'
_cell_length_a   3.93608920
_cell_length_b   3.93608917
_cell_length_c   8.81409900
_cell_angle_alpha   90.00000000
_cell_angle_beta   90.00000000
_cell_angle_gamma   90.00116452
_symmetry_Int_Tables_number   1
_chemical_formula_structural   PuZnAsN
_chemical_formula_sum   'Pu2 Zn2 As2 N2'
_cell_volume   136.55505582
_cell_formula_units_Z   2
loop_
 _symmetry_equiv_pos_site_id
 _symmetry_equiv_pos_as_xyz
  1  'x, y, z'
loop_
 _atom_site_type_symbol
 _atom_site_label
 _atom_site_symmetry_multiplicity
 _atom_site_fract_x
 _atom_site_fract_y
 _atom_site_fract_z
 _atom_site_occupancy
  Pu  Pu0  1  0.500000  0.500000  0.123907  1
  Pu  Pu1  1  0.000000  0.000000  0.876093  1
  Zn  Zn2  1  0.500001  0.000000  0.500000  1
  Zn  Zn3  1  0.000000  0.500001  0.500000  1
  As  As4  1  0.000000  0.000000  0.312457  1
  As  As5  1  0.500000  0.500000  0.687543  1
  N  N6  1  0.500001  0.000000  0.000000  1
  N  N7  1  0.000000  0.500001  0.000000  1
