# generated using pymatgen
data_Dy16In4IrOsRu2
_symmetry_space_group_name_H-M   'P 1'
_cell_length_a   9.66206160
_cell_length_b   9.66943551
_cell_length_c   9.66943417
_cell_angle_alpha   59.75712564
_cell_angle_beta   59.69529386
_cell_angle_gamma   59.69530255
_symmetry_Int_Tables_number   1
_chemical_formula_structural   Dy16In4IrOsRu2
_chemical_formula_sum   'Dy16 In4 Ir1 Os1 Ru2'
_cell_volume   634.66606884
_cell_formula_units_Z   1
loop_
 _symmetry_equiv_pos_site_id
 _symmetry_equiv_pos_as_xyz
  1  'x, y, z'
loop_
 _atom_site_type_symbol
 _atom_site_label
 _atom_site_symmetry_multiplicity
 _atom_site_fract_x
 _atom_site_fract_y
 _atom_site_fract_z
 _atom_site_occupancy
  Dy  Dy0  1  0.597514  0.599302  0.599302  1
  Dy  Dy1  1  0.598397  0.599833  0.205441  1
  Dy  Dy2  1  0.598397  0.205441  0.599833  1
  Dy  Dy3  1  0.206068  0.598460  0.598460  1
  Dy  Dy4  1  0.059249  0.441112  0.441112  1
  Dy  Dy5  1  0.439202  0.057710  0.057710  1
  Dy  Dy6  1  0.441222  0.058010  0.441094  1
  Dy  Dy7  1  0.058611  0.439805  0.055792  1
  Dy  Dy8  1  0.441222  0.441094  0.058010  1
  Dy  Dy9  1  0.058611  0.055792  0.439805  1
  Dy  Dy10  1  0.189494  0.809544  0.809544  1
  Dy  Dy11  1  0.804138  0.192535  0.192535  1
  Dy  Dy12  1  0.809553  0.189107  0.810737  1
  Dy  Dy13  1  0.193192  0.804574  0.193340  1
  Dy  Dy14  1  0.809553  0.810737  0.189107  1
  Dy  Dy15  1  0.193192  0.193340  0.804574  1
  In  In16  1  0.831946  0.832229  0.832229  1
  In  In17  1  0.832153  0.831963  0.502548  1
  In  In18  1  0.832153  0.502548  0.831963  1
  In  In19  1  0.502063  0.832263  0.832263  1
  Ir  Ir20  1  0.830531  0.391464  0.391464  1
  Os  Os21  1  0.391692  0.389303  0.389303  1
  Ru  Ru22  1  0.390925  0.390919  0.832915  1
  Ru  Ru23  1  0.390925  0.832915  0.390919  1
