# generated using pymatgen
data_Th4In4Cu16Ru3Rh
_symmetry_space_group_name_H-M   'P 1'
_cell_length_a   4.97671100
_cell_length_b   8.45205110
_cell_length_c   10.83860653
_cell_angle_alpha   90.21708397
_cell_angle_beta   90.00000000
_cell_angle_gamma   90.00000000
_symmetry_Int_Tables_number   1
_chemical_formula_structural   Th4In4Cu16Ru3Rh
_chemical_formula_sum   'Th4 In4 Cu16 Ru3 Rh1'
_cell_volume   455.90553972
_cell_formula_units_Z   1
loop_
 _symmetry_equiv_pos_site_id
 _symmetry_equiv_pos_as_xyz
  1  'x, y, z'
loop_
 _atom_site_type_symbol
 _atom_site_label
 _atom_site_symmetry_multiplicity
 _atom_site_fract_x
 _atom_site_fract_y
 _atom_site_fract_z
 _atom_site_occupancy
  Th  Th0  1  0.750000  0.237387  0.938160  1
  Th  Th1  1  0.250000  0.762450  0.062878  1
  Th  Th2  1  0.750000  0.736020  0.560694  1
  Th  Th3  1  0.250000  0.263728  0.438377  1
  In  In4  1  0.750000  0.355122  0.642158  1
  In  In5  1  0.250000  0.644138  0.358162  1
  In  In6  1  0.750000  0.854501  0.857392  1
  In  In7  1  0.250000  0.144322  0.142673  1
  Cu  Cu8  1  0.999856  0.435854  0.187522  1
  Cu  Cu9  1  0.499744  0.563828  0.812246  1
  Cu  Cu10  1  0.499836  0.936196  0.312420  1
  Cu  Cu11  1  0.000529  0.063634  0.687696  1
  Cu  Cu12  1  0.000256  0.563828  0.812246  1
  Cu  Cu13  1  0.500144  0.435854  0.187522  1
  Cu  Cu14  1  0.499471  0.063634  0.687696  1
  Cu  Cu15  1  0.000164  0.936196  0.312420  1
  Cu  Cu16  1  0.750000  0.192449  0.263774  1
  Cu  Cu17  1  0.250000  0.807760  0.734921  1
  Cu  Cu18  1  0.750000  0.692530  0.236085  1
  Cu  Cu19  1  0.250000  0.308049  0.763949  1
  Cu  Cu20  1  0.750000  0.078238  0.485535  1
  Cu  Cu21  1  0.250000  0.922790  0.514235  1
  Cu  Cu22  1  0.750000  0.577972  0.014878  1
  Cu  Cu23  1  0.250000  0.424043  0.985255  1
  Ru  Ru24  1  0.750000  0.461625  0.404022  1
  Ru  Ru25  1  0.250000  0.537387  0.596011  1
  Ru  Ru26  1  0.750000  0.959913  0.095869  1
  Rh  Rh27  1  0.250000  0.040550  0.905205  1
