# generated using pymatgen
data_Tm3HfGa2(B2Ir5)2
_symmetry_space_group_name_H-M   'P 1'
_cell_length_a   9.44780855
_cell_length_b   9.44735847
_cell_length_c   3.19267500
_cell_angle_alpha   90.00000000
_cell_angle_beta   90.00000000
_cell_angle_gamma   90.29207622
_symmetry_Int_Tables_number   1
_chemical_formula_structural   Tm3HfGa2(B2Ir5)2
_chemical_formula_sum   'Tm3 Hf1 Ga2 B4 Ir10'
_cell_volume   284.96436023
_cell_formula_units_Z   1
loop_
 _symmetry_equiv_pos_site_id
 _symmetry_equiv_pos_as_xyz
  1  'x, y, z'
loop_
 _atom_site_type_symbol
 _atom_site_label
 _atom_site_symmetry_multiplicity
 _atom_site_fract_x
 _atom_site_fract_y
 _atom_site_fract_z
 _atom_site_occupancy
  Tm  Tm0  1  0.176381  0.676382  0.000000  1
  Tm  Tm1  1  0.323167  0.176916  0.000000  1
  Tm  Tm2  1  0.676937  0.823169  0.000000  1
  Hf  Hf3  1  0.823427  0.323406  0.000000  1
  Ga  Ga4  1  0.498045  0.500927  0.000000  1
  Ga  Ga5  1  0.000899  0.998066  0.000000  1
  B  B6  1  0.623647  0.123639  0.000000  1
  B  B7  1  0.378734  0.878744  0.000000  1
  B  B8  1  0.120203  0.376589  0.000000  1
  B  B9  1  0.876581  0.620204  0.000000  1
  Ir  Ir10  1  0.502121  0.002102  0.500000  1
  Ir  Ir11  1  0.995843  0.495854  0.500000  1
  Ir  Ir12  1  0.718670  0.563232  0.500000  1
  Ir  Ir13  1  0.279826  0.429946  0.500000  1
  Ir  Ir14  1  0.219131  0.931222  0.500000  1
  Ir  Ir15  1  0.785130  0.076843  0.500000  1
  Ir  Ir16  1  0.431230  0.719148  0.500000  1
  Ir  Ir17  1  0.576864  0.285126  0.500000  1
  Ir  Ir18  1  0.063216  0.218658  0.500000  1
  Ir  Ir19  1  0.929945  0.779826  0.500000  1
