# generated using pymatgen
data_RbGeAsRh2
_symmetry_space_group_name_H-M   'P 1'
_cell_length_a   7.70366781
_cell_length_b   7.70366755
_cell_length_c   7.70366735
_cell_angle_alpha   149.23070734
_cell_angle_beta   149.23070564
_cell_angle_gamma   44.07182782
_symmetry_Int_Tables_number   1
_chemical_formula_structural   RbGeAsRh2
_chemical_formula_sum   'Rb1 Ge1 As1 Rh2'
_cell_volume   119.30964394
_cell_formula_units_Z   1
loop_
 _symmetry_equiv_pos_site_id
 _symmetry_equiv_pos_as_xyz
  1  'x, y, z'
loop_
 _atom_site_type_symbol
 _atom_site_label
 _atom_site_symmetry_multiplicity
 _atom_site_fract_x
 _atom_site_fract_y
 _atom_site_fract_z
 _atom_site_occupancy
  Rb  Rb0  1  0.002308  0.002308  0.000000  1
  Ge  Ge1  1  0.345612  0.345612  0.000000  1
  As  As2  1  0.655012  0.655012  0.000000  1
  Rh  Rh3  1  0.748534  0.248534  0.500000  1
  Rh  Rh4  1  0.248534  0.748534  0.500000  1
