# generated using pymatgen
data_La4SmDy3(TeO6)4
_symmetry_space_group_name_H-M   'P 1'
_cell_length_a   5.48207668
_cell_length_b   9.37765515
_cell_length_c   10.26153295
_cell_angle_alpha   90.06053668
_cell_angle_beta   90.10771501
_cell_angle_gamma   90.10365337
_symmetry_Int_Tables_number   1
_chemical_formula_structural   La4SmDy3(TeO6)4
_chemical_formula_sum   'La4 Sm1 Dy3 Te4 O24'
_cell_volume   527.53330786
_cell_formula_units_Z   1
loop_
 _symmetry_equiv_pos_site_id
 _symmetry_equiv_pos_as_xyz
  1  'x, y, z'
loop_
 _atom_site_type_symbol
 _atom_site_label
 _atom_site_symmetry_multiplicity
 _atom_site_fract_x
 _atom_site_fract_y
 _atom_site_fract_z
 _atom_site_occupancy
  La  La0  1  0.531481  0.219325  0.356525  1
  La  La1  1  0.030917  0.279316  0.643594  1
  La  La2  1  0.470765  0.719767  0.143342  1
  La  La3  1  0.967333  0.779955  0.857928  1
  Sm  Sm4  1  0.977180  0.894304  0.455963  1
  Dy  Dy5  1  0.519457  0.104270  0.955618  1
  Dy  Dy6  1  0.019264  0.396943  0.043910  1
  Dy  Dy7  1  0.483884  0.600523  0.544852  1
  Te  Te8  1  0.464372  0.990616  0.643495  1
  Te  Te9  1  0.968848  0.508602  0.357997  1
  Te  Te10  1  0.532826  0.489413  0.858492  1
  Te  Te11  1  0.034189  0.011443  0.139651  1
  O  O12  1  0.305702  0.144310  0.166438  1
  O  O13  1  0.805028  0.357467  0.832704  1
  O  O14  1  0.700927  0.644884  0.333798  1
  O  O15  1  0.190224  0.860561  0.672280  1
  O  O16  1  0.728028  0.104732  0.564090  1
  O  O17  1  0.227946  0.390440  0.435476  1
  O  O18  1  0.272070  0.606032  0.936779  1
  O  O19  1  0.771827  0.894101  0.062839  1
  O  O20  1  0.672780  0.632694  0.744132  1
  O  O21  1  0.175514  0.867569  0.252588  1
  O  O22  1  0.329698  0.135729  0.757195  1
  O  O23  1  0.825061  0.367847  0.242653  1
  O  O24  1  0.662627  0.949499  0.794692  1
  O  O25  1  0.166206  0.549798  0.206262  1
  O  O26  1  0.336500  0.448942  0.705712  1
  O  O27  1  0.836665  0.053034  0.290720  1
  O  O28  1  0.259923  0.076973  0.505037  1
  O  O29  1  0.759712  0.424774  0.496003  1
  O  O30  1  0.740784  0.573432  0.997438  1
  O  O31  1  0.240932  0.927745  0.001148  1
  O  O32  1  0.111037  0.656843  0.468029  1
  O  O33  1  0.592656  0.837240  0.534594  1
  O  O34  1  0.894623  0.162412  0.032029  1
  O  O35  1  0.393013  0.338467  0.965998  1
