# generated using pymatgen
data_Ce3Th(P2O9)2
_symmetry_space_group_name_H-M   'P 1'
_cell_length_a   5.80696257
_cell_length_b   5.80696161
_cell_length_c   12.82698093
_cell_angle_alpha   90.17750589
_cell_angle_beta   89.82249335
_cell_angle_gamma   103.62547844
_symmetry_Int_Tables_number   1
_chemical_formula_structural   Ce3Th(P2O9)2
_chemical_formula_sum   'Ce3 Th1 P4 O18'
_cell_volume   420.35975445
_cell_formula_units_Z   1
loop_
 _symmetry_equiv_pos_site_id
 _symmetry_equiv_pos_as_xyz
  1  'x, y, z'
loop_
 _atom_site_type_symbol
 _atom_site_label
 _atom_site_symmetry_multiplicity
 _atom_site_fract_x
 _atom_site_fract_y
 _atom_site_fract_z
 _atom_site_occupancy
  Ce  Ce0  1  0.292906  0.707094  0.569663  1
  Ce  Ce1  1  0.707279  0.292721  0.429462  1
  Ce  Ce2  1  0.207466  0.792534  0.073698  1
  Th  Th3  1  0.791803  0.208197  0.928791  1
  P  P4  1  0.387269  0.612731  0.856067  1
  P  P5  1  0.108933  0.891067  0.359326  1
  P  P6  1  0.609721  0.390279  0.144082  1
  P  P7  1  0.891560  0.108440  0.639590  1
  O  O8  1  0.058537  0.941463  0.621936  1
  O  O9  1  0.987257  0.351175  0.583299  1
  O  O10  1  0.142754  0.857246  0.242484  1
  O  O11  1  0.484875  0.853811  0.913647  1
  O  O12  1  0.648825  0.012743  0.583299  1
  O  O13  1  0.443398  0.556602  0.125823  1
  O  O14  1  0.852356  0.484492  0.086480  1
  O  O15  1  0.643127  0.356873  0.260962  1
  O  O16  1  0.941841  0.058159  0.377054  1
  O  O17  1  0.351417  0.986889  0.416066  1
  O  O18  1  0.352112  0.647888  0.739466  1
  O  O19  1  0.515508  0.147644  0.086480  1
  O  O20  1  0.553708  0.446292  0.872756  1
  O  O21  1  0.500307  0.499693  0.500205  1
  O  O22  1  0.858228  0.141772  0.756600  1
  O  O23  1  0.146189  0.515125  0.913647  1
  O  O24  1  0.013111  0.648583  0.416066  1
  O  O25  1  0.009513  0.990487  0.003052  1
