# generated using pymatgen
data_Er4Lu4Re3B24Ru
_symmetry_space_group_name_H-M   'P 1'
_cell_length_a   3.62849300
_cell_length_b   9.07812846
_cell_length_c   11.45207904
_cell_angle_alpha   90.09773363
_cell_angle_beta   90.00000000
_cell_angle_gamma   90.00000000
_symmetry_Int_Tables_number   1
_chemical_formula_structural   Er4Lu4Re3B24Ru
_chemical_formula_sum   'Er4 Lu4 Re3 B24 Ru1'
_cell_volume   377.23008241
_cell_formula_units_Z   1
loop_
 _symmetry_equiv_pos_site_id
 _symmetry_equiv_pos_as_xyz
  1  'x, y, z'
loop_
 _atom_site_type_symbol
 _atom_site_label
 _atom_site_symmetry_multiplicity
 _atom_site_fract_x
 _atom_site_fract_y
 _atom_site_fract_z
 _atom_site_occupancy
  Er  Er0  1  0.000000  0.321287  0.414165  1
  Er  Er1  1  0.000000  0.677850  0.587603  1
  Er  Er2  1  0.000000  0.824118  0.084319  1
  Er  Er3  1  0.000000  0.177358  0.913671  1
  Lu  Lu4  1  0.000000  0.942240  0.370138  1
  Lu  Lu5  1  0.000000  0.055963  0.628970  1
  Lu  Lu6  1  0.000000  0.443488  0.130000  1
  Lu  Lu7  1  0.000000  0.556579  0.871257  1
  Re  Re8  1  0.000000  0.361419  0.678767  1
  Re  Re9  1  0.000000  0.139049  0.180283  1
  Re  Re10  1  0.000000  0.861073  0.820255  1
  B  B11  1  0.500000  0.554119  0.432818  1
  B  B12  1  0.500000  0.446977  0.566477  1
  B  B13  1  0.500000  0.053402  0.066676  1
  B  B14  1  0.500000  0.946927  0.933082  1
  B  B15  1  0.500000  0.749899  0.418736  1
  B  B16  1  0.500000  0.248961  0.580744  1
  B  B17  1  0.500000  0.251019  0.081049  1
  B  B18  1  0.500000  0.749724  0.919162  1
  B  B19  1  0.500000  0.791926  0.265169  1
  B  B20  1  0.500000  0.206858  0.734543  1
  B  B21  1  0.500000  0.293138  0.235347  1
  B  B22  1  0.500000  0.706792  0.765542  1
  B  B23  1  0.500000  0.630909  0.184903  1
  B  B24  1  0.500000  0.369945  0.815047  1
  B  B25  1  0.500000  0.130427  0.315891  1
  B  B26  1  0.500000  0.869297  0.684587  1
  B  B27  1  0.500000  0.981375  0.212367  1
  B  B28  1  0.500000  0.018543  0.787213  1
  B  B29  1  0.500000  0.482841  0.287780  1
  B  B30  1  0.500000  0.518959  0.712445  1
  B  B31  1  0.500000  0.600302  0.028358  1
  B  B32  1  0.500000  0.400329  0.972727  1
  B  B33  1  0.500000  0.098787  0.472081  1
  B  B34  1  0.500000  0.899068  0.527501  1
  Ru  Ru35  1  0.000000  0.639056  0.320328  1
