# generated using pymatgen
data_LiCdCuF6
_symmetry_space_group_name_H-M   'P 1'
_cell_length_a   5.15117500
_cell_length_b   5.15117576
_cell_length_c   9.63566500
_cell_angle_alpha   90.00000000
_cell_angle_beta   90.00000000
_cell_angle_gamma   120.00000153
_symmetry_Int_Tables_number   1
_chemical_formula_structural   LiCdCuF6
_chemical_formula_sum   'Li2 Cd2 Cu2 F12'
_cell_volume   221.42415220
_cell_formula_units_Z   2
loop_
 _symmetry_equiv_pos_site_id
 _symmetry_equiv_pos_as_xyz
  1  'x, y, z'
loop_
 _atom_site_type_symbol
 _atom_site_label
 _atom_site_symmetry_multiplicity
 _atom_site_fract_x
 _atom_site_fract_y
 _atom_site_fract_z
 _atom_site_occupancy
  Li  Li0  1  0.333333  0.666667  0.750000  1
  Li  Li1  1  0.666667  0.333333  0.250000  1
  Cd  Cd2  1  0.000000  0.000000  0.000000  1
  Cd  Cd3  1  0.000000  0.000000  0.500000  1
  Cu  Cu4  1  0.666667  0.333333  0.750000  1
  Cu  Cu5  1  0.333333  0.666667  0.250000  1
  F  F6  1  0.985460  0.349872  0.860993  1
  F  F7  1  0.014540  0.650128  0.139007  1
  F  F8  1  0.364412  0.014540  0.860993  1
  F  F9  1  0.364412  0.349872  0.639007  1
  F  F10  1  0.635588  0.985460  0.139007  1
  F  F11  1  0.635588  0.650128  0.360993  1
  F  F12  1  0.650128  0.635588  0.860993  1
  F  F13  1  0.650128  0.014540  0.639007  1
  F  F14  1  0.349872  0.364412  0.139007  1
  F  F15  1  0.349872  0.985460  0.360993  1
  F  F16  1  0.985460  0.635588  0.639007  1
  F  F17  1  0.014540  0.364412  0.360993  1
