# generated using pymatgen
data_Ba3LiBi2H
_symmetry_space_group_name_H-M   'P 1'
_cell_length_a   5.04117700
_cell_length_b   13.73950900
_cell_length_c   13.99416400
_cell_angle_alpha   90.00000000
_cell_angle_beta   90.00000000
_cell_angle_gamma   90.00000000
_symmetry_Int_Tables_number   1
_chemical_formula_structural   Ba3LiBi2H
_chemical_formula_sum   'Ba12 Li4 Bi8 H4'
_cell_volume   969.28193407
_cell_formula_units_Z   4
loop_
 _symmetry_equiv_pos_site_id
 _symmetry_equiv_pos_as_xyz
  1  'x, y, z'
loop_
 _atom_site_type_symbol
 _atom_site_label
 _atom_site_symmetry_multiplicity
 _atom_site_fract_x
 _atom_site_fract_y
 _atom_site_fract_z
 _atom_site_occupancy
  Ba  Ba0  1  0.250000  0.063717  0.623429  1
  Ba  Ba1  1  0.250000  0.563717  0.876571  1
  Ba  Ba2  1  0.750000  0.936283  0.376571  1
  Ba  Ba3  1  0.750000  0.436283  0.123429  1
  Ba  Ba4  1  0.250000  0.206893  0.295207  1
  Ba  Ba5  1  0.250000  0.706893  0.204793  1
  Ba  Ba6  1  0.750000  0.793107  0.704793  1
  Ba  Ba7  1  0.750000  0.293107  0.795207  1
  Ba  Ba8  1  0.250000  0.371145  0.562080  1
  Ba  Ba9  1  0.250000  0.871145  0.937920  1
  Ba  Ba10  1  0.750000  0.628855  0.437920  1
  Ba  Ba11  1  0.750000  0.128855  0.062080  1
  Li  Li12  1  0.250000  0.141086  0.854030  1
  Li  Li13  1  0.250000  0.641086  0.645970  1
  Li  Li14  1  0.750000  0.858914  0.145970  1
  Li  Li15  1  0.750000  0.358914  0.354030  1
  Bi  Bi16  1  0.250000  0.308805  0.987746  1
  Bi  Bi17  1  0.250000  0.808805  0.512254  1
  Bi  Bi18  1  0.750000  0.691195  0.012254  1
  Bi  Bi19  1  0.750000  0.191195  0.487746  1
  Bi  Bi20  1  0.250000  0.471518  0.323329  1
  Bi  Bi21  1  0.250000  0.971518  0.176671  1
  Bi  Bi22  1  0.750000  0.528482  0.676671  1
  Bi  Bi23  1  0.750000  0.028482  0.823329  1
  H  H24  1  0.250000  0.230895  0.733334  1
  H  H25  1  0.250000  0.730895  0.766666  1
  H  H26  1  0.750000  0.769105  0.266666  1
  H  H27  1  0.750000  0.269105  0.233334  1
