# generated using pymatgen
data_ZnCu3Pd4
_symmetry_space_group_name_H-M   'P 1'
_cell_length_a   5.25249670
_cell_length_b   5.26025458
_cell_length_c   4.28625500
_cell_angle_alpha   90.00000000
_cell_angle_beta   90.00000000
_cell_angle_gamma   110.12544046
_symmetry_Int_Tables_number   1
_chemical_formula_structural   ZnCu3Pd4
_chemical_formula_sum   'Zn1 Cu3 Pd4'
_cell_volume   111.19598930
_cell_formula_units_Z   1
loop_
 _symmetry_equiv_pos_site_id
 _symmetry_equiv_pos_as_xyz
  1  'x, y, z'
loop_
 _atom_site_type_symbol
 _atom_site_label
 _atom_site_symmetry_multiplicity
 _atom_site_fract_x
 _atom_site_fract_y
 _atom_site_fract_z
 _atom_site_occupancy
  Zn  Zn0  1  0.125238  0.373783  0.250000  1
  Cu  Cu1  1  0.625955  0.875192  0.250000  1
  Cu  Cu2  1  0.378316  0.120855  0.750001  1
  Cu  Cu3  1  0.871082  0.629975  0.750001  1
  Pd  Pd4  1  0.625357  0.375334  0.250000  1
  Pd  Pd5  1  0.125185  0.874298  0.250000  1
  Pd  Pd6  1  0.876359  0.127725  0.750001  1
  Pd  Pd7  1  0.372514  0.622842  0.750001  1
