# generated using pymatgen
data_Ca3Yb(NO3)8
_symmetry_space_group_name_H-M   'P 1'
_cell_length_a   7.94571190
_cell_length_b   7.94571155
_cell_length_c   7.94571200
_cell_angle_alpha   89.57275707
_cell_angle_beta   89.57275709
_cell_angle_gamma   89.57275585
_symmetry_Int_Tables_number   1
_chemical_formula_structural   Ca3Yb(NO3)8
_chemical_formula_sum   'Ca3 Yb1 N8 O24'
_cell_volume   501.60560860
_cell_formula_units_Z   1
loop_
 _symmetry_equiv_pos_site_id
 _symmetry_equiv_pos_as_xyz
  1  'x, y, z'
loop_
 _atom_site_type_symbol
 _atom_site_label
 _atom_site_symmetry_multiplicity
 _atom_site_fract_x
 _atom_site_fract_y
 _atom_site_fract_z
 _atom_site_occupancy
  Ca  Ca0  1  0.000000  0.500000  0.500000  1
  Ca  Ca1  1  0.500000  0.500000  0.000000  1
  Ca  Ca2  1  0.500000  0.000000  0.500000  1
  Yb  Yb3  1  0.000000  0.000000  0.000000  1
  N  N4  1  0.333564  0.333564  0.333564  1
  N  N5  1  0.331589  0.165471  0.835791  1
  N  N6  1  0.165471  0.835791  0.331589  1
  N  N7  1  0.835791  0.331589  0.165471  1
  N  N8  1  0.666436  0.666436  0.666436  1
  N  N9  1  0.164209  0.668411  0.834529  1
  N  N10  1  0.834529  0.164209  0.668411  1
  N  N11  1  0.668411  0.834529  0.164209  1
  O  O12  1  0.737723  0.307968  0.043192  1
  O  O13  1  0.190281  0.957644  0.231477  1
  O  O14  1  0.262556  0.811681  0.455194  1
  O  O15  1  0.231477  0.190281  0.957644  1
  O  O16  1  0.237141  0.305593  0.457964  1
  O  O17  1  0.457964  0.237141  0.305593  1
  O  O18  1  0.305593  0.457964  0.237141  1
  O  O19  1  0.188319  0.544806  0.737444  1
  O  O20  1  0.956808  0.262277  0.692032  1
  O  O21  1  0.692032  0.956808  0.262277  1
  O  O22  1  0.042356  0.768523  0.809719  1
  O  O23  1  0.544806  0.737444  0.188319  1
  O  O24  1  0.809719  0.042356  0.768523  1
  O  O25  1  0.737444  0.188319  0.544806  1
  O  O26  1  0.768523  0.809719  0.042356  1
  O  O27  1  0.262277  0.692032  0.956808  1
  O  O28  1  0.762859  0.694407  0.542036  1
  O  O29  1  0.542036  0.762859  0.694407  1
  O  O30  1  0.694407  0.542036  0.762859  1
  O  O31  1  0.811681  0.455194  0.262556  1
  O  O32  1  0.043192  0.737723  0.307968  1
  O  O33  1  0.307968  0.043192  0.737723  1
  O  O34  1  0.957644  0.231477  0.190281  1
  O  O35  1  0.455194  0.262556  0.811681  1
