# generated using pymatgen
data_VPt2Cl13
_symmetry_space_group_name_H-M   'P 1'
_cell_length_a   11.02768200
_cell_length_b   9.25182706
_cell_length_c   10.00383411
_cell_angle_alpha   79.51724870
_cell_angle_beta   90.00000000
_cell_angle_gamma   90.00000000
_symmetry_Int_Tables_number   1
_chemical_formula_structural   VPt2Cl13
_chemical_formula_sum   'V2 Pt4 Cl26'
_cell_volume   1003.61826292
_cell_formula_units_Z   2
loop_
 _symmetry_equiv_pos_site_id
 _symmetry_equiv_pos_as_xyz
  1  'x, y, z'
loop_
 _atom_site_type_symbol
 _atom_site_label
 _atom_site_symmetry_multiplicity
 _atom_site_fract_x
 _atom_site_fract_y
 _atom_site_fract_z
 _atom_site_occupancy
  V  V0  1  0.250000  0.263265  0.507470  1
  V  V1  1  0.750000  0.736735  0.492530  1
  Pt  Pt2  1  0.250000  0.836537  0.104000  1
  Pt  Pt3  1  0.750000  0.163463  0.896000  1
  Pt  Pt4  1  0.250000  0.673599  0.852019  1
  Pt  Pt5  1  0.750000  0.326401  0.147981  1
  Cl  Cl6  1  0.594150  0.807527  0.581799  1
  Cl  Cl7  1  0.094150  0.192473  0.418201  1
  Cl  Cl8  1  0.750000  0.422760  0.906847  1
  Cl  Cl9  1  0.250000  0.577240  0.093153  1
  Cl  Cl10  1  0.893706  0.156881  0.078456  1
  Cl  Cl11  1  0.393706  0.843119  0.921544  1
  Cl  Cl12  1  0.106294  0.843119  0.921544  1
  Cl  Cl13  1  0.606294  0.156881  0.078456  1
  Cl  Cl14  1  0.750000  0.209029  0.371744  1
  Cl  Cl15  1  0.250000  0.790971  0.628256  1
  Cl  Cl16  1  0.899249  0.484514  0.192507  1
  Cl  Cl17  1  0.399249  0.515486  0.807493  1
  Cl  Cl18  1  0.100751  0.515486  0.807493  1
  Cl  Cl19  1  0.600751  0.484514  0.192507  1
  Cl  Cl20  1  0.750000  0.911744  0.914598  1
  Cl  Cl21  1  0.250000  0.088256  0.085402  1
  Cl  Cl22  1  0.897867  0.188201  0.730656  1
  Cl  Cl23  1  0.397867  0.811799  0.269344  1
  Cl  Cl24  1  0.102133  0.811799  0.269344  1
  Cl  Cl25  1  0.602133  0.188201  0.730656  1
  Cl  Cl26  1  0.750000  0.812446  0.283307  1
  Cl  Cl27  1  0.250000  0.187554  0.716693  1
  Cl  Cl28  1  0.750000  0.507766  0.523296  1
  Cl  Cl29  1  0.250000  0.492234  0.476704  1
  Cl  Cl30  1  0.905850  0.807527  0.581799  1
  Cl  Cl31  1  0.405850  0.192473  0.418201  1
