# generated using pymatgen
data_Nd4Lu4B24MoRu3
_symmetry_space_group_name_H-M   'P 1'
_cell_length_a   3.68460000
_cell_length_b   9.19033223
_cell_length_c   11.64215913
_cell_angle_alpha   89.85635886
_cell_angle_beta   90.00000000
_cell_angle_gamma   90.00000000
_symmetry_Int_Tables_number   1
_chemical_formula_structural   Nd4Lu4B24MoRu3
_chemical_formula_sum   'Nd4 Lu4 B24 Mo1 Ru3'
_cell_volume   394.23368149
_cell_formula_units_Z   1
loop_
 _symmetry_equiv_pos_site_id
 _symmetry_equiv_pos_as_xyz
  1  'x, y, z'
loop_
 _atom_site_type_symbol
 _atom_site_label
 _atom_site_symmetry_multiplicity
 _atom_site_fract_x
 _atom_site_fract_y
 _atom_site_fract_z
 _atom_site_occupancy
  Nd  Nd0  1  0.000000  0.322243  0.413797  1
  Nd  Nd1  1  0.000000  0.677184  0.584571  1
  Nd  Nd2  1  0.000000  0.821619  0.086222  1
  Nd  Nd3  1  0.000000  0.176761  0.915229  1
  Lu  Lu4  1  0.000000  0.945610  0.372037  1
  Lu  Lu5  1  0.000000  0.057095  0.629110  1
  Lu  Lu6  1  0.000000  0.443838  0.127651  1
  Lu  Lu7  1  0.000000  0.556386  0.870376  1
  B  B8  1  0.500000  0.553663  0.432504  1
  B  B9  1  0.500000  0.443677  0.570490  1
  B  B10  1  0.500000  0.056701  0.070386  1
  B  B11  1  0.500000  0.943323  0.929834  1
  B  B12  1  0.500000  0.753628  0.418335  1
  B  B13  1  0.500000  0.249398  0.583939  1
  B  B14  1  0.500000  0.250978  0.083523  1
  B  B15  1  0.500000  0.748751  0.916240  1
  B  B16  1  0.500000  0.794951  0.265425  1
  B  B17  1  0.500000  0.208343  0.734016  1
  B  B18  1  0.500000  0.291447  0.233018  1
  B  B19  1  0.500000  0.708766  0.766108  1
  B  B20  1  0.500000  0.629938  0.183046  1
  B  B21  1  0.500000  0.369574  0.815241  1
  B  B22  1  0.500000  0.129848  0.314340  1
  B  B23  1  0.500000  0.870526  0.685168  1
  B  B24  1  0.500000  0.985391  0.214421  1
  B  B25  1  0.500000  0.014953  0.786176  1
  B  B26  1  0.500000  0.480693  0.284550  1
  B  B27  1  0.500000  0.514356  0.714536  1
  B  B28  1  0.500000  0.599354  0.025495  1
  B  B29  1  0.500000  0.400490  0.972285  1
  B  B30  1  0.500000  0.099782  0.473664  1
  B  B31  1  0.500000  0.902203  0.527841  1
  Mo  Mo32  1  0.000000  0.639628  0.319096  1
  Ru  Ru33  1  0.000000  0.358844  0.682568  1
  Ru  Ru34  1  0.000000  0.140202  0.180652  1
  Ru  Ru35  1  0.000000  0.859855  0.818108  1
