# generated using pymatgen
data_YTm(BIr)8
_symmetry_space_group_name_H-M   'P 1'
_cell_length_a   7.62235000
_cell_length_b   7.62235000
_cell_length_c   4.00126600
_cell_angle_alpha   90.00000000
_cell_angle_beta   90.00000000
_cell_angle_gamma   90.00000000
_symmetry_Int_Tables_number   1
_chemical_formula_structural   YTm(BIr)8
_chemical_formula_sum   'Y1 Tm1 B8 Ir8'
_cell_volume   232.47443297
_cell_formula_units_Z   1
loop_
 _symmetry_equiv_pos_site_id
 _symmetry_equiv_pos_as_xyz
  1  'x, y, z'
loop_
 _atom_site_type_symbol
 _atom_site_label
 _atom_site_symmetry_multiplicity
 _atom_site_fract_x
 _atom_site_fract_y
 _atom_site_fract_z
 _atom_site_occupancy
  Y  Y0  1  0.500000  0.500000  0.500000  1
  Tm  Tm1  1  0.000000  0.000000  0.000000  1
  B  B2  1  0.342117  0.778670  0.888360  1
  B  B3  1  0.657883  0.221330  0.888360  1
  B  B4  1  0.778670  0.657883  0.111640  1
  B  B5  1  0.221330  0.342117  0.111640  1
  B  B6  1  0.277965  0.157803  0.387945  1
  B  B7  1  0.722035  0.842197  0.387945  1
  B  B8  1  0.842197  0.277965  0.612055  1
  B  B9  1  0.157803  0.722035  0.612055  1
  Ir  Ir10  1  0.390171  0.159549  0.886904  1
  Ir  Ir11  1  0.609829  0.840451  0.886904  1
  Ir  Ir12  1  0.840451  0.390171  0.113096  1
  Ir  Ir13  1  0.159549  0.609829  0.113096  1
  Ir  Ir14  1  0.339034  0.890986  0.386175  1
  Ir  Ir15  1  0.660966  0.109014  0.386175  1
  Ir  Ir16  1  0.890986  0.660966  0.613825  1
  Ir  Ir17  1  0.109014  0.339034  0.613825  1
