# generated using pymatgen
data_Pr10Cd3GaRu6
_symmetry_space_group_name_H-M   'P 1'
_cell_length_a   8.69747657
_cell_length_b   8.74039466
_cell_length_c   8.69747520
_cell_angle_alpha   109.57120439
_cell_angle_beta   109.37104513
_cell_angle_gamma   109.57121906
_symmetry_Int_Tables_number   1
_chemical_formula_structural   Pr10Cd3GaRu6
_chemical_formula_sum   'Pr10 Cd3 Ga1 Ru6'
_cell_volume   508.34458091
_cell_formula_units_Z   1
loop_
 _symmetry_equiv_pos_site_id
 _symmetry_equiv_pos_as_xyz
  1  'x, y, z'
loop_
 _atom_site_type_symbol
 _atom_site_label
 _atom_site_symmetry_multiplicity
 _atom_site_fract_x
 _atom_site_fract_y
 _atom_site_fract_z
 _atom_site_occupancy
  Pr  Pr0  1  0.247241  0.683406  0.437379  1
  Pr  Pr1  1  0.751155  0.818639  0.072639  1
  Pr  Pr2  1  0.427361  0.246000  0.678516  1
  Pr  Pr3  1  0.690138  0.436165  0.252759  1
  Pr  Pr4  1  0.062621  0.746027  0.809862  1
  Pr  Pr5  1  0.821484  0.067484  0.748845  1
  Pr  Pr6  1  0.214252  0.214617  0.212832  1
  Pr  Pr7  1  0.498581  0.000366  0.285748  1
  Pr  Pr8  1  0.287168  0.501785  0.001419  1
  Pr  Pr9  1  0.000000  0.276818  0.500000  1
  Cd  Cd10  1  0.592522  0.593789  0.592554  1
  Cd  Cd11  1  0.500033  0.001267  0.907478  1
  Cd  Cd12  1  0.907446  0.501235  0.999967  1
  Ga  Ga13  1  0.000000  0.910355  0.500000  1
  Ru  Ru14  1  0.231033  0.123582  0.863188  1
  Ru  Ru15  1  0.747173  0.360220  0.607969  1
  Ru  Ru16  1  0.892030  0.252251  0.139204  1
  Ru  Ru17  1  0.132155  0.892548  0.268967  1
  Ru  Ru18  1  0.636812  0.760395  0.367845  1
  Ru  Ru19  1  0.360796  0.613048  0.752827  1
