# generated using pymatgen
data_Tb3Dy5Np4O24
_symmetry_space_group_name_H-M   'P 1'
_cell_length_a   5.53897600
_cell_length_b   7.84534023
_cell_length_c   11.86779958
_cell_angle_alpha   73.84911319
_cell_angle_beta   90.00000000
_cell_angle_gamma   90.00000000
_symmetry_Int_Tables_number   1
_chemical_formula_structural   Tb3Dy5Np4O24
_chemical_formula_sum   'Tb3 Dy5 Np4 O24'
_cell_volume   495.36295388
_cell_formula_units_Z   1
loop_
 _symmetry_equiv_pos_site_id
 _symmetry_equiv_pos_as_xyz
  1  'x, y, z'
loop_
 _atom_site_type_symbol
 _atom_site_label
 _atom_site_symmetry_multiplicity
 _atom_site_fract_x
 _atom_site_fract_y
 _atom_site_fract_z
 _atom_site_occupancy
  Tb  Tb0  1  0.744267  0.000000  0.750000  1
  Tb  Tb1  1  0.697955  0.500000  0.750000  1
  Tb  Tb2  1  0.301929  0.500000  0.250000  1
  Dy  Dy3  1  0.256101  0.000000  0.250000  1
  Dy  Dy4  1  0.187445  0.795069  0.579281  1
  Dy  Dy5  1  0.812670  0.795130  0.079446  1
  Dy  Dy6  1  0.187445  0.204931  0.920719  1
  Dy  Dy7  1  0.812670  0.204870  0.420554  1
  Np  Np8  1  0.255028  0.720432  0.886964  1
  Np  Np9  1  0.744899  0.720903  0.386733  1
  Np  Np10  1  0.255028  0.279568  0.613036  1
  Np  Np11  1  0.744899  0.279097  0.113267  1
  O  O12  1  0.044883  0.943365  0.897025  1
  O  O13  1  0.551386  0.848941  0.931965  1
  O  O14  1  0.956100  0.943608  0.396486  1
  O  O15  1  0.448476  0.799793  0.727142  1
  O  O16  1  0.448222  0.849429  0.431468  1
  O  O17  1  0.965416  0.713760  0.766785  1
  O  O18  1  0.550581  0.800510  0.227102  1
  O  O19  1  0.875252  0.627891  0.554288  1
  O  O20  1  0.387645  0.481069  0.884116  1
  O  O21  1  0.034794  0.714191  0.266752  1
  O  O22  1  0.387645  0.518931  0.615884  1
  O  O23  1  0.875252  0.372109  0.945712  1
  O  O24  1  0.124576  0.627677  0.054447  1
  O  O25  1  0.612499  0.481337  0.384009  1
  O  O26  1  0.965416  0.286240  0.733215  1
  O  O27  1  0.612499  0.518663  0.115991  1
  O  O28  1  0.124576  0.372323  0.445553  1
  O  O29  1  0.448476  0.200207  0.772858  1
  O  O30  1  0.034794  0.285809  0.233248  1
  O  O31  1  0.551386  0.151059  0.568035  1
  O  O32  1  0.550581  0.199490  0.272898  1
  O  O33  1  0.044883  0.056635  0.602975  1
  O  O34  1  0.448222  0.150571  0.068532  1
  O  O35  1  0.956100  0.056392  0.103514  1
