# generated using pymatgen
data_Zr10Al12Rh7
_symmetry_space_group_name_H-M   'P 1'
_cell_length_a   8.94647421
_cell_length_b   8.94647429
_cell_length_c   8.94647300
_cell_angle_alpha   60.00000109
_cell_angle_beta   60.00000077
_cell_angle_gamma   60.00000510
_symmetry_Int_Tables_number   1
_chemical_formula_structural   Zr10Al12Rh7
_chemical_formula_sum   'Zr10 Al12 Rh7'
_cell_volume   506.33822325
_cell_formula_units_Z   1
loop_
 _symmetry_equiv_pos_site_id
 _symmetry_equiv_pos_as_xyz
  1  'x, y, z'
loop_
 _atom_site_type_symbol
 _atom_site_label
 _atom_site_symmetry_multiplicity
 _atom_site_fract_x
 _atom_site_fract_y
 _atom_site_fract_z
 _atom_site_occupancy
  Zr  Zr0  1  0.687278  0.687278  0.312722  1
  Zr  Zr1  1  0.312722  0.687278  0.312722  1
  Zr  Zr2  1  0.687278  0.312722  0.312722  1
  Zr  Zr3  1  0.312722  0.312722  0.687278  1
  Zr  Zr4  1  0.687278  0.312722  0.687278  1
  Zr  Zr5  1  0.312722  0.687278  0.687278  1
  Zr  Zr6  1  0.880215  0.880215  0.359353  1
  Zr  Zr7  1  0.880215  0.359353  0.880215  1
  Zr  Zr8  1  0.359353  0.880215  0.880215  1
  Zr  Zr9  1  0.880215  0.880215  0.880215  1
  Al  Al10  1  0.122399  0.122399  0.632804  1
  Al  Al11  1  0.122399  0.632804  0.122399  1
  Al  Al12  1  0.632804  0.122399  0.122399  1
  Al  Al13  1  0.122399  0.122399  0.122399  1
  Al  Al14  1  0.660716  0.660716  0.017852  1
  Al  Al15  1  0.660716  0.017852  0.660716  1
  Al  Al16  1  0.017852  0.660716  0.660716  1
  Al  Al17  1  0.660716  0.660716  0.660716  1
  Al  Al18  1  0.336360  0.336360  0.990922  1
  Al  Al19  1  0.336360  0.990922  0.336360  1
  Al  Al20  1  0.990922  0.336360  0.336360  1
  Al  Al21  1  0.336360  0.336360  0.336360  1
  Rh  Rh22  1  0.000000  0.000000  0.000000  1
  Rh  Rh23  1  0.999857  0.999857  0.500143  1
  Rh  Rh24  1  0.500143  0.999857  0.500143  1
  Rh  Rh25  1  0.999857  0.500143  0.500143  1
  Rh  Rh26  1  0.500143  0.500143  0.999857  1
  Rh  Rh27  1  0.999857  0.500143  0.999857  1
  Rh  Rh28  1  0.500143  0.999857  0.999857  1
