# generated using pymatgen
data_TbTm4Ga4P8Ir19
_symmetry_space_group_name_H-M   'P 1'
_cell_length_a   12.89704596
_cell_length_b   12.87992531
_cell_length_c   3.95167400
_cell_angle_alpha   90.00000000
_cell_angle_beta   90.00000000
_cell_angle_gamma   120.03066403
_symmetry_Int_Tables_number   1
_chemical_formula_structural   TbTm4Ga4P8Ir19
_chemical_formula_sum   'Tb1 Tm4 Ga4 P8 Ir19'
_cell_volume   568.30445102
_cell_formula_units_Z   1
loop_
 _symmetry_equiv_pos_site_id
 _symmetry_equiv_pos_as_xyz
  1  'x, y, z'
loop_
 _atom_site_type_symbol
 _atom_site_label
 _atom_site_symmetry_multiplicity
 _atom_site_fract_x
 _atom_site_fract_y
 _atom_site_fract_z
 _atom_site_occupancy
  Tb  Tb0  1  0.180695  0.181208  0.000000  1
  Tm  Tm1  1  0.335365  0.669105  0.500000  1
  Tm  Tm2  1  0.665781  0.331586  0.500000  1
  Tm  Tm3  1  0.818347  0.998958  0.000000  1
  Tm  Tm4  1  0.002498  0.817072  0.000000  1
  Ga  Ga5  1  0.318198  0.833921  0.000000  1
  Ga  Ga6  1  0.357318  0.358379  0.500000  1
  Ga  Ga7  1  0.642012  0.000986  0.500000  1
  Ga  Ga8  1  0.996851  0.638778  0.500000  1
  P  P9  1  0.173749  0.485017  0.000000  1
  P  P10  1  0.521042  0.690370  0.000000  1
  P  P11  1  0.823189  0.306207  0.000000  1
  P  P12  1  0.482678  0.175422  0.000000  1
  P  P13  1  0.691756  0.514569  0.000000  1
  P  P14  1  0.822843  0.818856  0.500000  1
  P  P15  1  0.177837  0.000438  0.500000  1
  P  P16  1  0.999148  0.179249  0.500000  1
  Ir  Ir17  1  0.190174  0.825179  0.500000  1
  Ir  Ir18  1  0.174676  0.382603  0.500000  1
  Ir  Ir19  1  0.626527  0.795945  0.500000  1
  Ir  Ir20  1  0.825395  0.205023  0.500000  1
  Ir  Ir21  1  0.385782  0.178297  0.500000  1
  Ir  Ir22  1  0.791003  0.614947  0.500000  1
  Ir  Ir23  1  0.129063  0.633543  0.000000  1
  Ir  Ir24  1  0.362919  0.498308  0.000000  1
  Ir  Ir25  1  0.521777  0.870601  0.000000  1
  Ir  Ir26  1  0.633756  0.132771  0.000000  1
  Ir  Ir27  1  0.497586  0.366123  0.000000  1
  Ir  Ir28  1  0.865564  0.500194  0.000000  1
  Ir  Ir29  1  0.547793  0.550868  0.500000  1
  Ir  Ir30  1  0.443800  0.992923  0.500000  1
  Ir  Ir31  1  0.997813  0.447406  0.500000  1
  Ir  Ir32  1  0.719808  0.716264  0.000000  1
  Ir  Ir33  1  0.279961  0.007534  0.000000  1
  Ir  Ir34  1  0.999790  0.281910  0.000000  1
  Ir  Ir35  1  0.997507  0.999438  0.500000  1
