# generated using pymatgen
data_TbCe3Ga12Pd
_symmetry_space_group_name_H-M   'P 1'
_cell_length_a   7.58053881
_cell_length_b   7.61579723
_cell_length_c   7.58053826
_cell_angle_alpha   109.56546952
_cell_angle_beta   109.37680921
_cell_angle_gamma   109.56547376
_symmetry_Int_Tables_number   1
_chemical_formula_structural   TbCe3Ga12Pd
_chemical_formula_sum   'Tb1 Ce3 Ga12 Pd1'
_cell_volume   336.50156953
_cell_formula_units_Z   1
loop_
 _symmetry_equiv_pos_site_id
 _symmetry_equiv_pos_as_xyz
  1  'x, y, z'
loop_
 _atom_site_type_symbol
 _atom_site_label
 _atom_site_symmetry_multiplicity
 _atom_site_fract_x
 _atom_site_fract_y
 _atom_site_fract_z
 _atom_site_occupancy
  Tb  Tb0  1  0.000000  0.500000  0.000000  1
  Ce  Ce1  1  0.500000  0.000000  0.000000  1
  Ce  Ce2  1  0.000000  0.000000  0.500000  1
  Ce  Ce3  1  0.500000  0.500000  0.500000  1
  Ga  Ga4  1  0.297050  0.999872  0.297050  1
  Ga  Ga5  1  0.500270  0.250135  0.750135  1
  Ga  Ga6  1  0.000000  0.702822  0.702950  1
  Ga  Ga7  1  0.702950  0.000128  0.702950  1
  Ga  Ga8  1  0.750135  0.500000  0.249865  1
  Ga  Ga9  1  0.249865  0.749865  0.499730  1
  Ga  Ga10  1  0.750135  0.250135  0.500270  1
  Ga  Ga11  1  0.702950  0.702822  0.000000  1
  Ga  Ga12  1  0.249865  0.500000  0.750135  1
  Ga  Ga13  1  0.499730  0.749865  0.249865  1
  Ga  Ga14  1  0.297050  0.297178  0.000000  1
  Ga  Ga15  1  0.000000  0.297178  0.297050  1
  Pd  Pd16  1  0.000000  0.000000  0.000000  1
