# generated using pymatgen
data_TbDy11In2(CoOs)2
_symmetry_space_group_name_H-M   'P 1'
_cell_length_a   8.44279826
_cell_length_b   8.44256590
_cell_length_c   8.44256601
_cell_angle_alpha   112.94519801
_cell_angle_beta   110.04440047
_cell_angle_gamma   105.50868982
_symmetry_Int_Tables_number   1
_chemical_formula_structural   TbDy11In2(CoOs)2
_chemical_formula_sum   'Tb1 Dy11 In2 Co2 Os2'
_cell_volume   461.28824113
_cell_formula_units_Z   1
loop_
 _symmetry_equiv_pos_site_id
 _symmetry_equiv_pos_as_xyz
  1  'x, y, z'
loop_
 _atom_site_type_symbol
 _atom_site_label
 _atom_site_symmetry_multiplicity
 _atom_site_fract_x
 _atom_site_fract_y
 _atom_site_fract_z
 _atom_site_occupancy
  Tb  Tb0  1  0.442396  0.241798  0.200599  1
  Dy  Dy1  1  0.557621  0.758232  0.799388  1
  Dy  Dy2  1  0.041142  0.241772  0.799372  1
  Dy  Dy3  1  0.958848  0.758229  0.200618  1
  Dy  Dy4  1  0.183547  0.284288  0.467851  1
  Dy  Dy5  1  0.816461  0.715741  0.532178  1
  Dy  Dy6  1  0.183547  0.715698  0.899260  1
  Dy  Dy7  1  0.816461  0.284282  0.100720  1
  Dy  Dy8  1  0.324729  0.641308  0.316557  1
  Dy  Dy9  1  0.675280  0.358716  0.683482  1
  Dy  Dy10  1  0.324729  0.008173  0.683421  1
  Dy  Dy11  1  0.675280  0.991798  0.316564  1
  In  In12  1  0.500003  0.500019  0.999984  1
  In  In13  1  0.999949  0.999972  0.999977  1
  Co  Co14  1  0.110811  0.610813  0.499998  1
  Co  Co15  1  0.889222  0.389198  0.500024  1
  Os  Os16  1  0.330706  0.999966  0.330740  1
  Os  Os17  1  0.669264  0.999999  0.669265  1
