# generated using pymatgen
data_Er13Lu7(Bi2Pt)4
_symmetry_space_group_name_H-M   'P 1'
_cell_length_a   7.95686563
_cell_length_b   8.95793614
_cell_length_c   12.34279400
_cell_angle_alpha   89.98439108
_cell_angle_beta   90.04357654
_cell_angle_gamma   90.01274140
_symmetry_Int_Tables_number   1
_chemical_formula_structural   Er13Lu7(Bi2Pt)4
_chemical_formula_sum   'Er13 Lu7 Bi8 Pt4'
_cell_volume   879.75818140
_cell_formula_units_Z   1
loop_
 _symmetry_equiv_pos_site_id
 _symmetry_equiv_pos_as_xyz
  1  'x, y, z'
loop_
 _atom_site_type_symbol
 _atom_site_label
 _atom_site_symmetry_multiplicity
 _atom_site_fract_x
 _atom_site_fract_y
 _atom_site_fract_z
 _atom_site_occupancy
  Er  Er0  1  0.664504  0.749764  0.710600  1
  Er  Er1  1  0.335731  0.249977  0.289294  1
  Er  Er2  1  0.164079  0.250070  0.789592  1
  Er  Er3  1  0.835809  0.749928  0.210558  1
  Er  Er4  1  0.131363  0.749888  0.806837  1
  Er  Er5  1  0.868668  0.250039  0.193290  1
  Er  Er6  1  0.631636  0.250086  0.693520  1
  Er  Er7  1  0.368834  0.749746  0.306484  1
  Er  Er8  1  0.551603  0.750003  0.999405  1
  Er  Er9  1  0.448531  0.249977  0.000514  1
  Er  Er10  1  0.051034  0.250352  0.500457  1
  Er  Er11  1  0.948190  0.749718  0.499393  1
  Er  Er12  1  0.324002  0.953989  0.568665  1
  Lu  Lu13  1  0.825758  0.453501  0.931813  1
  Lu  Lu14  1  0.174213  0.546449  0.068224  1
  Lu  Lu15  1  0.325821  0.546383  0.568235  1
  Lu  Lu16  1  0.174194  0.953535  0.068190  1
  Lu  Lu17  1  0.674286  0.453552  0.431666  1
  Lu  Lu18  1  0.825854  0.046445  0.931804  1
  Lu  Lu19  1  0.674651  0.046338  0.431554  1
  Bi  Bi20  1  0.935812  0.008066  0.672696  1
  Bi  Bi21  1  0.063856  0.992012  0.327571  1
  Bi  Bi22  1  0.436590  0.992094  0.827715  1
  Bi  Bi23  1  0.063656  0.507949  0.327425  1
  Bi  Bi24  1  0.563638  0.007987  0.172482  1
  Bi  Bi25  1  0.936473  0.491955  0.672548  1
  Bi  Bi26  1  0.563658  0.491949  0.172380  1
  Bi  Bi27  1  0.436468  0.507930  0.827501  1
  Pt  Pt28  1  0.924563  0.750007  0.989954  1
  Pt  Pt29  1  0.075469  0.249991  0.010035  1
  Pt  Pt30  1  0.424894  0.250807  0.509849  1
  Pt  Pt31  1  0.576162  0.749515  0.489750  1
