# generated using pymatgen
data_La8In8Ir3Rh5
_symmetry_space_group_name_H-M   'P 1'
_cell_length_a   4.22999100
_cell_length_b   7.85460702
_cell_length_c   17.06146541
_cell_angle_alpha   90.03753594
_cell_angle_beta   90.00000000
_cell_angle_gamma   90.00000000
_symmetry_Int_Tables_number   1
_chemical_formula_structural   La8In8Ir3Rh5
_chemical_formula_sum   'La8 In8 Ir3 Rh5'
_cell_volume   566.86565034
_cell_formula_units_Z   1
loop_
 _symmetry_equiv_pos_site_id
 _symmetry_equiv_pos_as_xyz
  1  'x, y, z'
loop_
 _atom_site_type_symbol
 _atom_site_label
 _atom_site_symmetry_multiplicity
 _atom_site_fract_x
 _atom_site_fract_y
 _atom_site_fract_z
 _atom_site_occupancy
  La  La0  1  0.750000  0.332628  0.438552  1
  La  La1  1  0.250000  0.064002  0.717668  1
  La  La2  1  0.250000  0.555791  0.783526  1
  La  La3  1  0.250000  0.665685  0.561626  1
  La  La4  1  0.750000  0.833522  0.060017  1
  La  La5  1  0.250000  0.163525  0.938875  1
  La  La6  1  0.750000  0.437449  0.218534  1
  La  La7  1  0.750000  0.943733  0.283007  1
  In  In8  1  0.250000  0.118104  0.152644  1
  In  In9  1  0.250000  0.998202  0.435800  1
  In  In10  1  0.750000  0.882455  0.845661  1
  In  In11  1  0.750000  0.999891  0.565416  1
  In  In12  1  0.250000  0.500961  0.066165  1
  In  In13  1  0.750000  0.381815  0.652487  1
  In  In14  1  0.750000  0.499070  0.935894  1
  In  In15  1  0.250000  0.618605  0.346911  1
  Ir  Ir16  1  0.750000  0.249678  0.815534  1
  Ir  Ir17  1  0.250000  0.251287  0.316297  1
  Ir  Ir18  1  0.250000  0.746387  0.934579  1
  Rh  Rh19  1  0.250000  0.243985  0.564251  1
  Rh  Rh20  1  0.250000  0.754719  0.184300  1
  Rh  Rh21  1  0.750000  0.755514  0.434601  1
  Rh  Rh22  1  0.750000  0.257856  0.065061  1
  Rh  Rh23  1  0.750000  0.745136  0.682596  1
