# generated using pymatgen
data_ErPa3(ZnCo2)2
_symmetry_space_group_name_H-M   'P 1'
_cell_length_a   7.18579700
_cell_length_b   7.18579580
_cell_length_c   3.42769200
_cell_angle_alpha   90.00000000
_cell_angle_beta   90.00000000
_cell_angle_gamma   92.38943471
_symmetry_Int_Tables_number   1
_chemical_formula_structural   ErPa3(ZnCo2)2
_chemical_formula_sum   'Er1 Pa3 Zn2 Co4'
_cell_volume   176.83728496
_cell_formula_units_Z   1
loop_
 _symmetry_equiv_pos_site_id
 _symmetry_equiv_pos_as_xyz
  1  'x, y, z'
loop_
 _atom_site_type_symbol
 _atom_site_label
 _atom_site_symmetry_multiplicity
 _atom_site_fract_x
 _atom_site_fract_y
 _atom_site_fract_z
 _atom_site_occupancy
  Er  Er0  1  0.828072  0.671928  0.500000  1
  Pa  Pa1  1  0.674623  0.171730  0.500000  1
  Pa  Pa2  1  0.328270  0.825377  0.500000  1
  Pa  Pa3  1  0.173150  0.326850  0.500000  1
  Zn  Zn4  1  0.509193  0.500950  0.000000  1
  Zn  Zn5  1  0.999050  0.990807  0.000000  1
  Co  Co6  1  0.874662  0.349388  0.000000  1
  Co  Co7  1  0.150612  0.625338  0.000000  1
  Co  Co8  1  0.355434  0.144566  0.000000  1
  Co  Co9  1  0.606934  0.893066  0.000000  1
