# generated using pymatgen
data_Ta4FeNi
_symmetry_space_group_name_H-M   'P 1'
_cell_length_a   5.01419645
_cell_length_b   5.01419721
_cell_length_c   5.01419725
_cell_angle_alpha   104.26128842
_cell_angle_beta   104.26129367
_cell_angle_gamma   120.48491134
_symmetry_Int_Tables_number   1
_chemical_formula_structural   Ta4FeNi
_chemical_formula_sum   'Ta4 Fe1 Ni1'
_cell_volume   94.31448578
_cell_formula_units_Z   1
loop_
 _symmetry_equiv_pos_site_id
 _symmetry_equiv_pos_as_xyz
  1  'x, y, z'
loop_
 _atom_site_type_symbol
 _atom_site_label
 _atom_site_symmetry_multiplicity
 _atom_site_fract_x
 _atom_site_fract_y
 _atom_site_fract_z
 _atom_site_occupancy
  Ta  Ta0  1  0.160757  0.660757  0.821515  1
  Ta  Ta1  1  0.339243  0.160757  0.500000  1
  Ta  Ta2  1  0.660757  0.839243  0.500000  1
  Ta  Ta3  1  0.839243  0.339243  0.178485  1
  Fe  Fe4  1  0.250000  0.250000  0.000000  1
  Ni  Ni5  1  0.750000  0.750000  0.000000  1
