# generated using pymatgen
data_Tb4DyY2RhI12
_symmetry_space_group_name_H-M   'P 1'
_cell_length_a   9.82528131
_cell_length_b   9.82234755
_cell_length_c   9.82529516
_cell_angle_alpha   106.91029082
_cell_angle_beta   106.89882971
_cell_angle_gamma   106.93748643
_symmetry_Int_Tables_number   1
_chemical_formula_structural   Tb4DyY2RhI12
_chemical_formula_sum   'Tb4 Dy1 Y2 Rh1 I12'
_cell_volume   791.49322126
_cell_formula_units_Z   1
loop_
 _symmetry_equiv_pos_site_id
 _symmetry_equiv_pos_as_xyz
  1  'x, y, z'
loop_
 _atom_site_type_symbol
 _atom_site_label
 _atom_site_symmetry_multiplicity
 _atom_site_fract_x
 _atom_site_fract_y
 _atom_site_fract_z
 _atom_site_occupancy
  Tb  Tb0  1  0.704135  0.905069  0.977019  1
  Tb  Tb1  1  0.094913  0.022559  0.296299  1
  Tb  Tb2  1  0.022796  0.296002  0.094632  1
  Tb  Tb3  1  0.295709  0.094534  0.022628  1
  Dy  Dy4  1  0.977238  0.704928  0.905563  1
  Y  Y5  1  0.500000  0.499979  0.499906  1
  Y  Y6  1  0.905223  0.977063  0.703711  1
  Rh  Rh7  1  0.000000  0.999646  0.000187  1
  I  I8  1  0.536453  0.837523  0.612938  1
  I  I9  1  0.837415  0.613387  0.536204  1
  I  I10  1  0.613107  0.535837  0.836884  1
  I  I11  1  0.464235  0.162943  0.387083  1
  I  I12  1  0.162885  0.387130  0.464145  1
  I  I13  1  0.387093  0.464197  0.162822  1
  I  I14  1  0.675917  0.224548  0.070576  1
  I  I15  1  0.223827  0.070349  0.675822  1
  I  I16  1  0.070484  0.675807  0.224082  1
  I  I17  1  0.323746  0.775202  0.929203  1
  I  I18  1  0.775598  0.929524  0.325109  1
  I  I19  1  0.929225  0.323774  0.775185  1
