# generated using pymatgen
data_Tb5Dy6Ho9(CoSb2)4
_symmetry_space_group_name_H-M   'P 1'
_cell_length_a   7.89190644
_cell_length_b   8.76241690
_cell_length_c   12.17927302
_cell_angle_alpha   90.01679139
_cell_angle_beta   89.98382366
_cell_angle_gamma   90.02040324
_symmetry_Int_Tables_number   1
_chemical_formula_structural   Tb5Dy6Ho9(CoSb2)4
_chemical_formula_sum   'Tb5 Dy6 Ho9 Co4 Sb8'
_cell_volume   842.22308805
_cell_formula_units_Z   1
loop_
 _symmetry_equiv_pos_site_id
 _symmetry_equiv_pos_as_xyz
  1  'x, y, z'
loop_
 _atom_site_type_symbol
 _atom_site_label
 _atom_site_symmetry_multiplicity
 _atom_site_fract_x
 _atom_site_fract_y
 _atom_site_fract_z
 _atom_site_occupancy
  Tb  Tb0  1  0.622401  0.750332  0.306000  1
  Tb  Tb1  1  0.121962  0.250148  0.193553  1
  Tb  Tb2  1  0.378398  0.249581  0.694023  1
  Tb  Tb3  1  0.877974  0.749981  0.806297  1
  Tb  Tb4  1  0.320396  0.464555  0.435029  1
  Dy  Dy5  1  0.154624  0.750028  0.203166  1
  Dy  Dy6  1  0.654929  0.249768  0.296578  1
  Dy  Dy7  1  0.845187  0.250000  0.796854  1
  Dy  Dy8  1  0.345121  0.750152  0.703295  1
  Dy  Dy9  1  0.453278  0.750044  0.997808  1
  Dy  Dy10  1  0.952617  0.249772  0.502174  1
  Ho  Ho11  1  0.546855  0.249947  0.002053  1
  Ho  Ho12  1  0.045957  0.750349  0.497986  1
  Ho  Ho13  1  0.822001  0.964333  0.065027  1
  Ho  Ho14  1  0.321977  0.035527  0.435070  1
  Ho  Ho15  1  0.178019  0.464038  0.934918  1
  Ho  Ho16  1  0.678303  0.536134  0.565249  1
  Ho  Ho17  1  0.178007  0.035942  0.934885  1
  Ho  Ho18  1  0.678055  0.963681  0.565256  1
  Ho  Ho19  1  0.821948  0.535644  0.064974  1
  Co  Co20  1  0.433834  0.750333  0.490515  1
  Co  Co21  1  0.933376  0.249988  0.009428  1
  Co  Co22  1  0.567775  0.249391  0.509816  1
  Co  Co23  1  0.066445  0.750010  0.990520  1
  Sb  Sb24  1  0.928938  0.991423  0.327372  1
  Sb  Sb25  1  0.428733  0.008676  0.172503  1
  Sb  Sb26  1  0.071606  0.491803  0.672458  1
  Sb  Sb27  1  0.571392  0.508234  0.827535  1
  Sb  Sb28  1  0.071426  0.008224  0.672519  1
  Sb  Sb29  1  0.571535  0.991737  0.827659  1
  Sb  Sb30  1  0.927927  0.508802  0.327248  1
  Sb  Sb31  1  0.429001  0.491423  0.172230  1
