# generated using pymatgen
data_Tm14Lu6Bi5Sb7
_symmetry_space_group_name_H-M   'P 1'
_cell_length_a   8.05106737
_cell_length_b   9.29012945
_cell_length_c   11.76456359
_cell_angle_alpha   89.96690404
_cell_angle_beta   89.91935231
_cell_angle_gamma   90.11000597
_symmetry_Int_Tables_number   1
_chemical_formula_structural   Tm14Lu6Bi5Sb7
_chemical_formula_sum   'Tm14 Lu6 Bi5 Sb7'
_cell_volume   879.93328135
_cell_formula_units_Z   1
loop_
 _symmetry_equiv_pos_site_id
 _symmetry_equiv_pos_as_xyz
  1  'x, y, z'
loop_
 _atom_site_type_symbol
 _atom_site_label
 _atom_site_symmetry_multiplicity
 _atom_site_fract_x
 _atom_site_fract_y
 _atom_site_fract_z
 _atom_site_occupancy
  Tm  Tm0  1  0.526191  0.247441  0.986602  1
  Tm  Tm1  1  0.349972  0.247049  0.286213  1
  Tm  Tm2  1  0.645020  0.757270  0.714914  1
  Tm  Tm3  1  0.145986  0.757034  0.784774  1
  Tm  Tm4  1  0.858921  0.246463  0.215713  1
  Tm  Tm5  1  0.186054  0.242822  0.782331  1
  Tm  Tm6  1  0.818984  0.752982  0.218592  1
  Tm  Tm7  1  0.312214  0.754463  0.283730  1
  Tm  Tm8  1  0.684666  0.243015  0.717791  1
  Tm  Tm9  1  0.810081  0.564754  0.941127  1
  Tm  Tm10  1  0.693931  0.062274  0.442533  1
  Tm  Tm11  1  0.189443  0.435002  0.058079  1
  Tm  Tm12  1  0.690547  0.435002  0.441675  1
  Tm  Tm13  1  0.309017  0.564960  0.558694  1
  Lu  Lu14  1  0.028331  0.245528  0.511114  1
  Lu  Lu15  1  0.973449  0.754944  0.489235  1
  Lu  Lu16  1  0.471489  0.752711  0.009071  1
  Lu  Lu17  1  0.189404  0.064009  0.059146  1
  Lu  Lu18  1  0.809690  0.936448  0.938013  1
  Lu  Lu19  1  0.308264  0.936618  0.559913  1
  Bi  Bi20  1  0.933707  0.503435  0.673785  1
  Bi  Bi21  1  0.566634  0.003362  0.174684  1
  Bi  Bi22  1  0.065959  0.497011  0.326745  1
  Bi  Bi23  1  0.566215  0.496915  0.174033  1
  Bi  Bi24  1  0.433129  0.504126  0.824543  1
  Sb  Sb25  1  0.407185  0.249061  0.542330  1
  Sb  Sb26  1  0.592437  0.749772  0.458426  1
  Sb  Sb27  1  0.093305  0.751241  0.041588  1
  Sb  Sb28  1  0.906643  0.248681  0.958135  1
  Sb  Sb29  1  0.065818  0.004114  0.327116  1
  Sb  Sb30  1  0.933871  0.996009  0.672380  1
  Sb  Sb31  1  0.433445  0.995484  0.826973  1
