# generated using pymatgen
data_Nd10GaSi4Ge
_symmetry_space_group_name_H-M   'P 1'
_cell_length_a   7.78528100
_cell_length_b   9.05927770
_cell_length_c   7.78528100
_cell_angle_alpha   115.44760796
_cell_angle_beta   90.00000000
_cell_angle_gamma   115.44760796
_symmetry_Int_Tables_number   1
_chemical_formula_structural   Nd10GaSi4Ge
_chemical_formula_sum   'Nd10 Ga1 Si4 Ge1'
_cell_volume   436.08138911
_cell_formula_units_Z   1
loop_
 _symmetry_equiv_pos_site_id
 _symmetry_equiv_pos_as_xyz
  1  'x, y, z'
loop_
 _atom_site_type_symbol
 _atom_site_label
 _atom_site_symmetry_multiplicity
 _atom_site_fract_x
 _atom_site_fract_y
 _atom_site_fract_z
 _atom_site_occupancy
  Nd  Nd0  1  0.973886  0.947772  0.973886  1
  Nd  Nd1  1  0.526114  0.052228  0.526114  1
  Nd  Nd2  1  0.525594  0.716374  0.673845  1
  Nd  Nd3  1  0.190782  0.716374  0.042530  1
  Nd  Nd4  1  0.673845  0.716374  0.190782  1
  Nd  Nd5  1  0.042530  0.716374  0.525594  1
  Nd  Nd6  1  0.457470  0.283626  0.309218  1
  Nd  Nd7  1  0.826155  0.283626  0.974406  1
  Nd  Nd8  1  0.309218  0.283626  0.826155  1
  Nd  Nd9  1  0.974406  0.283626  0.457470  1
  Ga  Ga10  1  0.750000  0.500000  0.750000  1
  Si  Si11  1  0.884111  0.000000  0.615889  1
  Si  Si12  1  0.115889  0.000000  0.384111  1
  Si  Si13  1  0.615889  0.000000  0.115889  1
  Si  Si14  1  0.384111  0.000000  0.884111  1
  Ge  Ge15  1  0.250000  0.500000  0.250000  1
