# generated using pymatgen
data_Tb11ErRu4
_symmetry_space_group_name_H-M   'P 1'
_cell_length_a   6.34369725
_cell_length_b   7.31401058
_cell_length_c   9.24468344
_cell_angle_alpha   90.00988480
_cell_angle_beta   90.15459565
_cell_angle_gamma   90.04427479
_symmetry_Int_Tables_number   1
_chemical_formula_structural   Tb11ErRu4
_chemical_formula_sum   'Tb11 Er1 Ru4'
_cell_volume   428.93191316
_cell_formula_units_Z   1
loop_
 _symmetry_equiv_pos_site_id
 _symmetry_equiv_pos_as_xyz
  1  'x, y, z'
loop_
 _atom_site_type_symbol
 _atom_site_label
 _atom_site_symmetry_multiplicity
 _atom_site_fract_x
 _atom_site_fract_y
 _atom_site_fract_z
 _atom_site_occupancy
  Tb  Tb0  1  0.330016  0.676980  0.064863  1
  Tb  Tb1  1  0.169381  0.177139  0.434296  1
  Tb  Tb2  1  0.669624  0.322918  0.564948  1
  Tb  Tb3  1  0.831152  0.823765  0.935601  1
  Tb  Tb4  1  0.669550  0.322871  0.935521  1
  Tb  Tb5  1  0.830660  0.823117  0.564961  1
  Tb  Tb6  1  0.330394  0.676790  0.434984  1
  Tb  Tb7  1  0.865726  0.539653  0.249611  1
  Tb  Tb8  1  0.634187  0.040469  0.249335  1
  Tb  Tb9  1  0.135108  0.459685  0.750453  1
  Tb  Tb10  1  0.364928  0.960301  0.750595  1
  Er  Er11  1  0.169099  0.176293  0.065383  1
  Ru  Ru12  1  0.041052  0.885394  0.249220  1
  Ru  Ru13  1  0.458141  0.384255  0.249232  1
  Ru  Ru14  1  0.959945  0.115300  0.751256  1
  Ru  Ru15  1  0.541037  0.615072  0.749741  1
