# generated using pymatgen
data_Li12MnFe3P8(O3F2)8
_symmetry_space_group_name_H-M   'P 1'
_cell_length_a   6.45519314
_cell_length_b   7.48428500
_cell_length_c   15.55608500
_cell_angle_alpha   89.99998469
_cell_angle_beta   91.01913365
_cell_angle_gamma   90.00018397
_symmetry_Int_Tables_number   1
_chemical_formula_structural   Li12MnFe3P8(O3F2)8
_chemical_formula_sum   'Li12 Mn1 Fe3 P8 O24 F16'
_cell_volume   751.43454987
_cell_formula_units_Z   1
loop_
 _symmetry_equiv_pos_site_id
 _symmetry_equiv_pos_as_xyz
  1  'x, y, z'
loop_
 _atom_site_type_symbol
 _atom_site_label
 _atom_site_symmetry_multiplicity
 _atom_site_fract_x
 _atom_site_fract_y
 _atom_site_fract_z
 _atom_site_occupancy
  Li  Li0  1  0.502833  0.500829  0.998343  1
  Li  Li1  1  0.497286  0.499096  0.501676  1
  Li  Li2  1  0.499785  0.999883  0.249997  1
  Li  Li3  1  0.500188  0.000026  0.750002  1
  Li  Li4  1  0.253804  0.218011  0.417548  1
  Li  Li5  1  0.264727  0.217793  0.915932  1
  Li  Li6  1  0.731018  0.747909  0.343167  1
  Li  Li7  1  0.739081  0.722039  0.835619  1
  Li  Li8  1  0.746090  0.782074  0.082433  1
  Li  Li9  1  0.735371  0.782201  0.584094  1
  Li  Li10  1  0.268690  0.251903  0.156802  1
  Li  Li11  1  0.261116  0.278069  0.664387  1
  Mn  Mn12  1  0.999836  0.999911  0.249992  1
  Fe  Fe13  1  0.994413  0.500069  0.499233  1
  Fe  Fe14  1  0.000308  0.999956  0.749971  1
  Fe  Fe15  1  0.005797  0.500120  0.000776  1
  P  P16  1  0.258712  0.839258  0.074863  1
  P  P17  1  0.243734  0.838567  0.577695  1
  P  P18  1  0.758936  0.337241  0.173930  1
  P  P19  1  0.752867  0.339218  0.672362  1
  P  P20  1  0.741187  0.160721  0.425164  1
  P  P21  1  0.756385  0.161468  0.922289  1
  P  P22  1  0.240793  0.662628  0.326023  1
  P  P23  1  0.247320  0.660856  0.827662  1
  O  O24  1  0.216794  0.552251  0.408368  1
  O  O25  1  0.229592  0.548974  0.910150  1
  O  O26  1  0.752114  0.040265  0.345997  1
  O  O27  1  0.773821  0.048551  0.840127  1
  O  O28  1  0.782985  0.447614  0.091585  1
  O  O29  1  0.770521  0.451091  0.589870  1
  O  O30  1  0.247750  0.959669  0.154046  1
  O  O31  1  0.226336  0.951457  0.659865  1
  O  O32  1  0.942928  0.269244  0.437559  1
  O  O33  1  0.955885  0.269117  0.938641  1
  O  O34  1  0.042161  0.775390  0.310285  1
  O  O35  1  0.047790  0.768921  0.811326  1
  O  O36  1  0.056990  0.730717  0.062484  1
  O  O37  1  0.044211  0.730966  0.561332  1
  O  O38  1  0.957569  0.224533  0.189665  1
  O  O39  1  0.952436  0.231255  0.688697  1
  O  O40  1  0.545083  0.266331  0.435095  1
  O  O41  1  0.557981  0.263301  0.931861  1
  O  O42  1  0.439817  0.763134  0.316878  1
  O  O43  1  0.445989  0.762321  0.818074  1
  O  O44  1  0.454818  0.733686  0.064899  1
  O  O45  1  0.442110  0.736686  0.568122  1
  O  O46  1  0.559908  0.236758  0.183087  1
  O  O47  1  0.554210  0.237721  0.681959  1
  F  F48  1  0.241554  0.380061  0.055861  1
  F  F49  1  0.231171  0.384302  0.555936  1
  F  F50  1  0.768861  0.889940  0.192507  1
  F  F51  1  0.763480  0.885240  0.692899  1
  F  F52  1  0.758393  0.619908  0.444142  1
  F  F53  1  0.768869  0.615760  0.944064  1
  F  F54  1  0.230978  0.110130  0.307541  1
  F  F55  1  0.236835  0.114853  0.807105  1
  F  F56  1  0.239963  0.985118  0.501821  1
  F  F57  1  0.250309  0.977375  0.995079  1
  F  F58  1  0.766330  0.481493  0.249459  1
  F  F59  1  0.757246  0.485916  0.747870  1
  F  F60  1  0.760166  0.014939  0.998173  1
  F  F61  1  0.749485  0.022615  0.504961  1
  F  F62  1  0.233401  0.518366  0.250502  1
  F  F63  1  0.242885  0.514186  0.752146  1
