# generated using pymatgen
data_DyErIr2O7
_symmetry_space_group_name_H-M   'P 1'
_cell_length_a   7.23019025
_cell_length_b   7.23019058
_cell_length_c   7.25527500
_cell_angle_alpha   59.88517126
_cell_angle_beta   59.88516975
_cell_angle_gamma   59.76623103
_symmetry_Int_Tables_number   1
_chemical_formula_structural   DyErIr2O7
_chemical_formula_sum   'Dy2 Er2 Ir4 O14'
_cell_volume   267.24642092
_cell_formula_units_Z   2
loop_
 _symmetry_equiv_pos_site_id
 _symmetry_equiv_pos_as_xyz
  1  'x, y, z'
loop_
 _atom_site_type_symbol
 _atom_site_label
 _atom_site_symmetry_multiplicity
 _atom_site_fract_x
 _atom_site_fract_y
 _atom_site_fract_z
 _atom_site_occupancy
  Dy  Dy0  1  0.125000  0.125000  0.625000  1
  Dy  Dy1  1  0.125000  0.125000  0.125000  1
  Er  Er2  1  0.625000  0.125000  0.125000  1
  Er  Er3  1  0.125000  0.625000  0.125000  1
  Ir  Ir4  1  0.125000  0.625000  0.625000  1
  Ir  Ir5  1  0.625000  0.125000  0.625000  1
  Ir  Ir6  1  0.625000  0.625000  0.125000  1
  Ir  Ir7  1  0.625000  0.625000  0.625000  1
  O  O8  1  0.712904  0.712904  0.287096  1
  O  O9  1  0.285615  0.285615  0.714385  1
  O  O10  1  0.710687  0.286270  0.716511  1
  O  O11  1  0.286270  0.710687  0.286533  1
  O  O12  1  0.286270  0.710687  0.716511  1
  O  O13  1  0.710687  0.286270  0.286533  1
  O  O14  1  0.537096  0.537096  0.962904  1
  O  O15  1  0.964385  0.964385  0.535615  1
  O  O16  1  0.539313  0.963730  0.533489  1
  O  O17  1  0.963730  0.539313  0.963467  1
  O  O18  1  0.963730  0.539313  0.533489  1
  O  O19  1  0.539313  0.963730  0.963467  1
  O  O20  1  0.250676  0.250676  0.249324  1
  O  O21  1  0.999324  0.999324  0.000676  1
