# generated using pymatgen
data_Er10Co3Rh
_symmetry_space_group_name_H-M   'P 1'
_cell_length_a   6.27837091
_cell_length_b   6.94506591
_cell_length_c   8.49518218
_cell_angle_alpha   96.56363912
_cell_angle_beta   111.61813719
_cell_angle_gamma   89.86606360
_symmetry_Int_Tables_number   1
_chemical_formula_structural   Er10Co3Rh
_chemical_formula_sum   'Er10 Co3 Rh1'
_cell_volume   341.79134508
_cell_formula_units_Z   1
loop_
 _symmetry_equiv_pos_site_id
 _symmetry_equiv_pos_as_xyz
  1  'x, y, z'
loop_
 _atom_site_type_symbol
 _atom_site_label
 _atom_site_symmetry_multiplicity
 _atom_site_fract_x
 _atom_site_fract_y
 _atom_site_fract_z
 _atom_site_occupancy
  Er  Er0  1  0.799909  0.579465  0.813213  1
  Er  Er1  1  0.984290  0.911771  0.189400  1
  Er  Er2  1  0.203623  0.412760  0.188609  1
  Er  Er3  1  0.027273  0.088847  0.811024  1
  Er  Er4  1  0.208270  0.680253  0.564237  1
  Er  Er5  1  0.648060  0.814985  0.432091  1
  Er  Er6  1  0.784282  0.315907  0.432663  1
  Er  Er7  1  0.347695  0.190162  0.562057  1
  Er  Er8  1  0.425751  0.746765  0.002622  1
  Er  Er9  1  0.573012  0.256409  0.004056  1
  Co  Co10  1  0.823928  0.573623  0.221231  1
  Co  Co11  1  0.397247  0.072576  0.220886  1
  Co  Co12  1  0.178028  0.427045  0.778817  1
  Rh  Rh13  1  0.598631  0.929429  0.779093  1
