# generated using pymatgen
data_Tb5EuTa2O14
_symmetry_space_group_name_H-M   'P 1'
_cell_length_a   6.52294996
_cell_length_b   6.52294901
_cell_length_c   7.54999615
_cell_angle_alpha   89.98195799
_cell_angle_beta   90.01804479
_cell_angle_gamma   108.67112304
_symmetry_Int_Tables_number   1
_chemical_formula_structural   Tb5EuTa2O14
_chemical_formula_sum   'Tb5 Eu1 Ta2 O14'
_cell_volume   304.33728122
_cell_formula_units_Z   1
loop_
 _symmetry_equiv_pos_site_id
 _symmetry_equiv_pos_as_xyz
  1  'x, y, z'
loop_
 _atom_site_type_symbol
 _atom_site_label
 _atom_site_symmetry_multiplicity
 _atom_site_fract_x
 _atom_site_fract_y
 _atom_site_fract_z
 _atom_site_occupancy
  Tb  Tb0  1  0.001613  0.464446  0.745215  1
  Tb  Tb1  1  0.001373  0.534266  0.245506  1
  Tb  Tb2  1  0.534266  0.001373  0.754494  1
  Tb  Tb3  1  0.464446  0.001613  0.254785  1
  Tb  Tb4  1  0.537313  0.537313  0.500000  1
  Eu  Eu5  1  0.492660  0.492660  0.000000  1
  Ta  Ta6  1  0.002675  0.002675  0.500000  1
  Ta  Ta7  1  0.999207  0.999207  0.000000  1
  O  O8  1  0.639361  0.361444  0.745137  1
  O  O9  1  0.361444  0.639361  0.254863  1
  O  O10  1  0.933581  0.065133  0.750056  1
  O  O11  1  0.065133  0.933581  0.249944  1
  O  O12  1  0.919674  0.674353  0.527593  1
  O  O13  1  0.070230  0.320485  0.028864  1
  O  O14  1  0.320485  0.070230  0.971136  1
  O  O15  1  0.674353  0.919674  0.472407  1
  O  O16  1  0.369805  0.631537  0.744464  1
  O  O17  1  0.631537  0.369805  0.255536  1
  O  O18  1  0.937650  0.684751  0.962370  1
  O  O19  1  0.050262  0.308180  0.460475  1
  O  O20  1  0.308180  0.050262  0.539525  1
  O  O21  1  0.684751  0.937650  0.037630  1
