# generated using pymatgen
data_NbTc(PO4)3
_symmetry_space_group_name_H-M   'P 1'
_cell_length_a   8.72035828
_cell_length_b   8.71955911
_cell_length_c   9.03770422
_cell_angle_alpha   90.11461609
_cell_angle_beta   118.69227815
_cell_angle_gamma   119.99316346
_symmetry_Int_Tables_number   1
_chemical_formula_structural   NbTc(PO4)3
_chemical_formula_sum   'Nb2 Tc2 P6 O24'
_cell_volume   494.90194263
_cell_formula_units_Z   2
loop_
 _symmetry_equiv_pos_site_id
 _symmetry_equiv_pos_as_xyz
  1  'x, y, z'
loop_
 _atom_site_type_symbol
 _atom_site_label
 _atom_site_symmetry_multiplicity
 _atom_site_fract_x
 _atom_site_fract_y
 _atom_site_fract_z
 _atom_site_occupancy
  Nb  Nb0  1  0.212399  0.357296  0.568919  1
  Nb  Nb1  1  0.785836  0.141764  0.928029  1
  Tc  Tc2  1  0.214001  0.858824  0.072113  1
  Tc  Tc3  1  0.788090  0.642322  0.431385  1
  P  P4  1  0.997153  0.959569  0.247899  1
  P  P5  1  0.288349  0.538378  0.250821  1
  P  P6  1  0.278144  0.751608  0.747751  1
  P  P7  1  0.711318  0.249399  0.252108  1
  P  P8  1  0.723552  0.472383  0.749071  1
  P  P9  1  0.001199  0.028515  0.751744  1
  O  O10  1  0.298071  0.715522  0.227040  1
  O  O11  1  0.864813  0.992078  0.077093  1
  O  O12  1  0.845102  0.851033  0.591555  1
  O  O13  1  0.839383  0.794443  0.273244  1
  O  O14  1  0.148715  0.928876  0.234637  1
  O  O15  1  0.480054  0.547775  0.277466  1
  O  O16  1  0.098399  0.741766  0.580250  1
  O  O17  1  0.906519  0.641990  0.916276  1
  O  O18  1  0.278559  0.774954  0.915278  1
  O  O19  1  0.489342  0.918201  0.778013  1
  O  O20  1  0.736740  0.484113  0.586075  1
  O  O21  1  0.721025  0.429427  0.268605  1
  O  O22  1  0.274454  0.573588  0.718007  1
  O  O23  1  0.271743  0.507095  0.413326  1
  O  O24  1  0.514210  0.082053  0.234362  1
  O  O25  1  0.716668  0.211062  0.087179  1
  O  O26  1  0.085619  0.365902  0.085518  1
  O  O27  1  0.909171  0.274263  0.418231  1
  O  O28  1  0.514313  0.442552  0.708903  1
  O  O29  1  0.863737  0.075066  0.778040  1
  O  O30  1  0.144147  0.197346  0.713507  1
  O  O31  1  0.136549  0.139969  0.406927  1
  O  O32  1  0.151125  0.016943  0.924918  1
  O  O33  1  0.711501  0.293922  0.785711  1
