# generated using pymatgen
data_Eu2CO5
_symmetry_space_group_name_H-M   'P 1'
_cell_length_a   4.03703545
_cell_length_b   4.03703644
_cell_length_c   15.49244600
_cell_angle_alpha   90.00000000
_cell_angle_beta   90.00000000
_cell_angle_gamma   121.28915388
_symmetry_Int_Tables_number   1
_chemical_formula_structural   Eu2CO5
_chemical_formula_sum   'Eu4 C2 O10'
_cell_volume   215.76765505
_cell_formula_units_Z   2
loop_
 _symmetry_equiv_pos_site_id
 _symmetry_equiv_pos_as_xyz
  1  'x, y, z'
loop_
 _atom_site_type_symbol
 _atom_site_label
 _atom_site_symmetry_multiplicity
 _atom_site_fract_x
 _atom_site_fract_y
 _atom_site_fract_z
 _atom_site_occupancy
  Eu  Eu0  1  0.332054  0.667946  0.906150  1
  Eu  Eu1  1  0.667946  0.332054  0.093850  1
  Eu  Eu2  1  0.667946  0.332054  0.406150  1
  Eu  Eu3  1  0.332054  0.667946  0.593850  1
  C  C4  1  0.076819  0.923181  0.750000  1
  C  C5  1  0.923181  0.076819  0.250000  1
  O  O6  1  0.991012  0.008988  0.824155  1
  O  O7  1  0.008988  0.991012  0.175845  1
  O  O8  1  0.008988  0.991012  0.324155  1
  O  O9  1  0.991012  0.008988  0.675845  1
  O  O10  1  0.335481  0.664519  0.444245  1
  O  O11  1  0.664519  0.335481  0.555755  1
  O  O12  1  0.664519  0.335481  0.944245  1
  O  O13  1  0.335481  0.664519  0.055755  1
  O  O14  1  0.260052  0.739948  0.750000  1
  O  O15  1  0.739948  0.260052  0.250000  1
