# generated using pymatgen
data_CaY5NpO12
_symmetry_space_group_name_H-M   'P 1'
_cell_length_a   6.59864779
_cell_length_b   6.60786349
_cell_length_c   6.60317233
_cell_angle_alpha   98.71230337
_cell_angle_beta   98.52178241
_cell_angle_gamma   98.96096023
_symmetry_Int_Tables_number   1
_chemical_formula_structural   CaY5NpO12
_chemical_formula_sum   'Ca1 Y5 Np1 O12'
_cell_volume   276.73730235
_cell_formula_units_Z   1
loop_
 _symmetry_equiv_pos_site_id
 _symmetry_equiv_pos_as_xyz
  1  'x, y, z'
loop_
 _atom_site_type_symbol
 _atom_site_label
 _atom_site_symmetry_multiplicity
 _atom_site_fract_x
 _atom_site_fract_y
 _atom_site_fract_z
 _atom_site_occupancy
  Ca  Ca0  1  0.393834  0.674361  0.852511  1
  Y  Y1  1  0.855215  0.389290  0.672970  1
  Y  Y2  1  0.670572  0.851278  0.390191  1
  Y  Y3  1  0.609693  0.327860  0.146101  1
  Y  Y4  1  0.151634  0.610292  0.328682  1
  Y  Y5  1  0.327776  0.148604  0.612458  1
  Np  Np6  1  0.998525  0.001088  0.001497  1
  O  O7  1  0.173004  0.419206  0.580949  1
  O  O8  1  0.594481  0.177506  0.426121  1
  O  O9  1  0.430379  0.588212  0.181629  1
  O  O10  1  0.824132  0.574143  0.408821  1
  O  O11  1  0.405467  0.826261  0.566313  1
  O  O12  1  0.577213  0.393418  0.822596  1
  O  O13  1  0.919597  0.040038  0.698099  1
  O  O14  1  0.962043  0.302870  0.078325  1
  O  O15  1  0.297269  0.085048  0.962578  1
  O  O16  1  0.079435  0.958841  0.301294  1
  O  O17  1  0.027744  0.701626  0.921333  1
  O  O18  1  0.701989  0.930058  0.047533  1
