# generated using pymatgen
data_ErTm2Lu(Co3Si5)2
_symmetry_space_group_name_H-M   'P 1'
_cell_length_a   7.78657538
_cell_length_b   7.78500068
_cell_length_c   5.44728167
_cell_angle_alpha   70.86235977
_cell_angle_beta   70.84228696
_cell_angle_gamma   93.56301227
_symmetry_Int_Tables_number   1
_chemical_formula_structural   ErTm2Lu(Co3Si5)2
_chemical_formula_sum   'Er1 Tm2 Lu1 Co6 Si10'
_cell_volume   289.30121848
_cell_formula_units_Z   1
loop_
 _symmetry_equiv_pos_site_id
 _symmetry_equiv_pos_as_xyz
  1  'x, y, z'
loop_
 _atom_site_type_symbol
 _atom_site_label
 _atom_site_symmetry_multiplicity
 _atom_site_fract_x
 _atom_site_fract_y
 _atom_site_fract_z
 _atom_site_occupancy
  Er  Er0  1  0.129643  0.403643  0.737124  1
  Tm  Tm1  1  0.596134  0.870259  0.763097  1
  Tm  Tm2  1  0.870114  0.596382  0.263250  1
  Lu  Lu3  1  0.404006  0.129629  0.236342  1
  Co  Co4  1  0.997287  0.002788  0.750007  1
  Co  Co5  1  0.539908  0.261751  0.625573  1
  Co  Co6  1  0.262487  0.540529  0.124904  1
  Co  Co7  1  0.459862  0.738283  0.374583  1
  Co  Co8  1  0.003209  0.997159  0.249891  1
  Co  Co9  1  0.737235  0.459489  0.875428  1
  Si  Si10  1  0.772349  0.226983  0.250443  1
  Si  Si11  1  0.227152  0.773469  0.749640  1
  Si  Si12  1  0.510781  0.488424  0.250458  1
  Si  Si13  1  0.489161  0.510976  0.749848  1
  Si  Si14  1  0.213339  0.787220  0.250124  1
  Si  Si15  1  0.786601  0.213152  0.749607  1
  Si  Si16  1  0.737127  0.933654  0.166176  1
  Si  Si17  1  0.933097  0.737128  0.666457  1
  Si  Si18  1  0.263288  0.066546  0.833415  1
  Si  Si19  1  0.067222  0.262536  0.333635  1
