# generated using pymatgen
data_EuYCuSe3
_symmetry_space_group_name_H-M   'P 1'
_cell_length_a   4.06912100
_cell_length_b   10.64802500
_cell_length_c   13.38204000
_cell_angle_alpha   90.00000000
_cell_angle_beta   90.00000000
_cell_angle_gamma   90.00000000
_symmetry_Int_Tables_number   1
_chemical_formula_structural   EuYCuSe3
_chemical_formula_sum   'Eu4 Y4 Cu4 Se12'
_cell_volume   579.81839591
_cell_formula_units_Z   4
loop_
 _symmetry_equiv_pos_site_id
 _symmetry_equiv_pos_as_xyz
  1  'x, y, z'
loop_
 _atom_site_type_symbol
 _atom_site_label
 _atom_site_symmetry_multiplicity
 _atom_site_fract_x
 _atom_site_fract_y
 _atom_site_fract_z
 _atom_site_occupancy
  Eu  Eu0  1  0.750000  0.756703  0.002945  1
  Eu  Eu1  1  0.250000  0.243297  0.997055  1
  Eu  Eu2  1  0.750000  0.256703  0.497055  1
  Eu  Eu3  1  0.250000  0.743297  0.502945  1
  Y  Y4  1  0.750000  0.006731  0.250793  1
  Y  Y5  1  0.250000  0.993269  0.749207  1
  Y  Y6  1  0.750000  0.506731  0.249207  1
  Y  Y7  1  0.250000  0.493269  0.750793  1
  Cu  Cu8  1  0.750000  0.744219  0.720910  1
  Cu  Cu9  1  0.250000  0.255781  0.279090  1
  Cu  Cu10  1  0.750000  0.244219  0.779090  1
  Cu  Cu11  1  0.250000  0.755781  0.220910  1
  Se  Se12  1  0.750000  0.256050  0.168677  1
  Se  Se13  1  0.250000  0.743950  0.831323  1
  Se  Se14  1  0.750000  0.756050  0.331323  1
  Se  Se15  1  0.250000  0.243950  0.668677  1
  Se  Se16  1  0.750000  0.062089  0.892149  1
  Se  Se17  1  0.250000  0.937911  0.107851  1
  Se  Se18  1  0.750000  0.562089  0.607851  1
  Se  Se19  1  0.250000  0.437911  0.392149  1
  Se  Se20  1  0.750000  0.425089  0.892908  1
  Se  Se21  1  0.250000  0.574911  0.107092  1
  Se  Se22  1  0.750000  0.925089  0.607092  1
  Se  Se23  1  0.250000  0.074911  0.392908  1
