# generated using pymatgen
data_Ni3SnHg2(BrO4)2
_symmetry_space_group_name_H-M   'P 1'
_cell_length_a   5.59786065
_cell_length_b   6.43759382
_cell_length_c   7.23306629
_cell_angle_alpha   63.27264144
_cell_angle_beta   105.12613498
_cell_angle_gamma   89.98295161
_symmetry_Int_Tables_number   1
_chemical_formula_structural   Ni3SnHg2(BrO4)2
_chemical_formula_sum   'Ni3 Sn1 Hg2 Br2 O8'
_cell_volume   222.63868676
_cell_formula_units_Z   1
loop_
 _symmetry_equiv_pos_site_id
 _symmetry_equiv_pos_as_xyz
  1  'x, y, z'
loop_
 _atom_site_type_symbol
 _atom_site_label
 _atom_site_symmetry_multiplicity
 _atom_site_fract_x
 _atom_site_fract_y
 _atom_site_fract_z
 _atom_site_occupancy
  Ni  Ni0  1  0.999036  0.004505  0.496293  1
  Ni  Ni1  1  0.500340  0.250238  0.501894  1
  Ni  Ni2  1  0.003925  0.494525  0.501580  1
  Sn  Sn3  1  0.495009  0.752973  0.497547  1
  Hg  Hg4  1  0.000880  0.487714  0.007764  1
  Hg  Hg5  1  0.501311  0.758884  0.001543  1
  Br  Br6  1  0.993584  0.998413  0.976162  1
  Br  Br7  1  0.500633  0.260519  0.001785  1
  O  O8  1  0.113994  0.828171  0.338535  1
  O  O9  1  0.610112  0.084118  0.337034  1
  O  O10  1  0.116553  0.329565  0.339570  1
  O  O11  1  0.612402  0.585846  0.335484  1
  O  O12  1  0.883205  0.663369  0.669033  1
  O  O13  1  0.390207  0.916467  0.668157  1
  O  O14  1  0.885861  0.165998  0.659117  1
  O  O15  1  0.392947  0.418696  0.668503  1
