# generated using pymatgen
data_Li2U3Pa3Sb10
_symmetry_space_group_name_H-M   'P 1'
_cell_length_a   9.22433500
_cell_length_b   9.22121685
_cell_length_c   6.10101600
_cell_angle_alpha   90.00000000
_cell_angle_beta   90.00000000
_cell_angle_gamma   120.01118294
_symmetry_Int_Tables_number   1
_chemical_formula_structural   Li2U3Pa3Sb10
_chemical_formula_sum   'Li2 U3 Pa3 Sb10'
_cell_volume   449.37317860
_cell_formula_units_Z   1
loop_
 _symmetry_equiv_pos_site_id
 _symmetry_equiv_pos_as_xyz
  1  'x, y, z'
loop_
 _atom_site_type_symbol
 _atom_site_label
 _atom_site_symmetry_multiplicity
 _atom_site_fract_x
 _atom_site_fract_y
 _atom_site_fract_z
 _atom_site_occupancy
  Li  Li0  1  0.998408  0.000000  0.999191  1
  Li  Li1  1  0.998408  0.000000  0.500809  1
  U  U2  1  0.999189  0.384535  0.750000  1
  U  U3  1  0.614654  0.615465  0.750000  1
  U  U4  1  0.614931  0.000000  0.250000  1
  Pa  Pa5  1  0.385993  0.000000  0.750000  1
  Pa  Pa6  1  0.385249  0.385386  0.250000  1
  Pa  Pa7  1  0.999864  0.614614  0.250000  1
  Sb  Sb8  1  0.666625  0.333246  0.499972  1
  Sb  Sb9  1  0.333379  0.666754  0.000028  1
  Sb  Sb10  1  0.735422  0.000000  0.750000  1
  Sb  Sb11  1  0.735937  0.735166  0.250000  1
  Sb  Sb12  1  0.333379  0.666754  0.499972  1
  Sb  Sb13  1  0.666625  0.333246  0.000028  1
  Sb  Sb14  1  0.263777  0.000000  0.250000  1
  Sb  Sb15  1  0.266212  0.265035  0.750000  1
  Sb  Sb16  1  0.001176  0.734965  0.750000  1
  Sb  Sb17  1  0.000771  0.264834  0.250000  1
