# generated using pymatgen
data_DyPu2(ZnPd)3
_symmetry_space_group_name_H-M   'P 1'
_cell_length_a   7.24431676
_cell_length_b   7.21018666
_cell_length_c   3.86047100
_cell_angle_alpha   90.00000000
_cell_angle_beta   90.00000000
_cell_angle_gamma   119.84426729
_symmetry_Int_Tables_number   1
_chemical_formula_structural   DyPu2(ZnPd)3
_chemical_formula_sum   'Dy1 Pu2 Zn3 Pd3'
_cell_volume   174.90178926
_cell_formula_units_Z   1
loop_
 _symmetry_equiv_pos_site_id
 _symmetry_equiv_pos_as_xyz
  1  'x, y, z'
loop_
 _atom_site_type_symbol
 _atom_site_label
 _atom_site_symmetry_multiplicity
 _atom_site_fract_x
 _atom_site_fract_y
 _atom_site_fract_z
 _atom_site_occupancy
  Dy  Dy0  1  0.000000  0.591439  0.500000  1
  Pu  Pu1  1  0.412479  0.409946  0.500000  1
  Pu  Pu2  1  0.587521  0.997467  0.500000  1
  Zn  Zn3  1  0.755038  0.752135  0.000000  1
  Zn  Zn4  1  0.244962  0.997097  0.000000  1
  Zn  Zn5  1  0.000000  0.253213  0.000000  1
  Pd  Pd6  1  0.659291  0.325881  0.000000  1
  Pd  Pd7  1  0.340709  0.666590  0.000000  1
  Pd  Pd8  1  0.000000  0.006233  0.500000  1
