# generated using pymatgen
data_Pr4Ga10CoPd5
_symmetry_space_group_name_H-M   'P 1'
_cell_length_a   8.74939845
_cell_length_b   8.75502254
_cell_length_c   8.75502300
_cell_angle_alpha   140.64912532
_cell_angle_beta   107.89003898
_cell_angle_gamma   85.39287586
_symmetry_Int_Tables_number   1
_chemical_formula_structural   Pr4Ga10CoPd5
_chemical_formula_sum   'Pr4 Ga10 Co1 Pd5'
_cell_volume   390.69561109
_cell_formula_units_Z   1
loop_
 _symmetry_equiv_pos_site_id
 _symmetry_equiv_pos_as_xyz
  1  'x, y, z'
loop_
 _atom_site_type_symbol
 _atom_site_label
 _atom_site_symmetry_multiplicity
 _atom_site_fract_x
 _atom_site_fract_y
 _atom_site_fract_z
 _atom_site_occupancy
  Pr  Pr0  1  0.860154  0.635865  0.224290  1
  Pr  Pr1  1  0.133266  0.362856  0.770411  1
  Pr  Pr2  1  0.411588  0.136253  0.275335  1
  Pr  Pr3  1  0.587779  0.863446  0.724333  1
  Ga  Ga4  1  0.497877  0.743764  0.231879  1
  Ga  Ga5  1  0.497877  0.265998  0.754113  1
  Ga  Ga6  1  0.211325  0.958463  0.748981  1
  Ga  Ga7  1  0.777753  0.543024  0.752884  1
  Ga  Ga8  1  0.777753  0.024869  0.234729  1
  Ga  Ga9  1  0.211325  0.462344  0.252862  1
  Ga  Ga10  1  0.065769  0.902000  0.163769  1
  Ga  Ga11  1  0.932227  0.094576  0.837651  1
  Ga  Ga12  1  0.741312  0.403596  0.337715  1
  Ga  Ga13  1  0.277674  0.599467  0.678207  1
  Co  Co14  1  0.550089  0.643853  0.906237  1
  Pd  Pd15  1  0.005029  0.748561  0.751946  1
  Pd  Pd16  1  0.005029  0.253083  0.256467  1
  Pd  Pd17  1  0.261858  0.857646  0.404212  1
  Pd  Pd18  1  0.741531  0.143531  0.598002  1
  Pd  Pd19  1  0.452788  0.356807  0.095981  1
