# generated using pymatgen
data_Dy4YBi2Rh
_symmetry_space_group_name_H-M   'P 1'
_cell_length_a   8.04698800
_cell_length_b   8.99718800
_cell_length_c   12.47545000
_cell_angle_alpha   90.00000000
_cell_angle_beta   90.00000000
_cell_angle_gamma   90.00000000
_symmetry_Int_Tables_number   1
_chemical_formula_structural   Dy4YBi2Rh
_chemical_formula_sum   'Dy16 Y4 Bi8 Rh4'
_cell_volume   903.22587189
_cell_formula_units_Z   4
loop_
 _symmetry_equiv_pos_site_id
 _symmetry_equiv_pos_as_xyz
  1  'x, y, z'
loop_
 _atom_site_type_symbol
 _atom_site_label
 _atom_site_symmetry_multiplicity
 _atom_site_fract_x
 _atom_site_fract_y
 _atom_site_fract_z
 _atom_site_occupancy
  Dy  Dy0  1  0.375958  0.750000  0.693520  1
  Dy  Dy1  1  0.624042  0.250000  0.306480  1
  Dy  Dy2  1  0.875958  0.250000  0.806480  1
  Dy  Dy3  1  0.124042  0.750000  0.193520  1
  Dy  Dy4  1  0.952810  0.750000  0.501154  1
  Dy  Dy5  1  0.047190  0.250000  0.498846  1
  Dy  Dy6  1  0.452810  0.250000  0.998846  1
  Dy  Dy7  1  0.547190  0.750000  0.001154  1
  Dy  Dy8  1  0.677646  0.041456  0.565691  1
  Dy  Dy9  1  0.322354  0.958544  0.434309  1
  Dy  Dy10  1  0.177646  0.958544  0.934309  1
  Dy  Dy11  1  0.322354  0.541456  0.434309  1
  Dy  Dy12  1  0.822354  0.041456  0.065691  1
  Dy  Dy13  1  0.677646  0.458544  0.565691  1
  Dy  Dy14  1  0.822354  0.458544  0.065691  1
  Dy  Dy15  1  0.177646  0.541456  0.934309  1
  Y  Y16  1  0.840224  0.750000  0.792887  1
  Y  Y17  1  0.159776  0.250000  0.207113  1
  Y  Y18  1  0.340224  0.250000  0.707113  1
  Y  Y19  1  0.659776  0.750000  0.292887  1
  Bi  Bi20  1  0.569261  0.491370  0.826692  1
  Bi  Bi21  1  0.430739  0.508630  0.173308  1
  Bi  Bi22  1  0.069261  0.508630  0.673308  1
  Bi  Bi23  1  0.430739  0.991370  0.173308  1
  Bi  Bi24  1  0.930739  0.491370  0.326692  1
  Bi  Bi25  1  0.569261  0.008630  0.826692  1
  Bi  Bi26  1  0.930739  0.008630  0.326692  1
  Bi  Bi27  1  0.069261  0.991370  0.673308  1
  Rh  Rh28  1  0.570975  0.750000  0.510656  1
  Rh  Rh29  1  0.429025  0.250000  0.489344  1
  Rh  Rh30  1  0.070975  0.250000  0.989344  1
  Rh  Rh31  1  0.929025  0.750000  0.010656  1
