# generated using pymatgen
data_Mg(VPt4)3
_symmetry_space_group_name_H-M   'P 1'
_cell_length_a   5.56441800
_cell_length_b   5.56441857
_cell_length_c   9.05563100
_cell_angle_alpha   90.00000000
_cell_angle_beta   90.00000000
_cell_angle_gamma   119.99999663
_symmetry_Int_Tables_number   1
_chemical_formula_structural   Mg(VPt4)3
_chemical_formula_sum   'Mg1 V3 Pt12'
_cell_volume   242.82248644
_cell_formula_units_Z   1
loop_
 _symmetry_equiv_pos_site_id
 _symmetry_equiv_pos_as_xyz
  1  'x, y, z'
loop_
 _atom_site_type_symbol
 _atom_site_label
 _atom_site_symmetry_multiplicity
 _atom_site_fract_x
 _atom_site_fract_y
 _atom_site_fract_z
 _atom_site_occupancy
  Mg  Mg0  1  0.666667  0.333333  0.750000  1
  V  V1  1  0.000000  0.000000  0.503100  1
  V  V2  1  0.333333  0.666667  0.250000  1
  V  V3  1  0.000000  0.000000  0.996900  1
  Pt  Pt4  1  0.164853  0.329706  0.750000  1
  Pt  Pt5  1  0.005487  0.502744  0.005032  1
  Pt  Pt6  1  0.835186  0.670374  0.250000  1
  Pt  Pt7  1  0.329626  0.164814  0.250000  1
  Pt  Pt8  1  0.497256  0.502744  0.005032  1
  Pt  Pt9  1  0.835186  0.164814  0.250000  1
  Pt  Pt10  1  0.497256  0.502744  0.494968  1
  Pt  Pt11  1  0.497256  0.994513  0.494968  1
  Pt  Pt12  1  0.164853  0.835147  0.750000  1
  Pt  Pt13  1  0.670294  0.835147  0.750000  1
  Pt  Pt14  1  0.497256  0.994513  0.005032  1
  Pt  Pt15  1  0.005487  0.502744  0.494968  1
