# generated using pymatgen
data_NaLaP7Ru12
_symmetry_space_group_name_H-M   'P 1'
_cell_length_a   9.48926600
_cell_length_b   9.48926464
_cell_length_c   3.94296700
_cell_angle_alpha   90.00000000
_cell_angle_beta   90.00000000
_cell_angle_gamma   119.99999685
_symmetry_Int_Tables_number   1
_chemical_formula_structural   NaLaP7Ru12
_chemical_formula_sum   'Na1 La1 P7 Ru12'
_cell_volume   307.48148302
_cell_formula_units_Z   1
loop_
 _symmetry_equiv_pos_site_id
 _symmetry_equiv_pos_as_xyz
  1  'x, y, z'
loop_
 _atom_site_type_symbol
 _atom_site_label
 _atom_site_symmetry_multiplicity
 _atom_site_fract_x
 _atom_site_fract_y
 _atom_site_fract_z
 _atom_site_occupancy
  Na  Na0  1  0.666667  0.333333  0.500000  1
  La  La1  1  0.333333  0.666667  0.000000  1
  P  P2  1  0.606979  0.711951  0.500000  1
  P  P3  1  0.000000  0.000000  0.000000  1
  P  P4  1  0.288049  0.895028  0.500000  1
  P  P5  1  0.104972  0.393021  0.500000  1
  P  P6  1  0.893862  0.583689  0.000000  1
  P  P7  1  0.416311  0.310173  0.000000  1
  P  P8  1  0.689827  0.106138  0.000000  1
  Ru  Ru9  1  0.561097  0.953416  0.500000  1
  Ru  Ru10  1  0.392321  0.438903  0.500000  1
  Ru  Ru11  1  0.912318  0.116596  0.500000  1
  Ru  Ru12  1  0.204278  0.087682  0.500000  1
  Ru  Ru13  1  0.883404  0.795722  0.500000  1
  Ru  Ru14  1  0.727659  0.883597  0.000000  1
  Ru  Ru15  1  0.116403  0.844061  0.000000  1
  Ru  Ru16  1  0.155939  0.272341  0.000000  1
  Ru  Ru17  1  0.428971  0.073314  0.000000  1
  Ru  Ru18  1  0.926686  0.355659  0.000000  1
  Ru  Ru19  1  0.644341  0.571029  0.000000  1
  Ru  Ru20  1  0.046584  0.607679  0.500000  1
