# generated using pymatgen
data_LaTh(Ga2Rh3)2
_symmetry_space_group_name_H-M   'P 1'
_cell_length_a   5.73363442
_cell_length_b   6.83646195
_cell_length_c   6.83646196
_cell_angle_alpha   67.38168835
_cell_angle_beta   65.20692920
_cell_angle_gamma   65.20692928
_symmetry_Int_Tables_number   1
_chemical_formula_structural   LaTh(Ga2Rh3)2
_chemical_formula_sum   'La1 Th1 Ga4 Rh6'
_cell_volume   213.65001074
_cell_formula_units_Z   1
loop_
 _symmetry_equiv_pos_site_id
 _symmetry_equiv_pos_as_xyz
  1  'x, y, z'
loop_
 _atom_site_type_symbol
 _atom_site_label
 _atom_site_symmetry_multiplicity
 _atom_site_fract_x
 _atom_site_fract_y
 _atom_site_fract_z
 _atom_site_occupancy
  La  La0  1  0.449819  0.250000  0.250000  1
  Th  Th1  1  0.570999  0.750000  0.750000  1
  Ga  Ga2  1  0.222801  0.580134  0.580134  1
  Ga  Ga3  1  0.788255  0.414847  0.414847  1
  Ga  Ga4  1  0.117949  0.085153  0.085153  1
  Ga  Ga5  1  0.883070  0.919866  0.919866  1
  Rh  Rh6  1  0.498258  0.216725  0.773061  1
  Rh  Rh7  1  0.988044  0.726939  0.283275  1
  Rh  Rh8  1  0.498258  0.773061  0.216725  1
  Rh  Rh9  1  0.988044  0.283275  0.726939  1
  Rh  Rh10  1  0.997251  0.505258  0.994742  1
  Rh  Rh11  1  0.997251  0.994742  0.505258  1
