# generated using pymatgen
data_TbCeTh(SnRh)3
_symmetry_space_group_name_H-M   'P 1'
_cell_length_a   7.53395359
_cell_length_b   7.56988549
_cell_length_c   4.04734900
_cell_angle_alpha   90.00000000
_cell_angle_beta   90.00000000
_cell_angle_gamma   120.36871396
_symmetry_Int_Tables_number   1
_chemical_formula_structural   TbCeTh(SnRh)3
_chemical_formula_sum   'Tb1 Ce1 Th1 Sn3 Rh3'
_cell_volume   199.15349696
_cell_formula_units_Z   1
loop_
 _symmetry_equiv_pos_site_id
 _symmetry_equiv_pos_as_xyz
  1  'x, y, z'
loop_
 _atom_site_type_symbol
 _atom_site_label
 _atom_site_symmetry_multiplicity
 _atom_site_fract_x
 _atom_site_fract_y
 _atom_site_fract_z
 _atom_site_occupancy
  Tb  Tb0  1  0.592169  0.592235  0.500000  1
  Ce  Ce1  1  0.412241  0.999589  0.500000  1
  Th  Th2  1  0.999615  0.413148  0.500000  1
  Sn  Sn3  1  0.742458  0.990043  0.000000  1
  Sn  Sn4  1  0.993217  0.749343  0.000000  1
  Sn  Sn5  1  0.263224  0.259670  0.000000  1
  Rh  Rh6  1  0.321915  0.666248  0.000000  1
  Rh  Rh7  1  0.670063  0.322823  0.000000  1
  Rh  Rh8  1  0.005098  0.006899  0.500000  1
