# generated using pymatgen
data_PrNdGa2IrPd
_symmetry_space_group_name_H-M   'P 1'
_cell_length_a   4.52023600
_cell_length_b   7.15229300
_cell_length_c   7.79778600
_cell_angle_alpha   90.00000000
_cell_angle_beta   90.00000000
_cell_angle_gamma   90.00000000
_symmetry_Int_Tables_number   1
_chemical_formula_structural   PrNdGa2IrPd
_chemical_formula_sum   'Pr2 Nd2 Ga4 Ir2 Pd2'
_cell_volume   252.10282921
_cell_formula_units_Z   2
loop_
 _symmetry_equiv_pos_site_id
 _symmetry_equiv_pos_as_xyz
  1  'x, y, z'
loop_
 _atom_site_type_symbol
 _atom_site_label
 _atom_site_symmetry_multiplicity
 _atom_site_fract_x
 _atom_site_fract_y
 _atom_site_fract_z
 _atom_site_occupancy
  Pr  Pr0  1  0.250000  0.028453  0.688802  1
  Pr  Pr1  1  0.250000  0.528453  0.811198  1
  Nd  Nd2  1  0.750000  0.980629  0.302669  1
  Nd  Nd3  1  0.750000  0.480629  0.197331  1
  Ga  Ga4  1  0.250000  0.162284  0.078250  1
  Ga  Ga5  1  0.250000  0.662284  0.421750  1
  Ga  Ga6  1  0.750000  0.831514  0.930168  1
  Ga  Ga7  1  0.750000  0.331514  0.569832  1
  Ir  Ir8  1  0.250000  0.283757  0.396947  1
  Ir  Ir9  1  0.250000  0.783757  0.103053  1
  Pd  Pd10  1  0.750000  0.713363  0.601087  1
  Pd  Pd11  1  0.750000  0.213363  0.898913  1
