# generated using pymatgen
data_AgSe36
_symmetry_space_group_name_H-M   'P 1'
_cell_length_a   9.79968660
_cell_length_b   12.51561466
_cell_length_c   11.53289500
_cell_angle_alpha   111.65379138
_cell_angle_beta   114.07307919
_cell_angle_gamma   75.03101422
_symmetry_Int_Tables_number   1
_chemical_formula_structural   AgSe36
_chemical_formula_sum   'Ag1 Se36'
_cell_volume   1190.61441430
_cell_formula_units_Z   1
loop_
 _symmetry_equiv_pos_site_id
 _symmetry_equiv_pos_as_xyz
  1  'x, y, z'
loop_
 _atom_site_type_symbol
 _atom_site_label
 _atom_site_symmetry_multiplicity
 _atom_site_fract_x
 _atom_site_fract_y
 _atom_site_fract_z
 _atom_site_occupancy
  Ag  Ag0  1  0.000000  0.500000  0.000000  1
  Se  Se1  1  0.502274  0.503068  0.688677  1
  Se  Se2  1  0.972978  0.019723  0.649788  1
  Se  Se3  1  0.769246  0.265932  0.838260  1
  Se  Se4  1  0.215921  0.760142  0.829310  1
  Se  Se5  1  0.500000  0.500000  0.000000  1
  Se  Se6  1  0.000000  0.000000  0.000000  1
  Se  Se7  1  0.784079  0.239858  0.170690  1
  Se  Se8  1  0.230754  0.734068  0.161740  1
  Se  Se9  1  0.497726  0.496932  0.311323  1
  Se  Se10  1  0.027022  0.980277  0.350212  1
  Se  Se11  1  0.723954  0.266311  0.471028  1
  Se  Se12  1  0.276046  0.733689  0.528972  1
  Se  Se13  1  0.441705  0.355425  0.754610  1
  Se  Se14  1  0.942290  0.847677  0.760713  1
  Se  Se15  1  0.723673  0.106172  0.926276  1
  Se  Se16  1  0.192851  0.576211  0.930715  1
  Se  Se17  1  0.788153  0.426018  0.744733  1
  Se  Se18  1  0.303523  0.888198  0.755245  1
  Se  Se19  1  0.466380  0.342335  0.088154  1
  Se  Se20  1  0.960581  0.785621  0.111482  1
  Se  Se21  1  0.039419  0.214379  0.888518  1
  Se  Se22  1  0.533620  0.657665  0.911846  1
  Se  Se23  1  0.211847  0.573982  0.255267  1
  Se  Se24  1  0.696477  0.111802  0.244755  1
  Se  Se25  1  0.807149  0.423789  0.069285  1
  Se  Se26  1  0.276327  0.893828  0.073724  1
  Se  Se27  1  0.458212  0.336174  0.423325  1
  Se  Se28  1  0.936996  0.859086  0.426611  1
  Se  Se29  1  0.057710  0.152323  0.239287  1
  Se  Se30  1  0.558295  0.644575  0.245390  1
  Se  Se31  1  0.190748  0.594865  0.581759  1
  Se  Se32  1  0.707069  0.093891  0.597381  1
  Se  Se33  1  0.809252  0.405135  0.418241  1
  Se  Se34  1  0.292931  0.906109  0.402619  1
  Se  Se35  1  0.063004  0.140914  0.573389  1
  Se  Se36  1  0.541788  0.663826  0.576675  1
