# generated using pymatgen
data_Er10Zn3CuSb2
_symmetry_space_group_name_H-M   'P 1'
_cell_length_a   8.46832192
_cell_length_b   8.46832373
_cell_length_c   8.49816499
_cell_angle_alpha   123.97366227
_cell_angle_beta   123.97367863
_cell_angle_gamma   83.01772136
_symmetry_Int_Tables_number   1
_chemical_formula_structural   Er10Zn3CuSb2
_chemical_formula_sum   'Er10 Zn3 Cu1 Sb2'
_cell_volume   402.68252360
_cell_formula_units_Z   1
loop_
 _symmetry_equiv_pos_site_id
 _symmetry_equiv_pos_as_xyz
  1  'x, y, z'
loop_
 _atom_site_type_symbol
 _atom_site_label
 _atom_site_symmetry_multiplicity
 _atom_site_fract_x
 _atom_site_fract_y
 _atom_site_fract_z
 _atom_site_occupancy
  Er  Er0  1  0.000240  0.999684  0.999925  1
  Er  Er1  1  0.500316  0.499760  0.000075  1
  Er  Er2  1  0.792102  0.298825  0.803293  1
  Er  Er3  1  0.201175  0.707898  0.196707  1
  Er  Er4  1  0.488809  0.995533  0.196707  1
  Er  Er5  1  0.302402  0.482543  0.500000  1
  Er  Er6  1  0.017457  0.197598  0.500000  1
  Er  Er7  1  0.504467  0.011191  0.803293  1
  Er  Er8  1  0.703498  0.510256  0.500000  1
  Er  Er9  1  0.989744  0.796502  0.500000  1
  Zn  Zn10  1  0.139047  0.637660  0.776708  1
  Zn  Zn11  1  0.862340  0.360953  0.223292  1
  Zn  Zn12  1  0.635499  0.864501  0.500000  1
  Cu  Cu13  1  0.366572  0.133428  0.500000  1
  Sb  Sb14  1  0.248165  0.251835  0.000000  1
  Sb  Sb15  1  0.748165  0.751835  0.000000  1
