# generated using pymatgen
data_Ac3BiTe3
_symmetry_space_group_name_H-M   'P 1'
_cell_length_a   8.68886267
_cell_length_b   8.69734106
_cell_length_c   8.70632709
_cell_angle_alpha   109.49667507
_cell_angle_beta   109.45724852
_cell_angle_gamma   109.39811468
_symmetry_Int_Tables_number   1
_chemical_formula_structural   Ac3BiTe3
_chemical_formula_sum   'Ac6 Bi2 Te6'
_cell_volume   506.86479571
_cell_formula_units_Z   2
loop_
 _symmetry_equiv_pos_site_id
 _symmetry_equiv_pos_as_xyz
  1  'x, y, z'
loop_
 _atom_site_type_symbol
 _atom_site_label
 _atom_site_symmetry_multiplicity
 _atom_site_fract_x
 _atom_site_fract_y
 _atom_site_fract_z
 _atom_site_occupancy
  Ac  Ac0  1  0.870898  0.122525  0.747636  1
  Ac  Ac1  1  0.377307  0.250223  0.623124  1
  Ac  Ac2  1  0.125379  0.750560  0.875690  1
  Ac  Ac3  1  0.749688  0.874871  0.124310  1
  Ac  Ac4  1  0.254183  0.627098  0.376876  1
  Ac  Ac5  1  0.623263  0.374890  0.252364  1
  Bi  Bi6  1  0.656717  0.656283  0.657072  1
  Bi  Bi7  1  0.499645  0.999212  0.342928  1
  Te  Te8  1  0.000603  0.347610  0.501203  1
  Te  Te9  1  0.346099  0.498438  0.999766  1
  Te  Te10  1  0.999401  0.846407  0.498797  1
  Te  Te11  1  0.846332  0.498671  0.000234  1
  Te  Te12  1  0.152051  0.153415  0.153617  1
  Te  Te13  1  0.498435  0.999799  0.846383  1
