# generated using pymatgen
data_La5Pr6Sm(Si7Br3)2
_symmetry_space_group_name_H-M   'P 1'
_cell_length_a   4.11642900
_cell_length_b   11.87747329
_cell_length_c   16.70113541
_cell_angle_alpha   90.17077965
_cell_angle_beta   90.00000000
_cell_angle_gamma   90.00000000
_symmetry_Int_Tables_number   1
_chemical_formula_structural   La5Pr6Sm(Si7Br3)2
_chemical_formula_sum   'La5 Pr6 Sm1 Si14 Br6'
_cell_volume   816.56123673
_cell_formula_units_Z   1
loop_
 _symmetry_equiv_pos_site_id
 _symmetry_equiv_pos_as_xyz
  1  'x, y, z'
loop_
 _atom_site_type_symbol
 _atom_site_label
 _atom_site_symmetry_multiplicity
 _atom_site_fract_x
 _atom_site_fract_y
 _atom_site_fract_z
 _atom_site_occupancy
  La  La0  1  0.000000  0.662007  0.001047  1
  La  La1  1  0.500000  0.067313  0.878909  1
  La  La2  1  0.000000  0.933283  0.620035  1
  La  La3  1  0.500000  0.066692  0.121434  1
  La  La4  1  0.000000  0.932718  0.378958  1
  Pr  Pr5  1  0.500000  0.341419  0.499115  1
  Pr  Pr6  1  0.500000  0.360258  0.756791  1
  Pr  Pr7  1  0.000000  0.638887  0.741710  1
  Pr  Pr8  1  0.500000  0.360489  0.243224  1
  Pr  Pr9  1  0.500000  0.360169  0.000704  1
  Pr  Pr10  1  0.000000  0.640903  0.499375  1
  Sm  Sm11  1  0.000000  0.636829  0.259582  1
  Si  Si12  1  0.000000  0.155737  0.000282  1
  Si  Si13  1  0.500000  0.843791  0.499252  1
  Si  Si14  1  0.500000  0.567443  0.876855  1
  Si  Si15  1  0.000000  0.431456  0.622786  1
  Si  Si16  1  0.500000  0.569525  0.125830  1
  Si  Si17  1  0.000000  0.432237  0.376170  1
  Si  Si18  1  0.000000  0.256738  0.874742  1
  Si  Si19  1  0.500000  0.743518  0.624833  1
  Si  Si20  1  0.000000  0.256870  0.125705  1
  Si  Si21  1  0.500000  0.742786  0.372832  1
  Si  Si22  1  0.000000  0.460027  0.876891  1
  Si  Si23  1  0.500000  0.540003  0.622176  1
  Si  Si24  1  0.500000  0.540501  0.376399  1
  Si  Si25  1  0.000000  0.461393  0.124405  1
  Br  Br26  1  0.500000  0.111336  0.691652  1
  Br  Br27  1  0.000000  0.887601  0.807896  1
  Br  Br28  1  0.000000  0.138579  0.499844  1
  Br  Br29  1  0.500000  0.864395  0.999888  1
  Br  Br30  1  0.500000  0.111343  0.308301  1
  Br  Br31  1  0.000000  0.883751  0.192379  1
