# generated using pymatgen
data_Sm4Dy(TcB3)2
_symmetry_space_group_name_H-M   'P 1'
_cell_length_a   5.57306547
_cell_length_b   5.57306771
_cell_length_c   8.63358128
_cell_angle_alpha   71.17037115
_cell_angle_beta   71.17036145
_cell_angle_gamma   59.99998991
_symmetry_Int_Tables_number   1
_chemical_formula_structural   Sm4Dy(TcB3)2
_chemical_formula_sum   'Sm4 Dy1 Tc2 B6'
_cell_volume   215.49549260
_cell_formula_units_Z   1
loop_
 _symmetry_equiv_pos_site_id
 _symmetry_equiv_pos_as_xyz
  1  'x, y, z'
loop_
 _atom_site_type_symbol
 _atom_site_label
 _atom_site_symmetry_multiplicity
 _atom_site_fract_x
 _atom_site_fract_y
 _atom_site_fract_z
 _atom_site_occupancy
  Sm  Sm0  1  0.999673  0.999673  0.000980  1
  Sm  Sm1  1  0.249290  0.249290  0.252130  1
  Sm  Sm2  1  0.750983  0.750983  0.747050  1
  Sm  Sm3  1  0.417959  0.417959  0.746124  1
  Dy  Dy4  1  0.579627  0.579627  0.261120  1
  Tc  Tc5  1  0.112841  0.112841  0.661477  1
  Tc  Tc6  1  0.887808  0.887808  0.336576  1
  B  B7  1  0.170483  0.830428  0.499090  1
  B  B8  1  0.830428  0.499999  0.499090  1
  B  B9  1  0.499999  0.170483  0.499090  1
  B  B10  1  0.170483  0.499999  0.499090  1
  B  B11  1  0.499999  0.830428  0.499090  1
  B  B12  1  0.830428  0.170483  0.499090  1
