# generated using pymatgen
data_Na3Pr(NdTe2)4
_symmetry_space_group_name_H-M   'P 1'
_cell_length_a   9.12085753
_cell_length_b   9.12085694
_cell_length_c   9.12085712
_cell_angle_alpha   59.36681577
_cell_angle_beta   59.36681930
_cell_angle_gamma   59.36681732
_symmetry_Int_Tables_number   1
_chemical_formula_structural   Na3Pr(NdTe2)4
_chemical_formula_sum   'Na3 Pr1 Nd4 Te8'
_cell_volume   528.79512641
_cell_formula_units_Z   1
loop_
 _symmetry_equiv_pos_site_id
 _symmetry_equiv_pos_as_xyz
  1  'x, y, z'
loop_
 _atom_site_type_symbol
 _atom_site_label
 _atom_site_symmetry_multiplicity
 _atom_site_fract_x
 _atom_site_fract_y
 _atom_site_fract_z
 _atom_site_occupancy
  Na  Na0  1  0.125000  0.625000  0.125000  1
  Na  Na1  1  0.125000  0.125000  0.625000  1
  Na  Na2  1  0.625000  0.125000  0.125000  1
  Pr  Pr3  1  0.125000  0.125000  0.125000  1
  Nd  Nd4  1  0.625000  0.125000  0.625000  1
  Nd  Nd5  1  0.625000  0.625000  0.625000  1
  Nd  Nd6  1  0.125000  0.625000  0.625000  1
  Nd  Nd7  1  0.625000  0.625000  0.125000  1
  Te  Te8  1  0.376229  0.873313  0.376229  1
  Te  Te9  1  0.873771  0.376687  0.873771  1
  Te  Te10  1  0.873771  0.873771  0.376687  1
  Te  Te11  1  0.872863  0.872863  0.872863  1
  Te  Te12  1  0.873313  0.376229  0.376229  1
  Te  Te13  1  0.376229  0.376229  0.873313  1
  Te  Te14  1  0.377137  0.377137  0.377137  1
  Te  Te15  1  0.376687  0.873771  0.873771  1
