# generated using pymatgen
data_YTm7Sc12Si15Bi
_symmetry_space_group_name_H-M   'P 1'
_cell_length_a   7.12610939
_cell_length_b   7.36370789
_cell_length_c   13.98006972
_cell_angle_alpha   90.07911010
_cell_angle_beta   88.59334982
_cell_angle_gamma   90.19597257
_symmetry_Int_Tables_number   1
_chemical_formula_structural   YTm7Sc12Si15Bi
_chemical_formula_sum   'Y1 Tm7 Sc12 Si15 Bi1'
_cell_volume   733.37241879
_cell_formula_units_Z   1
loop_
 _symmetry_equiv_pos_site_id
 _symmetry_equiv_pos_as_xyz
  1  'x, y, z'
loop_
 _atom_site_type_symbol
 _atom_site_label
 _atom_site_symmetry_multiplicity
 _atom_site_fract_x
 _atom_site_fract_y
 _atom_site_fract_z
 _atom_site_occupancy
  Y  Y0  1  0.011559  0.176428  0.095502  1
  Tm  Tm1  1  0.988032  0.823650  0.903743  1
  Tm  Tm2  1  0.489542  0.676224  0.903965  1
  Tm  Tm3  1  0.993736  0.831622  0.598389  1
  Tm  Tm4  1  0.511388  0.323896  0.097257  1
  Tm  Tm5  1  0.998192  0.170296  0.399022  1
  Tm  Tm6  1  0.511305  0.315785  0.397897  1
  Tm  Tm7  1  0.513621  0.687608  0.601166  1
  Sc  Sc8  1  0.165532  0.501516  0.755860  1
  Sc  Sc9  1  0.833538  0.498353  0.251908  1
  Sc  Sc10  1  0.333771  0.002207  0.250708  1
  Sc  Sc11  1  0.668203  0.998002  0.751087  1
  Sc  Sc12  1  0.350201  0.155458  0.631688  1
  Sc  Sc13  1  0.656940  0.827369  0.372965  1
  Sc  Sc14  1  0.152588  0.683184  0.369302  1
  Sc  Sc15  1  0.666219  0.821921  0.123950  1
  Sc  Sc16  1  0.828154  0.326557  0.625821  1
  Sc  Sc17  1  0.331432  0.175969  0.875488  1
  Sc  Sc18  1  0.831253  0.324152  0.875488  1
  Sc  Sc19  1  0.168201  0.676329  0.124734  1
  Si  Si20  1  0.037470  0.117489  0.751370  1
  Si  Si21  1  0.959622  0.885558  0.246255  1
  Si  Si22  1  0.460360  0.614558  0.247795  1
  Si  Si23  1  0.536404  0.386560  0.752756  1
  Si  Si24  1  0.289949  0.865555  0.753188  1
  Si  Si25  1  0.709329  0.127912  0.246842  1
  Si  Si26  1  0.209754  0.371944  0.249417  1
  Si  Si27  1  0.793911  0.630715  0.751767  1
  Si  Si28  1  0.810066  0.540361  0.456923  1
  Si  Si29  1  0.326353  0.963938  0.459916  1
  Si  Si30  1  0.841646  0.535300  0.039285  1
  Si  Si31  1  0.674771  0.038444  0.538615  1
  Si  Si32  1  0.156979  0.467399  0.960801  1
  Si  Si33  1  0.656697  0.033981  0.960210  1
  Si  Si34  1  0.344083  0.965686  0.039924  1
  Bi  Bi35  1  0.189191  0.458072  0.538998  1
