# generated using pymatgen
data_K4CaSc2MnF14
_symmetry_space_group_name_H-M   'P 1'
_cell_length_a   8.03215871
_cell_length_b   8.03215765
_cell_length_c   8.09618929
_cell_angle_alpha   120.66794202
_cell_angle_beta   117.65768988
_cell_angle_gamma   91.03045269
_symmetry_Int_Tables_number   1
_chemical_formula_structural   K4CaSc2MnF14
_chemical_formula_sum   'K4 Ca1 Sc2 Mn1 F14'
_cell_volume   375.03424931
_cell_formula_units_Z   1
loop_
 _symmetry_equiv_pos_site_id
 _symmetry_equiv_pos_as_xyz
  1  'x, y, z'
loop_
 _atom_site_type_symbol
 _atom_site_label
 _atom_site_symmetry_multiplicity
 _atom_site_fract_x
 _atom_site_fract_y
 _atom_site_fract_z
 _atom_site_occupancy
  K  K0  1  0.500000  0.500000  0.000000  1
  K  K1  1  0.000000  0.000000  0.000000  1
  K  K2  1  0.000000  0.500000  0.000000  1
  K  K3  1  0.000000  0.000000  0.500000  1
  Ca  Ca4  1  0.500000  0.000000  0.000000  1
  Sc  Sc5  1  0.000000  0.500000  0.500000  1
  Sc  Sc6  1  0.500000  0.000000  0.500000  1
  Mn  Mn7  1  0.500000  0.500000  0.500000  1
  F  F8  1  0.873677  0.586357  0.284953  1
  F  F9  1  0.198595  0.911276  0.284953  1
  F  F10  1  0.174083  0.801650  0.754479  1
  F  F11  1  0.458604  0.701431  0.390631  1
  F  F12  1  0.452829  0.080396  0.754479  1
  F  F13  1  0.189200  0.432027  0.390631  1
  F  F14  1  0.810800  0.567973  0.609369  1
  F  F15  1  0.547171  0.919604  0.245521  1
  F  F16  1  0.541396  0.298569  0.609369  1
  F  F17  1  0.825917  0.198350  0.245521  1
  F  F18  1  0.393370  0.261325  0.154695  1
  F  F19  1  0.126323  0.413643  0.715047  1
  F  F20  1  0.801405  0.088724  0.715047  1
  F  F21  1  0.606630  0.738675  0.845305  1
