# generated using pymatgen
data_Hf11Zr5Ir4(RhN)4
_symmetry_space_group_name_H-M   'P 1'
_cell_length_a   8.74441354
_cell_length_b   8.74441325
_cell_length_c   8.73879700
_cell_angle_alpha   60.02124754
_cell_angle_beta   60.02124865
_cell_angle_gamma   59.91876567
_symmetry_Int_Tables_number   1
_chemical_formula_structural   Hf11Zr5Ir4(RhN)4
_chemical_formula_sum   'Hf11 Zr5 Ir4 Rh4 N4'
_cell_volume   472.35652012
_cell_formula_units_Z   1
loop_
 _symmetry_equiv_pos_site_id
 _symmetry_equiv_pos_as_xyz
  1  'x, y, z'
loop_
 _atom_site_type_symbol
 _atom_site_label
 _atom_site_symmetry_multiplicity
 _atom_site_fract_x
 _atom_site_fract_y
 _atom_site_fract_z
 _atom_site_occupancy
  Hf  Hf0  1  0.115236  0.627446  0.628659  1
  Hf  Hf1  1  0.627446  0.115236  0.628659  1
  Hf  Hf2  1  0.628752  0.628752  0.114760  1
  Hf  Hf3  1  0.628752  0.628752  0.627736  1
  Hf  Hf4  1  0.816709  0.816709  0.183291  1
  Hf  Hf5  1  0.183316  0.183316  0.816684  1
  Hf  Hf6  1  0.814846  0.185104  0.815421  1
  Hf  Hf7  1  0.185104  0.814846  0.184628  1
  Hf  Hf8  1  0.185104  0.814846  0.815421  1
  Hf  Hf9  1  0.814846  0.185104  0.184628  1
  Hf  Hf10  1  0.433627  0.433627  0.066373  1
  Zr  Zr11  1  0.065502  0.065502  0.434498  1
  Zr  Zr12  1  0.433635  0.066261  0.433735  1
  Zr  Zr13  1  0.066261  0.433635  0.066369  1
  Zr  Zr14  1  0.066261  0.433635  0.433735  1
  Zr  Zr15  1  0.433635  0.066261  0.066369  1
  Ir  Ir16  1  0.756814  0.414008  0.414589  1
  Ir  Ir17  1  0.414008  0.756814  0.414589  1
  Ir  Ir18  1  0.414976  0.414976  0.758427  1
  Ir  Ir19  1  0.414976  0.414976  0.411619  1
  Rh  Rh20  1  0.471709  0.841737  0.843278  1
  Rh  Rh21  1  0.841737  0.471709  0.843278  1
  Rh  Rh22  1  0.843138  0.843138  0.470915  1
  Rh  Rh23  1  0.843138  0.843138  0.842810  1
  N  N24  1  0.628682  0.126621  0.122349  1
  N  N25  1  0.126621  0.628682  0.122349  1
  N  N26  1  0.122581  0.122581  0.631590  1
  N  N27  1  0.122581  0.122581  0.123246  1
