# generated using pymatgen
data_Ho2Tm2SiBr6
_symmetry_space_group_name_H-M   'P 1'
_cell_length_a   4.01914700
_cell_length_b   13.13133000
_cell_length_c   13.89316400
_cell_angle_alpha   90.00000000
_cell_angle_beta   90.00000000
_cell_angle_gamma   90.00000000
_symmetry_Int_Tables_number   1
_chemical_formula_structural   Ho2Tm2SiBr6
_chemical_formula_sum   'Ho4 Tm4 Si2 Br12'
_cell_volume   733.23598167
_cell_formula_units_Z   2
loop_
 _symmetry_equiv_pos_site_id
 _symmetry_equiv_pos_as_xyz
  1  'x, y, z'
loop_
 _atom_site_type_symbol
 _atom_site_label
 _atom_site_symmetry_multiplicity
 _atom_site_fract_x
 _atom_site_fract_y
 _atom_site_fract_z
 _atom_site_occupancy
  Ho  Ho0  1  0.000000  0.118356  0.578765  1
  Ho  Ho1  1  0.000000  0.881644  0.421235  1
  Ho  Ho2  1  0.000000  0.618356  0.921235  1
  Ho  Ho3  1  0.000000  0.381644  0.078765  1
  Tm  Tm4  1  0.500000  0.117403  0.342020  1
  Tm  Tm5  1  0.500000  0.882597  0.657980  1
  Tm  Tm6  1  0.500000  0.617403  0.157980  1
  Tm  Tm7  1  0.500000  0.382597  0.842020  1
  Si  Si8  1  0.500000  0.000000  0.500000  1
  Si  Si9  1  0.500000  0.500000  0.000000  1
  Br  Br10  1  0.500000  0.242074  0.164645  1
  Br  Br11  1  0.500000  0.757926  0.835355  1
  Br  Br12  1  0.500000  0.742074  0.335355  1
  Br  Br13  1  0.500000  0.257926  0.664645  1
  Br  Br14  1  0.000000  0.254507  0.409074  1
  Br  Br15  1  0.000000  0.745493  0.590926  1
  Br  Br16  1  0.000000  0.754507  0.090926  1
  Br  Br17  1  0.000000  0.245493  0.909074  1
  Br  Br18  1  0.000000  0.004489  0.242698  1
  Br  Br19  1  0.000000  0.995511  0.757302  1
  Br  Br20  1  0.000000  0.504489  0.257302  1
  Br  Br21  1  0.000000  0.495511  0.742698  1
