# generated using pymatgen
data_Eu2In3SnPd2
_symmetry_space_group_name_H-M   'P 1'
_cell_length_a   5.94705662
_cell_length_b   5.94705632
_cell_length_c   7.69707144
_cell_angle_alpha   89.28957403
_cell_angle_beta   90.71042433
_cell_angle_gamma   134.66182030
_symmetry_Int_Tables_number   1
_chemical_formula_structural   Eu2In3SnPd2
_chemical_formula_sum   'Eu2 In3 Sn1 Pd2'
_cell_volume   193.60818845
_cell_formula_units_Z   1
loop_
 _symmetry_equiv_pos_site_id
 _symmetry_equiv_pos_as_xyz
  1  'x, y, z'
loop_
 _atom_site_type_symbol
 _atom_site_label
 _atom_site_symmetry_multiplicity
 _atom_site_fract_x
 _atom_site_fract_y
 _atom_site_fract_z
 _atom_site_occupancy
  Eu  Eu0  1  0.067823  0.932177  0.252872  1
  Eu  Eu1  1  0.932959  0.067041  0.753034  1
  In  In2  1  0.359206  0.640794  0.447064  1
  In  In3  1  0.644622  0.355378  0.948349  1
  In  In4  1  0.354500  0.645500  0.050197  1
  Sn  Sn5  1  0.641869  0.358131  0.551675  1
  Pd  Pd6  1  0.213252  0.786748  0.742329  1
  Pd  Pd7  1  0.785770  0.214230  0.254481  1
