# generated using pymatgen
data_DyTm15In3HgRh4
_symmetry_space_group_name_H-M   'P 1'
_cell_length_a   9.52154919
_cell_length_b   9.52154962
_cell_length_c   9.51775088
_cell_angle_alpha   60.04143638
_cell_angle_beta   60.04143728
_cell_angle_gamma   60.02930349
_symmetry_Int_Tables_number   1
_chemical_formula_structural   DyTm15In3HgRh4
_chemical_formula_sum   'Dy1 Tm15 In3 Hg1 Rh4'
_cell_volume   610.66427793
_cell_formula_units_Z   1
loop_
 _symmetry_equiv_pos_site_id
 _symmetry_equiv_pos_as_xyz
  1  'x, y, z'
loop_
 _atom_site_type_symbol
 _atom_site_label
 _atom_site_symmetry_multiplicity
 _atom_site_fract_x
 _atom_site_fract_y
 _atom_site_fract_z
 _atom_site_occupancy
  Dy  Dy0  1  0.062128  0.062128  0.437922  1
  Tm  Tm1  1  0.437584  0.065406  0.436523  1
  Tm  Tm2  1  0.061694  0.439012  0.060949  1
  Tm  Tm3  1  0.052540  0.647592  0.648178  1
  Tm  Tm4  1  0.436564  0.436564  0.065563  1
  Tm  Tm5  1  0.647592  0.052540  0.648178  1
  Tm  Tm6  1  0.188781  0.812805  0.188517  1
  Tm  Tm7  1  0.188730  0.188730  0.813075  1
  Tm  Tm8  1  0.810416  0.810416  0.190554  1
  Tm  Tm9  1  0.439012  0.061694  0.060949  1
  Tm  Tm10  1  0.812805  0.188781  0.188517  1
  Tm  Tm11  1  0.065406  0.437584  0.436523  1
  Tm  Tm12  1  0.809950  0.190610  0.811074  1
  Tm  Tm13  1  0.190610  0.809950  0.811074  1
  Tm  Tm14  1  0.647835  0.647835  0.052324  1
  Tm  Tm15  1  0.651619  0.651619  0.651951  1
  In  In16  1  0.747666  0.418294  0.417281  1
  In  In17  1  0.418294  0.747666  0.417281  1
  In  In18  1  0.417267  0.417267  0.748841  1
  Hg  Hg19  1  0.413296  0.413296  0.413560  1
  Rh  Rh20  1  0.857916  0.857916  0.427634  1
  Rh  Rh21  1  0.856346  0.856346  0.857102  1
  Rh  Rh22  1  0.427721  0.858226  0.858214  1
  Rh  Rh23  1  0.858226  0.427721  0.858214  1
