# generated using pymatgen
data_Dy8Hf12Si15Pb
_symmetry_space_group_name_H-M   'P 1'
_cell_length_a   7.34626459
_cell_length_b   7.31117847
_cell_length_c   13.43620341
_cell_angle_alpha   89.97513027
_cell_angle_beta   89.69759431
_cell_angle_gamma   90.18187787
_symmetry_Int_Tables_number   1
_chemical_formula_structural   Dy8Hf12Si15Pb
_chemical_formula_sum   'Dy8 Hf12 Si15 Pb1'
_cell_volume   721.64272995
_cell_formula_units_Z   1
loop_
 _symmetry_equiv_pos_site_id
 _symmetry_equiv_pos_as_xyz
  1  'x, y, z'
loop_
 _atom_site_type_symbol
 _atom_site_label
 _atom_site_symmetry_multiplicity
 _atom_site_fract_x
 _atom_site_fract_y
 _atom_site_fract_z
 _atom_site_occupancy
  Dy  Dy0  1  0.495741  0.154674  0.535055  1
  Dy  Dy1  1  0.496098  0.838251  0.032898  1
  Dy  Dy2  1  0.650737  0.000803  0.290551  1
  Dy  Dy3  1  0.343304  0.993762  0.782173  1
  Dy  Dy4  1  0.846889  0.512888  0.961663  1
  Dy  Dy5  1  0.154508  0.495665  0.466431  1
  Dy  Dy6  1  0.004239  0.654001  0.713818  1
  Dy  Dy7  1  0.007640  0.354925  0.221969  1
  Hf  Hf8  1  0.676117  0.324983  0.748918  1
  Hf  Hf9  1  0.326320  0.675040  0.251303  1
  Hf  Hf10  1  0.824115  0.823941  0.500353  1
  Hf  Hf11  1  0.184515  0.174345  0.997442  1
  Hf  Hf12  1  0.486115  0.359699  0.123894  1
  Hf  Hf13  1  0.503440  0.646984  0.624296  1
  Hf  Hf14  1  0.852342  0.003709  0.867874  1
  Hf  Hf15  1  0.149145  0.996694  0.375117  1
  Hf  Hf16  1  0.648121  0.505545  0.376682  1
  Hf  Hf17  1  0.349862  0.497806  0.872967  1
  Hf  Hf18  1  0.016862  0.837338  0.129978  1
  Hf  Hf19  1  0.995235  0.148134  0.625383  1
  Si  Si20  1  0.204803  0.861600  0.567269  1
  Si  Si21  1  0.637936  0.704642  0.815503  1
  Si  Si22  1  0.363564  0.295443  0.318745  1
  Si  Si23  1  0.861958  0.204426  0.433109  1
  Si  Si24  1  0.137762  0.797697  0.931878  1
  Si  Si25  1  0.703479  0.639574  0.183134  1
  Si  Si26  1  0.295147  0.360728  0.681665  1
  Si  Si27  1  0.541400  0.205718  0.929107  1
  Si  Si28  1  0.448040  0.793566  0.436995  1
  Si  Si29  1  0.704040  0.949921  0.683531  1
  Si  Si30  1  0.296481  0.050624  0.185677  1
  Si  Si31  1  0.794322  0.449865  0.564378  1
  Si  Si32  1  0.202573  0.547184  0.062333  1
  Si  Si33  1  0.948997  0.707779  0.317139  1
  Si  Si34  1  0.050057  0.295536  0.814280  1
  Pb  Pb35  1  0.798096  0.136509  0.076491  1
