# generated using pymatgen
data_SrCaRe4F24
_symmetry_space_group_name_H-M   'P 1'
_cell_length_a   10.39996187
_cell_length_b   10.39996262
_cell_length_c   10.39996100
_cell_angle_alpha   131.67727149
_cell_angle_beta   131.67727519
_cell_angle_gamma   70.73922167
_symmetry_Int_Tables_number   1
_chemical_formula_structural   SrCaRe4F24
_chemical_formula_sum   'Sr1 Ca1 Re4 F24'
_cell_volume   614.67381811
_cell_formula_units_Z   1
loop_
 _symmetry_equiv_pos_site_id
 _symmetry_equiv_pos_as_xyz
  1  'x, y, z'
loop_
 _atom_site_type_symbol
 _atom_site_label
 _atom_site_symmetry_multiplicity
 _atom_site_fract_x
 _atom_site_fract_y
 _atom_site_fract_z
 _atom_site_occupancy
  Sr  Sr0  1  0.750006  0.250002  0.500005  1
  Ca  Ca1  1  0.000043  0.000041  0.999986  1
  Re  Re2  1  0.782468  0.782450  0.000017  1
  Re  Re3  1  0.217570  0.217581  0.999995  1
  Re  Re4  1  0.975684  0.475666  0.499971  1
  Re  Re5  1  0.524305  0.024298  0.499996  1
  F  F6  1  0.867963  0.759559  0.206807  1
  F  F7  1  0.552766  0.661159  0.793209  1
  F  F8  1  0.416557  0.791442  0.305030  1
  F  F9  1  0.338879  0.132016  0.891583  1
  F  F10  1  0.240444  0.447310  0.108434  1
  F  F11  1  0.208596  0.513595  0.625156  1
  F  F12  1  0.642383  0.255404  0.675238  1
  F  F13  1  0.744591  0.419845  0.386989  1
  F  F14  1  0.032856  0.357592  0.612994  1
  F  F15  1  0.088425  0.269390  0.098344  1
  F  F16  1  0.171019  0.990083  0.901638  1
  F  F17  1  0.580142  0.967141  0.324740  1
  F  F18  1  0.730595  0.828948  0.819072  1
  F  F19  1  0.009878  0.911525  0.180924  1
  F  F20  1  0.296161  0.068509  0.314397  1
  F  F21  1  0.931483  0.245821  0.227638  1
  F  F22  1  0.018208  0.703837  0.772365  1
  F  F23  1  0.440859  0.279867  0.285569  1
  F  F24  1  0.994289  0.155295  0.714431  1
  F  F25  1  0.754119  0.981773  0.685607  1
  F  F26  1  0.720148  0.005677  0.160972  1
  F  F27  1  0.844710  0.559192  0.839060  1
  F  F28  1  0.486417  0.111531  0.694969  1
  F  F29  1  0.888439  0.583448  0.374863  1
