# generated using pymatgen
data_Sr4In(BiO4)3
_symmetry_space_group_name_H-M   'P 1'
_cell_length_a   6.11700832
_cell_length_b   5.95047307
_cell_length_c   10.36711676
_cell_angle_alpha   54.94677351
_cell_angle_beta   90.30151229
_cell_angle_gamma   90.05329598
_symmetry_Int_Tables_number   1
_chemical_formula_structural   Sr4In(BiO4)3
_chemical_formula_sum   'Sr4 In1 Bi3 O12'
_cell_volume   308.90352558
_cell_formula_units_Z   1
loop_
 _symmetry_equiv_pos_site_id
 _symmetry_equiv_pos_as_xyz
  1  'x, y, z'
loop_
 _atom_site_type_symbol
 _atom_site_label
 _atom_site_symmetry_multiplicity
 _atom_site_fract_x
 _atom_site_fract_y
 _atom_site_fract_z
 _atom_site_occupancy
  Sr  Sr0  1  0.553127  0.254459  0.759143  1
  Sr  Sr1  1  0.046540  0.729606  0.757203  1
  Sr  Sr2  1  0.446873  0.745541  0.240857  1
  Sr  Sr3  1  0.953460  0.270394  0.242797  1
  In  In4  1  0.000000  0.000000  0.000000  1
  Bi  Bi5  1  0.500000  0.000000  0.500000  1
  Bi  Bi6  1  0.000000  0.500000  0.500000  1
  Bi  Bi7  1  0.500000  0.500000  0.000000  1
  O  O8  1  0.787357  0.350467  0.946284  1
  O  O9  1  0.290356  0.632830  0.556572  1
  O  O10  1  0.212643  0.649533  0.053716  1
  O  O11  1  0.709644  0.367170  0.443428  1
  O  O12  1  0.294474  0.257666  0.950676  1
  O  O13  1  0.807016  0.740359  0.552209  1
  O  O14  1  0.705526  0.742334  0.049324  1
  O  O15  1  0.192984  0.259641  0.447791  1
  O  O16  1  0.461996  0.839382  0.759247  1
  O  O17  1  0.960660  0.151942  0.748826  1
  O  O18  1  0.538004  0.160618  0.240753  1
  O  O19  1  0.039340  0.848058  0.251174  1
