# generated using pymatgen
data_YLu9(GaSb)4
_symmetry_space_group_name_H-M   'P 1'
_cell_length_a   8.43703458
_cell_length_b   8.54253753
_cell_length_c   7.78749340
_cell_angle_alpha   89.92922971
_cell_angle_beta   89.81400085
_cell_angle_gamma   125.47690173
_symmetry_Int_Tables_number   1
_chemical_formula_structural   YLu9(GaSb)4
_chemical_formula_sum   'Y1 Lu9 Ga4 Sb4'
_cell_volume   457.06693688
_cell_formula_units_Z   1
loop_
 _symmetry_equiv_pos_site_id
 _symmetry_equiv_pos_as_xyz
  1  'x, y, z'
loop_
 _atom_site_type_symbol
 _atom_site_label
 _atom_site_symmetry_multiplicity
 _atom_site_fract_x
 _atom_site_fract_y
 _atom_site_fract_z
 _atom_site_occupancy
  Y  Y0  1  0.310683  0.043730  0.327638  1
  Lu  Lu1  1  0.038018  0.293781  0.333093  1
  Lu  Lu2  1  0.963714  0.709217  0.666646  1
  Lu  Lu3  1  0.461304  0.206597  0.833091  1
  Lu  Lu4  1  0.800910  0.542374  0.168655  1
  Lu  Lu5  1  0.535651  0.790019  0.165979  1
  Lu  Lu6  1  0.195434  0.455956  0.830678  1
  Lu  Lu7  1  0.697024  0.957952  0.669399  1
  Lu  Lu8  1  0.997890  0.998559  0.000013  1
  Lu  Lu9  1  0.501306  0.501565  0.501332  1
  Ga  Ga10  1  0.372818  0.374123  0.124401  1
  Ga  Ga11  1  0.625024  0.626061  0.873086  1
  Ga  Ga12  1  0.125671  0.128199  0.627543  1
  Ga  Ga13  1  0.873181  0.873289  0.373516  1
  Sb  Sb14  1  0.786372  0.200868  0.007104  1
  Sb  Sb15  1  0.207619  0.793694  0.992314  1
  Sb  Sb16  1  0.715975  0.302687  0.508609  1
  Sb  Sb17  1  0.291408  0.701329  0.496902  1
