# generated using pymatgen
data_GdTa3Pb4O13
_symmetry_space_group_name_H-M   'P 1'
_cell_length_a   7.74145344
_cell_length_b   7.74145301
_cell_length_c   7.74145333
_cell_angle_alpha   59.25241228
_cell_angle_beta   59.25241738
_cell_angle_gamma   59.25240173
_symmetry_Int_Tables_number   1
_chemical_formula_structural   GdTa3Pb4O13
_chemical_formula_sum   'Gd1 Ta3 Pb4 O13'
_cell_volume   322.47336840
_cell_formula_units_Z   1
loop_
 _symmetry_equiv_pos_site_id
 _symmetry_equiv_pos_as_xyz
  1  'x, y, z'
loop_
 _atom_site_type_symbol
 _atom_site_label
 _atom_site_symmetry_multiplicity
 _atom_site_fract_x
 _atom_site_fract_y
 _atom_site_fract_z
 _atom_site_occupancy
  Gd  Gd0  1  0.503740  0.503740  0.503740  1
  Ta  Ta1  1  0.004165  0.501426  0.501426  1
  Ta  Ta2  1  0.501426  0.501426  0.004165  1
  Ta  Ta3  1  0.501426  0.004165  0.501426  1
  Pb  Pb4  1  0.002368  0.002368  0.002368  1
  Pb  Pb5  1  0.497841  0.013855  0.013855  1
  Pb  Pb6  1  0.013855  0.013855  0.497841  1
  Pb  Pb7  1  0.013855  0.497841  0.013855  1
  O  O8  1  0.873166  0.402577  0.402577  1
  O  O9  1  0.425550  0.797460  0.797460  1
  O  O10  1  0.402577  0.402577  0.873166  1
  O  O11  1  0.797460  0.797460  0.425550  1
  O  O12  1  0.797460  0.425550  0.797460  1
  O  O13  1  0.402577  0.873166  0.402577  1
  O  O14  1  0.148346  0.578552  0.578552  1
  O  O15  1  0.577894  0.191614  0.191614  1
  O  O16  1  0.578552  0.578552  0.148346  1
  O  O17  1  0.191614  0.191614  0.577894  1
  O  O18  1  0.191614  0.577894  0.191614  1
  O  O19  1  0.578552  0.148346  0.578552  1
  O  O20  1  0.120964  0.120964  0.120964  1
