# generated using pymatgen
data_La2Er3Si4
_symmetry_space_group_name_H-M   'P 1'
_cell_length_a   7.77444500
_cell_length_b   7.77444500
_cell_length_c   14.50931600
_cell_angle_alpha   90.00000000
_cell_angle_beta   90.00000000
_cell_angle_gamma   90.00000000
_symmetry_Int_Tables_number   1
_chemical_formula_structural   La2Er3Si4
_chemical_formula_sum   'La8 Er12 Si16'
_cell_volume   876.97200597
_cell_formula_units_Z   4
loop_
 _symmetry_equiv_pos_site_id
 _symmetry_equiv_pos_as_xyz
  1  'x, y, z'
loop_
 _atom_site_type_symbol
 _atom_site_label
 _atom_site_symmetry_multiplicity
 _atom_site_fract_x
 _atom_site_fract_y
 _atom_site_fract_z
 _atom_site_occupancy
  La  La0  1  0.987512  0.635244  0.044416  1
  La  La1  1  0.012488  0.364756  0.544416  1
  La  La2  1  0.635244  0.987512  0.955584  1
  La  La3  1  0.135244  0.512488  0.794416  1
  La  La4  1  0.864756  0.487512  0.294416  1
  La  La5  1  0.512488  0.135244  0.205584  1
  La  La6  1  0.487512  0.864756  0.705584  1
  La  La7  1  0.364756  0.012488  0.455584  1
  Er  Er8  1  0.364882  0.489165  0.374241  1
  Er  Er9  1  0.864882  0.010835  0.375759  1
  Er  Er10  1  0.989165  0.135118  0.124241  1
  Er  Er11  1  0.010835  0.864882  0.624241  1
  Er  Er12  1  0.635118  0.510835  0.874241  1
  Er  Er13  1  0.489165  0.364882  0.625759  1
  Er  Er14  1  0.510835  0.635118  0.125759  1
  Er  Er15  1  0.135118  0.989165  0.875759  1
  Er  Er16  1  0.685548  0.685548  0.500000  1
  Er  Er17  1  0.814452  0.185548  0.750000  1
  Er  Er18  1  0.185548  0.814452  0.250000  1
  Er  Er19  1  0.314452  0.314452  0.000000  1
  Si  Si20  1  0.069459  0.714729  0.437293  1
  Si  Si21  1  0.930541  0.285271  0.937293  1
  Si  Si22  1  0.714729  0.069459  0.562707  1
  Si  Si23  1  0.214730  0.430541  0.187293  1
  Si  Si24  1  0.785271  0.569459  0.687293  1
  Si  Si25  1  0.430541  0.214730  0.812707  1
  Si  Si26  1  0.569459  0.785271  0.312707  1
  Si  Si27  1  0.285271  0.930541  0.062707  1
  Si  Si28  1  0.841697  0.801087  0.805301  1
  Si  Si29  1  0.158303  0.198913  0.305301  1
  Si  Si30  1  0.801087  0.841697  0.194699  1
  Si  Si31  1  0.301087  0.658303  0.555301  1
  Si  Si32  1  0.698913  0.341697  0.055301  1
  Si  Si33  1  0.658303  0.301087  0.444699  1
  Si  Si34  1  0.341697  0.698913  0.944699  1
  Si  Si35  1  0.198913  0.158303  0.694699  1
