# generated using pymatgen
data_HoEr2Fe8CoP6
_symmetry_space_group_name_H-M   'P 1'
_cell_length_a   3.69836200
_cell_length_b   10.46248800
_cell_length_c   12.16449400
_cell_angle_alpha   90.00000000
_cell_angle_beta   90.00000000
_cell_angle_gamma   90.00000000
_symmetry_Int_Tables_number   1
_chemical_formula_structural   HoEr2Fe8CoP6
_chemical_formula_sum   'Ho2 Er4 Fe16 Co2 P12'
_cell_volume   470.69375856
_cell_formula_units_Z   2
loop_
 _symmetry_equiv_pos_site_id
 _symmetry_equiv_pos_as_xyz
  1  'x, y, z'
loop_
 _atom_site_type_symbol
 _atom_site_label
 _atom_site_symmetry_multiplicity
 _atom_site_fract_x
 _atom_site_fract_y
 _atom_site_fract_z
 _atom_site_occupancy
  Ho  Ho0  1  0.750000  0.250000  0.474502  1
  Ho  Ho1  1  0.250000  0.750000  0.525498  1
  Er  Er2  1  0.250000  0.930310  0.793071  1
  Er  Er3  1  0.250000  0.569690  0.793071  1
  Er  Er4  1  0.750000  0.069690  0.206929  1
  Er  Er5  1  0.750000  0.430310  0.206929  1
  Fe  Fe6  1  0.250000  0.250000  0.847132  1
  Fe  Fe7  1  0.750000  0.750000  0.152868  1
  Fe  Fe8  1  0.750000  0.250000  0.011080  1
  Fe  Fe9  1  0.250000  0.750000  0.988920  1
  Fe  Fe10  1  0.250000  0.422492  0.003599  1
  Fe  Fe11  1  0.250000  0.077508  0.003599  1
  Fe  Fe12  1  0.750000  0.577508  0.996401  1
  Fe  Fe13  1  0.750000  0.922492  0.996401  1
  Fe  Fe14  1  0.250000  0.451024  0.570118  1
  Fe  Fe15  1  0.250000  0.048976  0.570118  1
  Fe  Fe16  1  0.750000  0.548976  0.429882  1
  Fe  Fe17  1  0.750000  0.951024  0.429882  1
  Fe  Fe18  1  0.250000  0.867839  0.291321  1
  Fe  Fe19  1  0.250000  0.632161  0.291321  1
  Fe  Fe20  1  0.750000  0.132161  0.708679  1
  Fe  Fe21  1  0.750000  0.367839  0.708679  1
  Co  Co22  1  0.250000  0.250000  0.299867  1
  Co  Co23  1  0.750000  0.750000  0.700133  1
  P  P24  1  0.250000  0.250000  0.116368  1
  P  P25  1  0.750000  0.750000  0.883632  1
  P  P26  1  0.250000  0.250000  0.658806  1
  P  P27  1  0.750000  0.750000  0.341194  1
  P  P28  1  0.250000  0.443366  0.385610  1
  P  P29  1  0.250000  0.056634  0.385610  1
  P  P30  1  0.750000  0.556634  0.614390  1
  P  P31  1  0.750000  0.943366  0.614390  1
  P  P32  1  0.250000  0.899080  0.112050  1
  P  P33  1  0.250000  0.600920  0.112050  1
  P  P34  1  0.750000  0.100920  0.887950  1
  P  P35  1  0.750000  0.399080  0.887950  1
