# generated using pymatgen
data_Sr7ThAs6
_symmetry_space_group_name_H-M   'P 1'
_cell_length_a   8.22703282
_cell_length_b   8.22703238
_cell_length_c   8.09981000
_cell_angle_alpha   109.15826876
_cell_angle_beta   109.15826769
_cell_angle_gamma   109.78234647
_symmetry_Int_Tables_number   1
_chemical_formula_structural   Sr7ThAs6
_chemical_formula_sum   'Sr7 Th1 As6'
_cell_volume   423.64511522
_cell_formula_units_Z   1
loop_
 _symmetry_equiv_pos_site_id
 _symmetry_equiv_pos_as_xyz
  1  'x, y, z'
loop_
 _atom_site_type_symbol
 _atom_site_label
 _atom_site_symmetry_multiplicity
 _atom_site_fract_x
 _atom_site_fract_y
 _atom_site_fract_z
 _atom_site_occupancy
  Sr  Sr0  1  0.134164  0.500667  0.000627  1
  Sr  Sr1  1  0.366503  0.365836  0.366462  1
  Sr  Sr2  1  0.999333  0.133497  0.499959  1
  Sr  Sr3  1  0.879776  0.869432  0.872963  1
  Sr  Sr4  1  0.989656  0.620224  0.493189  1
  Sr  Sr5  1  0.500000  0.000000  0.133411  1
  Sr  Sr6  1  0.630568  0.510344  0.003532  1
  Th  Th7  1  0.500000  0.000000  0.638264  1
  As  As8  1  0.858694  0.238524  0.100666  1
  As  As9  1  0.142341  0.879953  0.269702  1
  As  As10  1  0.379830  0.641306  0.741973  1
  As  As11  1  0.261476  0.120170  0.862142  1
  As  As12  1  0.737611  0.357659  0.627361  1
  As  As13  1  0.620047  0.762389  0.389749  1
