# generated using pymatgen
data_Sm8DyEr11Pb16
_symmetry_space_group_name_H-M   'P 1'
_cell_length_a   8.21642880
_cell_length_b   8.32141736
_cell_length_c   15.67736638
_cell_angle_alpha   89.98675157
_cell_angle_beta   90.13118846
_cell_angle_gamma   90.11012593
_symmetry_Int_Tables_number   1
_chemical_formula_structural   Sm8DyEr11Pb16
_chemical_formula_sum   'Sm8 Dy1 Er11 Pb16'
_cell_volume   1071.89330099
_cell_formula_units_Z   1
loop_
 _symmetry_equiv_pos_site_id
 _symmetry_equiv_pos_as_xyz
  1  'x, y, z'
loop_
 _atom_site_type_symbol
 _atom_site_label
 _atom_site_symmetry_multiplicity
 _atom_site_fract_x
 _atom_site_fract_y
 _atom_site_fract_z
 _atom_site_occupancy
  Sm  Sm0  1  0.471561  0.679106  0.597878  1
  Sm  Sm1  1  0.973405  0.821933  0.903564  1
  Sm  Sm2  1  0.527291  0.322389  0.097366  1
  Sm  Sm3  1  0.029166  0.175844  0.400649  1
  Sm  Sm4  1  0.526728  0.322318  0.401817  1
  Sm  Sm5  1  0.026927  0.177764  0.097700  1
  Sm  Sm6  1  0.473603  0.678138  0.903257  1
  Sm  Sm7  1  0.971706  0.822970  0.598104  1
  Dy  Dy8  1  0.129325  0.340939  0.620625  1
  Er  Er9  1  0.631149  0.158658  0.622951  1
  Er  Er10  1  0.131560  0.342264  0.878131  1
  Er  Er11  1  0.368469  0.842153  0.122421  1
  Er  Er12  1  0.869226  0.657446  0.377637  1
  Er  Er13  1  0.370520  0.842227  0.376034  1
  Er  Er14  1  0.868627  0.657874  0.122324  1
  Er  Er15  1  0.631275  0.157837  0.878600  1
  Er  Er16  1  0.797530  0.494726  0.750536  1
  Er  Er17  1  0.298355  0.005361  0.750655  1
  Er  Er18  1  0.202297  0.505566  0.249195  1
  Er  Er19  1  0.702461  0.994760  0.249980  1
  Pb  Pb20  1  0.710255  0.961021  0.457119  1
  Pb  Pb21  1  0.209042  0.539602  0.042984  1
  Pb  Pb22  1  0.290702  0.039801  0.957533  1
  Pb  Pb23  1  0.785324  0.463059  0.542883  1
  Pb  Pb24  1  0.292220  0.035980  0.542430  1
  Pb  Pb25  1  0.791397  0.460379  0.957303  1
  Pb  Pb26  1  0.709186  0.960085  0.043280  1
  Pb  Pb27  1  0.210122  0.540656  0.455179  1
  Pb  Pb28  1  0.435377  0.372699  0.751216  1
  Pb  Pb29  1  0.934916  0.125895  0.751121  1
  Pb  Pb30  1  0.565161  0.626763  0.249437  1
  Pb  Pb31  1  0.064452  0.872455  0.249509  1
  Pb  Pb32  1  0.660810  0.847611  0.750902  1
  Pb  Pb33  1  0.160738  0.653516  0.750773  1
  Pb  Pb34  1  0.339552  0.153037  0.249263  1
  Pb  Pb35  1  0.839570  0.347165  0.249644  1
