# generated using pymatgen
data_PrNd2Cd3Si2Au
_symmetry_space_group_name_H-M   'P 1'
_cell_length_a   7.43848400
_cell_length_b   7.44086733
_cell_length_c   4.45452800
_cell_angle_alpha   90.00000000
_cell_angle_beta   90.00000000
_cell_angle_gamma   119.98940502
_symmetry_Int_Tables_number   1
_chemical_formula_structural   PrNd2Cd3Si2Au
_chemical_formula_sum   'Pr1 Nd2 Cd3 Si2 Au1'
_cell_volume   213.54365692
_cell_formula_units_Z   1
loop_
 _symmetry_equiv_pos_site_id
 _symmetry_equiv_pos_as_xyz
  1  'x, y, z'
loop_
 _atom_site_type_symbol
 _atom_site_label
 _atom_site_symmetry_multiplicity
 _atom_site_fract_x
 _atom_site_fract_y
 _atom_site_fract_z
 _atom_site_occupancy
  Pr  Pr0  1  0.585309  0.000000  0.000000  1
  Nd  Nd1  1  0.999854  0.585462  0.000000  1
  Nd  Nd2  1  0.414392  0.414538  0.000000  1
  Cd  Cd3  1  0.251295  0.000000  0.500000  1
  Cd  Cd4  1  0.000304  0.251889  0.500000  1
  Cd  Cd5  1  0.748414  0.748111  0.500000  1
  Si  Si6  1  0.332829  0.665913  0.500000  1
  Si  Si7  1  0.666917  0.334087  0.500000  1
  Au  Au8  1  0.000685  0.000000  0.000000  1
