# generated using pymatgen
data_YHo2Tm(Al3Ir)6
_symmetry_space_group_name_H-M   'P 1'
_cell_length_a   7.54294100
_cell_length_b   7.54530302
_cell_length_c   9.45822400
_cell_angle_alpha   90.00000000
_cell_angle_beta   90.00000000
_cell_angle_gamma   119.51683669
_symmetry_Int_Tables_number   1
_chemical_formula_structural   YHo2Tm(Al3Ir)6
_chemical_formula_sum   'Y1 Ho2 Tm1 Al18 Ir6'
_cell_volume   468.43737551
_cell_formula_units_Z   1
loop_
 _symmetry_equiv_pos_site_id
 _symmetry_equiv_pos_as_xyz
  1  'x, y, z'
loop_
 _atom_site_type_symbol
 _atom_site_label
 _atom_site_symmetry_multiplicity
 _atom_site_fract_x
 _atom_site_fract_y
 _atom_site_fract_z
 _atom_site_occupancy
  Y  Y0  1  0.994677  0.671078  0.250000  1
  Ho  Ho1  1  0.005308  0.328584  0.750000  1
  Ho  Ho2  1  0.671307  0.994775  0.250000  1
  Tm  Tm3  1  0.328550  0.005380  0.750000  1
  Al  Al4  1  0.129028  0.129470  0.250000  1
  Al  Al5  1  0.871255  0.871265  0.750000  1
  Al  Al6  1  0.000965  0.334764  0.073546  1
  Al  Al7  1  0.999391  0.665125  0.924867  1
  Al  Al8  1  0.999391  0.665125  0.575133  1
  Al  Al9  1  0.335386  0.001241  0.426676  1
  Al  Al10  1  0.000965  0.334764  0.426454  1
  Al  Al11  1  0.664574  0.999177  0.574570  1
  Al  Al12  1  0.664574  0.999177  0.925430  1
  Al  Al13  1  0.335386  0.001241  0.073324  1
  Al  Al14  1  0.333309  0.333084  0.552787  1
  Al  Al15  1  0.666438  0.666677  0.448621  1
  Al  Al16  1  0.666438  0.666677  0.051379  1
  Al  Al17  1  0.333309  0.333084  0.947213  1
  Al  Al18  1  0.339998  0.548502  0.250000  1
  Al  Al19  1  0.660153  0.451014  0.750000  1
  Al  Al20  1  0.547763  0.338583  0.250000  1
  Al  Al21  1  0.451425  0.660910  0.750000  1
  Ir  Ir22  1  0.671670  0.327955  0.999555  1
  Ir  Ir23  1  0.327986  0.672086  0.999560  1
  Ir  Ir24  1  0.327986  0.672086  0.500440  1
  Ir  Ir25  1  0.671670  0.327955  0.500445  1
  Ir  Ir26  1  0.000548  0.000112  0.999431  1
  Ir  Ir27  1  0.000548  0.000112  0.500569  1
