# generated using pymatgen
data_Ho4Er16Bi7Sb5
_symmetry_space_group_name_H-M   'P 1'
_cell_length_a   8.12780255
_cell_length_b   9.39063782
_cell_length_c   11.89043564
_cell_angle_alpha   90.03967472
_cell_angle_beta   89.93455514
_cell_angle_gamma   90.02652949
_symmetry_Int_Tables_number   1
_chemical_formula_structural   Ho4Er16Bi7Sb5
_chemical_formula_sum   'Ho4 Er16 Bi7 Sb5'
_cell_volume   907.53956601
_cell_formula_units_Z   1
loop_
 _symmetry_equiv_pos_site_id
 _symmetry_equiv_pos_as_xyz
  1  'x, y, z'
loop_
 _atom_site_type_symbol
 _atom_site_label
 _atom_site_symmetry_multiplicity
 _atom_site_fract_x
 _atom_site_fract_y
 _atom_site_fract_z
 _atom_site_occupancy
  Ho  Ho0  1  0.317387  0.248535  0.218133  1
  Ho  Ho1  1  0.813823  0.247697  0.282847  1
  Ho  Ho2  1  0.684163  0.749996  0.782449  1
  Ho  Ho3  1  0.183940  0.749973  0.717511  1
  Er  Er4  1  0.355777  0.752121  0.215211  1
  Er  Er5  1  0.851897  0.751650  0.285965  1
  Er  Er6  1  0.646199  0.250061  0.785565  1
  Er  Er7  1  0.146154  0.249979  0.714454  1
  Er  Er8  1  0.689003  0.563838  0.058342  1
  Er  Er9  1  0.190848  0.936639  0.441003  1
  Er  Er10  1  0.310887  0.063727  0.941568  1
  Er  Er11  1  0.810795  0.436127  0.558313  1
  Er  Er12  1  0.311039  0.436197  0.941694  1
  Er  Er13  1  0.809902  0.063405  0.557239  1
  Er  Er14  1  0.688211  0.936548  0.059963  1
  Er  Er15  1  0.189247  0.563790  0.441552  1
  Er  Er16  1  0.474089  0.248131  0.487255  1
  Er  Er17  1  0.973229  0.249989  0.011643  1
  Er  Er18  1  0.527130  0.751825  0.510131  1
  Er  Er19  1  0.026422  0.750084  0.988426  1
  Bi  Bi20  1  0.066125  0.504208  0.174576  1
  Bi  Bi21  1  0.434007  0.495818  0.674198  1
  Bi  Bi22  1  0.933889  0.004174  0.825462  1
  Bi  Bi23  1  0.433867  0.004216  0.674545  1
  Bi  Bi24  1  0.933943  0.495786  0.825507  1
  Bi  Bi25  1  0.566032  0.504172  0.325522  1
  Bi  Bi26  1  0.066160  0.995827  0.174376  1
  Sb  Sb27  1  0.405832  0.750037  0.958732  1
  Sb  Sb28  1  0.906210  0.749997  0.541423  1
  Sb  Sb29  1  0.594146  0.249995  0.041316  1
  Sb  Sb30  1  0.094063  0.249964  0.458558  1
  Sb  Sb31  1  0.565581  0.995496  0.326522  1
