# generated using pymatgen
data_Tm4Ge4P2Rh7
_symmetry_space_group_name_H-M   'P 1'
_cell_length_a   7.17457976
_cell_length_b   7.15774841
_cell_length_c   7.15774815
_cell_angle_alpha   109.20613599
_cell_angle_beta   109.55606550
_cell_angle_gamma   109.55606014
_symmetry_Int_Tables_number   1
_chemical_formula_structural   Tm4Ge4P2Rh7
_chemical_formula_sum   'Tm4 Ge4 P2 Rh7'
_cell_volume   283.29156587
_cell_formula_units_Z   1
loop_
 _symmetry_equiv_pos_site_id
 _symmetry_equiv_pos_as_xyz
  1  'x, y, z'
loop_
 _atom_site_type_symbol
 _atom_site_label
 _atom_site_symmetry_multiplicity
 _atom_site_fract_x
 _atom_site_fract_y
 _atom_site_fract_z
 _atom_site_occupancy
  Tm  Tm0  1  0.525087  0.526440  0.526440  1
  Tm  Tm1  1  0.995692  0.497846  0.997846  1
  Tm  Tm2  1  0.525087  0.998648  0.998648  1
  Tm  Tm3  1  0.995692  0.997846  0.497846  1
  Ge  Ge4  1  0.311388  0.305894  0.005494  1
  Ge  Ge5  1  0.010806  0.685469  0.685469  1
  Ge  Ge6  1  0.010806  0.325337  0.325337  1
  Ge  Ge7  1  0.311388  0.005494  0.305894  1
  P  P8  1  0.667594  0.002659  0.664935  1
  P  P9  1  0.667594  0.664935  0.002659  1
  Rh  Rh10  1  0.749611  0.500278  0.249332  1
  Rh  Rh11  1  0.500212  0.250106  0.750106  1
  Rh  Rh12  1  0.749611  0.249332  0.500278  1
  Rh  Rh13  1  0.256291  0.756454  0.499838  1
  Rh  Rh14  1  0.256291  0.499838  0.756454  1
  Rh  Rh15  1  0.500212  0.750106  0.250106  1
  Rh  Rh16  1  0.966637  0.983318  0.983318  1
