# generated using pymatgen
data_Y6Co17Si12Tc
_symmetry_space_group_name_H-M   'P 1'
_cell_length_a   3.78607000
_cell_length_b   10.63374500
_cell_length_c   12.37335100
_cell_angle_alpha   90.00000000
_cell_angle_beta   90.00000000
_cell_angle_gamma   90.00000000
_symmetry_Int_Tables_number   1
_chemical_formula_structural   Y6Co17Si12Tc
_chemical_formula_sum   'Y6 Co17 Si12 Tc1'
_cell_volume   498.15238488
_cell_formula_units_Z   1
loop_
 _symmetry_equiv_pos_site_id
 _symmetry_equiv_pos_as_xyz
  1  'x, y, z'
loop_
 _atom_site_type_symbol
 _atom_site_label
 _atom_site_symmetry_multiplicity
 _atom_site_fract_x
 _atom_site_fract_y
 _atom_site_fract_z
 _atom_site_occupancy
  Y  Y0  1  0.000000  0.500000  0.526099  1
  Y  Y1  1  0.500000  0.000000  0.474412  1
  Y  Y2  1  0.500000  0.817631  0.206341  1
  Y  Y3  1  0.500000  0.182369  0.206341  1
  Y  Y4  1  0.000000  0.682466  0.795947  1
  Y  Y5  1  0.000000  0.317534  0.795947  1
  Co  Co6  1  0.000000  0.000000  0.846962  1
  Co  Co7  1  0.500000  0.500000  0.697232  1
  Co  Co8  1  0.000000  0.000000  0.302488  1
  Co  Co9  1  0.000000  0.500000  0.981736  1
  Co  Co10  1  0.500000  0.000000  0.017911  1
  Co  Co11  1  0.500000  0.327930  0.992419  1
  Co  Co12  1  0.500000  0.672070  0.992419  1
  Co  Co13  1  0.000000  0.167174  0.004025  1
  Co  Co14  1  0.000000  0.832826  0.004025  1
  Co  Co15  1  0.500000  0.300924  0.431405  1
  Co  Co16  1  0.500000  0.699076  0.431405  1
  Co  Co17  1  0.000000  0.198003  0.571528  1
  Co  Co18  1  0.000000  0.801997  0.571528  1
  Co  Co19  1  0.500000  0.883470  0.707856  1
  Co  Co20  1  0.500000  0.116530  0.707856  1
  Co  Co21  1  0.000000  0.618986  0.292827  1
  Co  Co22  1  0.000000  0.381014  0.292827  1
  Si  Si23  1  0.500000  0.500000  0.883771  1
  Si  Si24  1  0.000000  0.000000  0.116283  1
  Si  Si25  1  0.500000  0.500000  0.341103  1
  Si  Si26  1  0.000000  0.000000  0.661346  1
  Si  Si27  1  0.500000  0.303601  0.615131  1
  Si  Si28  1  0.500000  0.696399  0.615131  1
  Si  Si29  1  0.000000  0.196072  0.387444  1
  Si  Si30  1  0.000000  0.803928  0.387444  1
  Si  Si31  1  0.500000  0.854904  0.891827  1
  Si  Si32  1  0.500000  0.145096  0.891827  1
  Si  Si33  1  0.000000  0.651680  0.104585  1
  Si  Si34  1  0.000000  0.348320  0.104585  1
  Tc  Tc35  1  0.500000  0.500000  0.147982  1
