# generated using pymatgen
data_Ca4Eu3Tm(BO4)4
_symmetry_space_group_name_H-M   'P 1'
_cell_length_a   3.65946200
_cell_length_b   9.86609522
_cell_length_c   10.54731824
_cell_angle_alpha   90.02433164
_cell_angle_beta   90.00000000
_cell_angle_gamma   90.00000000
_symmetry_Int_Tables_number   1
_chemical_formula_structural   Ca4Eu3Tm(BO4)4
_chemical_formula_sum   'Ca4 Eu3 Tm1 B4 O16'
_cell_volume   380.80667756
_cell_formula_units_Z   1
loop_
 _symmetry_equiv_pos_site_id
 _symmetry_equiv_pos_as_xyz
  1  'x, y, z'
loop_
 _atom_site_type_symbol
 _atom_site_label
 _atom_site_symmetry_multiplicity
 _atom_site_fract_x
 _atom_site_fract_y
 _atom_site_fract_z
 _atom_site_occupancy
  Ca  Ca0  1  0.250000  0.685898  0.083026  1
  Ca  Ca1  1  0.750000  0.316193  0.918679  1
  Ca  Ca2  1  0.750000  0.179723  0.416301  1
  Ca  Ca3  1  0.250000  0.818493  0.580944  1
  Eu  Eu4  1  0.750000  0.921931  0.881089  1
  Eu  Eu5  1  0.750000  0.578098  0.375174  1
  Eu  Eu6  1  0.250000  0.420396  0.623687  1
  Tm  Tm7  1  0.250000  0.085283  0.118813  1
  B  B8  1  0.250000  0.364026  0.189509  1
  B  B9  1  0.750000  0.632605  0.810545  1
  B  B10  1  0.750000  0.870973  0.306788  1
  B  B11  1  0.250000  0.130222  0.690492  1
  O  O12  1  0.250000  0.497924  0.230802  1
  O  O13  1  0.750000  0.498453  0.769065  1
  O  O14  1  0.750000  0.002851  0.259152  1
  O  O15  1  0.250000  0.996772  0.733486  1
  O  O16  1  0.250000  0.253733  0.273574  1
  O  O17  1  0.750000  0.740739  0.724736  1
  O  O18  1  0.750000  0.759028  0.224730  1
  O  O19  1  0.250000  0.238596  0.776408  1
  O  O20  1  0.250000  0.334114  0.060475  1
  O  O21  1  0.750000  0.661583  0.939746  1
  O  O22  1  0.750000  0.846829  0.436974  1
  O  O23  1  0.250000  0.158007  0.561213  1
  O  O24  1  0.250000  0.608049  0.499143  1
  O  O25  1  0.750000  0.390873  0.499198  1
  O  O26  1  0.750000  0.111174  0.008502  1
  O  O27  1  0.250000  0.897435  0.007748  1
