# generated using pymatgen
data_Sc8Al(Si5Tc4)3
_symmetry_space_group_name_H-M   'P 1'
_cell_length_a   6.64833496
_cell_length_b   6.67216508
_cell_length_c   12.37882500
_cell_angle_alpha   90.00000000
_cell_angle_beta   90.00000000
_cell_angle_gamma   89.37356290
_symmetry_Int_Tables_number   1
_chemical_formula_structural   Sc8Al(Si5Tc4)3
_chemical_formula_sum   'Sc8 Al1 Si15 Tc12'
_cell_volume   549.07685876
_cell_formula_units_Z   1
loop_
 _symmetry_equiv_pos_site_id
 _symmetry_equiv_pos_as_xyz
  1  'x, y, z'
loop_
 _atom_site_type_symbol
 _atom_site_label
 _atom_site_symmetry_multiplicity
 _atom_site_fract_x
 _atom_site_fract_y
 _atom_site_fract_z
 _atom_site_occupancy
  Sc  Sc0  1  0.495022  0.335093  0.091889  1
  Sc  Sc1  1  0.987627  0.166571  0.408227  1
  Sc  Sc2  1  0.513029  0.671807  0.590998  1
  Sc  Sc3  1  0.000196  0.831284  0.907244  1
  Sc  Sc4  1  0.513029  0.671807  0.909002  1
  Sc  Sc5  1  0.000196  0.831284  0.592756  1
  Sc  Sc6  1  0.495022  0.335093  0.408111  1
  Sc  Sc7  1  0.987627  0.166571  0.091773  1
  Al  Al8  1  0.532697  0.347764  0.750000  1
  Si  Si9  1  0.652921  0.058302  0.551672  1
  Si  Si10  1  0.174921  0.458174  0.954083  1
  Si  Si11  1  0.333212  0.955846  0.047251  1
  Si  Si12  1  0.845285  0.553700  0.448373  1
  Si  Si13  1  0.333212  0.955846  0.452749  1
  Si  Si14  1  0.845285  0.553700  0.051627  1
  Si  Si15  1  0.652921  0.058302  0.948328  1
  Si  Si16  1  0.174921  0.458174  0.545917  1
  Si  Si17  1  0.009895  0.133140  0.750000  1
  Si  Si18  1  0.480352  0.636998  0.250000  1
  Si  Si19  1  0.971813  0.862528  0.250000  1
  Si  Si20  1  0.806374  0.623291  0.750000  1
  Si  Si21  1  0.303909  0.848555  0.750000  1
  Si  Si22  1  0.193141  0.357032  0.250000  1
  Si  Si23  1  0.695723  0.143151  0.250000  1
  Tc  Tc24  1  0.849398  0.349573  0.610364  1
  Tc  Tc25  1  0.296209  0.139569  0.877197  1
  Tc  Tc26  1  0.191639  0.651831  0.125809  1
  Tc  Tc27  1  0.668325  0.855890  0.376740  1
  Tc  Tc28  1  0.191639  0.651831  0.374191  1
  Tc  Tc29  1  0.668325  0.855890  0.123260  1
  Tc  Tc30  1  0.849398  0.349573  0.889636  1
  Tc  Tc31  1  0.296209  0.139569  0.622803  1
  Tc  Tc32  1  0.667918  0.975249  0.750000  1
  Tc  Tc33  1  0.171445  0.510056  0.750000  1
  Tc  Tc34  1  0.323520  0.016397  0.250000  1
  Tc  Tc35  1  0.827649  0.490561  0.250000  1
