# generated using pymatgen
data_Ca8Yb2IrPd3
_symmetry_space_group_name_H-M   'P 1'
_cell_length_a   8.83613727
_cell_length_b   8.82537683
_cell_length_c   7.63113365
_cell_angle_alpha   82.99087991
_cell_angle_beta   83.20333410
_cell_angle_gamma   44.04756214
_symmetry_Int_Tables_number   1
_chemical_formula_structural   Ca8Yb2IrPd3
_chemical_formula_sum   'Ca8 Yb2 Ir1 Pd3'
_cell_volume   410.24454082
_cell_formula_units_Z   1
loop_
 _symmetry_equiv_pos_site_id
 _symmetry_equiv_pos_as_xyz
  1  'x, y, z'
loop_
 _atom_site_type_symbol
 _atom_site_label
 _atom_site_symmetry_multiplicity
 _atom_site_fract_x
 _atom_site_fract_y
 _atom_site_fract_z
 _atom_site_occupancy
  Ca  Ca0  1  0.024318  0.791598  0.914583  1
  Ca  Ca1  1  0.202242  0.969896  0.578860  1
  Ca  Ca2  1  0.975207  0.205865  0.078554  1
  Ca  Ca3  1  0.805279  0.011486  0.422669  1
  Ca  Ca4  1  0.359667  0.209843  0.812549  1
  Ca  Ca5  1  0.806591  0.637147  0.679890  1
  Ca  Ca6  1  0.633075  0.801727  0.180575  1
  Ca  Ca7  1  0.201943  0.367790  0.326151  1
  Yb  Yb8  1  0.569832  0.427884  0.745065  1
  Yb  Yb9  1  0.420917  0.573647  0.258677  1
  Ir  Ir10  1  0.188508  0.598431  0.580561  1
  Pd  Pd11  1  0.406153  0.807617  0.923461  1
  Pd  Pd12  1  0.808555  0.407151  0.421333  1
  Pd  Pd13  1  0.597712  0.189919  0.077075  1
