# generated using pymatgen
data_Ho2Er6In3Os
_symmetry_space_group_name_H-M   'P 1'
_cell_length_a   10.32036500
_cell_length_b   10.31943311
_cell_length_c   7.03609305
_cell_angle_alpha   90.01128666
_cell_angle_beta   90.00000000
_cell_angle_gamma   120.00297768
_symmetry_Int_Tables_number   1
_chemical_formula_structural   Ho2Er6In3Os
_chemical_formula_sum   'Ho4 Er12 In6 Os2'
_cell_volume   648.93329912
_cell_formula_units_Z   2
loop_
 _symmetry_equiv_pos_site_id
 _symmetry_equiv_pos_as_xyz
  1  'x, y, z'
loop_
 _atom_site_type_symbol
 _atom_site_label
 _atom_site_symmetry_multiplicity
 _atom_site_fract_x
 _atom_site_fract_y
 _atom_site_fract_z
 _atom_site_occupancy
  Ho  Ho0  1  0.532676  0.065351  0.793716  1
  Ho  Ho1  1  0.934758  0.467374  0.793814  1
  Ho  Ho2  1  0.532617  0.467374  0.793814  1
  Ho  Ho3  1  0.467216  0.934432  0.293718  1
  Er  Er4  1  0.065779  0.532826  0.293837  1
  Er  Er5  1  0.467048  0.532826  0.293837  1
  Er  Er6  1  0.822751  0.645501  0.499108  1
  Er  Er7  1  0.354397  0.177326  0.499182  1
  Er  Er8  1  0.822928  0.177326  0.499182  1
  Er  Er9  1  0.177292  0.354584  0.999514  1
  Er  Er10  1  0.645579  0.822682  0.999466  1
  Er  Er11  1  0.177103  0.822682  0.999466  1
  Er  Er12  1  0.666748  0.333495  0.171504  1
  Er  Er13  1  0.333240  0.666482  0.671322  1
  Er  Er14  1  0.000025  0.000050  0.778047  1
  Er  Er15  1  0.000016  0.000031  0.278033  1
  In  In16  1  0.837093  0.674187  0.039960  1
  In  In17  1  0.325836  0.162956  0.039974  1
  In  In18  1  0.837119  0.162956  0.039974  1
  In  In19  1  0.163035  0.326069  0.539693  1
  In  In20  1  0.674044  0.836933  0.539842  1
  In  In21  1  0.162890  0.836933  0.539842  1
  Os  Os22  1  0.666636  0.333271  0.569325  1
  Os  Os23  1  0.333175  0.666352  0.069731  1
