# generated using pymatgen
data_Lu3FeSi3Rh
_symmetry_space_group_name_H-M   'P 1'
_cell_length_a   5.57633204
_cell_length_b   5.57633212
_cell_length_c   13.42947910
_cell_angle_alpha   89.85630940
_cell_angle_beta   90.14369090
_cell_angle_gamma   136.98375790
_symmetry_Int_Tables_number   1
_chemical_formula_structural   Lu3FeSi3Rh
_chemical_formula_sum   'Lu6 Fe2 Si6 Rh2'
_cell_volume   284.88538035
_cell_formula_units_Z   2
loop_
 _symmetry_equiv_pos_site_id
 _symmetry_equiv_pos_as_xyz
  1  'x, y, z'
loop_
 _atom_site_type_symbol
 _atom_site_label
 _atom_site_symmetry_multiplicity
 _atom_site_fract_x
 _atom_site_fract_y
 _atom_site_fract_z
 _atom_site_occupancy
  Lu  Lu0  1  0.640529  0.359471  0.248251  1
  Lu  Lu1  1  0.359471  0.640529  0.751749  1
  Lu  Lu2  1  0.921257  0.078743  0.109860  1
  Lu  Lu3  1  0.078743  0.921257  0.890140  1
  Lu  Lu4  1  0.079715  0.920285  0.617173  1
  Lu  Lu5  1  0.920285  0.079715  0.382827  1
  Fe  Fe6  1  0.212990  0.787010  0.080690  1
  Fe  Fe7  1  0.787010  0.212990  0.919310  1
  Si  Si8  1  0.332608  0.667392  0.243515  1
  Si  Si9  1  0.667392  0.332608  0.756485  1
  Si  Si10  1  0.623257  0.376743  0.039094  1
  Si  Si11  1  0.376743  0.623257  0.960906  1
  Si  Si12  1  0.392959  0.607041  0.538247  1
  Si  Si13  1  0.607041  0.392959  0.461753  1
  Rh  Rh14  1  0.787818  0.212182  0.585633  1
  Rh  Rh15  1  0.212182  0.787818  0.414367  1
