# generated using pymatgen
data_Pr4Ir2Pd4O19
_symmetry_space_group_name_H-M   'P 1'
_cell_length_a   7.83117294
_cell_length_b   7.83117225
_cell_length_c   7.83117309
_cell_angle_alpha   109.69684929
_cell_angle_beta   109.24724726
_cell_angle_gamma   109.46987423
_symmetry_Int_Tables_number   1
_chemical_formula_structural   Pr4Ir2Pd4O19
_chemical_formula_sum   'Pr4 Ir2 Pd4 O19'
_cell_volume   369.70204587
_cell_formula_units_Z   1
loop_
 _symmetry_equiv_pos_site_id
 _symmetry_equiv_pos_as_xyz
  1  'x, y, z'
loop_
 _atom_site_type_symbol
 _atom_site_label
 _atom_site_symmetry_multiplicity
 _atom_site_fract_x
 _atom_site_fract_y
 _atom_site_fract_z
 _atom_site_occupancy
  Pr  Pr0  1  0.684024  0.672789  0.682296  1
  Pr  Pr1  1  0.315976  0.998272  0.988765  1
  Pr  Pr2  1  0.009507  0.327211  0.011235  1
  Pr  Pr3  1  0.990493  0.001728  0.317704  1
  Ir  Ir4  1  0.337194  0.837194  0.500000  1
  Ir  Ir5  1  0.662806  0.162806  0.500000  1
  Pd  Pd6  1  0.841300  0.500000  0.341300  1
  Pd  Pd7  1  0.158700  0.500000  0.658700  1
  Pd  Pd8  1  0.500000  0.340655  0.840655  1
  Pd  Pd9  1  0.500000  0.659345  0.159345  1
  O  O10  1  0.662645  0.662645  0.000000  1
  O  O11  1  0.337355  0.337355  0.000000  1
  O  O12  1  0.648277  0.000000  0.648277  1
  O  O13  1  0.351723  0.000000  0.351723  1
  O  O14  1  0.000000  0.664494  0.664494  1
  O  O15  1  0.000000  0.335506  0.335506  1
  O  O16  1  0.000000  0.000000  0.000000  1
  O  O17  1  0.357897  0.605662  0.325874  1
  O  O18  1  0.642103  0.967977  0.247765  1
  O  O19  1  0.720214  0.394338  0.752235  1
  O  O20  1  0.607901  0.322353  0.367139  1
  O  O21  1  0.279786  0.032023  0.674126  1
  O  O22  1  0.955212  0.240761  0.632861  1
  O  O23  1  0.392099  0.759238  0.714452  1
  O  O24  1  0.044788  0.677647  0.285548  1
  O  O25  1  0.325461  0.362127  0.604850  1
  O  O26  1  0.757277  0.720612  0.395150  1
  O  O27  1  0.674539  0.279388  0.036667  1
  O  O28  1  0.242722  0.637873  0.963333  1
