# generated using pymatgen
data_Tb3Ho(Sc3Si4)2
_symmetry_space_group_name_H-M   'P 1'
_cell_length_a   7.10725223
_cell_length_b   7.39923446
_cell_length_c   14.02352283
_cell_angle_alpha   89.96562692
_cell_angle_beta   90.01945351
_cell_angle_gamma   90.02130730
_symmetry_Int_Tables_number   1
_chemical_formula_structural   Tb3Ho(Sc3Si4)2
_chemical_formula_sum   'Tb6 Ho2 Sc12 Si16'
_cell_volume   737.47195608
_cell_formula_units_Z   2
loop_
 _symmetry_equiv_pos_site_id
 _symmetry_equiv_pos_as_xyz
  1  'x, y, z'
loop_
 _atom_site_type_symbol
 _atom_site_label
 _atom_site_symmetry_multiplicity
 _atom_site_fract_x
 _atom_site_fract_y
 _atom_site_fract_z
 _atom_site_occupancy
  Tb  Tb0  1  0.011898  0.174960  0.097060  1
  Tb  Tb1  1  0.988102  0.825040  0.902940  1
  Tb  Tb2  1  0.488063  0.674922  0.903026  1
  Tb  Tb3  1  0.988034  0.824988  0.597000  1
  Tb  Tb4  1  0.511937  0.325078  0.096974  1
  Tb  Tb5  1  0.011966  0.175012  0.403000  1
  Ho  Ho6  1  0.511943  0.324964  0.402941  1
  Ho  Ho7  1  0.488057  0.675036  0.597059  1
  Sc  Sc8  1  0.160638  0.502625  0.749964  1
  Sc  Sc9  1  0.839362  0.497375  0.250036  1
  Sc  Sc10  1  0.339474  0.002662  0.250065  1
  Sc  Sc11  1  0.660526  0.997338  0.749935  1
  Sc  Sc12  1  0.330549  0.176803  0.624973  1
  Sc  Sc13  1  0.669451  0.823197  0.375027  1
  Sc  Sc14  1  0.169707  0.676544  0.375022  1
  Sc  Sc15  1  0.669568  0.823370  0.125030  1
  Sc  Sc16  1  0.830293  0.323456  0.624978  1
  Sc  Sc17  1  0.330432  0.176630  0.874970  1
  Sc  Sc18  1  0.830401  0.323369  0.874962  1
  Sc  Sc19  1  0.169599  0.676631  0.125038  1
  Si  Si20  1  0.033228  0.117993  0.749983  1
  Si  Si21  1  0.966772  0.882007  0.250017  1
  Si  Si22  1  0.466845  0.617721  0.250095  1
  Si  Si23  1  0.533155  0.382279  0.749905  1
  Si  Si24  1  0.285647  0.873836  0.749873  1
  Si  Si25  1  0.714353  0.126164  0.250127  1
  Si  Si26  1  0.214729  0.374006  0.250142  1
  Si  Si27  1  0.785271  0.625994  0.749858  1
  Si  Si28  1  0.158089  0.464789  0.539443  1
  Si  Si29  1  0.841911  0.535211  0.460557  1
  Si  Si30  1  0.342665  0.964666  0.460625  1
  Si  Si31  1  0.842516  0.535364  0.039409  1
  Si  Si32  1  0.657335  0.035334  0.539375  1
  Si  Si33  1  0.157484  0.464636  0.960591  1
  Si  Si34  1  0.657560  0.035351  0.960611  1
  Si  Si35  1  0.342440  0.964649  0.039389  1
