# generated using pymatgen
data_NaSr2Zn2Sb3
_symmetry_space_group_name_H-M   'P 1'
_cell_length_a   4.67809600
_cell_length_b   12.57855100
_cell_length_c   15.84303500
_cell_angle_alpha   90.00000000
_cell_angle_beta   90.00000000
_cell_angle_gamma   90.00000000
_symmetry_Int_Tables_number   1
_chemical_formula_structural   NaSr2Zn2Sb3
_chemical_formula_sum   'Na4 Sr8 Zn8 Sb12'
_cell_volume   932.26230938
_cell_formula_units_Z   4
loop_
 _symmetry_equiv_pos_site_id
 _symmetry_equiv_pos_as_xyz
  1  'x, y, z'
loop_
 _atom_site_type_symbol
 _atom_site_label
 _atom_site_symmetry_multiplicity
 _atom_site_fract_x
 _atom_site_fract_y
 _atom_site_fract_z
 _atom_site_occupancy
  Na  Na0  1  0.250000  0.393443  0.552099  1
  Na  Na1  1  0.750000  0.106557  0.052099  1
  Na  Na2  1  0.250000  0.893443  0.947901  1
  Na  Na3  1  0.750000  0.606557  0.447901  1
  Sr  Sr4  1  0.250000  0.370719  0.292127  1
  Sr  Sr5  1  0.750000  0.129281  0.792127  1
  Sr  Sr6  1  0.250000  0.870719  0.207873  1
  Sr  Sr7  1  0.750000  0.629281  0.707873  1
  Sr  Sr8  1  0.250000  0.100666  0.427470  1
  Sr  Sr9  1  0.750000  0.399334  0.927470  1
  Sr  Sr10  1  0.250000  0.600666  0.072530  1
  Sr  Sr11  1  0.750000  0.899334  0.572530  1
  Zn  Zn12  1  0.250000  0.305021  0.086116  1
  Zn  Zn13  1  0.750000  0.194979  0.586116  1
  Zn  Zn14  1  0.250000  0.805021  0.413884  1
  Zn  Zn15  1  0.750000  0.694979  0.913884  1
  Zn  Zn16  1  0.250000  0.370984  0.785164  1
  Zn  Zn17  1  0.750000  0.129016  0.285164  1
  Zn  Zn18  1  0.250000  0.870984  0.714836  1
  Zn  Zn19  1  0.750000  0.629016  0.214836  1
  Sb  Sb20  1  0.250000  0.132379  0.195848  1
  Sb  Sb21  1  0.750000  0.367621  0.695848  1
  Sb  Sb22  1  0.250000  0.632379  0.304152  1
  Sb  Sb23  1  0.750000  0.867621  0.804152  1
  Sb  Sb24  1  0.250000  0.710929  0.570699  1
  Sb  Sb25  1  0.750000  0.789071  0.070699  1
  Sb  Sb26  1  0.250000  0.210929  0.929301  1
  Sb  Sb27  1  0.750000  0.289071  0.429301  1
  Sb  Sb28  1  0.250000  0.079338  0.636436  1
  Sb  Sb29  1  0.750000  0.420662  0.136436  1
  Sb  Sb30  1  0.250000  0.579338  0.863564  1
  Sb  Sb31  1  0.750000  0.920662  0.363564  1
