# generated using pymatgen
data_Dy8Ti9Nb2Si16Tc
_symmetry_space_group_name_H-M   'P 1'
_cell_length_a   7.03431310
_cell_length_b   7.02294152
_cell_length_c   12.95007131
_cell_angle_alpha   90.04715009
_cell_angle_beta   90.04388740
_cell_angle_gamma   89.98004811
_symmetry_Int_Tables_number   1
_chemical_formula_structural   Dy8Ti9Nb2Si16Tc
_chemical_formula_sum   'Dy8 Ti9 Nb2 Si16 Tc1'
_cell_volume   639.75340525
_cell_formula_units_Z   1
loop_
 _symmetry_equiv_pos_site_id
 _symmetry_equiv_pos_as_xyz
  1  'x, y, z'
loop_
 _atom_site_type_symbol
 _atom_site_label
 _atom_site_symmetry_multiplicity
 _atom_site_fract_x
 _atom_site_fract_y
 _atom_site_fract_z
 _atom_site_occupancy
  Dy  Dy0  1  0.998526  0.656838  0.035073  1
  Dy  Dy1  1  0.001600  0.341238  0.531778  1
  Dy  Dy2  1  0.660124  0.996932  0.966426  1
  Dy  Dy3  1  0.158562  0.501646  0.783388  1
  Dy  Dy4  1  0.840170  0.495629  0.283150  1
  Dy  Dy5  1  0.502898  0.160329  0.218684  1
  Dy  Dy6  1  0.496690  0.839501  0.715562  1
  Dy  Dy7  1  0.342702  0.001828  0.466650  1
  Ti  Ti8  1  0.995556  0.843344  0.622070  1
  Ti  Ti9  1  0.507837  0.345801  0.625578  1
  Ti  Ti10  1  0.153034  0.007011  0.874478  1
  Ti  Ti11  1  0.669898  0.671887  0.498475  1
  Ti  Ti12  1  0.826780  0.172213  0.750069  1
  Ti  Ti13  1  0.174124  0.826980  0.250838  1
  Ti  Ti14  1  0.327499  0.327035  0.001213  1
  Ti  Ti15  1  0.495814  0.654485  0.124770  1
  Ti  Ti16  1  0.653073  0.493123  0.875537  1
  Nb  Nb17  1  0.845562  0.991661  0.375217  1
  Nb  Nb18  1  0.010110  0.156330  0.127700  1
  Si  Si19  1  0.049464  0.707447  0.435988  1
  Si  Si20  1  0.953479  0.291290  0.935146  1
  Si  Si21  1  0.708370  0.047345  0.565630  1
  Si  Si22  1  0.211369  0.458015  0.188015  1
  Si  Si23  1  0.790430  0.546652  0.684953  1
  Si  Si24  1  0.453987  0.208745  0.815019  1
  Si  Si25  1  0.542205  0.786805  0.312635  1
  Si  Si26  1  0.293776  0.952641  0.064080  1
  Si  Si27  1  0.795207  0.866744  0.183523  1
  Si  Si28  1  0.298709  0.630623  0.563238  1
  Si  Si29  1  0.701830  0.369142  0.066088  1
  Si  Si30  1  0.624807  0.302820  0.434518  1
  Si  Si31  1  0.368566  0.702469  0.933551  1
  Si  Si32  1  0.133617  0.206831  0.318263  1
  Si  Si33  1  0.200439  0.130843  0.683594  1
  Si  Si34  1  0.869220  0.797913  0.815051  1
  Tc  Tc35  1  0.343966  0.509866  0.374053  1
