# generated using pymatgen
data_Dy2SnP6(Ir5Rh)2
_symmetry_space_group_name_H-M   'P 1'
_cell_length_a   9.64376564
_cell_length_b   9.75684539
_cell_length_c   3.98166698
_cell_angle_alpha   91.10805109
_cell_angle_beta   90.11824621
_cell_angle_gamma   119.29124704
_symmetry_Int_Tables_number   1
_chemical_formula_structural   Dy2SnP6(Ir5Rh)2
_chemical_formula_sum   'Dy2 Sn1 P6 Ir10 Rh2'
_cell_volume   326.65556315
_cell_formula_units_Z   1
loop_
 _symmetry_equiv_pos_site_id
 _symmetry_equiv_pos_as_xyz
  1  'x, y, z'
loop_
 _atom_site_type_symbol
 _atom_site_label
 _atom_site_symmetry_multiplicity
 _atom_site_fract_x
 _atom_site_fract_y
 _atom_site_fract_z
 _atom_site_occupancy
  Dy  Dy0  1  0.331019  0.667576  0.761930  1
  Dy  Dy1  1  0.667974  0.331905  0.234939  1
  Sn  Sn2  1  0.002244  0.002481  0.530959  1
  P  P3  1  0.412421  0.285719  0.735539  1
  P  P4  1  0.715336  0.121090  0.726604  1
  P  P5  1  0.874838  0.588713  0.745048  1
  P  P6  1  0.591806  0.718766  0.260020  1
  P  P7  1  0.279835  0.879364  0.271937  1
  P  P8  1  0.123895  0.404807  0.253815  1
  Ir  Ir9  1  0.452867  0.068795  0.739825  1
  Ir  Ir10  1  0.929695  0.384624  0.736956  1
  Ir  Ir11  1  0.614134  0.542632  0.745133  1
  Ir  Ir12  1  0.541993  0.932297  0.254349  1
  Ir  Ir13  1  0.068629  0.607947  0.263667  1
  Ir  Ir14  1  0.393111  0.462449  0.252202  1
  Ir  Ir15  1  0.173176  0.295042  0.755038  1
  Ir  Ir16  1  0.706565  0.869393  0.772125  1
  Ir  Ir17  1  0.116990  0.825953  0.786024  1
  Ir  Ir18  1  0.836494  0.714700  0.242270  1
  Rh  Rh19  1  0.287264  0.131602  0.221151  1
  Rh  Rh20  1  0.879714  0.164144  0.210470  1
