# generated using pymatgen
data_Zr10SiSb6Pt
_symmetry_space_group_name_H-M   'P 1'
_cell_length_a   8.70116900
_cell_length_b   8.70116927
_cell_length_c   5.86339400
_cell_angle_alpha   90.00000000
_cell_angle_beta   90.00000000
_cell_angle_gamma   119.99999516
_symmetry_Int_Tables_number   1
_chemical_formula_structural   Zr10SiSb6Pt
_chemical_formula_sum   'Zr10 Si1 Sb6 Pt1'
_cell_volume   384.44565116
_cell_formula_units_Z   1
loop_
 _symmetry_equiv_pos_site_id
 _symmetry_equiv_pos_as_xyz
  1  'x, y, z'
loop_
 _atom_site_type_symbol
 _atom_site_label
 _atom_site_symmetry_multiplicity
 _atom_site_fract_x
 _atom_site_fract_y
 _atom_site_fract_z
 _atom_site_occupancy
  Zr  Zr0  1  0.266721  0.000000  0.260327  1
  Zr  Zr1  1  0.266721  0.266721  0.739673  1
  Zr  Zr2  1  0.000000  0.733279  0.739673  1
  Zr  Zr3  1  0.000000  0.266721  0.260327  1
  Zr  Zr4  1  0.733279  0.733279  0.260327  1
  Zr  Zr5  1  0.733279  0.000000  0.739673  1
  Zr  Zr6  1  0.333333  0.666667  0.000000  1
  Zr  Zr7  1  0.666667  0.333333  0.500000  1
  Zr  Zr8  1  0.666667  0.333333  0.000000  1
  Zr  Zr9  1  0.333333  0.666667  0.500000  1
  Si  Si10  1  0.000000  0.000000  0.500000  1
  Sb  Sb11  1  0.611488  0.000000  0.245423  1
  Sb  Sb12  1  0.611488  0.611488  0.754577  1
  Sb  Sb13  1  0.000000  0.388512  0.754577  1
  Sb  Sb14  1  0.000000  0.611488  0.245423  1
  Sb  Sb15  1  0.388512  0.388512  0.245423  1
  Sb  Sb16  1  0.388512  0.000000  0.754577  1
  Pt  Pt17  1  0.000000  0.000000  0.000000  1
