# generated using pymatgen
data_LuTh3(Al8Pd3)3
_symmetry_space_group_name_H-M   'P 1'
_cell_length_a   7.62551627
_cell_length_b   7.64166912
_cell_length_c   13.23347600
_cell_angle_alpha   84.50858341
_cell_angle_beta   78.99928890
_cell_angle_gamma   59.90934698
_symmetry_Int_Tables_number   1
_chemical_formula_structural   LuTh3(Al8Pd3)3
_chemical_formula_sum   'Lu1 Th3 Al24 Pd9'
_cell_volume   654.95299253
_cell_formula_units_Z   1
loop_
 _symmetry_equiv_pos_site_id
 _symmetry_equiv_pos_as_xyz
  1  'x, y, z'
loop_
 _atom_site_type_symbol
 _atom_site_label
 _atom_site_symmetry_multiplicity
 _atom_site_fract_x
 _atom_site_fract_y
 _atom_site_fract_z
 _atom_site_occupancy
  Lu  Lu0  1  0.395093  0.167949  0.805745  1
  Th  Th1  1  0.605219  0.832674  0.192495  1
  Th  Th2  1  0.733284  0.499002  0.806812  1
  Th  Th3  1  0.266865  0.500962  0.192450  1
  Al  Al4  1  0.682827  0.838118  0.942001  1
  Al  Al5  1  0.314561  0.166523  0.050221  1
  Al  Al6  1  0.144472  0.833809  0.563153  1
  Al  Al7  1  0.853702  0.166010  0.440414  1
  Al  Al8  1  0.480074  0.166730  0.561152  1
  Al  Al9  1  0.518689  0.834001  0.442595  1
  Al  Al10  1  0.211511  0.165426  0.336273  1
  Al  Al11  1  0.783112  0.838508  0.667376  1
  Al  Al12  1  0.435025  0.506190  0.667612  1
  Al  Al13  1  0.564329  0.489502  0.336711  1
  Al  Al14  1  0.114672  0.156663  0.666122  1
  Al  Al15  1  0.887745  0.844082  0.338393  1
  Al  Al16  1  0.350529  0.497361  0.941824  1
  Al  Al17  1  0.652473  0.496350  0.052867  1
  Al  Al18  1  0.019133  0.165737  0.951436  1
  Al  Al19  1  0.986446  0.835183  0.040633  1
  Al  Al20  1  0.186651  0.499767  0.442539  1
  Al  Al21  1  0.813254  0.499739  0.559517  1
  Al  Al22  1  0.738230  0.163342  0.184147  1
  Al  Al23  1  0.263585  0.839911  0.815543  1
  Al  Al24  1  0.064442  0.630039  0.814035  1
  Al  Al25  1  0.939389  0.364579  0.185674  1
  Al  Al26  1  0.854883  0.039306  0.815342  1
  Al  Al27  1  0.140402  0.962790  0.184187  1
  Pd  Pd28  1  0.120911  0.491670  0.638230  1
  Pd  Pd29  1  0.879393  0.507854  0.362542  1
  Pd  Pd30  1  0.656972  0.171178  0.999767  1
  Pd  Pd31  1  0.342756  0.828605  0.000125  1
  Pd  Pd32  1  0.537585  0.167090  0.362652  1
  Pd  Pd33  1  0.462501  0.833478  0.638265  1
  Pd  Pd34  1  0.777981  0.175244  0.638125  1
  Pd  Pd35  1  0.221215  0.824864  0.363141  1
  Pd  Pd36  1  0.000087  0.499759  0.999887  1
