# generated using pymatgen
data_Lu8Si15PW12
_symmetry_space_group_name_H-M   'P 1'
_cell_length_a   6.68966397
_cell_length_b   6.87252731
_cell_length_c   12.80760353
_cell_angle_alpha   90.03457049
_cell_angle_beta   90.11049103
_cell_angle_gamma   90.13806123
_symmetry_Int_Tables_number   1
_chemical_formula_structural   Lu8Si15PW12
_chemical_formula_sum   'Lu8 Si15 P1 W12'
_cell_volume   588.82535664
_cell_formula_units_Z   1
loop_
 _symmetry_equiv_pos_site_id
 _symmetry_equiv_pos_as_xyz
  1  'x, y, z'
loop_
 _atom_site_type_symbol
 _atom_site_label
 _atom_site_symmetry_multiplicity
 _atom_site_fract_x
 _atom_site_fract_y
 _atom_site_fract_z
 _atom_site_occupancy
  Lu  Lu0  1  0.494967  0.671038  0.592111  1
  Lu  Lu1  1  0.995722  0.832202  0.906781  1
  Lu  Lu2  1  0.505262  0.331411  0.092771  1
  Lu  Lu3  1  0.002832  0.168096  0.407017  1
  Lu  Lu4  1  0.504760  0.329050  0.407239  1
  Lu  Lu5  1  0.005746  0.168244  0.093053  1
  Lu  Lu6  1  0.494979  0.667423  0.906965  1
  Lu  Lu7  1  0.993068  0.830060  0.593271  1
  Si  Si8  1  0.163801  0.540677  0.046306  1
  Si  Si9  1  0.337286  0.040454  0.953901  1
  Si  Si10  1  0.834961  0.459495  0.546406  1
  Si  Si11  1  0.330647  0.041880  0.547564  1
  Si  Si12  1  0.837253  0.460475  0.953862  1
  Si  Si13  1  0.663851  0.959858  0.045739  1
  Si  Si14  1  0.163603  0.540752  0.453581  1
  Si  Si15  1  0.464630  0.371994  0.748574  1
  Si  Si16  1  0.964296  0.126381  0.749599  1
  Si  Si17  1  0.535478  0.625571  0.249936  1
  Si  Si18  1  0.037661  0.873463  0.250509  1
  Si  Si19  1  0.696817  0.861890  0.750322  1
  Si  Si20  1  0.197081  0.636718  0.750085  1
  Si  Si21  1  0.302517  0.137535  0.250109  1
  Si  Si22  1  0.803351  0.364211  0.250057  1
  P  P23  1  0.665028  0.958591  0.451908  1
  W  W24  1  0.668270  0.157559  0.621571  1
  W  W25  1  0.168442  0.336516  0.875304  1
  W  W26  1  0.333039  0.837677  0.125358  1
  W  W27  1  0.830513  0.666369  0.376623  1
  W  W28  1  0.337503  0.838881  0.377215  1
  W  W29  1  0.832312  0.665023  0.125548  1
  W  W30  1  0.668942  0.163227  0.874575  1
  W  W31  1  0.165659  0.337346  0.624587  1
  W  W32  1  0.831822  0.501614  0.749686  1
  W  W33  1  0.332573  0.997152  0.750053  1
  W  W34  1  0.167155  0.498593  0.250742  1
  W  W35  1  0.668172  0.002573  0.251071  1
