# generated using pymatgen
data_U4NbRe3C8
_symmetry_space_group_name_H-M   'P 1'
_cell_length_a   3.21118600
_cell_length_b   5.63373623
_cell_length_c   11.09735342
_cell_angle_alpha   90.07572343
_cell_angle_beta   90.00000000
_cell_angle_gamma   90.00000000
_symmetry_Int_Tables_number   1
_chemical_formula_structural   U4NbRe3C8
_chemical_formula_sum   'U4 Nb1 Re3 C8'
_cell_volume   200.76176700
_cell_formula_units_Z   1
loop_
 _symmetry_equiv_pos_site_id
 _symmetry_equiv_pos_as_xyz
  1  'x, y, z'
loop_
 _atom_site_type_symbol
 _atom_site_label
 _atom_site_symmetry_multiplicity
 _atom_site_fract_x
 _atom_site_fract_y
 _atom_site_fract_z
 _atom_site_occupancy
  U  U0  1  0.250000  0.079354  0.856278  1
  U  U1  1  0.250000  0.584068  0.642225  1
  U  U2  1  0.750000  0.918868  0.140755  1
  U  U3  1  0.750000  0.416925  0.361082  1
  Nb  Nb4  1  0.250000  0.421650  0.102074  1
  Re  Re5  1  0.250000  0.917875  0.398384  1
  Re  Re6  1  0.750000  0.576021  0.895093  1
  Re  Re7  1  0.750000  0.082338  0.603703  1
  C  C8  1  0.250000  0.156292  0.247822  1
  C  C9  1  0.250000  0.667914  0.260449  1
  C  C10  1  0.750000  0.840853  0.754388  1
  C  C11  1  0.750000  0.339077  0.743534  1
  C  C12  1  0.250000  0.750240  0.989304  1
  C  C13  1  0.250000  0.245869  0.508489  1
  C  C14  1  0.750000  0.246157  0.002450  1
  C  C15  1  0.750000  0.756496  0.493972  1
