# generated using pymatgen
data_DyHoInGa2
_symmetry_space_group_name_H-M   'P 1'
_cell_length_a   7.21220000
_cell_length_b   7.21219800
_cell_length_c   4.43364000
_cell_angle_alpha   90.00000000
_cell_angle_beta   90.00000000
_cell_angle_gamma   90.00000000
_symmetry_Int_Tables_number   1
_chemical_formula_structural   DyHoInGa2
_chemical_formula_sum   'Dy2 Ho2 In2 Ga4'
_cell_volume   230.61939543
_cell_formula_units_Z   2
loop_
 _symmetry_equiv_pos_site_id
 _symmetry_equiv_pos_as_xyz
  1  'x, y, z'
loop_
 _atom_site_type_symbol
 _atom_site_label
 _atom_site_symmetry_multiplicity
 _atom_site_fract_x
 _atom_site_fract_y
 _atom_site_fract_z
 _atom_site_occupancy
  Dy  Dy0  1  0.327657  0.827766  0.500000  1
  Dy  Dy1  1  0.827657  0.672234  0.500000  1
  Ho  Ho2  1  0.172347  0.327541  0.500000  1
  Ho  Ho3  1  0.672347  0.172459  0.500000  1
  In  In4  1  0.999994  0.000122  0.000000  1
  In  In5  1  0.499994  0.499878  0.000000  1
  Ga  Ga6  1  0.125985  0.625751  0.000000  1
  Ga  Ga7  1  0.625985  0.874249  0.000000  1
  Ga  Ga8  1  0.374016  0.126215  0.000000  1
  Ga  Ga9  1  0.874016  0.373785  0.000000  1
