# generated using pymatgen
data_Zr4ZnGa17Rh6
_symmetry_space_group_name_H-M   'P 1'
_cell_length_a   7.44867720
_cell_length_b   7.47133353
_cell_length_c   9.35995100
_cell_angle_alpha   90.00000000
_cell_angle_beta   90.00000000
_cell_angle_gamma   120.10783152
_symmetry_Int_Tables_number   1
_chemical_formula_structural   Zr4ZnGa17Rh6
_chemical_formula_sum   'Zr4 Zn1 Ga17 Rh6'
_cell_volume   450.61802735
_cell_formula_units_Z   1
loop_
 _symmetry_equiv_pos_site_id
 _symmetry_equiv_pos_as_xyz
  1  'x, y, z'
loop_
 _atom_site_type_symbol
 _atom_site_label
 _atom_site_symmetry_multiplicity
 _atom_site_fract_x
 _atom_site_fract_y
 _atom_site_fract_z
 _atom_site_occupancy
  Zr  Zr0  1  0.994112  0.668793  0.250000  1
  Zr  Zr1  1  0.004546  0.330671  0.750000  1
  Zr  Zr2  1  0.670087  0.995383  0.250000  1
  Zr  Zr3  1  0.330704  0.005832  0.750000  1
  Zn  Zn4  1  0.336695  0.548421  0.250000  1
  Ga  Ga5  1  0.331325  0.331601  0.570337  1
  Ga  Ga6  1  0.664702  0.667630  0.425496  1
  Ga  Ga7  1  0.664702  0.667630  0.074504  1
  Ga  Ga8  1  0.331325  0.331601  0.929663  1
  Ga  Ga9  1  0.663274  0.448800  0.750000  1
  Ga  Ga10  1  0.546636  0.335800  0.250000  1
  Ga  Ga11  1  0.450154  0.663117  0.750000  1
  Ga  Ga12  1  0.000577  0.337035  0.083285  1
  Ga  Ga13  1  0.002228  0.665814  0.919441  1
  Ga  Ga14  1  0.002228  0.665814  0.580559  1
  Ga  Ga15  1  0.334166  0.994802  0.418104  1
  Ga  Ga16  1  0.000577  0.337035  0.416715  1
  Ga  Ga17  1  0.666685  0.003729  0.580738  1
  Ga  Ga18  1  0.666685  0.003729  0.919262  1
  Ga  Ga19  1  0.334166  0.994802  0.081896  1
  Ga  Ga20  1  0.128006  0.126684  0.250000  1
  Ga  Ga21  1  0.876558  0.876192  0.750000  1
  Rh  Rh22  1  0.999583  0.999130  0.000136  1
  Rh  Rh23  1  0.999583  0.999130  0.499864  1
  Rh  Rh24  1  0.672592  0.327516  0.999906  1
  Rh  Rh25  1  0.327754  0.672898  0.995916  1
  Rh  Rh26  1  0.327754  0.672898  0.504084  1
  Rh  Rh27  1  0.672592  0.327516  0.500094  1
