# generated using pymatgen
data_FeCo2Si4Ni
_symmetry_space_group_name_H-M   'P 1'
_cell_length_a   4.44771165
_cell_length_b   4.45177596
_cell_length_c   4.45071592
_cell_angle_alpha   90.24401337
_cell_angle_beta   90.45324184
_cell_angle_gamma   89.57775649
_symmetry_Int_Tables_number   1
_chemical_formula_structural   FeCo2Si4Ni
_chemical_formula_sum   'Fe1 Co2 Si4 Ni1'
_cell_volume   88.11920798
_cell_formula_units_Z   1
loop_
 _symmetry_equiv_pos_site_id
 _symmetry_equiv_pos_as_xyz
  1  'x, y, z'
loop_
 _atom_site_type_symbol
 _atom_site_label
 _atom_site_symmetry_multiplicity
 _atom_site_fract_x
 _atom_site_fract_y
 _atom_site_fract_z
 _atom_site_occupancy
  Fe  Fe0  1  0.858182  0.142013  0.602212  1
  Co  Co1  1  0.638334  0.648599  0.895312  1
  Co  Co2  1  0.149773  0.361900  0.105501  1
  Si  Si3  1  0.346303  0.337818  0.596391  1
  Si  Si4  1  0.840990  0.651197  0.408764  1
  Si  Si5  1  0.661788  0.160377  0.092470  1
  Si  Si6  1  0.150673  0.845560  0.907151  1
  Ni  Ni7  1  0.353956  0.852538  0.392199  1
