# generated using pymatgen
data_Ho3HfSn2Ir3
_symmetry_space_group_name_H-M   'P 1'
_cell_length_a   7.35734815
_cell_length_b   7.35734779
_cell_length_c   4.17335000
_cell_angle_alpha   90.00000000
_cell_angle_beta   90.00000000
_cell_angle_gamma   120.78160249
_symmetry_Int_Tables_number   1
_chemical_formula_structural   Ho3HfSn2Ir3
_chemical_formula_sum   'Ho3 Hf1 Sn2 Ir3'
_cell_volume   194.08116414
_cell_formula_units_Z   1
loop_
 _symmetry_equiv_pos_site_id
 _symmetry_equiv_pos_as_xyz
  1  'x, y, z'
loop_
 _atom_site_type_symbol
 _atom_site_label
 _atom_site_symmetry_multiplicity
 _atom_site_fract_x
 _atom_site_fract_y
 _atom_site_fract_z
 _atom_site_occupancy
  Ho  Ho0  1  0.394691  0.394691  0.500000  1
  Ho  Ho1  1  0.590583  0.004586  0.500000  1
  Ho  Ho2  1  0.004586  0.590583  0.500000  1
  Hf  Hf3  1  0.749652  0.749652  0.000000  1
  Sn  Sn4  1  0.254788  0.997940  0.000000  1
  Sn  Sn5  1  0.997940  0.254788  0.000000  1
  Ir  Ir6  1  0.672652  0.352225  0.000000  1
  Ir  Ir7  1  0.352225  0.672652  0.000000  1
  Ir  Ir8  1  0.982884  0.982884  0.500000  1
