# generated using pymatgen
data_Y2Th6TiS17
_symmetry_space_group_name_H-M   'P 1'
_cell_length_a   8.03539058
_cell_length_b   8.03539213
_cell_length_c   10.65780430
_cell_angle_alpha   80.77376298
_cell_angle_beta   80.77375906
_cell_angle_gamma   65.29627605
_symmetry_Int_Tables_number   1
_chemical_formula_structural   Y2Th6TiS17
_chemical_formula_sum   'Y2 Th6 Ti1 S17'
_cell_volume   613.73047360
_cell_formula_units_Z   1
loop_
 _symmetry_equiv_pos_site_id
 _symmetry_equiv_pos_as_xyz
  1  'x, y, z'
loop_
 _atom_site_type_symbol
 _atom_site_label
 _atom_site_symmetry_multiplicity
 _atom_site_fract_x
 _atom_site_fract_y
 _atom_site_fract_z
 _atom_site_occupancy
  Y  Y0  1  0.811443  0.303836  0.296618  1
  Y  Y1  1  0.303836  0.811443  0.296618  1
  Th  Th2  1  0.187521  0.699343  0.700541  1
  Th  Th3  1  0.699343  0.187521  0.700541  1
  Th  Th4  1  0.206451  0.206451  0.538101  1
  Th  Th5  1  0.794210  0.794210  0.454140  1
  Th  Th6  1  0.680014  0.680014  0.982900  1
  Th  Th7  1  0.319143  0.319143  0.026093  1
  Ti  Ti8  1  0.003525  0.003525  0.006109  1
  S  S9  1  0.824053  0.429493  0.530857  1
  S  S10  1  0.429493  0.824053  0.530857  1
  S  S11  1  0.176535  0.571806  0.466700  1
  S  S12  1  0.571806  0.176535  0.466700  1
  S  S13  1  0.940867  0.319218  0.027347  1
  S  S14  1  0.319218  0.940867  0.027347  1
  S  S15  1  0.058715  0.680880  0.971904  1
  S  S16  1  0.680880  0.058715  0.971904  1
  S  S17  1  0.203848  0.203848  0.276414  1
  S  S18  1  0.791585  0.791585  0.724214  1
  S  S19  1  0.059587  0.059587  0.776930  1
  S  S20  1  0.942069  0.942069  0.225143  1
  S  S21  1  0.304058  0.304058  0.755641  1
  S  S22  1  0.693691  0.693691  0.244231  1
  S  S23  1  0.520448  0.520448  0.832799  1
  S  S24  1  0.479823  0.479823  0.164124  1
  S  S25  1  0.997837  0.997837  0.505226  1
