# generated using pymatgen
data_HfZr7(Pa3Ni10)2
_symmetry_space_group_name_H-M   'P 1'
_cell_length_a   7.85502865
_cell_length_b   7.85502746
_cell_length_c   9.37030328
_cell_angle_alpha   90.01692615
_cell_angle_beta   90.01692966
_cell_angle_gamma   106.39350319
_symmetry_Int_Tables_number   1
_chemical_formula_structural   HfZr7(Pa3Ni10)2
_chemical_formula_sum   'Hf1 Zr7 Pa6 Ni20'
_cell_volume   554.65679444
_cell_formula_units_Z   1
loop_
 _symmetry_equiv_pos_site_id
 _symmetry_equiv_pos_as_xyz
  1  'x, y, z'
loop_
 _atom_site_type_symbol
 _atom_site_label
 _atom_site_symmetry_multiplicity
 _atom_site_fract_x
 _atom_site_fract_y
 _atom_site_fract_z
 _atom_site_occupancy
  Hf  Hf0  1  0.808469  0.808469  0.308061  1
  Zr  Zr1  1  0.002812  0.503157  0.250072  1
  Zr  Zr2  1  0.996913  0.497213  0.749994  1
  Zr  Zr3  1  0.497213  0.996913  0.749994  1
  Zr  Zr4  1  0.503157  0.002812  0.250072  1
  Zr  Zr5  1  0.307087  0.307087  0.193034  1
  Zr  Zr6  1  0.692745  0.692745  0.806678  1
  Zr  Zr7  1  0.192947  0.192947  0.693213  1
  Pa  Pa8  1  0.687461  0.312649  0.000015  1
  Pa  Pa9  1  0.312649  0.687461  0.000015  1
  Pa  Pa10  1  0.812403  0.186940  0.499713  1
  Pa  Pa11  1  0.186940  0.812403  0.499713  1
  Pa  Pa12  1  0.999800  0.999800  0.000188  1
  Pa  Pa13  1  0.500193  0.500193  0.499710  1
  Ni  Ni14  1  0.862567  0.150612  0.205927  1
  Ni  Ni15  1  0.137132  0.847769  0.794500  1
  Ni  Ni16  1  0.637296  0.347742  0.705404  1
  Ni  Ni17  1  0.652387  0.363055  0.294422  1
  Ni  Ni18  1  0.363055  0.652387  0.294422  1
  Ni  Ni19  1  0.347742  0.637296  0.705404  1
  Ni  Ni20  1  0.847769  0.137132  0.794500  1
  Ni  Ni21  1  0.150612  0.862567  0.205927  1
  Ni  Ni22  1  0.940305  0.649175  0.005375  1
  Ni  Ni23  1  0.059367  0.350883  0.994938  1
  Ni  Ni24  1  0.560580  0.850615  0.504109  1
  Ni  Ni25  1  0.148936  0.440449  0.494893  1
  Ni  Ni26  1  0.440449  0.148936  0.494893  1
  Ni  Ni27  1  0.850615  0.560580  0.504109  1
  Ni  Ni28  1  0.350883  0.059367  0.994938  1
  Ni  Ni29  1  0.649175  0.940305  0.005375  1
  Ni  Ni30  1  0.103213  0.103213  0.397618  1
  Ni  Ni31  1  0.895838  0.895838  0.601274  1
  Ni  Ni32  1  0.396133  0.396133  0.898035  1
  Ni  Ni33  1  0.605159  0.605159  0.103464  1
