# generated using pymatgen
data_Y12GaCo2Ni2Pd
_symmetry_space_group_name_H-M   'P 1'
_cell_length_a   8.32790783
_cell_length_b   8.32790817
_cell_length_c   8.32790649
_cell_angle_alpha   107.76321074
_cell_angle_beta   109.71710969
_cell_angle_gamma   110.94918109
_symmetry_Int_Tables_number   1
_chemical_formula_structural   Y12GaCo2Ni2Pd
_chemical_formula_sum   'Y12 Ga1 Co2 Ni2 Pd1'
_cell_volume   444.26842530
_cell_formula_units_Z   1
loop_
 _symmetry_equiv_pos_site_id
 _symmetry_equiv_pos_as_xyz
  1  'x, y, z'
loop_
 _atom_site_type_symbol
 _atom_site_label
 _atom_site_symmetry_multiplicity
 _atom_site_fract_x
 _atom_site_fract_y
 _atom_site_fract_z
 _atom_site_occupancy
  Y  Y0  1  0.695891  0.276737  0.972627  1
  Y  Y1  1  0.304109  0.723263  0.027373  1
  Y  Y2  1  0.695891  0.723263  0.419154  1
  Y  Y3  1  0.304109  0.276737  0.580846  1
  Y  Y4  1  0.803047  0.122096  0.319049  1
  Y  Y5  1  0.803047  0.483998  0.680951  1
  Y  Y6  1  0.196953  0.877904  0.680951  1
  Y  Y7  1  0.196953  0.516002  0.319049  1
  Y  Y8  1  0.606569  0.791000  0.815569  1
  Y  Y9  1  0.975432  0.791000  0.184431  1
  Y  Y10  1  0.024568  0.209000  0.815569  1
  Y  Y11  1  0.393431  0.209000  0.184431  1
  Ga  Ga12  1  0.500000  0.000000  0.500000  1
  Co  Co13  1  0.000000  0.113730  0.113730  1
  Co  Co14  1  0.000000  0.886270  0.886270  1
  Ni  Ni15  1  0.866425  0.500000  0.366425  1
  Ni  Ni16  1  0.133575  0.500000  0.633575  1
  Pd  Pd17  1  0.500000  0.500000  0.000000  1
