# generated using pymatgen
data_Th14Re5Ru
_symmetry_space_group_name_H-M   'P 1'
_cell_length_a   10.02446556
_cell_length_b   10.02446544
_cell_length_c   6.37538594
_cell_angle_alpha   90.26885903
_cell_angle_beta   89.73113871
_cell_angle_gamma   119.79950019
_symmetry_Int_Tables_number   1
_chemical_formula_structural   Th14Re5Ru
_chemical_formula_sum   'Th14 Re5 Ru1'
_cell_volume   555.93890752
_cell_formula_units_Z   1
loop_
 _symmetry_equiv_pos_site_id
 _symmetry_equiv_pos_as_xyz
  1  'x, y, z'
loop_
 _atom_site_type_symbol
 _atom_site_label
 _atom_site_symmetry_multiplicity
 _atom_site_fract_x
 _atom_site_fract_y
 _atom_site_fract_z
 _atom_site_occupancy
  Th  Th0  1  0.461496  0.538504  0.299452  1
  Th  Th1  1  0.075826  0.540468  0.298302  1
  Th  Th2  1  0.922044  0.458292  0.799351  1
  Th  Th3  1  0.254135  0.126836  0.508506  1
  Th  Th4  1  0.541708  0.077956  0.799351  1
  Th  Th5  1  0.747218  0.873433  0.009603  1
  Th  Th6  1  0.667021  0.332979  0.273286  1
  Th  Th7  1  0.126668  0.873332  0.006392  1
  Th  Th8  1  0.459532  0.924174  0.298302  1
  Th  Th9  1  0.538348  0.461652  0.799020  1
  Th  Th10  1  0.874052  0.125948  0.509974  1
  Th  Th11  1  0.126567  0.252782  0.009603  1
  Th  Th12  1  0.873164  0.745865  0.508506  1
  Th  Th13  1  0.332571  0.667429  0.772044  1
  Re  Re14  1  0.818508  0.630641  0.049013  1
  Re  Re15  1  0.814664  0.185336  0.051295  1
  Re  Re16  1  0.626455  0.814840  0.549910  1
  Re  Re17  1  0.369359  0.181492  0.049013  1
  Re  Re18  1  0.185160  0.373545  0.549910  1
  Ru  Ru19  1  0.185506  0.814494  0.543163  1
