# generated using pymatgen
data_SrLa8(SbO)5
_symmetry_space_group_name_H-M   'P 1'
_cell_length_a   10.50957200
_cell_length_b   10.50957200
_cell_length_c   9.42028000
_cell_angle_alpha   90.00000000
_cell_angle_beta   90.00000000
_cell_angle_gamma   90.00000000
_symmetry_Int_Tables_number   1
_chemical_formula_structural   SrLa8(SbO)5
_chemical_formula_sum   'Sr2 La16 Sb10 O10'
_cell_volume   1040.48032244
_cell_formula_units_Z   2
loop_
 _symmetry_equiv_pos_site_id
 _symmetry_equiv_pos_as_xyz
  1  'x, y, z'
loop_
 _atom_site_type_symbol
 _atom_site_label
 _atom_site_symmetry_multiplicity
 _atom_site_fract_x
 _atom_site_fract_y
 _atom_site_fract_z
 _atom_site_occupancy
  Sr  Sr0  1  0.250000  0.250000  0.332471  1
  Sr  Sr1  1  0.750000  0.750000  0.667529  1
  La  La2  1  0.830008  0.523699  0.001396  1
  La  La3  1  0.523699  0.669992  0.001396  1
  La  La4  1  0.976301  0.830008  0.001396  1
  La  La5  1  0.669992  0.976301  0.001396  1
  La  La6  1  0.853658  0.045841  0.341432  1
  La  La7  1  0.646342  0.454159  0.341432  1
  La  La8  1  0.045841  0.646342  0.341432  1
  La  La9  1  0.454159  0.853658  0.341432  1
  La  La10  1  0.545841  0.146342  0.658568  1
  La  La11  1  0.954159  0.353658  0.658568  1
  La  La12  1  0.353658  0.545841  0.658568  1
  La  La13  1  0.146342  0.954159  0.658568  1
  La  La14  1  0.330008  0.023699  0.998604  1
  La  La15  1  0.023699  0.169992  0.998604  1
  La  La16  1  0.476301  0.330008  0.998604  1
  La  La17  1  0.169992  0.476301  0.998604  1
  Sb  Sb18  1  0.556372  0.151615  0.298180  1
  Sb  Sb19  1  0.943628  0.348385  0.298180  1
  Sb  Sb20  1  0.348385  0.556372  0.298180  1
  Sb  Sb21  1  0.151615  0.943628  0.298180  1
  Sb  Sb22  1  0.750000  0.750000  0.307895  1
  Sb  Sb23  1  0.250000  0.250000  0.692106  1
  Sb  Sb24  1  0.848385  0.056372  0.701820  1
  Sb  Sb25  1  0.651615  0.443628  0.701820  1
  Sb  Sb26  1  0.056372  0.651615  0.701820  1
  Sb  Sb27  1  0.443628  0.848385  0.701820  1
  O  O28  1  0.250000  0.250000  0.061558  1
  O  O29  1  0.871105  0.026104  0.091540  1
  O  O30  1  0.628895  0.473896  0.091540  1
  O  O31  1  0.026104  0.628895  0.091540  1
  O  O32  1  0.473896  0.871105  0.091540  1
  O  O33  1  0.526104  0.128895  0.908460  1
  O  O34  1  0.973896  0.371105  0.908460  1
  O  O35  1  0.371105  0.526104  0.908460  1
  O  O36  1  0.128895  0.973896  0.908460  1
  O  O37  1  0.750000  0.750000  0.938442  1
