# generated using pymatgen
data_Yb2Y6SiPd24
_symmetry_space_group_name_H-M   'P 1'
_cell_length_a   8.32847139
_cell_length_b   8.32847139
_cell_length_c   8.32847139
_cell_angle_alpha   90.02485984
_cell_angle_beta   90.02485984
_cell_angle_gamma   90.02485984
_symmetry_Int_Tables_number   1
_chemical_formula_structural   Yb2Y6SiPd24
_chemical_formula_sum   'Yb2 Y6 Si1 Pd24'
_cell_volume   577.69122694
_cell_formula_units_Z   1
loop_
 _symmetry_equiv_pos_site_id
 _symmetry_equiv_pos_as_xyz
  1  'x, y, z'
loop_
 _atom_site_type_symbol
 _atom_site_label
 _atom_site_symmetry_multiplicity
 _atom_site_fract_x
 _atom_site_fract_y
 _atom_site_fract_z
 _atom_site_occupancy
  Yb  Yb0  1  0.252312  0.252312  0.252312  1
  Yb  Yb1  1  0.747688  0.747688  0.747688  1
  Y  Y2  1  0.747230  0.747230  0.252818  1
  Y  Y3  1  0.747230  0.252818  0.747230  1
  Y  Y4  1  0.252770  0.252770  0.747182  1
  Y  Y5  1  0.252770  0.747182  0.252770  1
  Y  Y6  1  0.252818  0.747230  0.747230  1
  Y  Y7  1  0.747182  0.252770  0.252770  1
  Si  Si8  1  0.000000  0.000000  0.000000  1
  Pd  Pd9  1  0.257284  0.499772  0.000218  1
  Pd  Pd10  1  0.742716  0.500228  0.999782  1
  Pd  Pd11  1  0.000218  0.257284  0.499772  1
  Pd  Pd12  1  0.499772  0.257284  0.000218  1
  Pd  Pd13  1  0.999782  0.742716  0.500228  1
  Pd  Pd14  1  0.500228  0.742716  0.999782  1
  Pd  Pd15  1  0.499772  0.000218  0.257284  1
  Pd  Pd16  1  0.257284  0.000218  0.499772  1
  Pd  Pd17  1  0.500228  0.999782  0.742716  1
  Pd  Pd18  1  0.742716  0.999782  0.500228  1
  Pd  Pd19  1  0.000218  0.499772  0.257284  1
  Pd  Pd20  1  0.999782  0.500228  0.742716  1
  Pd  Pd21  1  0.252404  0.499568  0.499568  1
  Pd  Pd22  1  0.747596  0.500432  0.500432  1
  Pd  Pd23  1  0.499568  0.252404  0.499568  1
  Pd  Pd24  1  0.500432  0.747596  0.500432  1
  Pd  Pd25  1  0.499568  0.499568  0.252404  1
  Pd  Pd26  1  0.500432  0.500432  0.747596  1
  Pd  Pd27  1  0.280525  0.000480  0.000480  1
  Pd  Pd28  1  0.719475  0.999520  0.999520  1
  Pd  Pd29  1  0.000480  0.280525  0.000480  1
  Pd  Pd30  1  0.999520  0.719475  0.999520  1
  Pd  Pd31  1  0.000480  0.000480  0.280525  1
  Pd  Pd32  1  0.999520  0.999520  0.719475  1
