# generated using pymatgen
data_Gd2TlIn3(TeO6)3
_symmetry_space_group_name_H-M   'P 1'
_cell_length_a   9.10622677
_cell_length_b   9.10622763
_cell_length_c   5.13880959
_cell_angle_alpha   89.75542272
_cell_angle_beta   90.24456921
_cell_angle_gamma   119.91893009
_symmetry_Int_Tables_number   1
_chemical_formula_structural   Gd2TlIn3(TeO6)3
_chemical_formula_sum   'Gd2 Tl1 In3 Te3 O18'
_cell_volume   369.33379092
_cell_formula_units_Z   1
loop_
 _symmetry_equiv_pos_site_id
 _symmetry_equiv_pos_as_xyz
  1  'x, y, z'
loop_
 _atom_site_type_symbol
 _atom_site_label
 _atom_site_symmetry_multiplicity
 _atom_site_fract_x
 _atom_site_fract_y
 _atom_site_fract_z
 _atom_site_occupancy
  Gd  Gd0  1  0.620307  0.000964  0.000058  1
  Gd  Gd1  1  0.000964  0.620307  0.999942  1
  Tl  Tl2  1  0.375405  0.375405  0.000000  1
  In  In3  1  0.287750  0.998296  0.502578  1
  In  In4  1  0.998296  0.287750  0.497422  1
  In  In5  1  0.713641  0.713641  0.500000  1
  Te  Te6  1  0.001495  0.001495  0.000000  1
  Te  Te7  1  0.333686  0.664905  0.504462  1
  Te  Te8  1  0.664905  0.333686  0.495538  1
  O  O9  1  0.089255  0.885407  0.788007  1
  O  O10  1  0.115241  0.203830  0.782359  1
  O  O11  1  0.797520  0.913109  0.786146  1
  O  O12  1  0.203830  0.115241  0.217641  1
  O  O13  1  0.913109  0.797520  0.213854  1
  O  O14  1  0.885407  0.089255  0.211993  1
  O  O15  1  0.466557  0.596244  0.724215  1
  O  O16  1  0.400837  0.862768  0.723156  1
  O  O17  1  0.131042  0.535576  0.712164  1
  O  O18  1  0.862768  0.400837  0.276844  1
  O  O19  1  0.535576  0.131042  0.287836  1
  O  O20  1  0.596244  0.466557  0.275785  1
  O  O21  1  0.228890  0.765557  0.287705  1
  O  O22  1  0.232867  0.461479  0.283288  1
  O  O23  1  0.540573  0.776798  0.297538  1
  O  O24  1  0.461479  0.232867  0.716712  1
  O  O25  1  0.776798  0.540573  0.702462  1
  O  O26  1  0.765557  0.228890  0.712295  1
