# generated using pymatgen
data_Lu5GaCoTe2
_symmetry_space_group_name_H-M   'P 1'
_cell_length_a   8.43738161
_cell_length_b   8.43738296
_cell_length_c   7.68871124
_cell_angle_alpha   91.03656763
_cell_angle_beta   91.03656362
_cell_angle_gamma   125.88525936
_symmetry_Int_Tables_number   1
_chemical_formula_structural   Lu5GaCoTe2
_chemical_formula_sum   'Lu10 Ga2 Co2 Te4'
_cell_volume   443.11197890
_cell_formula_units_Z   2
loop_
 _symmetry_equiv_pos_site_id
 _symmetry_equiv_pos_as_xyz
  1  'x, y, z'
loop_
 _atom_site_type_symbol
 _atom_site_label
 _atom_site_symmetry_multiplicity
 _atom_site_fract_x
 _atom_site_fract_y
 _atom_site_fract_z
 _atom_site_occupancy
  Lu  Lu0  1  0.000000  0.000000  0.000000  1
  Lu  Lu1  1  0.500000  0.500000  0.500000  1
  Lu  Lu2  1  0.807322  0.566091  0.184991  1
  Lu  Lu3  1  0.433909  0.192678  0.815009  1
  Lu  Lu4  1  0.966809  0.737471  0.648660  1
  Lu  Lu5  1  0.262529  0.033191  0.351340  1
  Lu  Lu6  1  0.192678  0.433909  0.815009  1
  Lu  Lu7  1  0.566091  0.807322  0.184991  1
  Lu  Lu8  1  0.033191  0.262529  0.351340  1
  Lu  Lu9  1  0.737471  0.966809  0.648660  1
  Ga  Ga10  1  0.625134  0.625134  0.875843  1
  Ga  Ga11  1  0.374866  0.374866  0.124157  1
  Co  Co12  1  0.868602  0.868602  0.370276  1
  Co  Co13  1  0.131398  0.131398  0.629724  1
  Te  Te14  1  0.211378  0.788622  0.000000  1
  Te  Te15  1  0.707645  0.292355  0.500000  1
  Te  Te16  1  0.788622  0.211378  0.000000  1
  Te  Te17  1  0.292355  0.707645  0.500000  1
