# generated using pymatgen
data_Cs2InP2S7
_symmetry_space_group_name_H-M   'P 1'
_cell_length_a   9.71466484
_cell_length_b   9.71466564
_cell_length_c   9.20343980
_cell_angle_alpha   72.62445837
_cell_angle_beta   72.62445867
_cell_angle_gamma   68.99823528
_symmetry_Int_Tables_number   1
_chemical_formula_structural   Cs2InP2S7
_chemical_formula_sum   'Cs4 In2 P4 S14'
_cell_volume   755.76399970
_cell_formula_units_Z   2
loop_
 _symmetry_equiv_pos_site_id
 _symmetry_equiv_pos_as_xyz
  1  'x, y, z'
loop_
 _atom_site_type_symbol
 _atom_site_label
 _atom_site_symmetry_multiplicity
 _atom_site_fract_x
 _atom_site_fract_y
 _atom_site_fract_z
 _atom_site_occupancy
  Cs  Cs0  1  0.611354  0.050404  0.166012  1
  Cs  Cs1  1  0.949596  0.388646  0.833988  1
  Cs  Cs2  1  0.388646  0.949596  0.833988  1
  Cs  Cs3  1  0.050404  0.611354  0.166012  1
  In  In4  1  0.691255  0.308745  0.500000  1
  In  In5  1  0.308745  0.691255  0.500000  1
  P  P6  1  0.946807  0.946807  0.442704  1
  P  P7  1  0.053193  0.053193  0.557296  1
  P  P8  1  0.393977  0.393977  0.801799  1
  P  P9  1  0.606023  0.606023  0.198201  1
  S  S10  1  0.688723  0.375117  0.208016  1
  S  S11  1  0.624883  0.311277  0.791984  1
  S  S12  1  0.311277  0.624883  0.791984  1
  S  S13  1  0.375117  0.688723  0.208016  1
  S  S14  1  0.002071  0.002071  0.211481  1
  S  S15  1  0.997929  0.997929  0.788519  1
  S  S16  1  0.718442  0.022304  0.536938  1
  S  S17  1  0.977696  0.281558  0.463062  1
  S  S18  1  0.281558  0.977696  0.463062  1
  S  S19  1  0.022304  0.718442  0.536938  1
  S  S20  1  0.282915  0.282915  0.994693  1
  S  S21  1  0.717085  0.717085  0.005307  1
  S  S22  1  0.370880  0.370880  0.591192  1
  S  S23  1  0.629120  0.629120  0.408808  1
