# generated using pymatgen
data_IrF17
_symmetry_space_group_name_H-M   'P 1'
_cell_length_a   8.76896665
_cell_length_b   8.54010912
_cell_length_c   10.10405122
_cell_angle_alpha   83.01771376
_cell_angle_beta   87.38746233
_cell_angle_gamma   68.15862904
_symmetry_Int_Tables_number   1
_chemical_formula_structural   IrF17
_chemical_formula_sum   'Ir2 F34'
_cell_volume   697.14680459
_cell_formula_units_Z   2
loop_
 _symmetry_equiv_pos_site_id
 _symmetry_equiv_pos_as_xyz
  1  'x, y, z'
loop_
 _atom_site_type_symbol
 _atom_site_label
 _atom_site_symmetry_multiplicity
 _atom_site_fract_x
 _atom_site_fract_y
 _atom_site_fract_z
 _atom_site_occupancy
  Ir  Ir0  1  0.865992  0.250108  0.760724  1
  Ir  Ir1  1  0.134008  0.749892  0.239276  1
  F  F2  1  0.608590  0.204202  0.481285  1
  F  F3  1  0.391410  0.795798  0.518715  1
  F  F4  1  0.819222  0.696486  0.725473  1
  F  F5  1  0.180778  0.303514  0.274527  1
  F  F6  1  0.083797  0.766196  0.860920  1
  F  F7  1  0.916203  0.233804  0.139080  1
  F  F8  1  0.560301  0.137349  0.374153  1
  F  F9  1  0.439699  0.862651  0.625847  1
  F  F10  1  0.649825  0.321990  0.697201  1
  F  F11  1  0.350175  0.678010  0.302799  1
  F  F12  1  0.932252  0.071137  0.654014  1
  F  F13  1  0.067748  0.928863  0.345986  1
  F  F14  1  0.914742  0.386669  0.618655  1
  F  F15  1  0.085258  0.613331  0.381345  1
  F  F16  1  0.850186  0.803656  0.616798  1
  F  F17  1  0.149814  0.196344  0.383202  1
  F  F18  1  0.802586  0.430934  0.866025  1
  F  F19  1  0.197414  0.569066  0.133975  1
  F  F20  1  0.211231  0.689969  0.769915  1
  F  F21  1  0.788769  0.310031  0.230085  1
  F  F22  1  0.919458  0.821578  0.173216  1
  F  F23  1  0.080542  0.178422  0.826784  1
  F  F24  1  0.815518  0.111268  0.900739  1
  F  F25  1  0.184482  0.888732  0.099261  1
  F  F26  1  0.485881  0.587843  0.983916  1
  F  F27  1  0.514119  0.412157  0.016084  1
  F  F28  1  0.457423  0.086802  0.869170  1
  F  F29  1  0.542577  0.913198  0.130830  1
  F  F30  1  0.292859  0.245018  0.612167  1
  F  F31  1  0.707141  0.754982  0.387833  1
  F  F32  1  0.258433  0.394223  0.676685  1
  F  F33  1  0.741567  0.605777  0.323315  1
  F  F34  1  0.561431  0.923341  0.835710  1
  F  F35  1  0.438569  0.076659  0.164290  1
