# generated using pymatgen
data_Tb8In2CoOs
_symmetry_space_group_name_H-M   'P 1'
_cell_length_a   9.71111420
_cell_length_b   9.64641686
_cell_length_c   9.64654468
_cell_angle_alpha   59.59857980
_cell_angle_beta   59.74743678
_cell_angle_gamma   59.74514767
_symmetry_Int_Tables_number   1
_chemical_formula_structural   Tb8In2CoOs
_chemical_formula_sum   'Tb16 In4 Co2 Os2'
_cell_volume   634.58675447
_cell_formula_units_Z   2
loop_
 _symmetry_equiv_pos_site_id
 _symmetry_equiv_pos_as_xyz
  1  'x, y, z'
loop_
 _atom_site_type_symbol
 _atom_site_label
 _atom_site_symmetry_multiplicity
 _atom_site_fract_x
 _atom_site_fract_y
 _atom_site_fract_z
 _atom_site_occupancy
  Tb  Tb0  1  0.440418  0.438440  0.055961  1
  Tb  Tb1  1  0.593782  0.598209  0.598433  1
  Tb  Tb2  1  0.186684  0.813083  0.813018  1
  Tb  Tb3  1  0.061034  0.055837  0.436855  1
  Tb  Tb4  1  0.438466  0.058097  0.057960  1
  Tb  Tb5  1  0.814140  0.189712  0.805734  1
  Tb  Tb6  1  0.440455  0.056122  0.438392  1
  Tb  Tb7  1  0.595439  0.207708  0.603767  1
  Tb  Tb8  1  0.814158  0.805822  0.189667  1
  Tb  Tb9  1  0.210522  0.599748  0.599919  1
  Tb  Tb10  1  0.801758  0.197729  0.197701  1
  Tb  Tb11  1  0.058903  0.440605  0.440537  1
  Tb  Tb12  1  0.191944  0.803565  0.191705  1
  Tb  Tb13  1  0.595560  0.603620  0.207600  1
  Tb  Tb14  1  0.191946  0.191764  0.803478  1
  Tb  Tb15  1  0.061183  0.436862  0.055738  1
  In  In16  1  0.832843  0.831002  0.503331  1
  In  In17  1  0.833175  0.831297  0.831537  1
  In  In18  1  0.503664  0.830901  0.830697  1
  In  In19  1  0.832987  0.503101  0.830934  1
  Co  Co20  1  0.390313  0.833807  0.391207  1
  Co  Co21  1  0.390385  0.391154  0.833722  1
  Os  Os22  1  0.389557  0.390698  0.390855  1
  Os  Os23  1  0.830681  0.391114  0.391251  1
