# generated using pymatgen
data_ScAl3TcB8Ru9
_symmetry_space_group_name_H-M   'P 1'
_cell_length_a   2.96041000
_cell_length_b   8.34327977
_cell_length_c   10.05347889
_cell_angle_alpha   89.88961803
_cell_angle_beta   90.00000000
_cell_angle_gamma   90.00000000
_symmetry_Int_Tables_number   1
_chemical_formula_structural   ScAl3TcB8Ru9
_chemical_formula_sum   'Sc1 Al3 Tc1 B8 Ru9'
_cell_volume   248.31573124
_cell_formula_units_Z   1
loop_
 _symmetry_equiv_pos_site_id
 _symmetry_equiv_pos_as_xyz
  1  'x, y, z'
loop_
 _atom_site_type_symbol
 _atom_site_label
 _atom_site_symmetry_multiplicity
 _atom_site_fract_x
 _atom_site_fract_y
 _atom_site_fract_z
 _atom_site_occupancy
  Sc  Sc0  1  0.500000  0.350298  0.323550  1
  Al  Al1  1  0.500000  0.851594  0.153736  1
  Al  Al2  1  0.500000  0.128392  0.793121  1
  Al  Al3  1  0.500000  0.628549  0.710866  1
  Tc  Tc4  1  0.000000  0.659628  0.955044  1
  B  B5  1  0.500000  0.959758  0.583194  1
  B  B6  1  0.500000  0.040246  0.407714  1
  B  B7  1  0.500000  0.851174  0.893784  1
  B  B8  1  0.500000  0.154298  0.100617  1
  B  B9  1  0.500000  0.655526  0.402356  1
  B  B10  1  0.500000  0.354258  0.606715  1
  B  B11  1  0.500000  0.463282  0.919939  1
  B  B12  1  0.500000  0.546880  0.094759  1
  Ru  Ru13  1  0.000000  0.347710  0.061256  1
  Ru  Ru14  1  0.000000  0.849639  0.450956  1
  Ru  Ru15  1  0.000000  0.166650  0.543786  1
  Ru  Ru16  1  0.000000  0.013344  0.983928  1
  Ru  Ru17  1  0.000000  0.376480  0.773534  1
  Ru  Ru18  1  0.000000  0.622792  0.242078  1
  Ru  Ru19  1  0.000000  0.516257  0.516381  1
  Ru  Ru20  1  0.000000  0.877397  0.728563  1
  Ru  Ru21  1  0.000000  0.085850  0.254126  1
