# generated using pymatgen
data_Nd4Ga5Ir5Pt4
_symmetry_space_group_name_H-M   'P 1'
_cell_length_a   12.56166864
_cell_length_b   12.56036018
_cell_length_c   12.56166852
_cell_angle_alpha   25.90223323
_cell_angle_beta   25.99933846
_cell_angle_gamma   25.90223233
_symmetry_Int_Tables_number   1
_chemical_formula_structural   Nd4Ga5Ir5Pt4
_chemical_formula_sum   'Nd4 Ga5 Ir5 Pt4'
_cell_volume   333.90134487
_cell_formula_units_Z   1
loop_
 _symmetry_equiv_pos_site_id
 _symmetry_equiv_pos_as_xyz
  1  'x, y, z'
loop_
 _atom_site_type_symbol
 _atom_site_label
 _atom_site_symmetry_multiplicity
 _atom_site_fract_x
 _atom_site_fract_y
 _atom_site_fract_z
 _atom_site_occupancy
  Nd  Nd0  1  0.954153  0.954241  0.954153  1
  Nd  Nd1  1  0.048370  0.047985  0.048370  1
  Nd  Nd2  1  0.854293  0.848215  0.854293  1
  Nd  Nd3  1  0.145628  0.144443  0.145628  1
  Ga  Ga4  1  0.494579  0.506228  0.494579  1
  Ga  Ga5  1  0.722939  0.717674  0.722939  1
  Ga  Ga6  1  0.278867  0.279200  0.278867  1
  Ga  Ga7  1  0.612101  0.613683  0.612101  1
  Ga  Ga8  1  0.385910  0.394863  0.385910  1
  Ir  Ir9  1  0.499585  0.499791  0.000922  1
  Ir  Ir10  1  0.000922  0.499791  0.499585  1
  Ir  Ir11  1  0.499489  0.002875  0.499489  1
  Ir  Ir12  1  0.614771  0.609799  0.104910  1
  Ir  Ir13  1  0.104910  0.609799  0.614771  1
  Pt  Pt14  1  0.388587  0.892743  0.388587  1
  Pt  Pt15  1  0.389640  0.387578  0.891810  1
  Pt  Pt16  1  0.891810  0.387578  0.389640  1
  Pt  Pt17  1  0.613443  0.103517  0.613443  1
