# generated using pymatgen
data_Mg2AlPdPt4
_symmetry_space_group_name_H-M   'P 1'
_cell_length_a   4.13599200
_cell_length_b   5.51510600
_cell_length_c   10.81446500
_cell_angle_alpha   90.00000000
_cell_angle_beta   90.00000000
_cell_angle_gamma   90.00000000
_symmetry_Int_Tables_number   1
_chemical_formula_structural   Mg2AlPdPt4
_chemical_formula_sum   'Mg4 Al2 Pd2 Pt8'
_cell_volume   246.68264332
_cell_formula_units_Z   2
loop_
 _symmetry_equiv_pos_site_id
 _symmetry_equiv_pos_as_xyz
  1  'x, y, z'
loop_
 _atom_site_type_symbol
 _atom_site_label
 _atom_site_symmetry_multiplicity
 _atom_site_fract_x
 _atom_site_fract_y
 _atom_site_fract_z
 _atom_site_occupancy
  Mg  Mg0  1  0.500000  0.170361  0.360703  1
  Mg  Mg1  1  0.500000  0.829639  0.639297  1
  Mg  Mg2  1  0.500000  0.670361  0.139297  1
  Mg  Mg3  1  0.500000  0.329639  0.860703  1
  Al  Al4  1  0.000000  0.000000  0.000000  1
  Al  Al5  1  0.000000  0.500000  0.500000  1
  Pd  Pd6  1  0.000000  0.000000  0.500000  1
  Pd  Pd7  1  0.000000  0.500000  0.000000  1
  Pt  Pt8  1  0.500000  0.180807  0.106149  1
  Pt  Pt9  1  0.500000  0.819193  0.893851  1
  Pt  Pt10  1  0.500000  0.680807  0.393851  1
  Pt  Pt11  1  0.500000  0.319193  0.606149  1
  Pt  Pt12  1  0.000000  0.921307  0.238661  1
  Pt  Pt13  1  0.000000  0.078693  0.761339  1
  Pt  Pt14  1  0.000000  0.421307  0.261339  1
  Pt  Pt15  1  0.000000  0.578693  0.738661  1
