# generated using pymatgen
data_Nd2Dy3Ho(RuO7)2
_symmetry_space_group_name_H-M   'P 1'
_cell_length_a   6.45401401
_cell_length_b   6.45061434
_cell_length_c   7.50204300
_cell_angle_alpha   89.99925388
_cell_angle_beta   89.99936726
_cell_angle_gamma   110.08086441
_symmetry_Int_Tables_number   1
_chemical_formula_structural   Nd2Dy3Ho(RuO7)2
_chemical_formula_sum   'Nd2 Dy3 Ho1 Ru2 O14'
_cell_volume   293.34099746
_cell_formula_units_Z   1
loop_
 _symmetry_equiv_pos_site_id
 _symmetry_equiv_pos_as_xyz
  1  'x, y, z'
loop_
 _atom_site_type_symbol
 _atom_site_label
 _atom_site_symmetry_multiplicity
 _atom_site_fract_x
 _atom_site_fract_y
 _atom_site_fract_z
 _atom_site_occupancy
  Nd  Nd0  1  0.000020  0.000004  0.499966  1
  Nd  Nd1  1  0.000021  0.000003  0.000034  1
  Dy  Dy2  1  0.481579  0.929936  0.749998  1
  Dy  Dy3  1  0.518419  0.070045  0.250002  1
  Dy  Dy4  1  0.929966  0.481611  0.749998  1
  Ho  Ho5  1  0.069305  0.518094  0.250003  1
  Ru  Ru6  1  0.500015  0.500029  0.499938  1
  Ru  Ru7  1  0.500015  0.500029  0.000062  1
  O  O8  1  0.589877  0.589860  0.749991  1
  O  O9  1  0.409853  0.410215  0.250008  1
  O  O10  1  0.837847  0.117004  0.750000  1
  O  O11  1  0.161998  0.881893  0.250000  1
  O  O12  1  0.117034  0.837870  0.750001  1
  O  O13  1  0.883533  0.163166  0.249999  1
  O  O14  1  0.440265  0.181734  0.962679  1
  O  O15  1  0.559776  0.818279  0.462681  1
  O  O16  1  0.181647  0.440439  0.963115  1
  O  O17  1  0.818560  0.559660  0.462372  1
  O  O18  1  0.440266  0.181742  0.537320  1
  O  O19  1  0.559778  0.818287  0.037321  1
  O  O20  1  0.818569  0.559661  0.037628  1
  O  O21  1  0.181655  0.440439  0.536883  1
