# generated using pymatgen
data_Cs2Al6AgF21
_symmetry_space_group_name_H-M   'P 1'
_cell_length_a   7.10192020
_cell_length_b   7.10192069
_cell_length_c   10.65307184
_cell_angle_alpha   70.56212557
_cell_angle_beta   70.56212412
_cell_angle_gamma   60.07073141
_symmetry_Int_Tables_number   1
_chemical_formula_structural   Cs2Al6AgF21
_chemical_formula_sum   'Cs2 Al6 Ag1 F21'
_cell_volume   429.87836508
_cell_formula_units_Z   1
loop_
 _symmetry_equiv_pos_site_id
 _symmetry_equiv_pos_as_xyz
  1  'x, y, z'
loop_
 _atom_site_type_symbol
 _atom_site_label
 _atom_site_symmetry_multiplicity
 _atom_site_fract_x
 _atom_site_fract_y
 _atom_site_fract_z
 _atom_site_occupancy
  Cs  Cs0  1  0.136423  0.130778  0.600612  1
  Cs  Cs1  1  0.869222  0.863577  0.399388  1
  Al  Al2  1  0.460198  0.917755  0.184885  1
  Al  Al3  1  0.082245  0.539802  0.815115  1
  Al  Al4  1  0.961682  0.415681  0.184686  1
  Al  Al5  1  0.461446  0.414755  0.184450  1
  Al  Al6  1  0.585245  0.538554  0.815550  1
  Al  Al7  1  0.584319  0.038318  0.815314  1
  Ag  Ag8  1  0.505334  0.494666  0.500000  1
  F  F9  1  0.677391  0.571456  0.636658  1
  F  F10  1  0.428544  0.322609  0.363342  1
  F  F11  1  0.168122  0.493721  0.193695  1
  F  F12  1  0.506279  0.831878  0.806305  1
  F  F13  1  0.866224  0.453237  0.836854  1
  F  F14  1  0.516207  0.958829  0.000246  1
  F  F15  1  0.755256  0.345841  0.166595  1
  F  F16  1  0.121249  0.595575  0.635417  1
  F  F17  1  0.873012  0.827928  0.821606  1
  F  F18  1  0.751349  0.707014  0.183017  1
  F  F19  1  0.654159  0.244744  0.833405  1
  F  F20  1  0.493143  0.506857  0.000000  1
  F  F21  1  0.893146  0.345616  0.363967  1
  F  F22  1  0.299972  0.621468  0.800966  1
  F  F23  1  0.404425  0.878751  0.364583  1
  F  F24  1  0.292986  0.248651  0.816983  1
  F  F25  1  0.546763  0.133776  0.163146  1
  F  F26  1  0.378532  0.700028  0.199034  1
  F  F27  1  0.172072  0.126988  0.178394  1
  F  F28  1  0.041171  0.483793  0.999754  1
  F  F29  1  0.654384  0.106854  0.636033  1
