# generated using pymatgen
data_Er3Cd2HgC
_symmetry_space_group_name_H-M   'P 1'
_cell_length_a   9.47758039
_cell_length_b   9.47716449
_cell_length_c   9.47434880
_cell_angle_alpha   119.74377913
_cell_angle_beta   90.44532006
_cell_angle_gamma   119.75070123
_symmetry_Int_Tables_number   1
_chemical_formula_structural   Er3Cd2HgC
_chemical_formula_sum   'Er12 Cd8 Hg4 C4'
_cell_volume   603.98469144
_cell_formula_units_Z   4
loop_
 _symmetry_equiv_pos_site_id
 _symmetry_equiv_pos_as_xyz
  1  'x, y, z'
loop_
 _atom_site_type_symbol
 _atom_site_label
 _atom_site_symmetry_multiplicity
 _atom_site_fract_x
 _atom_site_fract_y
 _atom_site_fract_z
 _atom_site_occupancy
  Er  Er0  1  0.935744  0.371329  0.185021  1
  Er  Er1  1  0.936799  0.749300  0.185795  1
  Er  Er2  1  0.313777  0.749362  0.185077  1
  Er  Er3  1  0.686385  0.247694  0.433913  1
  Er  Er4  1  0.685759  0.870928  0.433966  1
  Er  Er5  1  0.063086  0.248274  0.433907  1
  Er  Er6  1  0.313311  0.126308  0.562029  1
  Er  Er7  1  0.312368  0.747936  0.560115  1
  Er  Er8  1  0.935759  0.748860  0.562086  1
  Er  Er9  1  0.686026  0.249405  0.812854  1
  Er  Er10  1  0.063488  0.626850  0.812763  1
  Er  Er11  1  0.062574  0.249377  0.811719  1
  Cd  Cd12  1  0.999899  0.999156  0.998252  1
  Cd  Cd13  1  0.499174  0.998591  0.997791  1
  Cd  Cd14  1  0.499209  0.498481  0.998257  1
  Cd  Cd15  1  0.499855  0.499326  0.499177  1
  Cd  Cd16  1  0.373669  0.582842  0.791186  1
  Cd  Cd17  1  0.708657  0.582579  0.791362  1
  Cd  Cd18  1  0.708348  0.917516  0.791271  1
  Cd  Cd19  1  0.291264  0.082802  0.874248  1
  Hg  Hg20  1  0.712416  0.924481  0.137040  1
  Hg  Hg21  1  0.287830  0.075425  0.212555  1
  Hg  Hg22  1  0.286936  0.424948  0.212073  1
  Hg  Hg23  1  0.637020  0.424691  0.212530  1
  C  C24  1  0.999624  0.501304  0.000916  1
  C  C25  1  0.000510  0.001676  0.502193  1
  C  C26  1  0.500568  0.000546  0.501013  1
  C  C27  1  0.999955  0.500023  0.500898  1
