# generated using pymatgen
data_Sr3Yb(Sn2Ir)8
_symmetry_space_group_name_H-M   'P 1'
_cell_length_a   4.50907400
_cell_length_b   7.33163429
_cell_length_c   18.80319693
_cell_angle_alpha   89.90915571
_cell_angle_beta   90.00000000
_cell_angle_gamma   90.00000000
_symmetry_Int_Tables_number   1
_chemical_formula_structural   Sr3Yb(Sn2Ir)8
_chemical_formula_sum   'Sr3 Yb1 Sn16 Ir8'
_cell_volume   621.61187929
_cell_formula_units_Z   1
loop_
 _symmetry_equiv_pos_site_id
 _symmetry_equiv_pos_as_xyz
  1  'x, y, z'
loop_
 _atom_site_type_symbol
 _atom_site_label
 _atom_site_symmetry_multiplicity
 _atom_site_fract_x
 _atom_site_fract_y
 _atom_site_fract_z
 _atom_site_occupancy
  Sr  Sr0  1  0.250000  0.505613  0.357597  1
  Sr  Sr1  1  0.750000  0.005903  0.141425  1
  Sr  Sr2  1  0.750000  0.494178  0.643248  1
  Yb  Yb3  1  0.250000  0.992290  0.857095  1
  Sn  Sn4  1  0.250000  0.303623  0.182552  1
  Sn  Sn5  1  0.250000  0.195690  0.684026  1
  Sn  Sn6  1  0.750000  0.700761  0.817948  1
  Sn  Sn7  1  0.750000  0.803676  0.316999  1
  Sn  Sn8  1  0.250000  0.723661  0.193218  1
  Sn  Sn9  1  0.250000  0.776940  0.695210  1
  Sn  Sn10  1  0.750000  0.271969  0.808520  1
  Sn  Sn11  1  0.750000  0.223482  0.306411  1
  Sn  Sn12  1  0.250000  0.870112  0.030369  1
  Sn  Sn13  1  0.250000  0.632133  0.532474  1
  Sn  Sn14  1  0.750000  0.130272  0.964584  1
  Sn  Sn15  1  0.750000  0.367735  0.467941  1
  Sn  Sn16  1  0.250000  0.520017  0.931710  1
  Sn  Sn17  1  0.250000  0.981496  0.431964  1
  Sn  Sn18  1  0.750000  0.480995  0.067113  1
  Sn  Sn19  1  0.750000  0.018744  0.568884  1
  Ir  Ir20  1  0.250000  0.255579  0.035002  1
  Ir  Ir21  1  0.250000  0.243742  0.536536  1
  Ir  Ir22  1  0.750000  0.746847  0.962386  1
  Ir  Ir23  1  0.750000  0.756312  0.463956  1
  Ir  Ir24  1  0.250000  0.015815  0.285545  1
  Ir  Ir25  1  0.250000  0.482825  0.786541  1
  Ir  Ir26  1  0.750000  0.983627  0.716649  1
  Ir  Ir27  1  0.750000  0.515962  0.214097  1
