# generated using pymatgen
data_Tb4GeI6
_symmetry_space_group_name_H-M   'P 1'
_cell_length_a   4.23986100
_cell_length_b   14.07866100
_cell_length_c   14.85200400
_cell_angle_alpha   90.00000000
_cell_angle_beta   90.00000000
_cell_angle_gamma   90.00000000
_symmetry_Int_Tables_number   1
_chemical_formula_structural   Tb4GeI6
_chemical_formula_sum   'Tb8 Ge2 I12'
_cell_volume   886.53937263
_cell_formula_units_Z   2
loop_
 _symmetry_equiv_pos_site_id
 _symmetry_equiv_pos_as_xyz
  1  'x, y, z'
loop_
 _atom_site_type_symbol
 _atom_site_label
 _atom_site_symmetry_multiplicity
 _atom_site_fract_x
 _atom_site_fract_y
 _atom_site_fract_z
 _atom_site_occupancy
  Tb  Tb0  1  0.500000  0.114843  0.346397  1
  Tb  Tb1  1  0.500000  0.885157  0.653603  1
  Tb  Tb2  1  0.500000  0.614843  0.153603  1
  Tb  Tb3  1  0.500000  0.385157  0.846397  1
  Tb  Tb4  1  0.000000  0.112478  0.575038  1
  Tb  Tb5  1  0.000000  0.887522  0.424962  1
  Tb  Tb6  1  0.000000  0.612478  0.924962  1
  Tb  Tb7  1  0.000000  0.387522  0.075038  1
  Ge  Ge8  1  0.500000  0.000000  0.500000  1
  Ge  Ge9  1  0.500000  0.500000  0.000000  1
  I  I10  1  0.500000  0.244499  0.161347  1
  I  I11  1  0.500000  0.755501  0.838653  1
  I  I12  1  0.500000  0.744499  0.338653  1
  I  I13  1  0.500000  0.255501  0.661347  1
  I  I14  1  0.000000  0.258289  0.413389  1
  I  I15  1  0.000000  0.741711  0.586611  1
  I  I16  1  0.000000  0.758289  0.086611  1
  I  I17  1  0.000000  0.241711  0.913389  1
  I  I18  1  0.000000  0.999340  0.240757  1
  I  I19  1  0.000000  0.000660  0.759243  1
  I  I20  1  0.000000  0.499340  0.259243  1
  I  I21  1  0.000000  0.500660  0.740757  1
