# generated using pymatgen
data_Th3Mg(Pd3Pt)3
_symmetry_space_group_name_H-M   'P 1'
_cell_length_a   5.88889500
_cell_length_b   5.88889467
_cell_length_c   9.66169500
_cell_angle_alpha   90.00000000
_cell_angle_beta   90.00000000
_cell_angle_gamma   120.00000747
_symmetry_Int_Tables_number   1
_chemical_formula_structural   Th3Mg(Pd3Pt)3
_chemical_formula_sum   'Th3 Mg1 Pd9 Pt3'
_cell_volume   290.16933865
_cell_formula_units_Z   1
loop_
 _symmetry_equiv_pos_site_id
 _symmetry_equiv_pos_as_xyz
  1  'x, y, z'
loop_
 _atom_site_type_symbol
 _atom_site_label
 _atom_site_symmetry_multiplicity
 _atom_site_fract_x
 _atom_site_fract_y
 _atom_site_fract_z
 _atom_site_occupancy
  Th  Th0  1  0.000000  0.000000  0.492715  1
  Th  Th1  1  0.000000  0.000000  0.007285  1
  Th  Th2  1  0.666667  0.333333  0.750000  1
  Mg  Mg3  1  0.333333  0.666667  0.250000  1
  Pd  Pd4  1  0.497930  0.502070  0.494270  1
  Pd  Pd5  1  0.497930  0.995860  0.494270  1
  Pd  Pd6  1  0.004140  0.502070  0.494270  1
  Pd  Pd7  1  0.497930  0.502070  0.005730  1
  Pd  Pd8  1  0.497930  0.995860  0.005730  1
  Pd  Pd9  1  0.004140  0.502070  0.005730  1
  Pd  Pd10  1  0.824484  0.648968  0.250000  1
  Pd  Pd11  1  0.351032  0.175516  0.250000  1
  Pd  Pd12  1  0.824484  0.175516  0.250000  1
  Pt  Pt13  1  0.172684  0.345367  0.750000  1
  Pt  Pt14  1  0.654633  0.827316  0.750000  1
  Pt  Pt15  1  0.172684  0.827316  0.750000  1
