# generated using pymatgen
data_Er2GaIrRu
_symmetry_space_group_name_H-M   'P 1'
_cell_length_a   4.06340507
_cell_length_b   5.86279306
_cell_length_c   5.49292383
_cell_angle_alpha   122.25362296
_cell_angle_beta   111.70798587
_cell_angle_gamma   89.99999431
_symmetry_Int_Tables_number   1
_chemical_formula_structural   Er2GaIrRu
_chemical_formula_sum   'Er2 Ga1 Ir1 Ru1'
_cell_volume   99.51961179
_cell_formula_units_Z   1
loop_
 _symmetry_equiv_pos_site_id
 _symmetry_equiv_pos_as_xyz
  1  'x, y, z'
loop_
 _atom_site_type_symbol
 _atom_site_label
 _atom_site_symmetry_multiplicity
 _atom_site_fract_x
 _atom_site_fract_y
 _atom_site_fract_z
 _atom_site_occupancy
  Er  Er0  1  0.795737  0.293606  0.591474  1
  Er  Er1  1  0.204263  0.702132  0.408526  1
  Ga  Ga2  1  0.000000  0.005699  0.000000  1
  Ir  Ir3  1  0.500000  0.729461  0.000000  1
  Ru  Ru4  1  0.500000  0.269102  0.000000  1
