# generated using pymatgen
data_Zr2Sc(ZnRh2)3
_symmetry_space_group_name_H-M   'P 1'
_cell_length_a   4.49192100
_cell_length_b   6.25256800
_cell_length_c   13.41470100
_cell_angle_alpha   90.00000000
_cell_angle_beta   90.00002984
_cell_angle_gamma   90.00000000
_symmetry_Int_Tables_number   1
_chemical_formula_structural   Zr2Sc(ZnRh2)3
_chemical_formula_sum   'Zr4 Sc2 Zn6 Rh12'
_cell_volume   376.76584904
_cell_formula_units_Z   2
loop_
 _symmetry_equiv_pos_site_id
 _symmetry_equiv_pos_as_xyz
  1  'x, y, z'
loop_
 _atom_site_type_symbol
 _atom_site_label
 _atom_site_symmetry_multiplicity
 _atom_site_fract_x
 _atom_site_fract_y
 _atom_site_fract_z
 _atom_site_occupancy
  Zr  Zr0  1  0.000008  0.000000  0.997347  1
  Zr  Zr1  1  0.499755  0.500000  0.165669  1
  Zr  Zr2  1  0.999752  0.000000  0.334330  1
  Zr  Zr3  1  0.499999  0.500000  0.502651  1
  Sc  Sc4  1  0.000255  0.000000  0.667850  1
  Sc  Sc5  1  0.500253  0.500000  0.832157  1
  Zn  Zn6  1  0.999997  0.500000  0.998257  1
  Zn  Zn7  1  0.499831  0.000000  0.165900  1
  Zn  Zn8  1  0.999816  0.500000  0.334103  1
  Zn  Zn9  1  0.499996  0.000000  0.501744  1
  Zn  Zn10  1  0.000166  0.500000  0.667596  1
  Zn  Zn11  1  0.500152  0.000000  0.832404  1
  Rh  Rh12  1  0.500000  0.250616  0.999948  1
  Rh  Rh13  1  0.500000  0.749384  0.999948  1
  Rh  Rh14  1  0.999780  0.250451  0.166926  1
  Rh  Rh15  1  0.999780  0.749548  0.166926  1
  Rh  Rh16  1  0.499771  0.249545  0.333073  1
  Rh  Rh17  1  0.499771  0.750455  0.333073  1
  Rh  Rh18  1  0.999992  0.249391  0.500052  1
  Rh  Rh19  1  0.999992  0.750608  0.500052  1
  Rh  Rh20  1  0.500239  0.249647  0.667013  1
  Rh  Rh21  1  0.500239  0.750353  0.667013  1
  Rh  Rh22  1  0.000229  0.250360  0.832984  1
  Rh  Rh23  1  0.000229  0.749639  0.832984  1
