# generated using pymatgen
data_Lu3Ta(PdPt)6
_symmetry_space_group_name_H-M   'P 1'
_cell_length_a   5.71562900
_cell_length_b   5.71562883
_cell_length_c   9.38614800
_cell_angle_alpha   90.00000000
_cell_angle_beta   90.00000000
_cell_angle_gamma   119.99999522
_symmetry_Int_Tables_number   1
_chemical_formula_structural   Lu3Ta(PdPt)6
_chemical_formula_sum   'Lu3 Ta1 Pd6 Pt6'
_cell_volume   265.54987382
_cell_formula_units_Z   1
loop_
 _symmetry_equiv_pos_site_id
 _symmetry_equiv_pos_as_xyz
  1  'x, y, z'
loop_
 _atom_site_type_symbol
 _atom_site_label
 _atom_site_symmetry_multiplicity
 _atom_site_fract_x
 _atom_site_fract_y
 _atom_site_fract_z
 _atom_site_occupancy
  Lu  Lu0  1  0.000000  0.000000  0.000000  1
  Lu  Lu1  1  0.333333  0.666667  0.247330  1
  Lu  Lu2  1  0.666667  0.333333  0.752670  1
  Ta  Ta3  1  0.000000  0.000000  0.500000  1
  Pd  Pd4  1  0.500000  0.500000  0.500000  1
  Pd  Pd5  1  0.500000  0.000000  0.500000  1
  Pd  Pd6  1  0.000000  0.500000  0.500000  1
  Pd  Pd7  1  0.500000  0.500000  0.000000  1
  Pd  Pd8  1  0.500000  0.000000  0.000000  1
  Pd  Pd9  1  0.000000  0.500000  0.000000  1
  Pt  Pt10  1  0.830207  0.660417  0.257228  1
  Pt  Pt11  1  0.339583  0.169793  0.257228  1
  Pt  Pt12  1  0.830207  0.169793  0.257228  1
  Pt  Pt13  1  0.169793  0.339583  0.742772  1
  Pt  Pt14  1  0.660417  0.830207  0.742772  1
  Pt  Pt15  1  0.169793  0.830207  0.742772  1
