# generated using pymatgen
data_Hf7Mg(CoIr)4
_symmetry_space_group_name_H-M   'P 1'
_cell_length_a   6.57683000
_cell_length_b   4.49579300
_cell_length_c   8.96136000
_cell_angle_alpha   90.00000000
_cell_angle_beta   89.99760530
_cell_angle_gamma   90.00000000
_symmetry_Int_Tables_number   1
_chemical_formula_structural   Hf7Mg(CoIr)4
_chemical_formula_sum   'Hf7 Mg1 Co4 Ir4'
_cell_volume   264.97008630
_cell_formula_units_Z   1
loop_
 _symmetry_equiv_pos_site_id
 _symmetry_equiv_pos_as_xyz
  1  'x, y, z'
loop_
 _atom_site_type_symbol
 _atom_site_label
 _atom_site_symmetry_multiplicity
 _atom_site_fract_x
 _atom_site_fract_y
 _atom_site_fract_z
 _atom_site_occupancy
  Hf  Hf0  1  0.499987  0.749999  0.125018  1
  Hf  Hf1  1  0.999757  0.249999  0.364919  1
  Hf  Hf2  1  0.500368  0.249999  0.375547  1
  Hf  Hf3  1  0.498932  0.749999  0.625011  1
  Hf  Hf4  1  0.998136  0.749999  0.624990  1
  Hf  Hf5  1  0.500373  0.249999  0.874436  1
  Hf  Hf6  1  0.999782  0.249999  0.885082  1
  Mg  Mg7  1  0.001439  0.749999  0.125000  1
  Co  Co8  1  0.743668  0.249999  0.125005  1
  Co  Co9  1  0.250521  0.749999  0.381610  1
  Co  Co10  1  0.757221  0.249999  0.624990  1
  Co  Co11  1  0.250549  0.749999  0.868387  1
  Ir  Ir12  1  0.260104  0.249999  0.125005  1
  Ir  Ir13  1  0.747432  0.749999  0.376495  1
  Ir  Ir14  1  0.244272  0.249999  0.625014  1
  Ir  Ir15  1  0.747458  0.749999  0.873495  1
