# generated using pymatgen
data_NdY5Si4(BRh6)2
_symmetry_space_group_name_H-M   'P 1'
_cell_length_a   5.54967300
_cell_length_b   5.54967206
_cell_length_c   14.66470200
_cell_angle_alpha   90.00000000
_cell_angle_beta   90.00000000
_cell_angle_gamma   119.99999966
_symmetry_Int_Tables_number   1
_chemical_formula_structural   NdY5Si4(BRh6)2
_chemical_formula_sum   'Nd1 Y5 Si4 B2 Rh12'
_cell_volume   391.14572670
_cell_formula_units_Z   1
loop_
 _symmetry_equiv_pos_site_id
 _symmetry_equiv_pos_as_xyz
  1  'x, y, z'
loop_
 _atom_site_type_symbol
 _atom_site_label
 _atom_site_symmetry_multiplicity
 _atom_site_fract_x
 _atom_site_fract_y
 _atom_site_fract_z
 _atom_site_occupancy
  Nd  Nd0  1  0.666667  0.333333  0.750000  1
  Y  Y1  1  0.666667  0.333333  0.970969  1
  Y  Y2  1  0.666667  0.333333  0.529031  1
  Y  Y3  1  0.333333  0.666667  0.042015  1
  Y  Y4  1  0.333333  0.666667  0.457985  1
  Y  Y5  1  0.333333  0.666667  0.250000  1
  Si  Si6  1  0.000000  0.000000  0.488962  1
  Si  Si7  1  0.000000  0.000000  0.750000  1
  Si  Si8  1  0.333333  0.666667  0.750000  1
  Si  Si9  1  0.000000  0.000000  0.011038  1
  B  B10  1  0.666667  0.333333  0.250000  1
  B  B11  1  0.000000  0.000000  0.250000  1
  Rh  Rh12  1  0.166180  0.332362  0.873745  1
  Rh  Rh13  1  0.166180  0.332362  0.626255  1
  Rh  Rh14  1  0.667638  0.833820  0.873745  1
  Rh  Rh15  1  0.332129  0.166064  0.351246  1
  Rh  Rh16  1  0.833936  0.667871  0.351246  1
  Rh  Rh17  1  0.833936  0.166064  0.351246  1
  Rh  Rh18  1  0.833936  0.166064  0.148754  1
  Rh  Rh19  1  0.332129  0.166064  0.148754  1
  Rh  Rh20  1  0.667638  0.833820  0.626255  1
  Rh  Rh21  1  0.166180  0.833820  0.626255  1
  Rh  Rh22  1  0.833936  0.667871  0.148754  1
  Rh  Rh23  1  0.166180  0.833820  0.873745  1
