# generated using pymatgen
data_Ta3Be2Fe2CoB
_symmetry_space_group_name_H-M   'P 1'
_cell_length_a   6.10374444
_cell_length_b   6.13107781
_cell_length_c   3.20888600
_cell_angle_alpha   90.00000000
_cell_angle_beta   90.00000000
_cell_angle_gamma   119.99054524
_symmetry_Int_Tables_number   1
_chemical_formula_structural   Ta3Be2Fe2CoB
_chemical_formula_sum   'Ta3 Be2 Fe2 Co1 B1'
_cell_volume   104.00625495
_cell_formula_units_Z   1
loop_
 _symmetry_equiv_pos_site_id
 _symmetry_equiv_pos_as_xyz
  1  'x, y, z'
loop_
 _atom_site_type_symbol
 _atom_site_label
 _atom_site_symmetry_multiplicity
 _atom_site_fract_x
 _atom_site_fract_y
 _atom_site_fract_z
 _atom_site_occupancy
  Ta  Ta0  1  0.418606  0.008866  0.500000  1
  Ta  Ta1  1  0.993152  0.412934  0.500000  1
  Ta  Ta2  1  0.588655  0.576770  0.500000  1
  Be  Be3  1  0.334816  0.667945  0.000000  1
  Be  Be4  1  0.997540  0.000309  0.500000  1
  Fe  Fe5  1  0.993857  0.750425  0.000000  1
  Fe  Fe6  1  0.250203  0.243854  0.000000  1
  Co  Co7  1  0.756566  0.006364  0.000000  1
  B  B8  1  0.666605  0.332533  0.000000  1
