# generated using pymatgen
data_Na2Sn2Ge2O7
_symmetry_space_group_name_H-M   'P 1'
_cell_length_a   5.57324500
_cell_length_b   5.57324473
_cell_length_c   7.63908500
_cell_angle_alpha   90.00000000
_cell_angle_beta   90.00000000
_cell_angle_gamma   119.99999014
_symmetry_Int_Tables_number   1
_chemical_formula_structural   Na2Sn2Ge2O7
_chemical_formula_sum   'Na2 Sn2 Ge2 O7'
_cell_volume   205.48885236
_cell_formula_units_Z   1
loop_
 _symmetry_equiv_pos_site_id
 _symmetry_equiv_pos_as_xyz
  1  'x, y, z'
loop_
 _atom_site_type_symbol
 _atom_site_label
 _atom_site_symmetry_multiplicity
 _atom_site_fract_x
 _atom_site_fract_y
 _atom_site_fract_z
 _atom_site_occupancy
  Na  Na0  1  0.666667  0.333333  0.932631  1
  Na  Na1  1  0.333333  0.666667  0.067369  1
  Sn  Sn2  1  0.333333  0.666667  0.633029  1
  Sn  Sn3  1  0.666667  0.333333  0.366971  1
  Ge  Ge4  1  0.000000  0.000000  0.264424  1
  Ge  Ge5  1  0.000000  0.000000  0.735576  1
  O  O6  1  0.737560  0.071188  0.195769  1
  O  O7  1  0.262440  0.928812  0.804231  1
  O  O8  1  0.333628  0.262440  0.195769  1
  O  O9  1  0.000000  0.000000  0.500000  1
  O  O10  1  0.071188  0.333628  0.804231  1
  O  O11  1  0.928812  0.666372  0.195769  1
  O  O12  1  0.666372  0.737560  0.804231  1
