# generated using pymatgen
data_V12CoSi8Rh3C4
_symmetry_space_group_name_H-M   'P 1'
_cell_length_a   7.79295603
_cell_length_b   7.74904378
_cell_length_c   7.74904500
_cell_angle_alpha   59.99999906
_cell_angle_beta   60.18622448
_cell_angle_gamma   60.18621665
_symmetry_Int_Tables_number   1
_chemical_formula_structural   V12CoSi8Rh3C4
_chemical_formula_sum   'V12 Co1 Si8 Rh3 C4'
_cell_volume   331.81821564
_cell_formula_units_Z   1
loop_
 _symmetry_equiv_pos_site_id
 _symmetry_equiv_pos_as_xyz
  1  'x, y, z'
loop_
 _atom_site_type_symbol
 _atom_site_label
 _atom_site_symmetry_multiplicity
 _atom_site_fract_x
 _atom_site_fract_y
 _atom_site_fract_z
 _atom_site_occupancy
  V  V0  1  0.822391  0.819094  0.179257  1
  V  V1  1  0.183283  0.188902  0.813908  1
  V  V2  1  0.822391  0.179257  0.819094  1
  V  V3  1  0.183283  0.813908  0.188902  1
  V  V4  1  0.183283  0.813908  0.813908  1
  V  V5  1  0.822391  0.179257  0.179257  1
  V  V6  1  0.427609  0.430906  0.070743  1
  V  V7  1  0.066717  0.061098  0.436092  1
  V  V8  1  0.427609  0.070743  0.430906  1
  V  V9  1  0.066717  0.436092  0.061098  1
  V  V10  1  0.066717  0.436092  0.436092  1
  V  V11  1  0.427609  0.070743  0.070743  1
  Co  Co12  1  0.125000  0.625000  0.625000  1
  Si  Si13  1  0.776004  0.407999  0.407999  1
  Si  Si14  1  0.401164  0.764923  0.416958  1
  Si  Si15  1  0.401164  0.416958  0.764923  1
  Si  Si16  1  0.401164  0.416958  0.416958  1
  Si  Si17  1  0.473996  0.842001  0.842001  1
  Si  Si18  1  0.848836  0.485077  0.833042  1
  Si  Si19  1  0.848836  0.833042  0.485077  1
  Si  Si20  1  0.848836  0.833042  0.833042  1
  Rh  Rh21  1  0.625000  0.125000  0.625000  1
  Rh  Rh22  1  0.625000  0.625000  0.125000  1
  Rh  Rh23  1  0.625000  0.625000  0.625000  1
  C  C24  1  0.625000  0.125000  0.125000  1
  C  C25  1  0.125000  0.625000  0.125000  1
  C  C26  1  0.125000  0.125000  0.625000  1
  C  C27  1  0.125000  0.125000  0.125000  1
