# generated using pymatgen
data_NdY3Ho(FeB3)2
_symmetry_space_group_name_H-M   'P 1'
_cell_length_a   8.31625103
_cell_length_b   8.31625094
_cell_length_c   8.31625029
_cell_angle_alpha   38.17452738
_cell_angle_beta   38.17452917
_cell_angle_gamma   38.17452124
_symmetry_Int_Tables_number   1
_chemical_formula_structural   NdY3Ho(FeB3)2
_chemical_formula_sum   'Nd1 Y3 Ho1 Fe2 B6'
_cell_volume   197.28167421
_cell_formula_units_Z   1
loop_
 _symmetry_equiv_pos_site_id
 _symmetry_equiv_pos_as_xyz
  1  'x, y, z'
loop_
 _atom_site_type_symbol
 _atom_site_label
 _atom_site_symmetry_multiplicity
 _atom_site_fract_x
 _atom_site_fract_y
 _atom_site_fract_z
 _atom_site_occupancy
  Nd  Nd0  1  0.999825  0.999825  0.999825  1
  Y  Y1  1  0.582751  0.582751  0.582751  1
  Y  Y2  1  0.417263  0.417263  0.417263  1
  Y  Y3  1  0.749815  0.749815  0.749815  1
  Ho  Ho4  1  0.249751  0.249751  0.249751  1
  Fe  Fe5  1  0.882902  0.882902  0.882902  1
  Fe  Fe6  1  0.117128  0.117128  0.117128  1
  B  B7  1  0.499766  0.832979  0.167538  1
  B  B8  1  0.167538  0.499766  0.832979  1
  B  B9  1  0.832979  0.167538  0.499766  1
  B  B10  1  0.499766  0.167538  0.832979  1
  B  B11  1  0.832979  0.499766  0.167538  1
  B  B12  1  0.167538  0.832979  0.499766  1
