# generated using pymatgen
data_Nd2Ho4FeCo17P12
_symmetry_space_group_name_H-M   'P 1'
_cell_length_a   3.71595000
_cell_length_b   10.55776000
_cell_length_c   12.22715400
_cell_angle_alpha   90.00000000
_cell_angle_beta   90.00000000
_cell_angle_gamma   90.00000000
_symmetry_Int_Tables_number   1
_chemical_formula_structural   Nd2Ho4FeCo17P12
_chemical_formula_sum   'Nd2 Ho4 Fe1 Co17 P12'
_cell_volume   479.69702959
_cell_formula_units_Z   1
loop_
 _symmetry_equiv_pos_site_id
 _symmetry_equiv_pos_as_xyz
  1  'x, y, z'
loop_
 _atom_site_type_symbol
 _atom_site_label
 _atom_site_symmetry_multiplicity
 _atom_site_fract_x
 _atom_site_fract_y
 _atom_site_fract_z
 _atom_site_occupancy
  Nd  Nd0  1  0.000000  0.500000  0.521303  1
  Nd  Nd1  1  0.500000  0.000000  0.478067  1
  Ho  Ho2  1  0.500000  0.818010  0.204819  1
  Ho  Ho3  1  0.500000  0.181990  0.204819  1
  Ho  Ho4  1  0.000000  0.682094  0.795776  1
  Ho  Ho5  1  0.000000  0.317906  0.795776  1
  Fe  Fe6  1  0.500000  0.500000  0.155312  1
  Co  Co7  1  0.000000  0.500000  0.986940  1
  Co  Co8  1  0.500000  0.000000  0.012899  1
  Co  Co9  1  0.500000  0.296076  0.429305  1
  Co  Co10  1  0.500000  0.703924  0.429305  1
  Co  Co11  1  0.000000  0.203508  0.571374  1
  Co  Co12  1  0.000000  0.796492  0.571374  1
  Co  Co13  1  0.500000  0.879517  0.712766  1
  Co  Co14  1  0.500000  0.120483  0.712766  1
  Co  Co15  1  0.000000  0.621252  0.287303  1
  Co  Co16  1  0.000000  0.378748  0.287303  1
  Co  Co17  1  0.500000  0.332736  0.994666  1
  Co  Co18  1  0.500000  0.667264  0.994666  1
  Co  Co19  1  0.000000  0.166497  0.005230  1
  Co  Co20  1  0.000000  0.833503  0.005230  1
  Co  Co21  1  0.000000  0.000000  0.843497  1
  Co  Co22  1  0.500000  0.500000  0.706170  1
  Co  Co23  1  0.000000  0.000000  0.293546  1
  P  P24  1  0.500000  0.307908  0.617986  1
  P  P25  1  0.500000  0.692092  0.617986  1
  P  P26  1  0.000000  0.192372  0.382336  1
  P  P27  1  0.000000  0.807628  0.382336  1
  P  P28  1  0.500000  0.500000  0.883731  1
  P  P29  1  0.000000  0.000000  0.116311  1
  P  P30  1  0.500000  0.846612  0.893809  1
  P  P31  1  0.500000  0.153388  0.893809  1
  P  P32  1  0.000000  0.653656  0.106028  1
  P  P33  1  0.000000  0.346344  0.106028  1
  P  P34  1  0.500000  0.500000  0.338527  1
  P  P35  1  0.000000  0.000000  0.660906  1
