# generated using pymatgen
data_Eu2GaGe2Rh
_symmetry_space_group_name_H-M   'P 1'
_cell_length_a   4.26399000
_cell_length_b   4.26399029
_cell_length_c   17.60956500
_cell_angle_alpha   90.00000000
_cell_angle_beta   90.00000000
_cell_angle_gamma   119.99999773
_symmetry_Int_Tables_number   1
_chemical_formula_structural   Eu2GaGe2Rh
_chemical_formula_sum   'Eu4 Ga2 Ge4 Rh2'
_cell_volume   277.27560046
_cell_formula_units_Z   2
loop_
 _symmetry_equiv_pos_site_id
 _symmetry_equiv_pos_as_xyz
  1  'x, y, z'
loop_
 _atom_site_type_symbol
 _atom_site_label
 _atom_site_symmetry_multiplicity
 _atom_site_fract_x
 _atom_site_fract_y
 _atom_site_fract_z
 _atom_site_occupancy
  Eu  Eu0  1  0.000000  0.000000  0.500000  1
  Eu  Eu1  1  0.000000  0.000000  0.000000  1
  Eu  Eu2  1  0.000000  0.000000  0.262240  1
  Eu  Eu3  1  0.000000  0.000000  0.737760  1
  Ga  Ga4  1  0.333333  0.666667  0.854601  1
  Ga  Ga5  1  0.666667  0.333333  0.145399  1
  Ge  Ge6  1  0.333333  0.666667  0.380200  1
  Ge  Ge7  1  0.666667  0.333333  0.619800  1
  Ge  Ge8  1  0.666667  0.333333  0.888928  1
  Ge  Ge9  1  0.333333  0.666667  0.111072  1
  Rh  Rh10  1  0.666667  0.333333  0.374452  1
  Rh  Rh11  1  0.333333  0.666667  0.625548  1
