# generated using pymatgen
data_Zr6GaAsN2
_symmetry_space_group_name_H-M   'P 1'
_cell_length_a   5.93918201
_cell_length_b   5.93918092
_cell_length_c   8.72600300
_cell_angle_alpha   90.00000000
_cell_angle_beta   90.00000000
_cell_angle_gamma   146.08524031
_symmetry_Int_Tables_number   1
_chemical_formula_structural   Zr6GaAsN2
_chemical_formula_sum   'Zr6 Ga1 As1 N2'
_cell_volume   171.73972462
_cell_formula_units_Z   1
loop_
 _symmetry_equiv_pos_site_id
 _symmetry_equiv_pos_as_xyz
  1  'x, y, z'
loop_
 _atom_site_type_symbol
 _atom_site_label
 _atom_site_symmetry_multiplicity
 _atom_site_fract_x
 _atom_site_fract_y
 _atom_site_fract_z
 _atom_site_occupancy
  Zr  Zr0  1  0.630113  0.369887  0.945203  1
  Zr  Zr1  1  0.372769  0.627231  0.451333  1
  Zr  Zr2  1  0.372769  0.627231  0.048667  1
  Zr  Zr3  1  0.630113  0.369887  0.554797  1
  Zr  Zr4  1  0.939955  0.060045  0.750000  1
  Zr  Zr5  1  0.052787  0.947213  0.250000  1
  Ga  Ga6  1  0.747211  0.252789  0.250000  1
  As  As7  1  0.253081  0.746919  0.750000  1
  N  N8  1  0.000602  0.999398  0.997593  1
  N  N9  1  0.000602  0.999398  0.502407  1
