# generated using pymatgen
data_CaPrGaRh2
_symmetry_space_group_name_H-M   'P 1'
_cell_length_a   5.70544694
_cell_length_b   5.70544705
_cell_length_c   5.70544636
_cell_angle_alpha   138.06728092
_cell_angle_beta   117.27822504
_cell_angle_gamma   78.33190753
_symmetry_Int_Tables_number   1
_chemical_formula_structural   CaPrGaRh2
_chemical_formula_sum   'Ca1 Pr1 Ga1 Rh2'
_cell_volume   107.25903890
_cell_formula_units_Z   1
loop_
 _symmetry_equiv_pos_site_id
 _symmetry_equiv_pos_as_xyz
  1  'x, y, z'
loop_
 _atom_site_type_symbol
 _atom_site_label
 _atom_site_symmetry_multiplicity
 _atom_site_fract_x
 _atom_site_fract_y
 _atom_site_fract_z
 _atom_site_occupancy
  Ca  Ca0  1  0.297056  0.797056  0.499999  1
  Pr  Pr1  1  0.697729  0.197729  0.500000  1
  Ga  Ga2  1  0.999976  0.999976  0.000000  1
  Rh  Rh3  1  0.745265  0.502620  0.242645  1
  Rh  Rh4  1  0.259976  0.502619  0.757355  1
