# generated using pymatgen
data_CsPdF5
_symmetry_space_group_name_H-M   'P 1'
_cell_length_a   5.66922100
_cell_length_b   8.29331400
_cell_length_c   11.67654500
_cell_angle_alpha   90.00000000
_cell_angle_beta   90.00000000
_cell_angle_gamma   90.00000000
_symmetry_Int_Tables_number   1
_chemical_formula_structural   CsPdF5
_chemical_formula_sum   'Cs4 Pd4 F20'
_cell_volume   548.99179464
_cell_formula_units_Z   4
loop_
 _symmetry_equiv_pos_site_id
 _symmetry_equiv_pos_as_xyz
  1  'x, y, z'
loop_
 _atom_site_type_symbol
 _atom_site_label
 _atom_site_symmetry_multiplicity
 _atom_site_fract_x
 _atom_site_fract_y
 _atom_site_fract_z
 _atom_site_occupancy
  Cs  Cs0  1  0.500000  0.889399  0.972327  1
  Cs  Cs1  1  0.500000  0.110601  0.472327  1
  Cs  Cs2  1  0.000000  0.344632  0.115308  1
  Cs  Cs3  1  0.000000  0.655368  0.615308  1
  Pd  Pd4  1  0.000000  0.866387  0.245459  1
  Pd  Pd5  1  0.500000  0.581817  0.335482  1
  Pd  Pd6  1  0.500000  0.418183  0.835482  1
  Pd  Pd7  1  0.000000  0.133613  0.745459  1
  F  F8  1  0.261313  0.535827  0.915549  1
  F  F9  1  0.749528  0.691612  0.237419  1
  F  F10  1  0.238612  0.029397  0.238034  1
  F  F11  1  0.749528  0.308388  0.737419  1
  F  F12  1  0.500000  0.255464  0.954870  1
  F  F13  1  0.761388  0.970603  0.738034  1
  F  F14  1  0.500000  0.582026  0.715905  1
  F  F15  1  0.238612  0.970603  0.738034  1
  F  F16  1  0.000000  0.852748  0.079048  1
  F  F17  1  0.761388  0.029397  0.238034  1
  F  F18  1  0.500000  0.417974  0.215905  1
  F  F19  1  0.738687  0.464173  0.415549  1
  F  F20  1  0.250472  0.691612  0.237419  1
  F  F21  1  0.000000  0.879112  0.411107  1
  F  F22  1  0.000000  0.147252  0.579048  1
  F  F23  1  0.250472  0.308388  0.737419  1
  F  F24  1  0.000000  0.120888  0.911107  1
  F  F25  1  0.261313  0.464173  0.415549  1
  F  F26  1  0.500000  0.744536  0.454870  1
  F  F27  1  0.738687  0.535827  0.915549  1
