# generated using pymatgen
data_Tm3Th6Sc(Bi3C)2
_symmetry_space_group_name_H-M   'P 1'
_cell_length_a   9.28912600
_cell_length_b   9.28912678
_cell_length_c   6.41857600
_cell_angle_alpha   90.00000000
_cell_angle_beta   90.00000000
_cell_angle_gamma   119.99999721
_symmetry_Int_Tables_number   1
_chemical_formula_structural   Tm3Th6Sc(Bi3C)2
_chemical_formula_sum   'Tm3 Th6 Sc1 Bi6 C2'
_cell_volume   479.64406617
_cell_formula_units_Z   1
loop_
 _symmetry_equiv_pos_site_id
 _symmetry_equiv_pos_as_xyz
  1  'x, y, z'
loop_
 _atom_site_type_symbol
 _atom_site_label
 _atom_site_symmetry_multiplicity
 _atom_site_fract_x
 _atom_site_fract_y
 _atom_site_fract_z
 _atom_site_occupancy
  Tm  Tm0  1  0.333333  0.666667  0.000000  1
  Tm  Tm1  1  0.333333  0.666667  0.500000  1
  Tm  Tm2  1  0.666667  0.333333  0.500000  1
  Th  Th3  1  0.778269  0.778412  0.750142  1
  Th  Th4  1  0.221588  0.999857  0.750142  1
  Th  Th5  1  0.000143  0.221731  0.750142  1
  Th  Th6  1  0.221588  0.221731  0.249858  1
  Th  Th7  1  0.778269  0.999857  0.249858  1
  Th  Th8  1  0.000143  0.778412  0.249858  1
  Sc  Sc9  1  0.666667  0.333333  0.000000  1
  Bi  Bi10  1  0.409138  0.406131  0.752361  1
  Bi  Bi11  1  0.593869  0.003007  0.752361  1
  Bi  Bi12  1  0.996993  0.590862  0.752361  1
  Bi  Bi13  1  0.593869  0.590862  0.247639  1
  Bi  Bi14  1  0.409138  0.003007  0.247639  1
  Bi  Bi15  1  0.996993  0.406131  0.247639  1
  C  C16  1  0.000000  0.000000  0.000000  1
  C  C17  1  0.000000  0.000000  0.500000  1
