# generated using pymatgen
data_Sc3SiTcGe2OsPd
_symmetry_space_group_name_H-M   'P 1'
_cell_length_a   7.04916700
_cell_length_b   7.01678496
_cell_length_c   3.40851100
_cell_angle_alpha   90.00000000
_cell_angle_beta   90.00000000
_cell_angle_gamma   119.84814843
_symmetry_Int_Tables_number   1
_chemical_formula_structural   Sc3SiTcGe2OsPd
_chemical_formula_sum   'Sc3 Si1 Tc1 Ge2 Os1 Pd1'
_cell_volume   146.22909936
_cell_formula_units_Z   1
loop_
 _symmetry_equiv_pos_site_id
 _symmetry_equiv_pos_as_xyz
  1  'x, y, z'
loop_
 _atom_site_type_symbol
 _atom_site_label
 _atom_site_symmetry_multiplicity
 _atom_site_fract_x
 _atom_site_fract_y
 _atom_site_fract_z
 _atom_site_occupancy
  Sc  Sc0  1  0.392614  0.391476  0.500000  1
  Sc  Sc1  1  0.597780  0.005021  0.500000  1
  Sc  Sc2  1  0.005731  0.598526  0.500000  1
  Si  Si3  1  0.005304  0.003378  0.500000  1
  Tc  Tc4  1  0.248950  0.999478  0.000000  1
  Ge  Ge5  1  0.665779  0.332768  0.000000  1
  Ge  Ge6  1  0.333176  0.666942  0.000000  1
  Os  Os7  1  0.998298  0.249533  0.000000  1
  Pd  Pd8  1  0.752369  0.752878  0.000000  1
