# generated using pymatgen
data_Pr5Co16Si10Tc3P2
_symmetry_space_group_name_H-M   'P 1'
_cell_length_a   12.52380700
_cell_length_b   12.52380712
_cell_length_c   3.84849400
_cell_angle_alpha   90.00000000
_cell_angle_beta   90.00000000
_cell_angle_gamma   120.14418219
_symmetry_Int_Tables_number   1
_chemical_formula_structural   Pr5Co16Si10Tc3P2
_chemical_formula_sum   'Pr5 Co16 Si10 Tc3 P2'
_cell_volume   521.98902401
_cell_formula_units_Z   1
loop_
 _symmetry_equiv_pos_site_id
 _symmetry_equiv_pos_as_xyz
  1  'x, y, z'
loop_
 _atom_site_type_symbol
 _atom_site_label
 _atom_site_symmetry_multiplicity
 _atom_site_fract_x
 _atom_site_fract_y
 _atom_site_fract_z
 _atom_site_occupancy
  Pr  Pr0  1  0.666395  0.332543  0.000000  1
  Pr  Pr1  1  0.332543  0.666395  0.000000  1
  Pr  Pr2  1  0.184820  0.184820  0.500000  1
  Pr  Pr3  1  0.815575  0.001008  0.500000  1
  Pr  Pr4  1  0.001008  0.815575  0.500000  1
  Co  Co5  1  0.824441  0.197346  0.000000  1
  Co  Co6  1  0.802900  0.622536  0.000000  1
  Co  Co7  1  0.373369  0.176488  0.000000  1
  Co  Co8  1  0.197346  0.824441  0.000000  1
  Co  Co9  1  0.622536  0.802900  0.000000  1
  Co  Co10  1  0.176488  0.373369  0.000000  1
  Co  Co11  1  0.644628  0.122924  0.500000  1
  Co  Co12  1  0.878019  0.521502  0.500000  1
  Co  Co13  1  0.477965  0.355212  0.500000  1
  Co  Co14  1  0.122924  0.644628  0.500000  1
  Co  Co15  1  0.521502  0.878019  0.500000  1
  Co  Co16  1  0.355212  0.477965  0.500000  1
  Co  Co17  1  0.718183  0.718183  0.500000  1
  Co  Co18  1  0.277665  0.000291  0.500000  1
  Co  Co19  1  0.000291  0.277665  0.500000  1
  Co  Co20  1  0.003885  0.003885  0.000000  1
  Si  Si21  1  0.371759  0.371759  0.000000  1
  Si  Si22  1  0.628125  0.000382  0.000000  1
  Si  Si23  1  0.000382  0.628125  0.000000  1
  Si  Si24  1  0.841627  0.315415  0.500000  1
  Si  Si25  1  0.685320  0.525255  0.500000  1
  Si  Si26  1  0.474166  0.158851  0.500000  1
  Si  Si27  1  0.315415  0.841627  0.500000  1
  Si  Si28  1  0.525255  0.685320  0.500000  1
  Si  Si29  1  0.158851  0.474166  0.500000  1
  Si  Si30  1  0.812228  0.812228  0.000000  1
  Tc  Tc31  1  0.564037  0.564037  0.000000  1
  Tc  Tc32  1  0.437182  0.000316  0.000000  1
  Tc  Tc33  1  0.000316  0.437182  0.000000  1
  P  P34  1  0.187184  0.000463  0.000000  1
  P  P35  1  0.000463  0.187184  0.000000  1
