# generated using pymatgen
data_LaYb2(DyRu)2
_symmetry_space_group_name_H-M   'P 1'
_cell_length_a   8.63935710
_cell_length_b   8.63935740
_cell_length_c   7.40903616
_cell_angle_alpha   83.58802757
_cell_angle_beta   83.58802182
_cell_angle_gamma   43.85712719
_symmetry_Int_Tables_number   1
_chemical_formula_structural   LaYb2(DyRu)2
_chemical_formula_sum   'La2 Yb4 Dy4 Ru4'
_cell_volume   380.36582364
_cell_formula_units_Z   2
loop_
 _symmetry_equiv_pos_site_id
 _symmetry_equiv_pos_as_xyz
  1  'x, y, z'
loop_
 _atom_site_type_symbol
 _atom_site_label
 _atom_site_symmetry_multiplicity
 _atom_site_fract_x
 _atom_site_fract_y
 _atom_site_fract_z
 _atom_site_occupancy
  La  La0  1  0.202315  0.985064  0.588608  1
  La  La1  1  0.014936  0.797685  0.911392  1
  Yb  Yb2  1  0.203814  0.367491  0.314652  1
  Yb  Yb3  1  0.632509  0.796186  0.185348  1
  Yb  Yb4  1  0.802349  0.627341  0.677471  1
  Yb  Yb5  1  0.372659  0.197651  0.822529  1
  Dy  Dy6  1  0.970657  0.201975  0.082233  1
  Dy  Dy7  1  0.798025  0.029343  0.417767  1
  Dy  Dy8  1  0.569629  0.430371  0.750000  1
  Dy  Dy9  1  0.422089  0.577911  0.250000  1
  Ru  Ru10  1  0.170093  0.618734  0.584143  1
  Ru  Ru11  1  0.381266  0.829907  0.915857  1
  Ru  Ru12  1  0.827963  0.368305  0.422200  1
  Ru  Ru13  1  0.631695  0.172037  0.077800  1
