# generated using pymatgen
data_Ca2La17YIr12
_symmetry_space_group_name_H-M   'P 1'
_cell_length_a   11.41188000
_cell_length_b   11.41188000
_cell_length_c   6.63504200
_cell_angle_alpha   90.00000000
_cell_angle_beta   90.00000000
_cell_angle_gamma   90.00000000
_symmetry_Int_Tables_number   1
_chemical_formula_structural   Ca2La17YIr12
_chemical_formula_sum   'Ca2 La17 Y1 Ir12'
_cell_volume   864.08818877
_cell_formula_units_Z   1
loop_
 _symmetry_equiv_pos_site_id
 _symmetry_equiv_pos_as_xyz
  1  'x, y, z'
loop_
 _atom_site_type_symbol
 _atom_site_label
 _atom_site_symmetry_multiplicity
 _atom_site_fract_x
 _atom_site_fract_y
 _atom_site_fract_z
 _atom_site_occupancy
  Ca  Ca0  1  0.000000  0.000000  0.500000  1
  Ca  Ca1  1  0.000000  0.000000  0.000000  1
  La  La2  1  0.287892  0.088057  0.398780  1
  La  La3  1  0.288781  0.908871  0.898103  1
  La  La4  1  0.711219  0.091129  0.898103  1
  La  La5  1  0.712108  0.911943  0.398780  1
  La  La6  1  0.591304  0.790894  0.895415  1
  La  La7  1  0.588733  0.209676  0.394890  1
  La  La8  1  0.411267  0.790324  0.394890  1
  La  La9  1  0.408696  0.209106  0.895415  1
  La  La10  1  0.209676  0.411267  0.605110  1
  La  La11  1  0.209106  0.591304  0.104585  1
  La  La12  1  0.790894  0.408696  0.104585  1
  La  La13  1  0.790324  0.588733  0.605110  1
  La  La14  1  0.908871  0.711219  0.101897  1
  La  La15  1  0.911943  0.287892  0.601220  1
  La  La16  1  0.088057  0.712108  0.601220  1
  La  La17  1  0.091129  0.288781  0.101897  1
  La  La18  1  0.500000  0.500000  0.500000  1
  Y  Y19  1  0.500000  0.500000  0.000000  1
  Ir  Ir20  1  0.839740  0.158463  0.251093  1
  Ir  Ir21  1  0.841537  0.839740  0.748907  1
  Ir  Ir22  1  0.158463  0.160260  0.748907  1
  Ir  Ir23  1  0.160260  0.841537  0.251093  1
  Ir  Ir24  1  0.650486  0.348197  0.752728  1
  Ir  Ir25  1  0.651803  0.650486  0.247272  1
  Ir  Ir26  1  0.348197  0.349514  0.247272  1
  Ir  Ir27  1  0.349514  0.651803  0.752728  1
  Ir  Ir28  1  0.500000  0.000000  0.126094  1
  Ir  Ir29  1  0.500000  0.000000  0.625519  1
  Ir  Ir30  1  0.000000  0.500000  0.873906  1
  Ir  Ir31  1  0.000000  0.500000  0.374481  1
