# generated using pymatgen
data_NaCa3(U2S5)4
_symmetry_space_group_name_H-M   'P 1'
_cell_length_a   7.34880401
_cell_length_b   8.06346745
_cell_length_c   11.60252300
_cell_angle_alpha   90.20886249
_cell_angle_beta   90.00291593
_cell_angle_gamma   89.86652475
_symmetry_Int_Tables_number   1
_chemical_formula_structural   NaCa3(U2S5)4
_chemical_formula_sum   'Na1 Ca3 U8 S20'
_cell_volume   687.52243726
_cell_formula_units_Z   1
loop_
 _symmetry_equiv_pos_site_id
 _symmetry_equiv_pos_as_xyz
  1  'x, y, z'
loop_
 _atom_site_type_symbol
 _atom_site_label
 _atom_site_symmetry_multiplicity
 _atom_site_fract_x
 _atom_site_fract_y
 _atom_site_fract_z
 _atom_site_occupancy
  Na  Na0  1  0.038833  0.493369  0.327142  1
  Ca  Ca1  1  0.531854  0.503710  0.178005  1
  Ca  Ca2  1  0.967439  0.503436  0.673731  1
  Ca  Ca3  1  0.465086  0.496293  0.825535  1
  U  U4  1  0.020961  0.000611  0.320506  1
  U  U5  1  0.523569  0.999334  0.179314  1
  U  U6  1  0.978806  0.000510  0.679956  1
  U  U7  1  0.479863  0.001162  0.820505  1
  U  U8  1  0.072791  0.749391  0.009073  1
  U  U9  1  0.573319  0.249975  0.491368  1
  U  U10  1  0.927076  0.251627  0.992045  1
  U  U11  1  0.423438  0.748640  0.507003  1
  S  S12  1  0.663995  0.953044  0.403394  1
  S  S13  1  0.164463  0.046073  0.096302  1
  S  S14  1  0.337177  0.045919  0.598690  1
  S  S15  1  0.836051  0.954733  0.902321  1
  S  S16  1  0.457073  0.773132  0.999861  1
  S  S17  1  0.954987  0.223153  0.501621  1
  S  S18  1  0.543657  0.227643  0.998878  1
  S  S19  1  0.043265  0.777210  0.503654  1
  S  S20  1  0.829170  0.775812  0.184489  1
  S  S21  1  0.336208  0.226107  0.312715  1
  S  S22  1  0.166626  0.230982  0.812161  1
  S  S23  1  0.665504  0.769740  0.686929  1
  S  S24  1  0.306335  0.764548  0.281278  1
  S  S25  1  0.804725  0.235669  0.216911  1
  S  S26  1  0.694081  0.240992  0.718253  1
  S  S27  1  0.194557  0.759453  0.783487  1
  S  S28  1  0.175016  0.456808  0.081741  1
  S  S29  1  0.665169  0.540774  0.411749  1
  S  S30  1  0.828629  0.542135  0.910901  1
  S  S31  1  0.330276  0.458016  0.590480  1
