# generated using pymatgen
data_Ce8Si15Os
_symmetry_space_group_name_H-M   'P 1'
_cell_length_a   8.14015700
_cell_length_b   8.14015783
_cell_length_c   8.35264900
_cell_angle_alpha   90.00000000
_cell_angle_beta   90.00000000
_cell_angle_gamma   119.99999256
_symmetry_Int_Tables_number   1
_chemical_formula_structural   Ce8Si15Os
_chemical_formula_sum   'Ce8 Si15 Os1'
_cell_volume   479.31442867
_cell_formula_units_Z   1
loop_
 _symmetry_equiv_pos_site_id
 _symmetry_equiv_pos_as_xyz
  1  'x, y, z'
loop_
 _atom_site_type_symbol
 _atom_site_label
 _atom_site_symmetry_multiplicity
 _atom_site_fract_x
 _atom_site_fract_y
 _atom_site_fract_z
 _atom_site_occupancy
  Ce  Ce0  1  0.999987  0.999984  0.250981  1
  Ce  Ce1  1  0.999991  0.999991  0.749052  1
  Ce  Ce2  1  0.498493  0.501465  0.249726  1
  Ce  Ce3  1  0.498547  0.997123  0.249746  1
  Ce  Ce4  1  0.002946  0.501467  0.249728  1
  Ce  Ce5  1  0.498581  0.501376  0.750117  1
  Ce  Ce6  1  0.498575  0.997149  0.750166  1
  Ce  Ce7  1  0.002894  0.501429  0.750199  1
  Si  Si8  1  0.333318  0.666731  0.499598  1
  Si  Si9  1  0.666695  0.333298  0.499560  1
  Si  Si10  1  0.666728  0.333334  0.000436  1
  Si  Si11  1  0.166218  0.833812  0.499933  1
  Si  Si12  1  0.166143  0.332392  0.500050  1
  Si  Si13  1  0.667629  0.833881  0.499985  1
  Si  Si14  1  0.832481  0.167515  0.499814  1
  Si  Si15  1  0.832549  0.665009  0.499931  1
  Si  Si16  1  0.334989  0.167450  0.499860  1
  Si  Si17  1  0.834230  0.165612  0.000120  1
  Si  Si18  1  0.834388  0.668721  0.999977  1
  Si  Si19  1  0.331378  0.165585  0.000066  1
  Si  Si20  1  0.166319  0.833714  0.000275  1
  Si  Si21  1  0.166259  0.332581  0.000140  1
  Si  Si22  1  0.667439  0.833766  0.000214  1
  Os  Os23  1  0.333224  0.666612  0.000330  1
