# generated using pymatgen
data_SmDy4Ho(Si3Ru)8
_symmetry_space_group_name_H-M   'P 1'
_cell_length_a   10.11415366
_cell_length_b   10.11392286
_cell_length_c   8.14448736
_cell_angle_alpha   90.08219542
_cell_angle_beta   89.92677809
_cell_angle_gamma   132.54980683
_symmetry_Int_Tables_number   1
_chemical_formula_structural   SmDy4Ho(Si3Ru)8
_chemical_formula_sum   'Sm1 Dy4 Ho1 Si24 Ru8'
_cell_volume   613.75789810
_cell_formula_units_Z   1
loop_
 _symmetry_equiv_pos_site_id
 _symmetry_equiv_pos_as_xyz
  1  'x, y, z'
loop_
 _atom_site_type_symbol
 _atom_site_label
 _atom_site_symmetry_multiplicity
 _atom_site_fract_x
 _atom_site_fract_y
 _atom_site_fract_z
 _atom_site_occupancy
  Sm  Sm0  1  0.502752  0.002711  0.749957  1
  Dy  Dy1  1  0.000054  0.000008  0.000052  1
  Dy  Dy2  1  0.997806  0.497807  0.250030  1
  Dy  Dy3  1  0.497346  0.997327  0.250054  1
  Dy  Dy4  1  0.002760  0.502804  0.749970  1
  Ho  Ho5  1  0.500025  0.500042  0.499884  1
  Si  Si6  1  0.795291  0.206119  0.499091  1
  Si  Si7  1  0.294087  0.704764  0.001025  1
  Si  Si8  1  0.204793  0.794053  0.498951  1
  Si  Si9  1  0.706114  0.295351  0.000954  1
  Si  Si10  1  0.332619  0.332406  0.832963  1
  Si  Si11  1  0.667471  0.667588  0.166834  1
  Si  Si12  1  0.167568  0.167496  0.333274  1
  Si  Si13  1  0.832398  0.832577  0.666907  1
  Si  Si14  1  0.121308  0.886974  0.728162  1
  Si  Si15  1  0.113234  0.879343  0.271869  1
  Si  Si16  1  0.611126  0.377146  0.228062  1
  Si  Si17  1  0.622443  0.388102  0.771051  1
  Si  Si18  1  0.877279  0.111341  0.272067  1
  Si  Si19  1  0.887915  0.122389  0.728779  1
  Si  Si20  1  0.387234  0.621471  0.771680  1
  Si  Si21  1  0.379321  0.613089  0.228284  1
  Si  Si22  1  0.345652  0.112046  0.503714  1
  Si  Si23  1  0.888619  0.655853  0.495647  1
  Si  Si24  1  0.387963  0.153824  0.006202  1
  Si  Si25  1  0.844284  0.611469  0.994965  1
  Si  Si26  1  0.653822  0.887897  0.493826  1
  Si  Si27  1  0.111529  0.344316  0.505064  1
  Si  Si28  1  0.611990  0.845621  0.996345  1
  Si  Si29  1  0.155836  0.388668  0.004392  1
  Ru  Ru30  1  0.670961  0.333718  0.498196  1
  Ru  Ru31  1  0.166384  0.828759  0.000794  1
  Ru  Ru32  1  0.328916  0.666206  0.499234  1
  Ru  Ru33  1  0.833539  0.171138  0.001745  1
  Ru  Ru34  1  0.126145  0.125946  0.626845  1
  Ru  Ru35  1  0.873735  0.873788  0.373424  1
  Ru  Ru36  1  0.374123  0.374042  0.126992  1
  Ru  Ru37  1  0.625555  0.625798  0.872712  1
