# generated using pymatgen
data_BaAgP2O7
_symmetry_space_group_name_H-M   'P 1'
_cell_length_a   5.57911484
_cell_length_b   7.64367925
_cell_length_c   7.68511485
_cell_angle_alpha   103.42381594
_cell_angle_beta   90.86809301
_cell_angle_gamma   94.70327767
_symmetry_Int_Tables_number   1
_chemical_formula_structural   BaAgP2O7
_chemical_formula_sum   'Ba2 Ag2 P4 O14'
_cell_volume   317.50661747
_cell_formula_units_Z   2
loop_
 _symmetry_equiv_pos_site_id
 _symmetry_equiv_pos_as_xyz
  1  'x, y, z'
loop_
 _atom_site_type_symbol
 _atom_site_label
 _atom_site_symmetry_multiplicity
 _atom_site_fract_x
 _atom_site_fract_y
 _atom_site_fract_z
 _atom_site_occupancy
  Ba  Ba0  1  0.788035  0.727908  0.068036  1
  Ba  Ba1  1  0.211965  0.272092  0.931964  1
  Ag  Ag2  1  0.801425  0.829702  0.595501  1
  Ag  Ag3  1  0.198575  0.170298  0.404499  1
  P  P4  1  0.275851  0.673442  0.395604  1
  P  P5  1  0.724149  0.326558  0.604396  1
  P  P6  1  0.297685  0.760071  0.790557  1
  P  P7  1  0.702315  0.239929  0.209443  1
  O  O8  1  0.525286  0.773367  0.380843  1
  O  O9  1  0.474714  0.226633  0.619157  1
  O  O10  1  0.272160  0.626186  0.592559  1
  O  O11  1  0.727840  0.373814  0.407441  1
  O  O12  1  0.281291  0.642319  0.925323  1
  O  O13  1  0.718709  0.357681  0.074677  1
  O  O14  1  0.225396  0.495974  0.261673  1
  O  O15  1  0.774604  0.504026  0.738327  1
  O  O16  1  0.909614  0.113124  0.192202  1
  O  O17  1  0.090386  0.886876  0.807798  1
  O  O18  1  0.457789  0.124585  0.193313  1
  O  O19  1  0.542211  0.875415  0.806687  1
  O  O20  1  0.922074  0.193964  0.606448  1
  O  O21  1  0.077926  0.806036  0.393552  1
