# generated using pymatgen
data_Ce2ZnCd2InRu2
_symmetry_space_group_name_H-M   'P 1'
_cell_length_a   4.19860800
_cell_length_b   5.17245308
_cell_length_c   8.78189319
_cell_angle_alpha   89.54781121
_cell_angle_beta   90.00000000
_cell_angle_gamma   113.94519029
_symmetry_Int_Tables_number   1
_chemical_formula_structural   Ce2ZnCd2InRu2
_chemical_formula_sum   'Ce2 Zn1 Cd2 In1 Ru2'
_cell_volume   174.29653025
_cell_formula_units_Z   1
loop_
 _symmetry_equiv_pos_site_id
 _symmetry_equiv_pos_as_xyz
  1  'x, y, z'
loop_
 _atom_site_type_symbol
 _atom_site_label
 _atom_site_symmetry_multiplicity
 _atom_site_fract_x
 _atom_site_fract_y
 _atom_site_fract_z
 _atom_site_occupancy
  Ce  Ce0  1  0.448406  0.896813  0.255433  1
  Ce  Ce1  1  0.550665  0.101330  0.742045  1
  Zn  Zn2  1  0.849106  0.698212  0.542332  1
  Cd  Cd3  1  0.148669  0.297338  0.033979  1
  Cd  Cd4  1  0.850903  0.701807  0.962519  1
  In  In5  1  0.149221  0.298442  0.465833  1
  Ru  Ru6  1  0.693164  0.386327  0.261848  1
  Ru  Ru7  1  0.309866  0.619730  0.736012  1
