# generated using pymatgen
data_Y12Co4HgIr
_symmetry_space_group_name_H-M   'P 1'
_cell_length_a   8.33754230
_cell_length_b   8.33754208
_cell_length_c   8.33754176
_cell_angle_alpha   109.93012402
_cell_angle_beta   111.34844958
_cell_angle_gamma   107.16277213
_symmetry_Int_Tables_number   1
_chemical_formula_structural   Y12Co4HgIr
_chemical_formula_sum   'Y12 Co4 Hg1 Ir1'
_cell_volume   445.54985103
_cell_formula_units_Z   1
loop_
 _symmetry_equiv_pos_site_id
 _symmetry_equiv_pos_as_xyz
  1  'x, y, z'
loop_
 _atom_site_type_symbol
 _atom_site_label
 _atom_site_symmetry_multiplicity
 _atom_site_fract_x
 _atom_site_fract_y
 _atom_site_fract_z
 _atom_site_occupancy
  Y  Y0  1  0.288603  0.183140  0.471742  1
  Y  Y1  1  0.711397  0.816860  0.528258  1
  Y  Y2  1  0.288603  0.816860  0.105464  1
  Y  Y3  1  0.711397  0.183140  0.894536  1
  Y  Y4  1  0.619214  0.315595  0.303619  1
  Y  Y5  1  0.380786  0.684405  0.696381  1
  Y  Y6  1  0.011978  0.315595  0.696381  1
  Y  Y7  1  0.988022  0.684405  0.303619  1
  Y  Y8  1  0.214519  0.409403  0.194884  1
  Y  Y9  1  0.785481  0.590597  0.805116  1
  Y  Y10  1  0.214519  0.019636  0.805116  1
  Y  Y11  1  0.785481  0.980364  0.194884  1
  Co  Co12  1  0.000000  0.381104  0.381104  1
  Co  Co13  1  0.000000  0.618896  0.618896  1
  Co  Co14  1  0.388720  0.888720  0.500000  1
  Co  Co15  1  0.611280  0.111280  0.500000  1
  Hg  Hg16  1  0.500000  0.500000  0.000000  1
  Ir  Ir17  1  0.000000  0.000000  0.000000  1
