# generated using pymatgen
data_NdAs12IrOs3
_symmetry_space_group_name_H-M   'P 1'
_cell_length_a   7.47371827
_cell_length_b   7.48726125
_cell_length_c   7.47371753
_cell_angle_alpha   109.50793587
_cell_angle_beta   109.43447506
_cell_angle_gamma   109.50793420
_symmetry_Int_Tables_number   1
_chemical_formula_structural   NdAs12IrOs3
_chemical_formula_sum   'Nd1 As12 Ir1 Os3'
_cell_volume   321.79370981
_cell_formula_units_Z   1
loop_
 _symmetry_equiv_pos_site_id
 _symmetry_equiv_pos_as_xyz
  1  'x, y, z'
loop_
 _atom_site_type_symbol
 _atom_site_label
 _atom_site_symmetry_multiplicity
 _atom_site_fract_x
 _atom_site_fract_y
 _atom_site_fract_z
 _atom_site_occupancy
  Nd  Nd0  1  0.000000  0.000000  0.000000  1
  As  As1  1  0.346587  0.197124  0.850908  1
  As  As2  1  0.653413  0.802876  0.149092  1
  As  As3  1  0.650856  0.504399  0.850477  1
  As  As4  1  0.349144  0.495601  0.149523  1
  As  As5  1  0.199621  0.853543  0.349144  1
  As  As6  1  0.800379  0.146457  0.650856  1
  As  As7  1  0.504321  0.850537  0.653413  1
  As  As8  1  0.495679  0.149463  0.346587  1
  As  As9  1  0.850477  0.346078  0.199621  1
  As  As10  1  0.149523  0.653922  0.800379  1
  As  As11  1  0.850908  0.653784  0.504321  1
  As  As12  1  0.149092  0.346216  0.495679  1
  Ir  Ir13  1  0.000000  0.500000  0.000000  1
  Os  Os14  1  0.000000  0.000000  0.500000  1
  Os  Os15  1  0.500000  0.000000  0.000000  1
  Os  Os16  1  0.500000  0.500000  0.500000  1
