# generated using pymatgen
data_U2TaNbCo6
_symmetry_space_group_name_H-M   'P 1'
_cell_length_a   5.19639900
_cell_length_b   7.19801200
_cell_length_c   8.03877900
_cell_angle_alpha   90.00000000
_cell_angle_beta   90.00000000
_cell_angle_gamma   90.00000000
_symmetry_Int_Tables_number   1
_chemical_formula_structural   U2TaNbCo6
_chemical_formula_sum   'U4 Ta2 Nb2 Co12'
_cell_volume   300.68041860
_cell_formula_units_Z   2
loop_
 _symmetry_equiv_pos_site_id
 _symmetry_equiv_pos_as_xyz
  1  'x, y, z'
loop_
 _atom_site_type_symbol
 _atom_site_label
 _atom_site_symmetry_multiplicity
 _atom_site_fract_x
 _atom_site_fract_y
 _atom_site_fract_z
 _atom_site_occupancy
  U  U0  1  0.750000  0.876755  0.850828  1
  U  U1  1  0.750000  0.376755  0.649172  1
  U  U2  1  0.250000  0.123145  0.149421  1
  U  U3  1  0.250000  0.623145  0.350579  1
  Ta  Ta4  1  0.750000  0.947296  0.409836  1
  Ta  Ta5  1  0.750000  0.447296  0.090164  1
  Nb  Nb6  1  0.250000  0.051761  0.588911  1
  Nb  Nb7  1  0.250000  0.551761  0.911089  1
  Co  Co8  1  0.750000  0.591150  0.379945  1
  Co  Co9  1  0.750000  0.091150  0.120055  1
  Co  Co10  1  0.250000  0.409037  0.619275  1
  Co  Co11  1  0.250000  0.909037  0.880725  1
  Co  Co12  1  0.992712  0.269815  0.368158  1
  Co  Co13  1  0.507288  0.769815  0.131842  1
  Co  Co14  1  0.493345  0.730613  0.631821  1
  Co  Co15  1  0.006655  0.230613  0.868179  1
  Co  Co16  1  0.006655  0.730613  0.631821  1
  Co  Co17  1  0.493345  0.230613  0.868179  1
  Co  Co18  1  0.507288  0.269815  0.368158  1
  Co  Co19  1  0.992712  0.769815  0.131842  1
