# generated using pymatgen
data_TiZn2GaRh4
_symmetry_space_group_name_H-M   'P 1'
_cell_length_a   6.08366400
_cell_length_b   6.08403800
_cell_length_c   6.11164600
_cell_angle_alpha   90.00000000
_cell_angle_beta   89.99966173
_cell_angle_gamma   90.00000000
_symmetry_Int_Tables_number   1
_chemical_formula_structural   TiZn2GaRh4
_chemical_formula_sum   'Ti2 Zn4 Ga2 Rh8'
_cell_volume   226.21183825
_cell_formula_units_Z   2
loop_
 _symmetry_equiv_pos_site_id
 _symmetry_equiv_pos_as_xyz
  1  'x, y, z'
loop_
 _atom_site_type_symbol
 _atom_site_label
 _atom_site_symmetry_multiplicity
 _atom_site_fract_x
 _atom_site_fract_y
 _atom_site_fract_z
 _atom_site_occupancy
  Ti  Ti0  1  0.250393  0.250000  0.999997  1
  Ti  Ti1  1  0.749608  0.750001  0.000003  1
  Zn  Zn2  1  0.749547  0.250000  0.000007  1
  Zn  Zn3  1  0.250452  0.750001  0.999993  1
  Zn  Zn4  1  0.750517  0.250000  0.499979  1
  Zn  Zn5  1  0.249482  0.750001  0.500021  1
  Ga  Ga6  1  0.750493  0.750001  0.499987  1
  Ga  Ga7  1  0.249508  0.250000  0.500013  1
  Rh  Rh8  1  0.999998  0.000000  0.251537  1
  Rh  Rh9  1  0.999998  0.500006  0.251537  1
  Rh  Rh10  1  0.499977  0.999999  0.252275  1
  Rh  Rh11  1  0.499977  0.499997  0.252275  1
  Rh  Rh12  1  0.500023  0.000001  0.747725  1
  Rh  Rh13  1  0.500023  0.500003  0.747725  1
  Rh  Rh14  1  0.000002  0.000000  0.748463  1
  Rh  Rh15  1  0.000002  0.499994  0.748463  1
