# generated using pymatgen
data_AuI10Cl
_symmetry_space_group_name_H-M   'P 1'
_cell_length_a   7.87881042
_cell_length_b   9.78643165
_cell_length_c   9.43614345
_cell_angle_alpha   105.01342947
_cell_angle_beta   100.56587809
_cell_angle_gamma   106.29728036
_symmetry_Int_Tables_number   1
_chemical_formula_structural   AuI10Cl
_chemical_formula_sum   'Au1 I10 Cl1'
_cell_volume   648.26549277
_cell_formula_units_Z   1
loop_
 _symmetry_equiv_pos_site_id
 _symmetry_equiv_pos_as_xyz
  1  'x, y, z'
loop_
 _atom_site_type_symbol
 _atom_site_label
 _atom_site_symmetry_multiplicity
 _atom_site_fract_x
 _atom_site_fract_y
 _atom_site_fract_z
 _atom_site_occupancy
  Au  Au0  1  0.997327  0.501648  0.507842  1
  I  I1  1  0.007902  0.000503  0.001085  1
  I  I2  1  0.670468  0.727733  0.872357  1
  I  I3  1  0.340453  0.267918  0.123469  1
  I  I4  1  0.642442  0.132897  0.583731  1
  I  I5  1  0.343809  0.861995  0.420022  1
  I  I6  1  0.519751  0.782805  0.121826  1
  I  I7  1  0.491977  0.211314  0.870162  1
  I  I8  1  0.793454  0.678058  0.552177  1
  I  I9  1  0.194640  0.322037  0.457960  1
  I  I10  1  0.007282  0.555765  0.249154  1
  Cl  Cl11  1  0.990495  0.457326  0.740211  1
