# generated using pymatgen
data_Y4ReOs5Ru2
_symmetry_space_group_name_H-M   'P 1'
_cell_length_a   5.36540100
_cell_length_b   5.25338899
_cell_length_c   9.03045400
_cell_angle_alpha   90.00000000
_cell_angle_beta   90.00000000
_cell_angle_gamma   120.70787024
_symmetry_Int_Tables_number   1
_chemical_formula_structural   Y4ReOs5Ru2
_chemical_formula_sum   'Y4 Re1 Os5 Ru2'
_cell_volume   218.84657131
_cell_formula_units_Z   1
loop_
 _symmetry_equiv_pos_site_id
 _symmetry_equiv_pos_as_xyz
  1  'x, y, z'
loop_
 _atom_site_type_symbol
 _atom_site_label
 _atom_site_symmetry_multiplicity
 _atom_site_fract_x
 _atom_site_fract_y
 _atom_site_fract_z
 _atom_site_occupancy
  Y  Y0  1  0.334925  0.669851  0.433970  1
  Y  Y1  1  0.671004  0.342006  0.565014  1
  Y  Y2  1  0.671004  0.342006  0.934986  1
  Y  Y3  1  0.334925  0.669851  0.066030  1
  Re  Re4  1  0.157630  0.315259  0.750000  1
  Os  Os5  1  0.173368  0.819606  0.750000  1
  Os  Os6  1  0.333576  0.163997  0.250000  1
  Os  Os7  1  0.825407  0.650814  0.250000  1
  Os  Os8  1  0.646238  0.819606  0.750000  1
  Os  Os9  1  0.830421  0.163997  0.250000  1
  Ru  Ru10  1  0.010751  0.021502  0.999497  1
  Ru  Ru11  1  0.010751  0.021502  0.500503  1
