# generated using pymatgen
data_Ho3GaAs2Ru3
_symmetry_space_group_name_H-M   'P 1'
_cell_length_a   8.00968199
_cell_length_b   8.00968096
_cell_length_c   8.00968287
_cell_angle_alpha   127.98620103
_cell_angle_beta   122.54531331
_cell_angle_gamma   81.17377739
_symmetry_Int_Tables_number   1
_chemical_formula_structural   Ho3GaAs2Ru3
_chemical_formula_sum   'Ho6 Ga2 As4 Ru6'
_cell_volume   328.97195957
_cell_formula_units_Z   2
loop_
 _symmetry_equiv_pos_site_id
 _symmetry_equiv_pos_as_xyz
  1  'x, y, z'
loop_
 _atom_site_type_symbol
 _atom_site_label
 _atom_site_symmetry_multiplicity
 _atom_site_fract_x
 _atom_site_fract_y
 _atom_site_fract_z
 _atom_site_occupancy
  Ho  Ho0  1  0.456964  0.668414  0.711451  1
  Ho  Ho1  1  0.543036  0.254487  0.211451  1
  Ho  Ho2  1  0.749682  0.845647  0.595966  1
  Ho  Ho3  1  0.250318  0.846285  0.095966  1
  Ho  Ho4  1  0.049655  0.252850  0.703194  1
  Ho  Ho5  1  0.950345  0.653539  0.203194  1
  Ga  Ga6  1  0.256708  0.258800  0.502093  1
  Ga  Ga7  1  0.743292  0.245384  0.002093  1
  As  As8  1  0.332518  0.586681  0.252511  1
  As  As9  1  0.667482  0.919993  0.254163  1
  As  As10  1  0.165830  0.919993  0.752511  1
  As  As11  1  0.834170  0.586681  0.754163  1
  Ru  Ru12  1  0.500000  0.495304  0.995304  1
  Ru  Ru13  1  0.000000  0.495304  0.495304  1
  Ru  Ru14  1  0.113642  0.253764  0.124997  1
  Ru  Ru15  1  0.886358  0.011355  0.140122  1
  Ru  Ru16  1  0.371233  0.011355  0.624997  1
  Ru  Ru17  1  0.628767  0.253764  0.640122  1
