# generated using pymatgen
data_Dy3Y2Tm3(P3Ir4)4
_symmetry_space_group_name_H-M   'P 1'
_cell_length_a   12.96329300
_cell_length_b   12.96423285
_cell_length_c   3.99904400
_cell_angle_alpha   90.00000000
_cell_angle_beta   90.00000000
_cell_angle_gamma   119.99760444
_symmetry_Int_Tables_number   1
_chemical_formula_structural   Dy3Y2Tm3(P3Ir4)4
_chemical_formula_sum   'Dy3 Y2 Tm3 P12 Ir16'
_cell_volume   582.04887919
_cell_formula_units_Z   1
loop_
 _symmetry_equiv_pos_site_id
 _symmetry_equiv_pos_as_xyz
  1  'x, y, z'
loop_
 _atom_site_type_symbol
 _atom_site_label
 _atom_site_symmetry_multiplicity
 _atom_site_fract_x
 _atom_site_fract_y
 _atom_site_fract_z
 _atom_site_occupancy
  Dy  Dy0  1  0.333334  0.666673  0.500000  1
  Dy  Dy1  1  0.666663  0.333327  0.500000  1
  Dy  Dy2  1  0.814312  0.000000  0.000000  1
  Y  Y3  1  0.000004  0.814319  0.000000  1
  Y  Y4  1  0.185685  0.185681  0.000000  1
  Tm  Tm5  1  0.999988  0.446176  0.500000  1
  Tm  Tm6  1  0.553812  0.553824  0.500000  1
  Tm  Tm7  1  0.446181  0.000000  0.500000  1
  P  P8  1  0.999999  0.651931  0.500000  1
  P  P9  1  0.348068  0.348069  0.500000  1
  P  P10  1  0.652055  0.000000  0.500000  1
  P  P11  1  0.516798  0.688307  0.000000  1
  P  P12  1  0.311681  0.828473  0.000000  1
  P  P13  1  0.171524  0.483210  0.000000  1
  P  P14  1  0.483208  0.171527  0.000000  1
  P  P15  1  0.688314  0.516790  0.000000  1
  P  P16  1  0.828490  0.311693  0.000000  1
  P  P17  1  0.999911  0.176520  0.500000  1
  P  P18  1  0.823391  0.823480  0.500000  1
  P  P19  1  0.176579  0.000000  0.500000  1
  Ir  Ir20  1  0.509320  0.866029  0.000000  1
  Ir  Ir21  1  0.133990  0.643275  0.000000  1
  Ir  Ir22  1  0.356725  0.490711  0.000000  1
  Ir  Ir23  1  0.490715  0.356725  0.000000  1
  Ir  Ir24  1  0.866014  0.509289  0.000000  1
  Ir  Ir25  1  0.643292  0.133971  0.000000  1
  Ir  Ir26  1  0.999978  0.275293  0.000000  1
  Ir  Ir27  1  0.724684  0.724707  0.000000  1
  Ir  Ir28  1  0.275336  0.000000  0.000000  1
  Ir  Ir29  1  0.629996  0.808800  0.500000  1
  Ir  Ir30  1  0.191272  0.821211  0.500000  1
  Ir  Ir31  1  0.178796  0.370061  0.500000  1
  Ir  Ir32  1  0.370061  0.178789  0.500000  1
  Ir  Ir33  1  0.808735  0.629939  0.500000  1
  Ir  Ir34  1  0.821196  0.191200  0.500000  1
  Ir  Ir35  1  0.999892  0.000000  0.500000  1
