# generated using pymatgen
data_Cs7NpAs4
_symmetry_space_group_name_H-M   'P 1'
_cell_length_a   9.10064500
_cell_length_b   10.44408000
_cell_length_c   11.33814400
_cell_angle_alpha   90.00000000
_cell_angle_beta   90.00000000
_cell_angle_gamma   90.00000000
_symmetry_Int_Tables_number   1
_chemical_formula_structural   Cs7NpAs4
_chemical_formula_sum   'Cs14 Np2 As8'
_cell_volume   1077.66637382
_cell_formula_units_Z   2
loop_
 _symmetry_equiv_pos_site_id
 _symmetry_equiv_pos_as_xyz
  1  'x, y, z'
loop_
 _atom_site_type_symbol
 _atom_site_label
 _atom_site_symmetry_multiplicity
 _atom_site_fract_x
 _atom_site_fract_y
 _atom_site_fract_z
 _atom_site_occupancy
  Cs  Cs0  1  0.875827  0.023697  0.000000  1
  Cs  Cs1  1  0.703090  0.833059  0.714322  1
  Cs  Cs2  1  0.397496  0.895888  0.000000  1
  Cs  Cs3  1  0.375827  0.976303  0.500000  1
  Cs  Cs4  1  0.877025  0.465436  0.290262  1
  Cs  Cs5  1  0.897496  0.104112  0.500000  1
  Cs  Cs6  1  0.657974  0.335864  0.000000  1
  Cs  Cs7  1  0.157974  0.664136  0.500000  1
  Cs  Cs8  1  0.203090  0.166941  0.214322  1
  Cs  Cs9  1  0.377025  0.534564  0.209738  1
  Cs  Cs10  1  0.377025  0.534564  0.790262  1
  Cs  Cs11  1  0.877025  0.465436  0.709738  1
  Cs  Cs12  1  0.703090  0.833059  0.285678  1
  Cs  Cs13  1  0.203090  0.166941  0.785678  1
  Np  Np14  1  0.006918  0.669266  0.000000  1
  Np  Np15  1  0.506918  0.330734  0.500000  1
  As  As16  1  0.704316  0.675001  0.000000  1
  As  As17  1  0.204316  0.324999  0.500000  1
  As  As18  1  0.070572  0.409642  0.000000  1
  As  As19  1  0.570572  0.590358  0.500000  1
  As  As20  1  0.093884  0.806730  0.198919  1
  As  As21  1  0.593884  0.193270  0.301081  1
  As  As22  1  0.593884  0.193270  0.698919  1
  As  As23  1  0.093884  0.806730  0.801081  1
