# generated using pymatgen
data_Sc8Ti11Si16Os
_symmetry_space_group_name_H-M   'P 1'
_cell_length_a   6.83900561
_cell_length_b   6.83900608
_cell_length_c   12.53348076
_cell_angle_alpha   90.07132157
_cell_angle_beta   89.92868001
_cell_angle_gamma   89.92382227
_symmetry_Int_Tables_number   1
_chemical_formula_structural   Sc8Ti11Si16Os
_chemical_formula_sum   'Sc8 Ti11 Si16 Os1'
_cell_volume   586.21454620
_cell_formula_units_Z   1
loop_
 _symmetry_equiv_pos_site_id
 _symmetry_equiv_pos_as_xyz
  1  'x, y, z'
loop_
 _atom_site_type_symbol
 _atom_site_label
 _atom_site_symmetry_multiplicity
 _atom_site_fract_x
 _atom_site_fract_y
 _atom_site_fract_z
 _atom_site_occupancy
  Sc  Sc0  1  0.341191  0.002766  0.467559  1
  Sc  Sc1  1  0.498205  0.840382  0.718467  1
  Sc  Sc2  1  0.499480  0.158068  0.215301  1
  Sc  Sc3  1  0.840382  0.498205  0.281533  1
  Sc  Sc4  1  0.158068  0.499480  0.784699  1
  Sc  Sc5  1  0.658083  0.999627  0.968948  1
  Sc  Sc6  1  0.002766  0.341191  0.532441  1
  Sc  Sc7  1  0.999627  0.658083  0.031052  1
  Ti  Ti8  1  0.172367  0.828195  0.247656  1
  Ti  Ti9  1  0.828195  0.172367  0.752344  1
  Ti  Ti10  1  0.672391  0.672391  0.500000  1
  Ti  Ti11  1  0.149829  0.000737  0.873996  1
  Ti  Ti12  1  0.493705  0.653709  0.123732  1
  Ti  Ti13  1  0.504762  0.352465  0.627404  1
  Ti  Ti14  1  0.653709  0.493705  0.876268  1
  Ti  Ti15  1  0.352465  0.504762  0.372596  1
  Ti  Ti16  1  0.851323  0.995358  0.375308  1
  Ti  Ti17  1  0.000737  0.149829  0.126004  1
  Ti  Ti18  1  0.995358  0.851323  0.624692  1
  Si  Si19  1  0.203587  0.138448  0.681489  1
  Si  Si20  1  0.365906  0.702127  0.928997  1
  Si  Si21  1  0.637698  0.295974  0.430541  1
  Si  Si22  1  0.702127  0.365906  0.071003  1
  Si  Si23  1  0.295974  0.637698  0.569459  1
  Si  Si24  1  0.795221  0.861750  0.179867  1
  Si  Si25  1  0.138448  0.203587  0.318511  1
  Si  Si26  1  0.861750  0.795221  0.820133  1
  Si  Si27  1  0.293583  0.957412  0.064301  1
  Si  Si28  1  0.545656  0.798273  0.315122  1
  Si  Si29  1  0.452136  0.203268  0.818209  1
  Si  Si30  1  0.798273  0.545656  0.684878  1
  Si  Si31  1  0.203268  0.452136  0.181791  1
  Si  Si32  1  0.702523  0.047194  0.565926  1
  Si  Si33  1  0.957412  0.293583  0.935699  1
  Si  Si34  1  0.047194  0.702523  0.434074  1
  Os  Os35  1  0.326605  0.326605  0.000000  1
