# generated using pymatgen
data_Nd4HoNb3(Co4P3)4
_symmetry_space_group_name_H-M   'P 1'
_cell_length_a   12.27698949
_cell_length_b   12.27698993
_cell_length_c   3.73134100
_cell_angle_alpha   90.00000000
_cell_angle_beta   90.00000000
_cell_angle_gamma   119.94356632
_symmetry_Int_Tables_number   1
_chemical_formula_structural   Nd4HoNb3(Co4P3)4
_chemical_formula_sum   'Nd4 Ho1 Nb3 Co16 P12'
_cell_volume   487.33324800
_cell_formula_units_Z   1
loop_
 _symmetry_equiv_pos_site_id
 _symmetry_equiv_pos_as_xyz
  1  'x, y, z'
loop_
 _atom_site_type_symbol
 _atom_site_label
 _atom_site_symmetry_multiplicity
 _atom_site_fract_x
 _atom_site_fract_y
 _atom_site_fract_z
 _atom_site_occupancy
  Nd  Nd0  1  0.816604  0.000553  0.500000  1
  Nd  Nd1  1  0.000553  0.816604  0.500000  1
  Nd  Nd2  1  0.332989  0.666871  0.000000  1
  Nd  Nd3  1  0.666871  0.332989  0.000000  1
  Ho  Ho4  1  0.185131  0.185131  0.500000  1
  Nb  Nb5  1  0.442399  0.000664  0.000000  1
  Nb  Nb6  1  0.000664  0.442399  0.000000  1
  Nb  Nb7  1  0.555435  0.555435  0.000000  1
  Co  Co8  1  0.280054  0.002581  0.500000  1
  Co  Co9  1  0.002581  0.280054  0.500000  1
  Co  Co10  1  0.719048  0.719048  0.500000  1
  Co  Co11  1  0.624956  0.801721  0.000000  1
  Co  Co12  1  0.197882  0.824335  0.000000  1
  Co  Co13  1  0.177743  0.372727  0.000000  1
  Co  Co14  1  0.372727  0.177743  0.000000  1
  Co  Co15  1  0.801721  0.624956  0.000000  1
  Co  Co16  1  0.824335  0.197882  0.000000  1
  Co  Co17  1  0.519863  0.874759  0.500000  1
  Co  Co18  1  0.124704  0.645595  0.500000  1
  Co  Co19  1  0.353433  0.477932  0.500000  1
  Co  Co20  1  0.477932  0.353433  0.500000  1
  Co  Co21  1  0.874759  0.519863  0.500000  1
  Co  Co22  1  0.645595  0.124704  0.500000  1
  Co  Co23  1  0.001984  0.001984  0.000000  1
  P  P24  1  0.181138  0.003926  0.000000  1
  P  P25  1  0.003926  0.181138  0.000000  1
  P  P26  1  0.819107  0.819107  0.000000  1
  P  P27  1  0.523261  0.689515  0.500000  1
  P  P28  1  0.309254  0.834787  0.500000  1
  P  P29  1  0.166526  0.476333  0.500000  1
  P  P30  1  0.476333  0.166526  0.500000  1
  P  P31  1  0.689515  0.523261  0.500000  1
  P  P32  1  0.834787  0.309254  0.500000  1
  P  P33  1  0.639753  0.999786  0.000000  1
  P  P34  1  0.999786  0.639753  0.000000  1
  P  P35  1  0.356652  0.356652  0.000000  1
