# generated using pymatgen
data_La2Zn2PdRh
_symmetry_space_group_name_H-M   'P 1'
_cell_length_a   4.08056800
_cell_length_b   7.53480120
_cell_length_c   16.80944044
_cell_angle_alpha   90.02626419
_cell_angle_beta   90.00000000
_cell_angle_gamma   90.00000000
_symmetry_Int_Tables_number   1
_chemical_formula_structural   La2Zn2PdRh
_chemical_formula_sum   'La8 Zn8 Pd4 Rh4'
_cell_volume   516.82751745
_cell_formula_units_Z   4
loop_
 _symmetry_equiv_pos_site_id
 _symmetry_equiv_pos_as_xyz
  1  'x, y, z'
loop_
 _atom_site_type_symbol
 _atom_site_label
 _atom_site_symmetry_multiplicity
 _atom_site_fract_x
 _atom_site_fract_y
 _atom_site_fract_z
 _atom_site_occupancy
  La  La0  1  0.750000  0.332621  0.440378  1
  La  La1  1  0.250000  0.039473  0.716542  1
  La  La2  1  0.250000  0.554308  0.779492  1
  La  La3  1  0.250000  0.678046  0.558109  1
  La  La4  1  0.750000  0.827953  0.064099  1
  La  La5  1  0.250000  0.174125  0.946440  1
  La  La6  1  0.750000  0.456774  0.212846  1
  La  La7  1  0.750000  0.942798  0.283845  1
  Zn  Zn8  1  0.250000  0.124942  0.148965  1
  Zn  Zn9  1  0.250000  0.996100  0.438675  1
  Zn  Zn10  1  0.750000  0.872673  0.848960  1
  Zn  Zn11  1  0.750000  0.998746  0.559254  1
  Zn  Zn12  1  0.250000  0.498467  0.061354  1
  Zn  Zn13  1  0.750000  0.376645  0.650193  1
  Zn  Zn14  1  0.750000  0.500395  0.940743  1
  Zn  Zn15  1  0.250000  0.628261  0.350553  1
  Pd  Pd16  1  0.750000  0.251966  0.814143  1
  Pd  Pd17  1  0.250000  0.247508  0.314826  1
  Pd  Pd18  1  0.250000  0.740152  0.934016  1
  Pd  Pd19  1  0.250000  0.239793  0.566342  1
  Rh  Rh20  1  0.250000  0.750128  0.184172  1
  Rh  Rh21  1  0.750000  0.758496  0.434406  1
  Rh  Rh22  1  0.750000  0.260139  0.065564  1
  Rh  Rh23  1  0.750000  0.749489  0.686084  1
