# generated using pymatgen
data_LaY(Al3Pd)6
_symmetry_space_group_name_H-M   'P 1'
_cell_length_a   10.42699318
_cell_length_b   10.42699321
_cell_length_c   10.42699400
_cell_angle_alpha   42.21982958
_cell_angle_beta   42.21983758
_cell_angle_gamma   42.21982734
_symmetry_Int_Tables_number   1
_chemical_formula_structural   LaY(Al3Pd)6
_chemical_formula_sum   'La1 Y1 Al18 Pd6'
_cell_volume   463.25493851
_cell_formula_units_Z   1
loop_
 _symmetry_equiv_pos_site_id
 _symmetry_equiv_pos_as_xyz
  1  'x, y, z'
loop_
 _atom_site_type_symbol
 _atom_site_label
 _atom_site_symmetry_multiplicity
 _atom_site_fract_x
 _atom_site_fract_y
 _atom_site_fract_z
 _atom_site_occupancy
  La  La0  1  0.833214  0.833214  0.833214  1
  Y  Y1  1  0.166874  0.166874  0.166874  1
  Al  Al2  1  0.107916  0.431815  0.760866  1
  Al  Al3  1  0.431815  0.760866  0.107916  1
  Al  Al4  1  0.564924  0.893610  0.240853  1
  Al  Al5  1  0.950687  0.950687  0.950687  1
  Al  Al6  1  0.049511  0.049511  0.049511  1
  Al  Al7  1  0.301470  0.705911  0.492615  1
  Al  Al8  1  0.893610  0.240853  0.564924  1
  Al  Al9  1  0.383966  0.383966  0.383966  1
  Al  Al10  1  0.492615  0.301470  0.705911  1
  Al  Al11  1  0.240853  0.564924  0.893610  1
  Al  Al12  1  0.715725  0.715725  0.715725  1
  Al  Al13  1  0.616094  0.616094  0.616094  1
  Al  Al14  1  0.334310  0.000621  0.665054  1
  Al  Al15  1  0.705911  0.492615  0.301470  1
  Al  Al16  1  0.665054  0.334310  0.000621  1
  Al  Al17  1  0.283990  0.283990  0.283990  1
  Al  Al18  1  0.000621  0.665054  0.334310  1
  Al  Al19  1  0.760866  0.107916  0.431815  1
  Pd  Pd20  1  0.417526  0.077529  0.759658  1
  Pd  Pd21  1  0.581110  0.240900  0.923252  1
  Pd  Pd22  1  0.077529  0.759658  0.417526  1
  Pd  Pd23  1  0.759658  0.417526  0.077529  1
  Pd  Pd24  1  0.923252  0.581110  0.240900  1
  Pd  Pd25  1  0.240900  0.923252  0.581110  1
