# generated using pymatgen
data_HoEr3Re2(B8Rh)2
_symmetry_space_group_name_H-M   'P 1'
_cell_length_a   3.57815400
_cell_length_b   5.95197013
_cell_length_c   11.53169403
_cell_angle_alpha   90.29126523
_cell_angle_beta   90.00000000
_cell_angle_gamma   90.00000000
_symmetry_Int_Tables_number   1
_chemical_formula_structural   HoEr3Re2(B8Rh)2
_chemical_formula_sum   'Ho1 Er3 Re2 B16 Rh2'
_cell_volume   245.58807236
_cell_formula_units_Z   1
loop_
 _symmetry_equiv_pos_site_id
 _symmetry_equiv_pos_as_xyz
  1  'x, y, z'
loop_
 _atom_site_type_symbol
 _atom_site_label
 _atom_site_symmetry_multiplicity
 _atom_site_fract_x
 _atom_site_fract_y
 _atom_site_fract_z
 _atom_site_occupancy
  Ho  Ho0  1  0.000000  0.872394  0.647997  1
  Er  Er1  1  0.000000  0.628754  0.150001  1
  Er  Er2  1  0.000000  0.371263  0.850017  1
  Er  Er3  1  0.000000  0.127574  0.352016  1
  Re  Re4  1  0.000000  0.134509  0.088938  1
  Re  Re5  1  0.000000  0.865485  0.911243  1
  B  B6  1  0.500000  0.975435  0.192815  1
  B  B7  1  0.500000  0.024648  0.807339  1
  B  B8  1  0.500000  0.476389  0.307047  1
  B  B9  1  0.500000  0.523409  0.692953  1
  B  B10  1  0.500000  0.789823  0.314023  1
  B  B11  1  0.500000  0.210470  0.685997  1
  B  B12  1  0.500000  0.288933  0.186271  1
  B  B13  1  0.500000  0.711045  0.813845  1
  B  B14  1  0.500000  0.864382  0.468827  1
  B  B15  1  0.500000  0.135747  0.530943  1
  B  B16  1  0.500000  0.365151  0.030700  1
  B  B17  1  0.500000  0.634828  0.969311  1
  B  B18  1  0.500000  0.886476  0.047044  1
  B  B19  1  0.500000  0.113556  0.953000  1
  B  B20  1  0.500000  0.386456  0.452260  1
  B  B21  1  0.500000  0.613214  0.547562  1
  Rh  Rh22  1  0.000000  0.640683  0.405395  1
  Rh  Rh23  1  0.000000  0.359380  0.594457  1
