# generated using pymatgen
data_Ho6NpFe22
_symmetry_space_group_name_H-M   'P 1'
_cell_length_a   8.53312700
_cell_length_b   8.53312652
_cell_length_c   8.53312700
_cell_angle_alpha   119.99999797
_cell_angle_beta   90.00000000
_cell_angle_gamma   119.99999797
_symmetry_Int_Tables_number   1
_chemical_formula_structural   Ho6NpFe22
_chemical_formula_sum   'Ho6 Np1 Fe22'
_cell_volume   439.34899031
_cell_formula_units_Z   1
loop_
 _symmetry_equiv_pos_site_id
 _symmetry_equiv_pos_as_xyz
  1  'x, y, z'
loop_
 _atom_site_type_symbol
 _atom_site_label
 _atom_site_symmetry_multiplicity
 _atom_site_fract_x
 _atom_site_fract_y
 _atom_site_fract_z
 _atom_site_occupancy
  Ho  Ho0  1  0.707206  0.000000  0.292793  1
  Ho  Ho1  1  0.292794  0.000000  0.292794  1
  Ho  Ho2  1  0.292794  0.585589  0.292794  1
  Ho  Ho3  1  0.292793  0.000000  0.707206  1
  Ho  Ho4  1  0.707206  0.000000  0.707206  1
  Ho  Ho5  1  0.707206  0.414412  0.707206  1
  Np  Np6  1  0.000000  0.000000  0.000000  1
  Fe  Fe7  1  0.500001  0.000000  0.000000  1
  Fe  Fe8  1  0.000000  0.500001  0.000000  1
  Fe  Fe9  1  0.500001  0.500001  0.000000  1
  Fe  Fe10  1  0.675278  0.350558  0.025837  1
  Fe  Fe11  1  0.877604  0.755207  0.122396  1
  Fe  Fe12  1  0.367188  0.244792  0.122396  1
  Fe  Fe13  1  0.877604  0.244792  0.122396  1
  Fe  Fe14  1  0.675278  0.350558  0.324721  1
  Fe  Fe15  1  0.675278  0.649442  0.324721  1
  Fe  Fe16  1  0.974163  0.649442  0.324721  1
  Fe  Fe17  1  0.122396  0.244792  0.367188  1
  Fe  Fe18  1  0.000000  0.000000  0.500001  1
  Fe  Fe19  1  0.000000  0.500001  0.500001  1
  Fe  Fe20  1  0.500001  0.500001  0.500001  1
  Fe  Fe21  1  0.877604  0.755207  0.632811  1
  Fe  Fe22  1  0.025837  0.350558  0.675278  1
  Fe  Fe23  1  0.324721  0.350558  0.675278  1
  Fe  Fe24  1  0.324721  0.649442  0.675278  1
  Fe  Fe25  1  0.122396  0.244792  0.877604  1
  Fe  Fe26  1  0.122396  0.755207  0.877604  1
  Fe  Fe27  1  0.632811  0.755207  0.877604  1
  Fe  Fe28  1  0.324721  0.649442  0.974163  1
