# generated using pymatgen
data_YEr9Pt8
_symmetry_space_group_name_H-M   'P 1'
_cell_length_a   7.42185600
_cell_length_b   7.50572103
_cell_length_c   14.69054102
_cell_angle_alpha   90.00806262
_cell_angle_beta   90.00000000
_cell_angle_gamma   90.00000000
_symmetry_Int_Tables_number   1
_chemical_formula_structural   YEr9Pt8
_chemical_formula_sum   'Y2 Er18 Pt16'
_cell_volume   818.35686215
_cell_formula_units_Z   2
loop_
 _symmetry_equiv_pos_site_id
 _symmetry_equiv_pos_as_xyz
  1  'x, y, z'
loop_
 _atom_site_type_symbol
 _atom_site_label
 _atom_site_symmetry_multiplicity
 _atom_site_fract_x
 _atom_site_fract_y
 _atom_site_fract_z
 _atom_site_occupancy
  Y  Y0  1  0.498516  0.679156  0.407261  1
  Y  Y1  1  0.998516  0.820844  0.092739  1
  Er  Er2  1  0.680889  0.988192  0.249931  1
  Er  Er3  1  0.180889  0.511808  0.250069  1
  Er  Er4  1  0.819006  0.488321  0.749869  1
  Er  Er5  1  0.319006  0.011679  0.750131  1
  Er  Er6  1  0.656321  0.832430  0.622239  1
  Er  Er7  1  0.156321  0.667570  0.877761  1
  Er  Er8  1  0.844309  0.332025  0.377942  1
  Er  Er9  1  0.344309  0.167975  0.122058  1
  Er  Er10  1  0.344196  0.167750  0.378040  1
  Er  Er11  1  0.844196  0.332250  0.121960  1
  Er  Er12  1  0.156206  0.668098  0.622059  1
  Er  Er13  1  0.656206  0.831902  0.877941  1
  Er  Er14  1  0.997650  0.820369  0.406830  1
  Er  Er15  1  0.497650  0.679631  0.093170  1
  Er  Er16  1  0.502635  0.319498  0.593225  1
  Er  Er17  1  0.002635  0.180502  0.906775  1
  Er  Er18  1  0.002123  0.179919  0.593110  1
  Er  Er19  1  0.502123  0.320081  0.906890  1
  Pt  Pt20  1  0.817424  0.642849  0.250676  1
  Pt  Pt21  1  0.317424  0.857151  0.249324  1
  Pt  Pt22  1  0.681753  0.143601  0.749983  1
  Pt  Pt23  1  0.181753  0.356399  0.750017  1
  Pt  Pt24  1  0.547083  0.385940  0.249601  1
  Pt  Pt25  1  0.047083  0.114060  0.250399  1
  Pt  Pt26  1  0.952784  0.887035  0.750056  1
  Pt  Pt27  1  0.452784  0.612965  0.749944  1
  Pt  Pt28  1  0.816331  0.531346  0.542385  1
  Pt  Pt29  1  0.316331  0.968654  0.957615  1
  Pt  Pt30  1  0.684849  0.033253  0.458855  1
  Pt  Pt31  1  0.184849  0.466747  0.041145  1
  Pt  Pt32  1  0.182271  0.466689  0.458745  1
  Pt  Pt33  1  0.682271  0.033311  0.041255  1
  Pt  Pt34  1  0.315653  0.969356  0.542495  1
  Pt  Pt35  1  0.815653  0.530644  0.957505  1
