# generated using pymatgen
data_Tb5ThTcRu
_symmetry_space_group_name_H-M   'P 1'
_cell_length_a   6.36922600
_cell_length_b   7.31489100
_cell_length_c   9.45164000
_cell_angle_alpha   90.00000000
_cell_angle_beta   90.00000000
_cell_angle_gamma   90.00000000
_symmetry_Int_Tables_number   1
_chemical_formula_structural   Tb5ThTcRu
_chemical_formula_sum   'Tb10 Th2 Tc2 Ru2'
_cell_volume   440.35374069
_cell_formula_units_Z   2
loop_
 _symmetry_equiv_pos_site_id
 _symmetry_equiv_pos_as_xyz
  1  'x, y, z'
loop_
 _atom_site_type_symbol
 _atom_site_label
 _atom_site_symmetry_multiplicity
 _atom_site_fract_x
 _atom_site_fract_y
 _atom_site_fract_z
 _atom_site_occupancy
  Tb  Tb0  1  0.332092  0.676476  0.064702  1
  Tb  Tb1  1  0.167908  0.176476  0.435298  1
  Tb  Tb2  1  0.670306  0.323819  0.568788  1
  Tb  Tb3  1  0.829694  0.823819  0.931212  1
  Tb  Tb4  1  0.670306  0.323819  0.931212  1
  Tb  Tb5  1  0.829694  0.823819  0.568788  1
  Tb  Tb6  1  0.332092  0.676476  0.435298  1
  Tb  Tb7  1  0.167908  0.176476  0.064702  1
  Tb  Tb8  1  0.140173  0.459381  0.750000  1
  Tb  Tb9  1  0.359827  0.959381  0.750000  1
  Th  Th10  1  0.857359  0.548941  0.250000  1
  Th  Th11  1  0.642641  0.048941  0.250000  1
  Tc  Tc12  1  0.019143  0.874425  0.250000  1
  Tc  Tc13  1  0.480857  0.374425  0.250000  1
  Ru  Ru14  1  0.959615  0.116664  0.750000  1
  Ru  Ru15  1  0.540385  0.616664  0.750000  1
