# generated using pymatgen
data_Er2Ga3Tc14C3
_symmetry_space_group_name_H-M   'P 1'
_cell_length_a   6.94168124
_cell_length_b   6.94168174
_cell_length_c   6.94168000
_cell_angle_alpha   82.23125563
_cell_angle_beta   82.23125246
_cell_angle_gamma   82.23124527
_symmetry_Int_Tables_number   1
_chemical_formula_structural   Er2Ga3Tc14C3
_chemical_formula_sum   'Er2 Ga3 Tc14 C3'
_cell_volume   326.04974184
_cell_formula_units_Z   1
loop_
 _symmetry_equiv_pos_site_id
 _symmetry_equiv_pos_as_xyz
  1  'x, y, z'
loop_
 _atom_site_type_symbol
 _atom_site_label
 _atom_site_symmetry_multiplicity
 _atom_site_fract_x
 _atom_site_fract_y
 _atom_site_fract_z
 _atom_site_occupancy
  Er  Er0  1  0.656525  0.656525  0.656525  1
  Er  Er1  1  0.343475  0.343475  0.343475  1
  Ga  Ga2  1  0.000000  0.000000  0.500000  1
  Ga  Ga3  1  0.500000  0.000000  0.000000  1
  Ga  Ga4  1  0.000000  0.500000  0.000000  1
  Tc  Tc5  1  0.723062  0.276938  0.000000  1
  Tc  Tc6  1  0.000000  0.723062  0.276938  1
  Tc  Tc7  1  0.276938  0.000000  0.723062  1
  Tc  Tc8  1  0.000000  0.276938  0.723062  1
  Tc  Tc9  1  0.723062  0.000000  0.276938  1
  Tc  Tc10  1  0.276938  0.723062  0.000000  1
  Tc  Tc11  1  0.352387  0.847951  0.352387  1
  Tc  Tc12  1  0.352387  0.352387  0.847951  1
  Tc  Tc13  1  0.847951  0.352387  0.352387  1
  Tc  Tc14  1  0.647613  0.152049  0.647613  1
  Tc  Tc15  1  0.647613  0.647613  0.152049  1
  Tc  Tc16  1  0.152049  0.647613  0.647613  1
  Tc  Tc17  1  0.904204  0.904204  0.904204  1
  Tc  Tc18  1  0.095796  0.095796  0.095796  1
  C  C19  1  0.500000  0.500000  0.000000  1
  C  C20  1  0.000000  0.500000  0.500000  1
  C  C21  1  0.500000  0.000000  0.500000  1
