# generated using pymatgen
data_Nb4Si3WC
_symmetry_space_group_name_H-M   'P 1'
_cell_length_a   7.50419400
_cell_length_b   7.50419295
_cell_length_c   5.40686900
_cell_angle_alpha   90.00000000
_cell_angle_beta   90.00000000
_cell_angle_gamma   119.99999583
_symmetry_Int_Tables_number   1
_chemical_formula_structural   Nb4Si3WC
_chemical_formula_sum   'Nb8 Si6 W2 C2'
_cell_volume   263.68446401
_cell_formula_units_Z   2
loop_
 _symmetry_equiv_pos_site_id
 _symmetry_equiv_pos_as_xyz
  1  'x, y, z'
loop_
 _atom_site_type_symbol
 _atom_site_label
 _atom_site_symmetry_multiplicity
 _atom_site_fract_x
 _atom_site_fract_y
 _atom_site_fract_z
 _atom_site_occupancy
  Nb  Nb0  1  0.666667  0.333333  0.000000  1
  Nb  Nb1  1  0.333333  0.666667  0.000000  1
  Nb  Nb2  1  0.765932  0.765932  0.750528  1
  Nb  Nb3  1  0.234068  0.000000  0.750528  1
  Nb  Nb4  1  0.000000  0.234068  0.750528  1
  Nb  Nb5  1  0.234068  0.234068  0.249472  1
  Nb  Nb6  1  0.765932  0.000000  0.249472  1
  Nb  Nb7  1  0.000000  0.765932  0.249472  1
  Si  Si8  1  0.406762  0.406762  0.737526  1
  Si  Si9  1  0.593238  0.000000  0.737526  1
  Si  Si10  1  0.000000  0.593238  0.737526  1
  Si  Si11  1  0.593238  0.593238  0.262474  1
  Si  Si12  1  0.406762  0.000000  0.262474  1
  Si  Si13  1  0.000000  0.406762  0.262474  1
  W  W14  1  0.333333  0.666667  0.500000  1
  W  W15  1  0.666667  0.333333  0.500000  1
  C  C16  1  0.000000  0.000000  0.000000  1
  C  C17  1  0.000000  0.000000  0.500000  1
