# generated using pymatgen
data_Tm10Si5Ge
_symmetry_space_group_name_H-M   'P 1'
_cell_length_a   8.32505904
_cell_length_b   8.32505875
_cell_length_c   6.24288400
_cell_angle_alpha   90.00000000
_cell_angle_beta   90.00000000
_cell_angle_gamma   120.01140171
_symmetry_Int_Tables_number   1
_chemical_formula_structural   Tm10Si5Ge
_chemical_formula_sum   'Tm10 Si5 Ge1'
_cell_volume   374.66283783
_cell_formula_units_Z   1
loop_
 _symmetry_equiv_pos_site_id
 _symmetry_equiv_pos_as_xyz
  1  'x, y, z'
loop_
 _atom_site_type_symbol
 _atom_site_label
 _atom_site_symmetry_multiplicity
 _atom_site_fract_x
 _atom_site_fract_y
 _atom_site_fract_z
 _atom_site_occupancy
  Tm  Tm0  1  0.667379  0.333199  0.500662  1
  Tm  Tm1  1  0.333199  0.667379  0.500662  1
  Tm  Tm2  1  0.333199  0.667379  0.999338  1
  Tm  Tm3  1  0.667379  0.333199  0.999338  1
  Tm  Tm4  1  0.758109  0.758109  0.250000  1
  Tm  Tm5  1  0.242423  0.998894  0.250000  1
  Tm  Tm6  1  0.998894  0.242423  0.250000  1
  Tm  Tm7  1  0.242401  0.242401  0.750000  1
  Tm  Tm8  1  0.757203  0.999940  0.750000  1
  Tm  Tm9  1  0.999940  0.757203  0.750000  1
  Si  Si10  1  0.606137  0.999979  0.250000  1
  Si  Si11  1  0.999979  0.606137  0.250000  1
  Si  Si12  1  0.606334  0.606334  0.750000  1
  Si  Si13  1  0.393837  0.000047  0.750000  1
  Si  Si14  1  0.000047  0.393837  0.750000  1
  Ge  Ge15  1  0.393539  0.393539  0.250000  1
