# generated using pymatgen
data_Sr2Li2Pd5
_symmetry_space_group_name_H-M   'P 1'
_cell_length_a   13.13981714
_cell_length_b   13.13981727
_cell_length_c   13.13981804
_cell_angle_alpha   24.50619909
_cell_angle_beta   24.50619787
_cell_angle_gamma   24.50620072
_symmetry_Int_Tables_number   1
_chemical_formula_structural   Sr2Li2Pd5
_chemical_formula_sum   'Sr4 Li4 Pd10'
_cell_volume   343.18273015
_cell_formula_units_Z   2
loop_
 _symmetry_equiv_pos_site_id
 _symmetry_equiv_pos_as_xyz
  1  'x, y, z'
loop_
 _atom_site_type_symbol
 _atom_site_label
 _atom_site_symmetry_multiplicity
 _atom_site_fract_x
 _atom_site_fract_y
 _atom_site_fract_z
 _atom_site_occupancy
  Sr  Sr0  1  0.949570  0.949570  0.949570  1
  Sr  Sr1  1  0.050430  0.050430  0.050430  1
  Sr  Sr2  1  0.851989  0.851989  0.851989  1
  Sr  Sr3  1  0.148011  0.148011  0.148011  1
  Li  Li4  1  0.719806  0.719806  0.719806  1
  Li  Li5  1  0.280194  0.280194  0.280194  1
  Li  Li6  1  0.612349  0.612349  0.612349  1
  Li  Li7  1  0.387651  0.387651  0.387651  1
  Pd  Pd8  1  0.500000  0.500000  0.500000  1
  Pd  Pd9  1  0.500000  0.500000  0.000000  1
  Pd  Pd10  1  0.000000  0.500000  0.500000  1
  Pd  Pd11  1  0.500000  0.000000  0.500000  1
  Pd  Pd12  1  0.392066  0.894257  0.392066  1
  Pd  Pd13  1  0.392066  0.392066  0.894257  1
  Pd  Pd14  1  0.894257  0.392066  0.392066  1
  Pd  Pd15  1  0.607934  0.105743  0.607934  1
  Pd  Pd16  1  0.607934  0.607934  0.105743  1
  Pd  Pd17  1  0.105743  0.607934  0.607934  1
