# generated using pymatgen
data_CrCd2Ni2BiO8
_symmetry_space_group_name_H-M   'P 1'
_cell_length_a   6.28708411
_cell_length_b   6.28708426
_cell_length_c   6.40256540
_cell_angle_alpha   60.58662760
_cell_angle_beta   119.41337491
_cell_angle_gamma   119.98036302
_symmetry_Int_Tables_number   1
_chemical_formula_structural   CrCd2Ni2BiO8
_chemical_formula_sum   'Cr1 Cd2 Ni2 Bi1 O8'
_cell_volume   180.55002469
_cell_formula_units_Z   1
loop_
 _symmetry_equiv_pos_site_id
 _symmetry_equiv_pos_as_xyz
  1  'x, y, z'
loop_
 _atom_site_type_symbol
 _atom_site_label
 _atom_site_symmetry_multiplicity
 _atom_site_fract_x
 _atom_site_fract_y
 _atom_site_fract_z
 _atom_site_occupancy
  Cr  Cr0  1  0.500000  0.500000  0.000000  1
  Cd  Cd1  1  0.862255  0.137745  0.594208  1
  Cd  Cd2  1  0.137745  0.862255  0.405792  1
  Ni  Ni3  1  0.500000  0.000000  0.000000  1
  Ni  Ni4  1  0.000000  0.500000  0.000000  1
  Bi  Bi5  1  0.500000  0.500000  0.500000  1
  O  O6  1  0.730645  0.709578  0.770792  1
  O  O7  1  0.735622  0.264378  0.766071  1
  O  O8  1  0.274934  0.725066  0.813873  1
  O  O9  1  0.290422  0.269355  0.770792  1
  O  O10  1  0.709578  0.730645  0.229208  1
  O  O11  1  0.725066  0.274934  0.186127  1
  O  O12  1  0.264378  0.735622  0.233929  1
  O  O13  1  0.269355  0.290422  0.229208  1
