# generated using pymatgen
data_Dy4Y4Lu4Co5Hg
_symmetry_space_group_name_H-M   'P 1'
_cell_length_a   8.20530073
_cell_length_b   8.20529948
_cell_length_c   8.20530061
_cell_angle_alpha   108.09330256
_cell_angle_beta   110.50296181
_cell_angle_gamma   109.82686383
_symmetry_Int_Tables_number   1
_chemical_formula_structural   Dy4Y4Lu4Co5Hg
_chemical_formula_sum   'Dy4 Y4 Lu4 Co5 Hg1'
_cell_volume   425.06770645
_cell_formula_units_Z   1
loop_
 _symmetry_equiv_pos_site_id
 _symmetry_equiv_pos_as_xyz
  1  'x, y, z'
loop_
 _atom_site_type_symbol
 _atom_site_label
 _atom_site_symmetry_multiplicity
 _atom_site_fract_x
 _atom_site_fract_y
 _atom_site_fract_z
 _atom_site_occupancy
  Dy  Dy0  1  0.191079  0.211925  0.403005  1
  Dy  Dy1  1  0.808921  0.788075  0.596995  1
  Dy  Dy2  1  0.191079  0.788075  0.979154  1
  Dy  Dy3  1  0.808921  0.211925  0.020846  1
  Y  Y4  1  0.477876  0.290781  0.187095  1
  Y  Y5  1  0.103686  0.290781  0.812905  1
  Y  Y6  1  0.896314  0.709219  0.187095  1
  Y  Y7  1  0.522124  0.709219  0.812905  1
  Lu  Lu8  1  0.307312  0.624517  0.317204  1
  Lu  Lu9  1  0.307312  0.990110  0.682796  1
  Lu  Lu10  1  0.692688  0.375483  0.682796  1
  Lu  Lu11  1  0.692688  0.009890  0.317204  1
  Co  Co12  1  0.500000  0.614925  0.114925  1
  Co  Co13  1  0.500000  0.385075  0.885075  1
  Co  Co14  1  0.378441  0.000000  0.378441  1
  Co  Co15  1  0.621559  0.000000  0.621559  1
  Co  Co16  1  0.000000  0.000000  0.000000  1
  Hg  Hg17  1  0.000000  0.500000  0.500000  1
