# generated using pymatgen
data_TmAg(PS3)2
_symmetry_space_group_name_H-M   'P 1'
_cell_length_a   6.33621400
_cell_length_b   6.33621325
_cell_length_c   14.39552400
_cell_angle_alpha   90.00000000
_cell_angle_beta   90.00000000
_cell_angle_gamma   119.99999347
_symmetry_Int_Tables_number   1
_chemical_formula_structural   TmAg(PS3)2
_chemical_formula_sum   'Tm2 Ag2 P4 S12'
_cell_volume   500.51576394
_cell_formula_units_Z   2
loop_
 _symmetry_equiv_pos_site_id
 _symmetry_equiv_pos_as_xyz
  1  'x, y, z'
loop_
 _atom_site_type_symbol
 _atom_site_label
 _atom_site_symmetry_multiplicity
 _atom_site_fract_x
 _atom_site_fract_y
 _atom_site_fract_z
 _atom_site_occupancy
  Tm  Tm0  1  0.000000  0.000000  0.250000  1
  Tm  Tm1  1  0.000000  0.000000  0.750000  1
  Ag  Ag2  1  0.666667  0.333333  0.250000  1
  Ag  Ag3  1  0.333333  0.666667  0.750000  1
  P  P4  1  0.666667  0.333333  0.671876  1
  P  P5  1  0.666667  0.333333  0.828124  1
  P  P6  1  0.333333  0.666667  0.328124  1
  P  P7  1  0.333333  0.666667  0.171876  1
  S  S8  1  0.967521  0.318568  0.868758  1
  S  S9  1  0.351046  0.318568  0.631242  1
  S  S10  1  0.967521  0.648954  0.631242  1
  S  S11  1  0.681432  0.032479  0.631242  1
  S  S12  1  0.318568  0.351046  0.131242  1
  S  S13  1  0.648954  0.967521  0.131242  1
  S  S14  1  0.032479  0.681432  0.131242  1
  S  S15  1  0.648954  0.681432  0.368758  1
  S  S16  1  0.032479  0.351046  0.368758  1
  S  S17  1  0.318568  0.967521  0.368758  1
  S  S18  1  0.681432  0.648954  0.868758  1
  S  S19  1  0.351046  0.032479  0.868758  1
