# generated using pymatgen
data_ZnCdCo(AsO4)2
_symmetry_space_group_name_H-M   'P 1'
_cell_length_a   5.34765546
_cell_length_b   8.10853685
_cell_length_c   9.04345217
_cell_angle_alpha   89.94781918
_cell_angle_beta   89.72345819
_cell_angle_gamma   95.23542989
_symmetry_Int_Tables_number   1
_chemical_formula_structural   ZnCdCo(AsO4)2
_chemical_formula_sum   'Zn2 Cd2 Co2 As4 O16'
_cell_volume   390.49826248
_cell_formula_units_Z   2
loop_
 _symmetry_equiv_pos_site_id
 _symmetry_equiv_pos_as_xyz
  1  'x, y, z'
loop_
 _atom_site_type_symbol
 _atom_site_label
 _atom_site_symmetry_multiplicity
 _atom_site_fract_x
 _atom_site_fract_y
 _atom_site_fract_z
 _atom_site_occupancy
  Zn  Zn0  1  0.912558  0.390444  0.866330  1
  Zn  Zn1  1  0.087444  0.609556  0.133670  1
  Cd  Cd2  1  0.000004  0.500001  0.500000  1
  Cd  Cd3  1  0.499997  0.000000  0.000000  1
  Co  Co4  1  0.410154  0.892748  0.635033  1
  Co  Co5  1  0.589844  0.107252  0.364966  1
  As  As6  1  0.461614  0.298896  0.699722  1
  As  As7  1  0.961051  0.797961  0.799331  1
  As  As8  1  0.538388  0.701102  0.300277  1
  As  As9  1  0.038946  0.202041  0.200672  1
  O  O10  1  0.463487  0.134359  0.576517  1
  O  O11  1  0.959015  0.634435  0.924070  1
  O  O12  1  0.536508  0.865640  0.423482  1
  O  O13  1  0.040988  0.365565  0.075931  1
  O  O14  1  0.585050  0.245979  0.869387  1
  O  O15  1  0.085431  0.743926  0.630077  1
  O  O16  1  0.414955  0.754018  0.130610  1
  O  O17  1  0.914571  0.256077  0.369926  1
  O  O18  1  0.159668  0.355369  0.707640  1
  O  O19  1  0.661695  0.858183  0.793300  1
  O  O20  1  0.840339  0.644634  0.292361  1
  O  O21  1  0.338298  0.141812  0.206699  1
  O  O22  1  0.667109  0.464629  0.652126  1
  O  O23  1  0.174624  0.961493  0.842414  1
  O  O24  1  0.332898  0.535372  0.347872  1
  O  O25  1  0.825366  0.038512  0.157589  1
