# generated using pymatgen
data_Li3Pr3ReWO12
_symmetry_space_group_name_H-M   'P 1'
_cell_length_a   10.96705792
_cell_length_b   10.96705818
_cell_length_c   10.96705900
_cell_angle_alpha   109.47122030
_cell_angle_beta   109.47122633
_cell_angle_gamma   109.47121368
_symmetry_Int_Tables_number   1
_chemical_formula_structural   Li3Pr3ReWO12
_chemical_formula_sum   'Li12 Pr12 Re4 W4 O48'
_cell_volume   1015.42670802
_cell_formula_units_Z   4
loop_
 _symmetry_equiv_pos_site_id
 _symmetry_equiv_pos_as_xyz
  1  'x, y, z'
loop_
 _atom_site_type_symbol
 _atom_site_label
 _atom_site_symmetry_multiplicity
 _atom_site_fract_x
 _atom_site_fract_y
 _atom_site_fract_z
 _atom_site_occupancy
  Li  Li0  1  0.250000  0.875140  0.125140  1
  Li  Li1  1  0.374860  0.250000  0.124860  1
  Li  Li2  1  0.124861  0.374861  0.250001  1
  Li  Li3  1  0.624861  0.874861  0.250001  1
  Li  Li4  1  0.125140  0.750000  0.375140  1
  Li  Li5  1  0.750001  0.624861  0.374861  1
  Li  Li6  1  0.250000  0.375140  0.625140  1
  Li  Li7  1  0.874861  0.250000  0.624861  1
  Li  Li8  1  0.375140  0.125140  0.750000  1
  Li  Li9  1  0.875140  0.625140  0.750000  1
  Li  Li10  1  0.625139  0.750000  0.875140  1
  Li  Li11  1  0.749999  0.124860  0.874860  1
  Pr  Pr12  1  0.750000  0.374380  0.124380  1
  Pr  Pr13  1  0.875619  0.750000  0.125619  1
  Pr  Pr14  1  0.374381  0.624381  0.250000  1
  Pr  Pr15  1  0.874381  0.124381  0.250000  1
  Pr  Pr16  1  0.250000  0.125619  0.375619  1
  Pr  Pr17  1  0.624381  0.250000  0.374381  1
  Pr  Pr18  1  0.750000  0.874381  0.624381  1
  Pr  Pr19  1  0.375620  0.750000  0.625620  1
  Pr  Pr20  1  0.125619  0.875618  0.750000  1
  Pr  Pr21  1  0.625620  0.375619  0.750001  1
  Pr  Pr22  1  0.250000  0.625619  0.875619  1
  Pr  Pr23  1  0.124381  0.250001  0.874382  1
  Re  Re24  1  0.499999  0.000000  0.000000  1
  Re  Re25  1  0.000000  0.500000  0.000000  1
  Re  Re26  1  0.000000  0.000000  0.500000  1
  Re  Re27  1  0.500001  0.500001  0.500001  1
  W  W28  1  0.000000  0.000000  0.000000  1
  W  W29  1  0.499999  0.499999  0.000000  1
  W  W30  1  0.499999  0.000000  0.500000  1
  W  W31  1  0.000000  0.500001  0.500001  1
  O  O32  1  0.828097  0.908190  0.022875  1
  O  O33  1  0.694165  0.114095  0.023406  1
  O  O34  1  0.194164  0.670759  0.080070  1
  O  O35  1  0.385315  0.408190  0.080092  1
  O  O36  1  0.477124  0.671901  0.091809  1
  O  O37  1  0.114094  0.419930  0.090688  1
  O  O38  1  0.523406  0.194164  0.114093  1
  O  O39  1  0.091810  0.919908  0.114686  1
  O  O40  1  0.976595  0.590689  0.170758  1
  O  O41  1  0.694778  0.580093  0.171903  1
  O  O42  1  0.080092  0.171902  0.194777  1
  O  O43  1  0.614094  0.023406  0.194164  1
  O  O44  1  0.829242  0.919931  0.305835  1
  O  O45  1  0.977124  0.385314  0.305222  1
  O  O46  1  0.408191  0.022875  0.328098  1
  O  O47  1  0.419930  0.305836  0.329241  1
  O  O48  1  0.080071  0.909313  0.385906  1
  O  O49  1  0.805222  0.477124  0.385315  1
  O  O50  1  0.329240  0.523406  0.409310  1
  O  O51  1  0.580092  0.885315  0.408190  1
  O  O52  1  0.590688  0.614095  0.419930  1
  O  O53  1  0.328098  0.805223  0.419908  1
  O  O54  1  0.090687  0.170758  0.476594  1
  O  O55  1  0.885315  0.305221  0.477124  1
  O  O56  1  0.114685  0.694778  0.522876  1
  O  O57  1  0.909312  0.829242  0.523406  1
  O  O58  1  0.409311  0.385905  0.580070  1
  O  O59  1  0.671902  0.194778  0.580093  1
  O  O60  1  0.670758  0.476595  0.590688  1
  O  O61  1  0.419907  0.114685  0.591809  1
  O  O62  1  0.194778  0.522876  0.614685  1
  O  O63  1  0.919930  0.090689  0.614095  1
  O  O64  1  0.580070  0.694164  0.670758  1
  O  O65  1  0.591810  0.977124  0.671902  1
  O  O66  1  0.170758  0.080069  0.694164  1
  O  O67  1  0.022876  0.614685  0.694779  1
  O  O68  1  0.385905  0.976594  0.805835  1
  O  O69  1  0.919908  0.828098  0.805222  1
  O  O70  1  0.305223  0.419908  0.828098  1
  O  O71  1  0.023407  0.409312  0.829242  1
  O  O72  1  0.476593  0.805834  0.885905  1
  O  O73  1  0.908190  0.080093  0.885315  1
  O  O74  1  0.522875  0.328098  0.908190  1
  O  O75  1  0.885906  0.580071  0.909312  1
  O  O76  1  0.614686  0.591811  0.919907  1
  O  O77  1  0.805835  0.329241  0.919929  1
  O  O78  1  0.305835  0.885906  0.976593  1
  O  O79  1  0.171901  0.091809  0.977124  1
