# generated using pymatgen
data_Sm4Ga18(OsPd)3
_symmetry_space_group_name_H-M   'P 1'
_cell_length_a   7.66597249
_cell_length_b   7.66597384
_cell_length_c   9.64577009
_cell_angle_alpha   89.91677374
_cell_angle_beta   89.91677526
_cell_angle_gamma   119.75205912
_symmetry_Int_Tables_number   1
_chemical_formula_structural   Sm4Ga18(OsPd)3
_chemical_formula_sum   'Sm4 Ga18 Os3 Pd3'
_cell_volume   492.13011828
_cell_formula_units_Z   1
loop_
 _symmetry_equiv_pos_site_id
 _symmetry_equiv_pos_as_xyz
  1  'x, y, z'
loop_
 _atom_site_type_symbol
 _atom_site_label
 _atom_site_symmetry_multiplicity
 _atom_site_fract_x
 _atom_site_fract_y
 _atom_site_fract_z
 _atom_site_occupancy
  Sm  Sm0  1  0.995456  0.669030  0.251227  1
  Sm  Sm1  1  0.002244  0.329233  0.748215  1
  Sm  Sm2  1  0.670767  0.997756  0.251785  1
  Sm  Sm3  1  0.330970  0.004544  0.748773  1
  Ga  Ga4  1  0.132746  0.130130  0.250229  1
  Ga  Ga5  1  0.869870  0.867254  0.749771  1
  Ga  Ga6  1  0.007117  0.338819  0.080057  1
  Ga  Ga7  1  0.001947  0.664788  0.920069  1
  Ga  Ga8  1  0.999431  0.660856  0.577165  1
  Ga  Ga9  1  0.339144  0.000570  0.422835  1
  Ga  Ga10  1  0.002094  0.339605  0.421756  1
  Ga  Ga11  1  0.660395  0.997906  0.578244  1
  Ga  Ga12  1  0.661181  0.992883  0.919943  1
  Ga  Ga13  1  0.335212  0.998054  0.079931  1
  Ga  Ga14  1  0.340648  0.340414  0.561465  1
  Ga  Ga15  1  0.659586  0.659352  0.438535  1
  Ga  Ga16  1  0.659445  0.664796  0.065532  1
  Ga  Ga17  1  0.335204  0.340555  0.934468  1
  Ga  Ga18  1  0.336982  0.550021  0.250975  1
  Ga  Ga19  1  0.665240  0.455815  0.746484  1
  Ga  Ga20  1  0.544185  0.334760  0.253516  1
  Ga  Ga21  1  0.449979  0.663018  0.749025  1
  Os  Os22  1  0.327831  0.672169  0.000000  1
  Os  Os23  1  0.327595  0.672405  0.500000  1
  Os  Os24  1  0.672850  0.327150  0.500000  1
  Pd  Pd25  1  0.671486  0.328514  0.000000  1
  Pd  Pd26  1  0.000749  0.999251  0.000000  1
  Pd  Pd27  1  0.999647  0.000353  0.500000  1
