# generated using pymatgen
data_Tm6MgP12Rh17
_symmetry_space_group_name_H-M   'P 1'
_cell_length_a   3.91994200
_cell_length_b   11.19623500
_cell_length_c   12.74926500
_cell_angle_alpha   90.00000000
_cell_angle_beta   90.00000000
_cell_angle_gamma   90.00000000
_symmetry_Int_Tables_number   1
_chemical_formula_structural   Tm6MgP12Rh17
_chemical_formula_sum   'Tm6 Mg1 P12 Rh17'
_cell_volume   559.54728757
_cell_formula_units_Z   1
loop_
 _symmetry_equiv_pos_site_id
 _symmetry_equiv_pos_as_xyz
  1  'x, y, z'
loop_
 _atom_site_type_symbol
 _atom_site_label
 _atom_site_symmetry_multiplicity
 _atom_site_fract_x
 _atom_site_fract_y
 _atom_site_fract_z
 _atom_site_occupancy
  Tm  Tm0  1  0.000000  0.500000  0.520564  1
  Tm  Tm1  1  0.500000  0.000000  0.478140  1
  Tm  Tm2  1  0.500000  0.817443  0.205868  1
  Tm  Tm3  1  0.500000  0.182557  0.205868  1
  Tm  Tm4  1  0.000000  0.683350  0.795566  1
  Tm  Tm5  1  0.000000  0.316650  0.795566  1
  Mg  Mg6  1  0.500000  0.500000  0.158245  1
  P  P7  1  0.500000  0.500000  0.878749  1
  P  P8  1  0.000000  0.000000  0.121890  1
  P  P9  1  0.500000  0.500000  0.357843  1
  P  P10  1  0.000000  0.000000  0.645112  1
  P  P11  1  0.500000  0.315834  0.619345  1
  P  P12  1  0.500000  0.684166  0.619345  1
  P  P13  1  0.000000  0.185486  0.382538  1
  P  P14  1  0.000000  0.814514  0.382538  1
  P  P15  1  0.500000  0.848150  0.890010  1
  P  P16  1  0.500000  0.151850  0.890010  1
  P  P17  1  0.000000  0.662525  0.107595  1
  P  P18  1  0.000000  0.337475  0.107595  1
  Rh  Rh19  1  0.000000  0.000000  0.827125  1
  Rh  Rh20  1  0.500000  0.500000  0.701598  1
  Rh  Rh21  1  0.000000  0.000000  0.299420  1
  Rh  Rh22  1  0.000000  0.500000  0.982786  1
  Rh  Rh23  1  0.500000  0.000000  0.022337  1
  Rh  Rh24  1  0.500000  0.331237  0.993207  1
  Rh  Rh25  1  0.500000  0.668763  0.993207  1
  Rh  Rh26  1  0.000000  0.164267  0.003548  1
  Rh  Rh27  1  0.000000  0.835733  0.003548  1
  Rh  Rh28  1  0.500000  0.290511  0.433966  1
  Rh  Rh29  1  0.500000  0.709489  0.433966  1
  Rh  Rh30  1  0.000000  0.203915  0.571450  1
  Rh  Rh31  1  0.000000  0.796085  0.571450  1
  Rh  Rh32  1  0.500000  0.872919  0.710401  1
  Rh  Rh33  1  0.500000  0.127081  0.710401  1
  Rh  Rh34  1  0.000000  0.627679  0.289601  1
  Rh  Rh35  1  0.000000  0.372321  0.289601  1
