# generated using pymatgen
data_Yb3Pa(Al8Pt3)3
_symmetry_space_group_name_H-M   'P 1'
_cell_length_a   7.52440411
_cell_length_b   7.53473842
_cell_length_c   13.27510842
_cell_angle_alpha   84.60058496
_cell_angle_beta   100.98635456
_cell_angle_gamma   119.75921149
_symmetry_Int_Tables_number   1
_chemical_formula_structural   Yb3Pa(Al8Pt3)3
_chemical_formula_sum   'Yb3 Pa1 Al24 Pt9'
_cell_volume   641.39303240
_cell_formula_units_Z   1
loop_
 _symmetry_equiv_pos_site_id
 _symmetry_equiv_pos_as_xyz
  1  'x, y, z'
loop_
 _atom_site_type_symbol
 _atom_site_label
 _atom_site_symmetry_multiplicity
 _atom_site_fract_x
 _atom_site_fract_y
 _atom_site_fract_z
 _atom_site_occupancy
  Yb  Yb0  1  0.563285  0.168788  0.192987  1
  Yb  Yb1  1  0.766984  0.500314  0.807809  1
  Yb  Yb2  1  0.232996  0.499109  0.192721  1
  Pa  Pa3  1  0.435127  0.831729  0.804693  1
  Al  Al4  1  0.481374  0.166385  0.944723  1
  Al  Al5  1  0.519321  0.834011  0.053843  1
  Al  Al6  1  0.021138  0.168334  0.560186  1
  Al  Al7  1  0.978291  0.831793  0.440048  1
  Al  Al8  1  0.354470  0.833541  0.558244  1
  Al  Al9  1  0.646710  0.167521  0.441703  1
  Al  Al10  1  0.618383  0.834900  0.330018  1
  Al  Al11  1  0.383005  0.168713  0.671837  1
  Al  Al12  1  0.052864  0.489436  0.671763  1
  Al  Al13  1  0.943691  0.506734  0.329711  1
  Al  Al14  1  0.734731  0.840076  0.669769  1
  Al  Al15  1  0.269179  0.159738  0.331173  1
  Al  Al16  1  0.147323  0.500512  0.945122  1
  Al  Al17  1  0.852108  0.500706  0.053127  1
  Al  Al18  1  0.815594  0.831948  0.952799  1
  Al  Al19  1  0.181995  0.166783  0.045200  1
  Al  Al20  1  0.314574  0.499923  0.441603  1
  Al  Al21  1  0.685165  0.498918  0.559010  1
  Al  Al22  1  0.101693  0.835196  0.182669  1
  Al  Al23  1  0.896963  0.159447  0.817643  1
  Al  Al24  1  0.303673  0.370580  0.816084  1
  Al  Al25  1  0.692684  0.630723  0.183460  1
  Al  Al26  1  0.108202  0.963440  0.817107  1
  Al  Al27  1  0.897182  0.041276  0.182982  1
  Pt  Pt28  1  0.388132  0.508671  0.639670  1
  Pt  Pt29  1  0.613147  0.493070  0.362532  1
  Pt  Pt30  1  0.170479  0.829024  0.998056  1
  Pt  Pt31  1  0.828166  0.171667  0.998303  1
  Pt  Pt32  1  0.294987  0.832841  0.363103  1
  Pt  Pt33  1  0.704500  0.165483  0.639562  1
  Pt  Pt34  1  0.048942  0.825132  0.639201  1
  Pt  Pt35  1  0.953584  0.174004  0.363690  1
  Pt  Pt36  1  0.499359  0.499536  0.997853  1
