# generated using pymatgen
data_La3Pr(In2Pt)8
_symmetry_space_group_name_H-M   'P 1'
_cell_length_a   4.62309600
_cell_length_b   7.32812130
_cell_length_c   18.71902878
_cell_angle_alpha   89.96694602
_cell_angle_beta   90.00000000
_cell_angle_gamma   90.00000000
_symmetry_Int_Tables_number   1
_chemical_formula_structural   La3Pr(In2Pt)8
_chemical_formula_sum   'La3 Pr1 In16 Pt8'
_cell_volume   634.17453807
_cell_formula_units_Z   1
loop_
 _symmetry_equiv_pos_site_id
 _symmetry_equiv_pos_as_xyz
  1  'x, y, z'
loop_
 _atom_site_type_symbol
 _atom_site_label
 _atom_site_symmetry_multiplicity
 _atom_site_fract_x
 _atom_site_fract_y
 _atom_site_fract_z
 _atom_site_occupancy
  La  La0  1  0.250000  0.020488  0.360002  1
  La  La1  1  0.250000  0.479500  0.860039  1
  La  La2  1  0.750000  0.520571  0.139987  1
  Pr  Pr3  1  0.750000  0.979538  0.639984  1
  In  In4  1  0.250000  0.268822  0.691399  1
  In  In5  1  0.750000  0.730355  0.308552  1
  In  In6  1  0.750000  0.769666  0.808336  1
  In  In7  1  0.250000  0.230366  0.191500  1
  In  In8  1  0.250000  0.679388  0.685660  1
  In  In9  1  0.750000  0.321804  0.314291  1
  In  In10  1  0.750000  0.178205  0.814085  1
  In  In11  1  0.250000  0.821749  0.185727  1
  In  In12  1  0.250000  0.151358  0.534993  1
  In  In13  1  0.750000  0.847998  0.465567  1
  In  In14  1  0.750000  0.652175  0.965220  1
  In  In15  1  0.250000  0.347841  0.034741  1
  In  In16  1  0.250000  0.493744  0.430847  1
  In  In17  1  0.750000  0.506793  0.569213  1
  In  In18  1  0.750000  0.993516  0.069235  1
  In  In19  1  0.250000  0.006366  0.930697  1
  Pt  Pt20  1  0.250000  0.757178  0.540185  1
  Pt  Pt21  1  0.750000  0.242658  0.459897  1
  Pt  Pt22  1  0.750000  0.257097  0.959776  1
  Pt  Pt23  1  0.250000  0.742843  0.040197  1
  Pt  Pt24  1  0.250000  0.970698  0.782527  1
  Pt  Pt25  1  0.750000  0.029359  0.217449  1
  Pt  Pt26  1  0.750000  0.470615  0.717322  1
  Pt  Pt27  1  0.250000  0.529309  0.282572  1
