# generated using pymatgen
data_Er3Bi4SbO14
_symmetry_space_group_name_H-M   'P 1'
_cell_length_a   6.51854703
_cell_length_b   6.71473179
_cell_length_c   7.69095858
_cell_angle_alpha   107.13478559
_cell_angle_beta   89.12542131
_cell_angle_gamma   98.83517542
_symmetry_Int_Tables_number   1
_chemical_formula_structural   Er3Bi4SbO14
_chemical_formula_sum   'Er3 Bi4 Sb1 O14'
_cell_volume   317.71626318
_cell_formula_units_Z   1
loop_
 _symmetry_equiv_pos_site_id
 _symmetry_equiv_pos_as_xyz
  1  'x, y, z'
loop_
 _atom_site_type_symbol
 _atom_site_label
 _atom_site_symmetry_multiplicity
 _atom_site_fract_x
 _atom_site_fract_y
 _atom_site_fract_z
 _atom_site_occupancy
  Er  Er0  1  0.459645  0.003029  0.256115  1
  Er  Er1  1  0.540358  0.993939  0.747580  1
  Er  Er2  1  0.261743  0.533005  0.881472  1
  Bi  Bi3  1  0.004131  0.001681  0.999035  1
  Bi  Bi4  1  0.739780  0.479747  0.117598  1
  Bi  Bi5  1  0.726674  0.463005  0.615983  1
  Bi  Bi6  1  0.262807  0.529191  0.386379  1
  Sb  Sb7  1  0.002724  0.007521  0.502372  1
  O  O8  1  0.444304  0.653249  0.166897  1
  O  O9  1  0.538776  0.342053  0.822215  1
  O  O10  1  0.306697  0.921378  0.954786  1
  O  O11  1  0.694250  0.050156  0.044513  1
  O  O12  1  0.289225  0.930184  0.519360  1
  O  O13  1  0.711887  0.074990  0.482999  1
  O  O14  1  0.530629  0.352538  0.347148  1
  O  O15  1  0.456247  0.645014  0.661031  1
  O  O16  1  0.934820  0.664058  0.944697  1
  O  O17  1  0.090857  0.330942  0.045277  1
  O  O18  1  0.091404  0.314151  0.631202  1
  O  O19  1  0.910611  0.700343  0.372050  1
  O  O20  1  0.885575  0.937138  0.724334  1
  O  O21  1  0.116857  0.072687  0.276957  1
