# generated using pymatgen
data_Pr2Er4ScCo17P12
_symmetry_space_group_name_H-M   'P 1'
_cell_length_a   3.71861400
_cell_length_b   10.60749300
_cell_length_c   12.30377100
_cell_angle_alpha   90.00000000
_cell_angle_beta   90.00000000
_cell_angle_gamma   90.00000000
_symmetry_Int_Tables_number   1
_chemical_formula_structural   Pr2Er4ScCo17P12
_chemical_formula_sum   'Pr2 Er4 Sc1 Co17 P12'
_cell_volume   485.32436303
_cell_formula_units_Z   1
loop_
 _symmetry_equiv_pos_site_id
 _symmetry_equiv_pos_as_xyz
  1  'x, y, z'
loop_
 _atom_site_type_symbol
 _atom_site_label
 _atom_site_symmetry_multiplicity
 _atom_site_fract_x
 _atom_site_fract_y
 _atom_site_fract_z
 _atom_site_occupancy
  Pr  Pr0  1  0.750000  0.250000  0.471196  1
  Pr  Pr1  1  0.250000  0.750000  0.523249  1
  Er  Er2  1  0.250000  0.928088  0.794085  1
  Er  Er3  1  0.250000  0.571912  0.794085  1
  Er  Er4  1  0.750000  0.067574  0.202895  1
  Er  Er5  1  0.750000  0.432426  0.202895  1
  Sc  Sc6  1  0.250000  0.250000  0.850330  1
  Co  Co7  1  0.750000  0.750000  0.160266  1
  Co  Co8  1  0.250000  0.250000  0.291604  1
  Co  Co9  1  0.750000  0.750000  0.708742  1
  Co  Co10  1  0.750000  0.250000  0.015314  1
  Co  Co11  1  0.250000  0.750000  0.987401  1
  Co  Co12  1  0.250000  0.423660  0.009751  1
  Co  Co13  1  0.250000  0.076340  0.009751  1
  Co  Co14  1  0.750000  0.587448  0.998505  1
  Co  Co15  1  0.750000  0.912552  0.998505  1
  Co  Co16  1  0.250000  0.455254  0.567722  1
  Co  Co17  1  0.250000  0.044746  0.567722  1
  Co  Co18  1  0.750000  0.547227  0.427598  1
  Co  Co19  1  0.750000  0.952773  0.427598  1
  Co  Co20  1  0.250000  0.869528  0.288886  1
  Co  Co21  1  0.250000  0.630472  0.288886  1
  Co  Co22  1  0.750000  0.127367  0.708011  1
  Co  Co23  1  0.750000  0.372633  0.708011  1
  P  P24  1  0.250000  0.250000  0.115310  1
  P  P25  1  0.750000  0.750000  0.885410  1
  P  P26  1  0.250000  0.250000  0.646895  1
  P  P27  1  0.750000  0.750000  0.340581  1
  P  P28  1  0.250000  0.444337  0.379709  1
  P  P29  1  0.250000  0.055663  0.379709  1
  P  P30  1  0.750000  0.557467  0.616314  1
  P  P31  1  0.750000  0.942533  0.616314  1
  P  P32  1  0.250000  0.899348  0.110235  1
  P  P33  1  0.250000  0.600652  0.110235  1
  P  P34  1  0.750000  0.086114  0.898140  1
  P  P35  1  0.750000  0.413886  0.898140  1
