# generated using pymatgen
data_DyHoSc4MnBi2
_symmetry_space_group_name_H-M   'P 1'
_cell_length_a   7.85436940
_cell_length_b   7.90835591
_cell_length_c   4.18727300
_cell_angle_alpha   90.00000000
_cell_angle_beta   90.00000000
_cell_angle_gamma   120.21988419
_symmetry_Int_Tables_number   1
_chemical_formula_structural   DyHoSc4MnBi2
_chemical_formula_sum   'Dy1 Ho1 Sc4 Mn1 Bi2'
_cell_volume   224.74648146
_cell_formula_units_Z   1
loop_
 _symmetry_equiv_pos_site_id
 _symmetry_equiv_pos_as_xyz
  1  'x, y, z'
loop_
 _atom_site_type_symbol
 _atom_site_label
 _atom_site_symmetry_multiplicity
 _atom_site_fract_x
 _atom_site_fract_y
 _atom_site_fract_z
 _atom_site_occupancy
  Dy  Dy0  1  0.389477  0.390055  0.500000  1
  Ho  Ho1  1  0.610894  0.000634  0.500000  1
  Sc  Sc2  1  0.224954  0.996837  0.000000  1
  Sc  Sc3  1  0.000065  0.618224  0.500000  1
  Sc  Sc4  1  0.774967  0.771999  0.000000  1
  Sc  Sc5  1  0.999795  0.222692  0.000000  1
  Mn  Mn6  1  0.999692  0.995112  0.500000  1
  Bi  Bi7  1  0.322548  0.663680  0.000000  1
  Bi  Bi8  1  0.677608  0.340768  0.000000  1
