# generated using pymatgen
data_BaSr7Fe7OsO24
_symmetry_space_group_name_H-M   'P 1'
_cell_length_a   7.93989927
_cell_length_b   7.93989895
_cell_length_c   7.93989759
_cell_angle_alpha   89.95600963
_cell_angle_beta   89.95601312
_cell_angle_gamma   89.95601049
_symmetry_Int_Tables_number   1
_chemical_formula_structural   BaSr7Fe7OsO24
_chemical_formula_sum   'Ba1 Sr7 Fe7 Os1 O24'
_cell_volume   500.54656452
_cell_formula_units_Z   1
loop_
 _symmetry_equiv_pos_site_id
 _symmetry_equiv_pos_as_xyz
  1  'x, y, z'
loop_
 _atom_site_type_symbol
 _atom_site_label
 _atom_site_symmetry_multiplicity
 _atom_site_fract_x
 _atom_site_fract_y
 _atom_site_fract_z
 _atom_site_occupancy
  Ba  Ba0  1  0.756238  0.756238  0.756238  1
  Sr  Sr1  1  0.762150  0.238840  0.762150  1
  Sr  Sr2  1  0.761844  0.238989  0.238989  1
  Sr  Sr3  1  0.762150  0.762150  0.238840  1
  Sr  Sr4  1  0.238989  0.238989  0.761844  1
  Sr  Sr5  1  0.238293  0.238293  0.238293  1
  Sr  Sr6  1  0.238840  0.762150  0.762150  1
  Sr  Sr7  1  0.238989  0.761844  0.238989  1
  Fe  Fe8  1  0.499225  0.001419  0.001419  1
  Fe  Fe9  1  0.499190  0.001111  0.499190  1
  Fe  Fe10  1  0.499190  0.499190  0.001111  1
  Fe  Fe11  1  0.000675  0.000675  0.000675  1
  Fe  Fe12  1  0.001419  0.001419  0.499225  1
  Fe  Fe13  1  0.001419  0.499225  0.001419  1
  Fe  Fe14  1  0.001111  0.499190  0.499190  1
  Os  Os15  1  0.498190  0.498190  0.498190  1
  O  O16  1  0.749342  0.003907  0.003907  1
  O  O17  1  0.745272  0.004478  0.496329  1
  O  O18  1  0.745272  0.496329  0.004478  1
  O  O19  1  0.735035  0.497939  0.497939  1
  O  O20  1  0.250649  0.000893  0.000893  1
  O  O21  1  0.254831  0.000796  0.498802  1
  O  O22  1  0.254831  0.498802  0.000796  1
  O  O23  1  0.263179  0.498693  0.498693  1
  O  O24  1  0.498802  0.254831  0.000796  1
  O  O25  1  0.498693  0.263179  0.498693  1
  O  O26  1  0.496329  0.745272  0.004478  1
  O  O27  1  0.497939  0.735035  0.497939  1
  O  O28  1  0.000893  0.250649  0.000893  1
  O  O29  1  0.000796  0.254831  0.498802  1
  O  O30  1  0.003907  0.749342  0.003907  1
  O  O31  1  0.004478  0.745272  0.496329  1
  O  O32  1  0.496329  0.004478  0.745272  1
  O  O33  1  0.498802  0.000796  0.254831  1
  O  O34  1  0.497939  0.497939  0.735035  1
  O  O35  1  0.498693  0.498693  0.263179  1
  O  O36  1  0.003907  0.003907  0.749342  1
  O  O37  1  0.000893  0.000893  0.250649  1
  O  O38  1  0.004478  0.496329  0.745272  1
  O  O39  1  0.000796  0.498802  0.254831  1
