# generated using pymatgen
data_Tb2HoTm(ReB6)2
_symmetry_space_group_name_H-M   'P 1'
_cell_length_a   3.67547300
_cell_length_b   9.15928905
_cell_length_c   11.55411407
_cell_angle_alpha   90.01240774
_cell_angle_beta   90.00000000
_cell_angle_gamma   90.00000000
_symmetry_Int_Tables_number   1
_chemical_formula_structural   Tb2HoTm(ReB6)2
_chemical_formula_sum   'Tb4 Ho2 Tm2 Re4 B24'
_cell_volume   388.96600138
_cell_formula_units_Z   2
loop_
 _symmetry_equiv_pos_site_id
 _symmetry_equiv_pos_as_xyz
  1  'x, y, z'
loop_
 _atom_site_type_symbol
 _atom_site_label
 _atom_site_symmetry_multiplicity
 _atom_site_fract_x
 _atom_site_fract_y
 _atom_site_fract_z
 _atom_site_occupancy
  Tb  Tb0  1  0.000000  0.323482  0.413890  1
  Tb  Tb1  1  0.000000  0.676518  0.586110  1
  Tb  Tb2  1  0.000000  0.823126  0.085933  1
  Tb  Tb3  1  0.000000  0.176874  0.914067  1
  Ho  Ho4  1  0.000000  0.943190  0.369879  1
  Ho  Ho5  1  0.000000  0.056810  0.630121  1
  Tm  Tm6  1  0.000000  0.443251  0.129834  1
  Tm  Tm7  1  0.000000  0.556749  0.870166  1
  Re  Re8  1  0.000000  0.638491  0.319903  1
  Re  Re9  1  0.000000  0.361509  0.680097  1
  Re  Re10  1  0.000000  0.139645  0.179442  1
  Re  Re11  1  0.000000  0.860355  0.820558  1
  B  B12  1  0.500000  0.553492  0.432359  1
  B  B13  1  0.500000  0.446508  0.567641  1
  B  B14  1  0.500000  0.053800  0.067465  1
  B  B15  1  0.500000  0.946200  0.932535  1
  B  B16  1  0.500000  0.749356  0.417999  1
  B  B17  1  0.500000  0.250644  0.582001  1
  B  B18  1  0.500000  0.250342  0.081848  1
  B  B19  1  0.500000  0.749658  0.918152  1
  B  B20  1  0.500000  0.791913  0.265332  1
  B  B21  1  0.500000  0.208087  0.734668  1
  B  B22  1  0.500000  0.292848  0.234300  1
  B  B23  1  0.500000  0.707152  0.765700  1
  B  B24  1  0.500000  0.630033  0.185110  1
  B  B25  1  0.500000  0.369967  0.814890  1
  B  B26  1  0.500000  0.130891  0.314301  1
  B  B27  1  0.500000  0.869109  0.685699  1
  B  B28  1  0.500000  0.982664  0.212106  1
  B  B29  1  0.500000  0.017336  0.787894  1
  B  B30  1  0.500000  0.482126  0.287308  1
  B  B31  1  0.500000  0.517874  0.712692  1
  B  B32  1  0.500000  0.598154  0.027344  1
  B  B33  1  0.500000  0.401846  0.972656  1
  B  B34  1  0.500000  0.099266  0.472404  1
  B  B35  1  0.500000  0.900734  0.527596  1
