# generated using pymatgen
data_NaYb(AgTe2)4
_symmetry_space_group_name_H-M   'P 1'
_cell_length_a   12.01055058
_cell_length_b   12.01055055
_cell_length_c   11.00282800
_cell_angle_alpha   90.13345834
_cell_angle_beta   90.13345834
_cell_angle_gamma   14.87961710
_symmetry_Int_Tables_number   1
_chemical_formula_structural   NaYb(AgTe2)4
_chemical_formula_sum   'Na1 Yb1 Ag4 Te8'
_cell_volume   407.57295348
_cell_formula_units_Z   1
loop_
 _symmetry_equiv_pos_site_id
 _symmetry_equiv_pos_as_xyz
  1  'x, y, z'
loop_
 _atom_site_type_symbol
 _atom_site_label
 _atom_site_symmetry_multiplicity
 _atom_site_fract_x
 _atom_site_fract_y
 _atom_site_fract_z
 _atom_site_occupancy
  Na  Na0  1  0.000000  0.000000  0.000000  1
  Yb  Yb1  1  0.500000  0.500000  0.500000  1
  Ag  Ag2  1  0.248859  0.248859  0.123564  1
  Ag  Ag3  1  0.871844  0.871844  0.406123  1
  Ag  Ag4  1  0.128156  0.128156  0.593877  1
  Ag  Ag5  1  0.751141  0.751141  0.876436  1
  Te  Te6  1  0.909458  0.909458  0.644943  1
  Te  Te7  1  0.090542  0.090542  0.355057  1
  Te  Te8  1  0.558940  0.558940  0.782024  1
  Te  Te9  1  0.441060  0.441060  0.217976  1
  Te  Te10  1  0.647020  0.647020  0.007086  1
  Te  Te11  1  0.352980  0.352980  0.992914  1
  Te  Te12  1  0.758326  0.758326  0.348966  1
  Te  Te13  1  0.241674  0.241674  0.651034  1
