# generated using pymatgen
data_Ho2Tc14(GeC)3
_symmetry_space_group_name_H-M   'P 1'
_cell_length_a   6.94156985
_cell_length_b   6.94157046
_cell_length_c   6.94156931
_cell_angle_alpha   82.21918179
_cell_angle_beta   82.21917918
_cell_angle_gamma   82.21918420
_symmetry_Int_Tables_number   1
_chemical_formula_structural   Ho2Tc14(GeC)3
_chemical_formula_sum   'Ho2 Tc14 Ge3 C3'
_cell_volume   326.00894823
_cell_formula_units_Z   1
loop_
 _symmetry_equiv_pos_site_id
 _symmetry_equiv_pos_as_xyz
  1  'x, y, z'
loop_
 _atom_site_type_symbol
 _atom_site_label
 _atom_site_symmetry_multiplicity
 _atom_site_fract_x
 _atom_site_fract_y
 _atom_site_fract_z
 _atom_site_occupancy
  Ho  Ho0  1  0.652099  0.652099  0.652099  1
  Ho  Ho1  1  0.347901  0.347901  0.347901  1
  Tc  Tc2  1  0.722439  0.277561  0.000000  1
  Tc  Tc3  1  0.000000  0.722439  0.277561  1
  Tc  Tc4  1  0.277561  0.000000  0.722439  1
  Tc  Tc5  1  0.000000  0.277561  0.722439  1
  Tc  Tc6  1  0.722439  0.000000  0.277561  1
  Tc  Tc7  1  0.277561  0.722439  0.000000  1
  Tc  Tc8  1  0.349873  0.852726  0.349873  1
  Tc  Tc9  1  0.349873  0.349873  0.852726  1
  Tc  Tc10  1  0.852726  0.349873  0.349873  1
  Tc  Tc11  1  0.650127  0.147274  0.650127  1
  Tc  Tc12  1  0.650127  0.650127  0.147274  1
  Tc  Tc13  1  0.147274  0.650127  0.650127  1
  Tc  Tc14  1  0.902852  0.902852  0.902852  1
  Tc  Tc15  1  0.097148  0.097148  0.097148  1
  Ge  Ge16  1  0.000000  0.000000  0.500000  1
  Ge  Ge17  1  0.500000  0.000000  0.000000  1
  Ge  Ge18  1  0.000000  0.500000  0.000000  1
  C  C19  1  0.500000  0.500000  0.000000  1
  C  C20  1  0.000000  0.500000  0.500000  1
  C  C21  1  0.500000  0.000000  0.500000  1
