# generated using pymatgen
data_Pr6Nd6Co(PtBr4)3
_symmetry_space_group_name_H-M   'P 1'
_cell_length_a   10.50121872
_cell_length_b   10.49490040
_cell_length_c   10.49452045
_cell_angle_alpha   109.26568862
_cell_angle_beta   109.24599494
_cell_angle_gamma   109.22430188
_symmetry_Int_Tables_number   1
_chemical_formula_structural   Pr6Nd6Co(PtBr4)3
_chemical_formula_sum   'Pr6 Nd6 Co1 Pt3 Br12'
_cell_volume   897.71488323
_cell_formula_units_Z   1
loop_
 _symmetry_equiv_pos_site_id
 _symmetry_equiv_pos_as_xyz
  1  'x, y, z'
loop_
 _atom_site_type_symbol
 _atom_site_label
 _atom_site_symmetry_multiplicity
 _atom_site_fract_x
 _atom_site_fract_y
 _atom_site_fract_z
 _atom_site_occupancy
  Pr  Pr0  1  0.022305  0.032737  0.260698  1
  Pr  Pr1  1  0.486483  0.750367  0.014385  1
  Pr  Pr2  1  0.477623  0.239424  0.467521  1
  Pr  Pr3  1  0.013549  0.485904  0.749765  1
  Pr  Pr4  1  0.260755  0.023066  0.032603  1
  Pr  Pr5  1  0.236787  0.263132  0.750092  1
  Nd  Nd6  1  0.466188  0.476871  0.239196  1
  Nd  Nd7  1  0.750272  0.236491  0.263869  1
  Nd  Nd8  1  0.749758  0.014297  0.485490  1
  Nd  Nd9  1  0.238861  0.466293  0.475969  1
  Nd  Nd10  1  0.263698  0.749659  0.236506  1
  Nd  Nd11  1  0.033791  0.261383  0.023854  1
  Co  Co12  1  0.249995  0.250901  0.249990  1
  Pt  Pt13  1  0.499915  0.000542  0.250588  1
  Pt  Pt14  1  0.000106  0.250154  0.499005  1
  Pt  Pt15  1  0.249932  0.499423  0.001701  1
  Br  Br16  1  0.250023  0.752975  0.745802  1
  Br  Br17  1  0.509164  0.505287  0.753884  1
  Br  Br18  1  0.990886  0.745281  0.995936  1
  Br  Br19  1  0.746991  0.248916  0.753368  1
  Br  Br20  1  0.993986  0.990883  0.745317  1
  Br  Br21  1  0.249991  0.993668  0.504597  1
  Br  Br22  1  0.753842  0.509232  0.503116  1
  Br  Br23  1  0.506445  0.250991  0.996410  1
  Br  Br24  1  0.753023  0.746644  0.251120  1
  Br  Br25  1  0.746138  0.996914  0.990796  1
  Br  Br26  1  0.995404  0.504713  0.250076  1
  Br  Br27  1  0.504091  0.753853  0.508344  1
