# generated using pymatgen
data_K2Te3PdO12
_symmetry_space_group_name_H-M   'P 1'
_cell_length_a   7.14583742
_cell_length_b   7.14583760
_cell_length_c   7.14612084
_cell_angle_alpha   61.48636693
_cell_angle_beta   61.48636609
_cell_angle_gamma   61.48753331
_symmetry_Int_Tables_number   1
_chemical_formula_structural   K2Te3PdO12
_chemical_formula_sum   'K2 Te3 Pd1 O12'
_cell_volume   266.63699002
_cell_formula_units_Z   1
loop_
 _symmetry_equiv_pos_site_id
 _symmetry_equiv_pos_as_xyz
  1  'x, y, z'
loop_
 _atom_site_type_symbol
 _atom_site_label
 _atom_site_symmetry_multiplicity
 _atom_site_fract_x
 _atom_site_fract_y
 _atom_site_fract_z
 _atom_site_occupancy
  K  K0  1  0.846059  0.890964  0.376806  1
  K  K1  1  0.109036  0.153941  0.623194  1
  Te  Te2  1  0.998107  0.502710  0.000314  1
  Te  Te3  1  0.497290  0.001893  0.999686  1
  Te  Te4  1  0.497686  0.502314  0.500000  1
  Pd  Pd5  1  0.497412  0.502588  0.000000  1
  O  O6  1  0.174551  0.179088  0.073723  1
  O  O7  1  0.582124  0.580742  0.664334  1
  O  O8  1  0.161737  0.582108  0.084609  1
  O  O9  1  0.572557  0.178958  0.676606  1
  O  O10  1  0.579149  0.166804  0.080185  1
  O  O11  1  0.175232  0.575239  0.677336  1
  O  O12  1  0.820912  0.825449  0.926277  1
  O  O13  1  0.419258  0.417876  0.335666  1
  O  O14  1  0.833196  0.420851  0.919815  1
  O  O15  1  0.424761  0.824768  0.322664  1
  O  O16  1  0.417892  0.838263  0.915391  1
  O  O17  1  0.821042  0.427443  0.323394  1
