# generated using pymatgen
data_YbYU4(Cu3Sb4)2
_symmetry_space_group_name_H-M   'P 1'
_cell_length_a   8.32479941
_cell_length_b   8.32479949
_cell_length_c   8.32479978
_cell_angle_alpha   109.78269249
_cell_angle_beta   108.85005473
_cell_angle_gamma   109.78269427
_symmetry_Int_Tables_number   1
_chemical_formula_structural   YbYU4(Cu3Sb4)2
_chemical_formula_sum   'Yb1 Y1 U4 Cu6 Sb8'
_cell_volume   444.08001883
_cell_formula_units_Z   1
loop_
 _symmetry_equiv_pos_site_id
 _symmetry_equiv_pos_as_xyz
  1  'x, y, z'
loop_
 _atom_site_type_symbol
 _atom_site_label
 _atom_site_symmetry_multiplicity
 _atom_site_fract_x
 _atom_site_fract_y
 _atom_site_fract_z
 _atom_site_occupancy
  Yb  Yb0  1  0.625000  0.750000  0.375000  1
  Y  Y1  1  0.875000  0.250000  0.125000  1
  U  U2  1  0.251154  0.123767  0.874640  1
  U  U3  1  0.750873  0.376233  0.627387  1
  U  U4  1  0.125360  0.876514  0.249127  1
  U  U5  1  0.372613  0.623486  0.748846  1
  Cu  Cu6  1  0.375000  0.250000  0.625000  1
  Cu  Cu7  1  0.125000  0.750000  0.875000  1
  Cu  Cu8  1  0.253872  0.621646  0.371075  1
  Cu  Cu9  1  0.749429  0.878354  0.132226  1
  Cu  Cu10  1  0.628925  0.382797  0.250571  1
  Cu  Cu11  1  0.867774  0.117203  0.746128  1
  Sb  Sb12  1  0.665466  0.503381  0.000893  1
  Sb  Sb13  1  0.497512  0.996619  0.662085  1
  Sb  Sb14  1  0.002838  0.662940  0.498134  1
  Sb  Sb15  1  0.835195  0.837060  0.839898  1
  Sb  Sb16  1  0.501866  0.004704  0.164805  1
  Sb  Sb17  1  0.160102  0.495296  0.997162  1
  Sb  Sb18  1  0.999107  0.164573  0.502488  1
  Sb  Sb19  1  0.337915  0.335427  0.334534  1
