# generated using pymatgen
data_Zr10ZnSiSb6
_symmetry_space_group_name_H-M   'P 1'
_cell_length_a   8.66857100
_cell_length_b   8.66857101
_cell_length_c   5.86793600
_cell_angle_alpha   90.00000000
_cell_angle_beta   90.00000000
_cell_angle_gamma   119.99999615
_symmetry_Int_Tables_number   1
_chemical_formula_structural   Zr10ZnSiSb6
_chemical_formula_sum   'Zr10 Zn1 Si1 Sb6'
_cell_volume   381.86604106
_cell_formula_units_Z   1
loop_
 _symmetry_equiv_pos_site_id
 _symmetry_equiv_pos_as_xyz
  1  'x, y, z'
loop_
 _atom_site_type_symbol
 _atom_site_label
 _atom_site_symmetry_multiplicity
 _atom_site_fract_x
 _atom_site_fract_y
 _atom_site_fract_z
 _atom_site_occupancy
  Zr  Zr0  1  0.264063  0.000000  0.255406  1
  Zr  Zr1  1  0.264063  0.264063  0.744594  1
  Zr  Zr2  1  0.000000  0.735937  0.744594  1
  Zr  Zr3  1  0.000000  0.264063  0.255406  1
  Zr  Zr4  1  0.735937  0.735937  0.255406  1
  Zr  Zr5  1  0.735937  0.000000  0.744594  1
  Zr  Zr6  1  0.333333  0.666667  0.000000  1
  Zr  Zr7  1  0.666667  0.333333  0.500000  1
  Zr  Zr8  1  0.666667  0.333333  0.000000  1
  Zr  Zr9  1  0.333333  0.666667  0.500000  1
  Zn  Zn10  1  0.000000  0.000000  0.000000  1
  Si  Si11  1  0.000000  0.000000  0.500000  1
  Sb  Sb12  1  0.609298  0.000000  0.247233  1
  Sb  Sb13  1  0.609298  0.609298  0.752767  1
  Sb  Sb14  1  0.000000  0.390702  0.752767  1
  Sb  Sb15  1  0.000000  0.609298  0.247233  1
  Sb  Sb16  1  0.390702  0.390702  0.247233  1
  Sb  Sb17  1  0.390702  0.000000  0.752767  1
