# generated using pymatgen
data_Sm8Tc13B12
_symmetry_space_group_name_H-M   'P 1'
_cell_length_a   7.83406361
_cell_length_b   7.83406590
_cell_length_c   7.83406361
_cell_angle_alpha   86.13887667
_cell_angle_beta   86.13888065
_cell_angle_gamma   86.13888512
_symmetry_Int_Tables_number   1
_chemical_formula_structural   Sm8Tc13B12
_chemical_formula_sum   'Sm8 Tc13 B12'
_cell_volume   477.66300230
_cell_formula_units_Z   1
loop_
 _symmetry_equiv_pos_site_id
 _symmetry_equiv_pos_as_xyz
  1  'x, y, z'
loop_
 _atom_site_type_symbol
 _atom_site_label
 _atom_site_symmetry_multiplicity
 _atom_site_fract_x
 _atom_site_fract_y
 _atom_site_fract_z
 _atom_site_occupancy
  Sm  Sm0  1  0.642693  0.642693  0.642693  1
  Sm  Sm1  1  0.357307  0.357307  0.357307  1
  Sm  Sm2  1  0.186031  0.186031  0.686561  1
  Sm  Sm3  1  0.686561  0.186031  0.186031  1
  Sm  Sm4  1  0.186031  0.686561  0.186031  1
  Sm  Sm5  1  0.813969  0.813969  0.313439  1
  Sm  Sm6  1  0.313439  0.813969  0.813969  1
  Sm  Sm7  1  0.813969  0.313439  0.813969  1
  Tc  Tc8  1  0.000000  0.000000  0.000000  1
  Tc  Tc9  1  0.595163  0.065071  0.595163  1
  Tc  Tc10  1  0.595163  0.595163  0.065071  1
  Tc  Tc11  1  0.065071  0.595163  0.595163  1
  Tc  Tc12  1  0.404837  0.934929  0.404837  1
  Tc  Tc13  1  0.404837  0.404837  0.934929  1
  Tc  Tc14  1  0.934929  0.404837  0.404837  1
  Tc  Tc15  1  0.922325  0.922325  0.671182  1
  Tc  Tc16  1  0.671182  0.922325  0.922325  1
  Tc  Tc17  1  0.922325  0.671182  0.922325  1
  Tc  Tc18  1  0.077675  0.077675  0.328818  1
  Tc  Tc19  1  0.328818  0.077675  0.077675  1
  Tc  Tc20  1  0.077675  0.328818  0.077675  1
  B  B21  1  0.152049  0.847951  0.500000  1
  B  B22  1  0.500000  0.152049  0.847951  1
  B  B23  1  0.847951  0.500000  0.152049  1
  B  B24  1  0.500000  0.847951  0.152049  1
  B  B25  1  0.152049  0.500000  0.847951  1
  B  B26  1  0.847951  0.152049  0.500000  1
  B  B27  1  0.671905  0.500000  0.328095  1
  B  B28  1  0.328095  0.671905  0.500000  1
  B  B29  1  0.500000  0.328095  0.671905  1
  B  B30  1  0.328095  0.500000  0.671905  1
  B  B31  1  0.671905  0.328095  0.500000  1
  B  B32  1  0.500000  0.671905  0.328095  1
