# generated using pymatgen
data_DyEr9Si5Bi
_symmetry_space_group_name_H-M   'P 1'
_cell_length_a   8.46546900
_cell_length_b   8.50858970
_cell_length_c   6.29025200
_cell_angle_alpha   90.00000000
_cell_angle_beta   90.00000000
_cell_angle_gamma   119.83249241
_symmetry_Int_Tables_number   1
_chemical_formula_structural   DyEr9Si5Bi
_chemical_formula_sum   'Dy1 Er9 Si5 Bi1'
_cell_volume   393.04100599
_cell_formula_units_Z   1
loop_
 _symmetry_equiv_pos_site_id
 _symmetry_equiv_pos_as_xyz
  1  'x, y, z'
loop_
 _atom_site_type_symbol
 _atom_site_label
 _atom_site_symmetry_multiplicity
 _atom_site_fract_x
 _atom_site_fract_y
 _atom_site_fract_z
 _atom_site_occupancy
  Dy  Dy0  1  0.240012  0.000000  0.250000  1
  Er  Er1  1  0.984709  0.744896  0.750000  1
  Er  Er2  1  0.998364  0.243271  0.250000  1
  Er  Er3  1  0.755093  0.756729  0.250000  1
  Er  Er4  1  0.768079  0.000000  0.750000  1
  Er  Er5  1  0.239813  0.255104  0.750000  1
  Er  Er6  1  0.676819  0.346024  0.005152  1
  Er  Er7  1  0.330793  0.653976  0.494848  1
  Er  Er8  1  0.330793  0.653976  0.005152  1
  Er  Er9  1  0.676819  0.346024  0.494848  1
  Si  Si10  1  0.393327  0.390946  0.250000  1
  Si  Si11  1  0.002381  0.609054  0.250000  1
  Si  Si12  1  0.998605  0.394472  0.750000  1
  Si  Si13  1  0.604133  0.605528  0.750000  1
  Si  Si14  1  0.607087  0.000000  0.250000  1
  Bi  Bi15  1  0.393169  0.000000  0.750000  1
