# generated using pymatgen
data_Ho8Lu4InCo4Rh
_symmetry_space_group_name_H-M   'P 1'
_cell_length_a   8.22251656
_cell_length_b   8.22247446
_cell_length_c   8.22251776
_cell_angle_alpha   110.98619272
_cell_angle_beta   110.64345376
_cell_angle_gamma   106.81657712
_symmetry_Int_Tables_number   1
_chemical_formula_structural   Ho8Lu4InCo4Rh
_chemical_formula_sum   'Ho8 Lu4 In1 Co4 Rh1'
_cell_volume   427.25717889
_cell_formula_units_Z   1
loop_
 _symmetry_equiv_pos_site_id
 _symmetry_equiv_pos_as_xyz
  1  'x, y, z'
loop_
 _atom_site_type_symbol
 _atom_site_label
 _atom_site_symmetry_multiplicity
 _atom_site_fract_x
 _atom_site_fract_y
 _atom_site_fract_z
 _atom_site_occupancy
  Ho  Ho0  1  0.186079  0.289570  0.475647  1
  Ho  Ho1  1  0.813921  0.710430  0.524353  1
  Ho  Ho2  1  0.186078  0.710430  0.896510  1
  Ho  Ho3  1  0.813922  0.289570  0.103490  1
  Ho  Ho4  1  0.410476  0.215230  0.195242  1
  Ho  Ho5  1  0.589524  0.784770  0.804758  1
  Ho  Ho6  1  0.019988  0.215230  0.804755  1
  Ho  Ho7  1  0.980012  0.784770  0.195245  1
  Lu  Lu8  1  0.315074  0.621405  0.306330  1
  Lu  Lu9  1  0.684926  0.378595  0.693670  1
  Lu  Lu10  1  0.315076  0.008752  0.693677  1
  Lu  Lu11  1  0.684924  0.991248  0.306323  1
  In  In12  1  0.500000  0.500000  0.000000  1
  Co  Co13  1  0.112959  0.612960  0.500002  1
  Co  Co14  1  0.887041  0.387040  0.499998  1
  Co  Co15  1  0.379333  0.000000  0.379333  1
  Co  Co16  1  0.620667  0.000000  0.620667  1
  Rh  Rh17  1  0.000000  0.000000  0.000000  1
