# generated using pymatgen
data_Dy5Ho11(TmPb4)4
_symmetry_space_group_name_H-M   'P 1'
_cell_length_a   8.14831604
_cell_length_b   8.23333202
_cell_length_c   15.57565700
_cell_angle_alpha   90.00338208
_cell_angle_beta   89.99447315
_cell_angle_gamma   89.99776649
_symmetry_Int_Tables_number   1
_chemical_formula_structural   Dy5Ho11(TmPb4)4
_chemical_formula_sum   'Dy5 Ho11 Tm4 Pb16'
_cell_volume   1044.93641946
_cell_formula_units_Z   1
loop_
 _symmetry_equiv_pos_site_id
 _symmetry_equiv_pos_as_xyz
  1  'x, y, z'
loop_
 _atom_site_type_symbol
 _atom_site_label
 _atom_site_symmetry_multiplicity
 _atom_site_fract_x
 _atom_site_fract_y
 _atom_site_fract_z
 _atom_site_occupancy
  Dy  Dy0  1  0.963821  0.823615  0.099747  1
  Dy  Dy1  1  0.463860  0.676372  0.099657  1
  Dy  Dy2  1  0.963836  0.823585  0.400276  1
  Dy  Dy3  1  0.536133  0.323619  0.599759  1
  Dy  Dy4  1  0.036125  0.176411  0.900206  1
  Ho  Ho5  1  0.376617  0.841715  0.878919  1
  Ho  Ho6  1  0.876666  0.658368  0.621105  1
  Ho  Ho7  1  0.623367  0.158332  0.379108  1
  Ho  Ho8  1  0.123355  0.341640  0.120942  1
  Ho  Ho9  1  0.623382  0.158344  0.120880  1
  Ho  Ho10  1  0.123401  0.341666  0.379126  1
  Ho  Ho11  1  0.376639  0.841698  0.621008  1
  Ho  Ho12  1  0.876571  0.658298  0.878859  1
  Ho  Ho13  1  0.536262  0.323680  0.900106  1
  Ho  Ho14  1  0.036282  0.176320  0.599911  1
  Ho  Ho15  1  0.463694  0.676296  0.400279  1
  Tm  Tm16  1  0.208467  0.504526  0.750003  1
  Tm  Tm17  1  0.708425  0.995459  0.749976  1
  Tm  Tm18  1  0.791520  0.495492  0.250039  1
  Tm  Tm19  1  0.291606  0.004540  0.250029  1
  Pb  Pb20  1  0.281497  0.033114  0.043285  1
  Pb  Pb21  1  0.781299  0.467165  0.456669  1
  Pb  Pb22  1  0.718775  0.967050  0.543504  1
  Pb  Pb23  1  0.218638  0.532914  0.956415  1
  Pb  Pb24  1  0.718289  0.967001  0.956471  1
  Pb  Pb25  1  0.218427  0.533104  0.543396  1
  Pb  Pb26  1  0.281471  0.033086  0.456839  1
  Pb  Pb27  1  0.781466  0.466766  0.043156  1
  Pb  Pb28  1  0.571138  0.626041  0.749961  1
  Pb  Pb29  1  0.071337  0.873855  0.750002  1
  Pb  Pb30  1  0.428848  0.373923  0.250005  1
  Pb  Pb31  1  0.928652  0.126167  0.250063  1
  Pb  Pb32  1  0.347982  0.154883  0.750158  1
  Pb  Pb33  1  0.848042  0.345211  0.749816  1
  Pb  Pb34  1  0.651946  0.845131  0.250217  1
  Pb  Pb35  1  0.152166  0.654614  0.250108  1
