# generated using pymatgen
data_Li3Pr3Si2Pb
_symmetry_space_group_name_H-M   'P 1'
_cell_length_a   7.40308500
_cell_length_b   7.40308453
_cell_length_c   4.49397700
_cell_angle_alpha   90.00000000
_cell_angle_beta   90.00000000
_cell_angle_gamma   119.99998869
_symmetry_Int_Tables_number   1
_chemical_formula_structural   Li3Pr3Si2Pb
_chemical_formula_sum   'Li3 Pr3 Si2 Pb1'
_cell_volume   213.29809205
_cell_formula_units_Z   1
loop_
 _symmetry_equiv_pos_site_id
 _symmetry_equiv_pos_as_xyz
  1  'x, y, z'
loop_
 _atom_site_type_symbol
 _atom_site_label
 _atom_site_symmetry_multiplicity
 _atom_site_fract_x
 _atom_site_fract_y
 _atom_site_fract_z
 _atom_site_occupancy
  Li  Li0  1  0.245321  0.000000  0.500000  1
  Li  Li1  1  0.754679  0.754679  0.500000  1
  Li  Li2  1  0.000000  0.245321  0.500000  1
  Pr  Pr3  1  0.000000  0.559513  0.000000  1
  Pr  Pr4  1  0.559513  0.000000  0.000000  1
  Pr  Pr5  1  0.440487  0.440487  0.000000  1
  Si  Si6  1  0.333333  0.666667  0.500000  1
  Si  Si7  1  0.666667  0.333333  0.500000  1
  Pb  Pb8  1  0.000000  0.000000  0.000000  1
