# generated using pymatgen
data_Pa2Zn3Mo
_symmetry_space_group_name_H-M   'P 1'
_cell_length_a   5.60125464
_cell_length_b   5.60125443
_cell_length_c   5.60125648
_cell_angle_alpha   55.33055451
_cell_angle_beta   55.33057102
_cell_angle_gamma   55.33057253
_symmetry_Int_Tables_number   1
_chemical_formula_structural   Pa2Zn3Mo
_chemical_formula_sum   'Pa2 Zn3 Mo1'
_cell_volume   110.78098089
_cell_formula_units_Z   1
loop_
 _symmetry_equiv_pos_site_id
 _symmetry_equiv_pos_as_xyz
  1  'x, y, z'
loop_
 _atom_site_type_symbol
 _atom_site_label
 _atom_site_symmetry_multiplicity
 _atom_site_fract_x
 _atom_site_fract_y
 _atom_site_fract_z
 _atom_site_occupancy
  Pa  Pa0  1  0.139927  0.139927  0.139927  1
  Pa  Pa1  1  0.860073  0.860073  0.860073  1
  Zn  Zn2  1  0.500000  0.000000  0.500000  1
  Zn  Zn3  1  0.000000  0.500000  0.500000  1
  Zn  Zn4  1  0.500000  0.500000  0.000000  1
  Mo  Mo5  1  0.500000  0.500000  0.500000  1
