# generated using pymatgen
data_Ti4VSe8
_symmetry_space_group_name_H-M   'P 1'
_cell_length_a   7.07337152
_cell_length_b   7.07337139
_cell_length_c   8.64169105
_cell_angle_alpha   53.09321588
_cell_angle_beta   53.09321511
_cell_angle_gamma   60.92907924
_symmetry_Int_Tables_number   1
_chemical_formula_structural   Ti4VSe8
_chemical_formula_sum   'Ti4 V1 Se8'
_cell_volume   271.08895685
_cell_formula_units_Z   1
loop_
 _symmetry_equiv_pos_site_id
 _symmetry_equiv_pos_as_xyz
  1  'x, y, z'
loop_
 _atom_site_type_symbol
 _atom_site_label
 _atom_site_symmetry_multiplicity
 _atom_site_fract_x
 _atom_site_fract_y
 _atom_site_fract_z
 _atom_site_occupancy
  Ti  Ti0  1  0.743302  0.743302  0.010915  1
  Ti  Ti1  1  0.256698  0.256698  0.989085  1
  Ti  Ti2  1  0.734314  0.265686  0.500000  1
  Ti  Ti3  1  0.265686  0.734314  0.500000  1
  V  V4  1  0.000000  0.000000  0.000000  1
  Se  Se5  1  0.544438  0.043046  0.170243  1
  Se  Se6  1  0.455562  0.956954  0.829757  1
  Se  Se7  1  0.956954  0.455562  0.829757  1
  Se  Se8  1  0.043046  0.544438  0.170243  1
  Se  Se9  1  0.964118  0.964118  0.330221  1
  Se  Se10  1  0.035882  0.035882  0.669779  1
  Se  Se11  1  0.454678  0.454678  0.330039  1
  Se  Se12  1  0.545322  0.545322  0.669961  1
