# generated using pymatgen
data_LaTh(BOs)4
_symmetry_space_group_name_H-M   'P 1'
_cell_length_a   6.84396727
_cell_length_b   6.07092832
_cell_length_c   5.64138077
_cell_angle_alpha   71.40551752
_cell_angle_beta   57.21870165
_cell_angle_gamma   51.37577795
_symmetry_Int_Tables_number   1
_chemical_formula_structural   LaTh(BOs)4
_chemical_formula_sum   'La1 Th1 B4 Os4'
_cell_volume   153.89408514
_cell_formula_units_Z   1
loop_
 _symmetry_equiv_pos_site_id
 _symmetry_equiv_pos_as_xyz
  1  'x, y, z'
loop_
 _atom_site_type_symbol
 _atom_site_label
 _atom_site_symmetry_multiplicity
 _atom_site_fract_x
 _atom_site_fract_y
 _atom_site_fract_z
 _atom_site_occupancy
  La  La0  1  0.000000  0.000000  0.000000  1
  Th  Th1  1  0.250000  0.250000  0.250000  1
  B  B2  1  0.316271  0.683729  0.316271  1
  B  B3  1  0.683729  0.316271  0.683729  1
  B  B4  1  0.567336  0.932664  0.567336  1
  B  B5  1  0.932664  0.567336  0.932664  1
  Os  Os6  1  0.636895  0.636895  0.363105  1
  Os  Os7  1  0.363105  0.363105  0.636895  1
  Os  Os8  1  0.613304  0.613304  0.886696  1
  Os  Os9  1  0.886696  0.886696  0.613304  1
