# generated using pymatgen
data_Hf4SnSbRh10
_symmetry_space_group_name_H-M   'P 1'
_cell_length_a   4.14761700
_cell_length_b   5.65383433
_cell_length_c   11.08452043
_cell_angle_alpha   89.80300989
_cell_angle_beta   90.00000000
_cell_angle_gamma   90.00000000
_symmetry_Int_Tables_number   1
_chemical_formula_structural   Hf4SnSbRh10
_chemical_formula_sum   'Hf4 Sn1 Sb1 Rh10'
_cell_volume   259.92979578
_cell_formula_units_Z   1
loop_
 _symmetry_equiv_pos_site_id
 _symmetry_equiv_pos_as_xyz
  1  'x, y, z'
loop_
 _atom_site_type_symbol
 _atom_site_label
 _atom_site_symmetry_multiplicity
 _atom_site_fract_x
 _atom_site_fract_y
 _atom_site_fract_z
 _atom_site_occupancy
  Hf  Hf0  1  0.500000  0.176775  0.642093  1
  Hf  Hf1  1  0.500000  0.823225  0.357907  1
  Hf  Hf2  1  0.500000  0.673142  0.855402  1
  Hf  Hf3  1  0.500000  0.326858  0.144598  1
  Sn  Sn4  1  0.000000  0.500000  0.500000  1
  Sb  Sb5  1  0.000000  0.000000  0.000000  1
  Rh  Rh6  1  0.500000  0.196909  0.888610  1
  Rh  Rh7  1  0.500000  0.803091  0.111390  1
  Rh  Rh8  1  0.500000  0.701102  0.613759  1
  Rh  Rh9  1  0.500000  0.298898  0.386241  1
  Rh  Rh10  1  0.000000  0.432495  0.747088  1
  Rh  Rh11  1  0.000000  0.567505  0.252912  1
  Rh  Rh12  1  0.000000  0.000000  0.500000  1
  Rh  Rh13  1  0.000000  0.500000  0.000000  1
  Rh  Rh14  1  0.000000  0.067361  0.245426  1
  Rh  Rh15  1  0.000000  0.932639  0.754574  1
