# generated using pymatgen
data_Ta6Co4As2C
_symmetry_space_group_name_H-M   'P 1'
_cell_length_a   7.98088735
_cell_length_b   7.98088711
_cell_length_c   7.98088700
_cell_angle_alpha   59.99999631
_cell_angle_beta   59.99999730
_cell_angle_gamma   60.00000200
_symmetry_Int_Tables_number   1
_chemical_formula_structural   Ta6Co4As2C
_chemical_formula_sum   'Ta12 Co8 As4 C2'
_cell_volume   359.45000831
_cell_formula_units_Z   2
loop_
 _symmetry_equiv_pos_site_id
 _symmetry_equiv_pos_as_xyz
  1  'x, y, z'
loop_
 _atom_site_type_symbol
 _atom_site_label
 _atom_site_symmetry_multiplicity
 _atom_site_fract_x
 _atom_site_fract_y
 _atom_site_fract_z
 _atom_site_occupancy
  Ta  Ta0  1  0.055507  0.055507  0.444493  1
  Ta  Ta1  1  0.444493  0.055507  0.444493  1
  Ta  Ta2  1  0.055507  0.444493  0.444493  1
  Ta  Ta3  1  0.444493  0.444493  0.055507  1
  Ta  Ta4  1  0.055507  0.444493  0.055507  1
  Ta  Ta5  1  0.444493  0.055507  0.055507  1
  Ta  Ta6  1  0.194493  0.194493  0.805507  1
  Ta  Ta7  1  0.805507  0.194493  0.805507  1
  Ta  Ta8  1  0.194493  0.805507  0.805507  1
  Ta  Ta9  1  0.805507  0.805507  0.194493  1
  Ta  Ta10  1  0.194493  0.805507  0.194493  1
  Ta  Ta11  1  0.805507  0.194493  0.194493  1
  Co  Co12  1  0.417276  0.417276  0.748175  1
  Co  Co13  1  0.417276  0.748175  0.417276  1
  Co  Co14  1  0.748175  0.417276  0.417276  1
  Co  Co15  1  0.417276  0.417276  0.417276  1
  Co  Co16  1  0.832724  0.832724  0.501825  1
  Co  Co17  1  0.832724  0.501825  0.832724  1
  Co  Co18  1  0.501825  0.832724  0.832724  1
  Co  Co19  1  0.832724  0.832724  0.832724  1
  As  As20  1  0.625000  0.625000  0.125000  1
  As  As21  1  0.625000  0.125000  0.625000  1
  As  As22  1  0.125000  0.625000  0.625000  1
  As  As23  1  0.625000  0.625000  0.625000  1
  C  C24  1  0.250000  0.250000  0.250000  1
  C  C25  1  0.000000  0.000000  0.000000  1
