# generated using pymatgen
data_HoLu8ThPt8
_symmetry_space_group_name_H-M   'P 1'
_cell_length_a   7.45797400
_cell_length_b   7.47850792
_cell_length_c   14.65210000
_cell_angle_alpha   89.83524920
_cell_angle_beta   90.00000000
_cell_angle_gamma   90.00000000
_symmetry_Int_Tables_number   1
_chemical_formula_structural   HoLu8ThPt8
_chemical_formula_sum   'Ho2 Lu16 Th2 Pt16'
_cell_volume   817.21043093
_cell_formula_units_Z   2
loop_
 _symmetry_equiv_pos_site_id
 _symmetry_equiv_pos_as_xyz
  1  'x, y, z'
loop_
 _atom_site_type_symbol
 _atom_site_label
 _atom_site_symmetry_multiplicity
 _atom_site_fract_x
 _atom_site_fract_y
 _atom_site_fract_z
 _atom_site_occupancy
  Ho  Ho0  1  0.501971  0.676737  0.907318  1
  Ho  Ho1  1  0.001971  0.823263  0.592682  1
  Lu  Lu2  1  0.661350  0.164051  0.625869  1
  Lu  Lu3  1  0.161350  0.335949  0.874131  1
  Lu  Lu4  1  0.347332  0.831228  0.122540  1
  Lu  Lu5  1  0.847332  0.668772  0.377460  1
  Lu  Lu6  1  0.342318  0.832805  0.378739  1
  Lu  Lu7  1  0.842318  0.667195  0.121261  1
  Lu  Lu8  1  0.652948  0.167594  0.877390  1
  Lu  Lu9  1  0.152948  0.332406  0.622610  1
  Lu  Lu10  1  0.503730  0.681837  0.594519  1
  Lu  Lu11  1  0.003730  0.818163  0.905481  1
  Lu  Lu12  1  0.496425  0.322412  0.094306  1
  Lu  Lu13  1  0.996425  0.177588  0.405694  1
  Lu  Lu14  1  0.820052  0.508596  0.750447  1
  Lu  Lu15  1  0.320052  0.991404  0.749553  1
  Lu  Lu16  1  0.179075  0.494773  0.249087  1
  Lu  Lu17  1  0.679075  0.005227  0.250913  1
  Th  Th18  1  0.499483  0.318759  0.410087  1
  Th  Th19  1  0.999483  0.181241  0.089913  1
  Pt  Pt20  1  0.685353  0.966055  0.459518  1
  Pt  Pt21  1  0.185353  0.533945  0.040482  1
  Pt  Pt22  1  0.310105  0.032831  0.958388  1
  Pt  Pt23  1  0.810105  0.467169  0.541612  1
  Pt  Pt24  1  0.316664  0.034879  0.542099  1
  Pt  Pt25  1  0.816664  0.465121  0.957901  1
  Pt  Pt26  1  0.683816  0.966428  0.041017  1
  Pt  Pt27  1  0.183816  0.533572  0.458983  1
  Pt  Pt28  1  0.454585  0.386305  0.748698  1
  Pt  Pt29  1  0.954585  0.113695  0.751302  1
  Pt  Pt30  1  0.546771  0.615632  0.250847  1
  Pt  Pt31  1  0.046771  0.884368  0.249153  1
  Pt  Pt32  1  0.679464  0.854966  0.750039  1
  Pt  Pt33  1  0.179464  0.645034  0.749961  1
  Pt  Pt34  1  0.318558  0.145467  0.250617  1
  Pt  Pt35  1  0.818558  0.354533  0.249383  1
