# generated using pymatgen
data_Ta4BeCo4As2P
_symmetry_space_group_name_H-M   'P 1'
_cell_length_a   3.63231700
_cell_length_b   6.17131643
_cell_length_c   7.08947966
_cell_angle_alpha   90.16431894
_cell_angle_beta   90.00000000
_cell_angle_gamma   90.00000000
_symmetry_Int_Tables_number   1
_chemical_formula_structural   Ta4BeCo4As2P
_chemical_formula_sum   'Ta4 Be1 Co4 As2 P1'
_cell_volume   158.91838146
_cell_formula_units_Z   1
loop_
 _symmetry_equiv_pos_site_id
 _symmetry_equiv_pos_as_xyz
  1  'x, y, z'
loop_
 _atom_site_type_symbol
 _atom_site_label
 _atom_site_symmetry_multiplicity
 _atom_site_fract_x
 _atom_site_fract_y
 _atom_site_fract_z
 _atom_site_occupancy
  Ta  Ta0  1  0.250000  0.524799  0.164879  1
  Ta  Ta1  1  0.750000  0.491685  0.833106  1
  Ta  Ta2  1  0.750000  0.962052  0.692009  1
  Ta  Ta3  1  0.250000  0.027725  0.313781  1
  Be  Be4  1  0.250000  0.774464  0.884606  1
  Co  Co5  1  0.250000  0.652139  0.573098  1
  Co  Co6  1  0.750000  0.344020  0.423912  1
  Co  Co7  1  0.750000  0.862454  0.053409  1
  Co  Co8  1  0.250000  0.140099  0.945229  1
  As  As9  1  0.750000  0.725177  0.375813  1
  As  As10  1  0.250000  0.271362  0.626069  1
  P  P11  1  0.750000  0.224024  0.114088  1
