# generated using pymatgen
data_Pr7Nd(PCl6)2
_symmetry_space_group_name_H-M   'P 1'
_cell_length_a   4.07689200
_cell_length_b   13.32725275
_cell_length_c   14.06578100
_cell_angle_alpha   90.41746348
_cell_angle_beta   90.00000000
_cell_angle_gamma   90.00000000
_symmetry_Int_Tables_number   1
_chemical_formula_structural   Pr7Nd(PCl6)2
_chemical_formula_sum   'Pr7 Nd1 P2 Cl12'
_cell_volume   764.22662571
_cell_formula_units_Z   1
loop_
 _symmetry_equiv_pos_site_id
 _symmetry_equiv_pos_as_xyz
  1  'x, y, z'
loop_
 _atom_site_type_symbol
 _atom_site_label
 _atom_site_symmetry_multiplicity
 _atom_site_fract_x
 _atom_site_fract_y
 _atom_site_fract_z
 _atom_site_occupancy
  Pr  Pr0  1  0.500000  0.120463  0.338397  1
  Pr  Pr1  1  0.500000  0.880232  0.661849  1
  Pr  Pr2  1  0.500000  0.620366  0.161812  1
  Pr  Pr3  1  0.000000  0.121053  0.580827  1
  Pr  Pr4  1  0.000000  0.879573  0.419828  1
  Pr  Pr5  1  0.000000  0.620765  0.920238  1
  Pr  Pr6  1  0.000000  0.379437  0.080106  1
  Nd  Nd7  1  0.500000  0.379577  0.837926  1
  P  P8  1  0.500000  0.000487  0.500195  1
  P  P9  1  0.500000  0.499436  0.999266  1
  Cl  Cl10  1  0.500000  0.242859  0.163792  1
  Cl  Cl11  1  0.500000  0.755455  0.834254  1
  Cl  Cl12  1  0.500000  0.743417  0.335292  1
  Cl  Cl13  1  0.500000  0.256477  0.666360  1
  Cl  Cl14  1  0.000000  0.249857  0.412572  1
  Cl  Cl15  1  0.000000  0.750738  0.587933  1
  Cl  Cl16  1  0.000000  0.749940  0.088970  1
  Cl  Cl17  1  0.000000  0.252059  0.908866  1
  Cl  Cl18  1  0.000000  0.002609  0.248382  1
  Cl  Cl19  1  0.000000  0.997833  0.752243  1
  Cl  Cl20  1  0.000000  0.503390  0.251918  1
  Cl  Cl21  1  0.000000  0.493978  0.748974  1
