# generated using pymatgen
data_Rb3PtO4
_symmetry_space_group_name_H-M   'P 1'
_cell_length_a   6.67119100
_cell_length_b   7.63009700
_cell_length_c   6.67119100
_cell_angle_alpha   89.99999249
_cell_angle_beta   89.99999141
_cell_angle_gamma   89.99998498
_symmetry_Int_Tables_number   1
_chemical_formula_structural   Rb3PtO4
_chemical_formula_sum   'Rb6 Pt2 O8'
_cell_volume   339.57585977
_cell_formula_units_Z   2
loop_
 _symmetry_equiv_pos_site_id
 _symmetry_equiv_pos_as_xyz
  1  'x, y, z'
loop_
 _atom_site_type_symbol
 _atom_site_label
 _atom_site_symmetry_multiplicity
 _atom_site_fract_x
 _atom_site_fract_y
 _atom_site_fract_z
 _atom_site_occupancy
  Rb  Rb0  1  0.000000  0.249936  0.500000  1
  Rb  Rb1  1  0.500000  0.750064  0.000000  1
  Rb  Rb2  1  0.500000  0.249936  0.000000  1
  Rb  Rb3  1  0.000000  0.750064  0.500000  1
  Rb  Rb4  1  0.000000  0.500000  0.000000  1
  Rb  Rb5  1  0.500000  0.000000  0.500000  1
  Pt  Pt6  1  0.000000  0.000000  0.000000  1
  Pt  Pt7  1  0.500000  0.500000  0.500000  1
  O  O8  1  0.296962  0.500219  0.703038  1
  O  O9  1  0.797011  0.000121  0.202989  1
  O  O10  1  0.797011  0.999879  0.797011  1
  O  O11  1  0.296962  0.499781  0.296962  1
  O  O12  1  0.703038  0.499781  0.703038  1
  O  O13  1  0.202989  0.999879  0.202989  1
  O  O14  1  0.202989  0.000121  0.797011  1
  O  O15  1  0.703038  0.500219  0.296962  1
