# generated using pymatgen
data_CeEr4(TcB3)2
_symmetry_space_group_name_H-M   'P 1'
_cell_length_a   5.52189274
_cell_length_b   5.52189267
_cell_length_c   8.34871058
_cell_angle_alpha   70.68852982
_cell_angle_beta   70.68853348
_cell_angle_gamma   60.00000262
_symmetry_Int_Tables_number   1
_chemical_formula_structural   CeEr4(TcB3)2
_chemical_formula_sum   'Ce1 Er4 Tc2 B6'
_cell_volume   203.75148672
_cell_formula_units_Z   1
loop_
 _symmetry_equiv_pos_site_id
 _symmetry_equiv_pos_as_xyz
  1  'x, y, z'
loop_
 _atom_site_type_symbol
 _atom_site_label
 _atom_site_symmetry_multiplicity
 _atom_site_fract_x
 _atom_site_fract_y
 _atom_site_fract_z
 _atom_site_occupancy
  Ce  Ce0  1  0.000000  0.000000  0.000000  1
  Er  Er1  1  0.751634  0.751634  0.745098  1
  Er  Er2  1  0.248366  0.248366  0.254902  1
  Er  Er3  1  0.581909  0.581909  0.254273  1
  Er  Er4  1  0.418091  0.418091  0.745727  1
  Tc  Tc5  1  0.892452  0.892452  0.322646  1
  Tc  Tc6  1  0.107548  0.107548  0.677355  1
  B  B7  1  0.500000  0.171390  0.500000  1
  B  B8  1  0.828610  0.500000  0.500000  1
  B  B9  1  0.171390  0.828610  0.500000  1
  B  B10  1  0.171390  0.500000  0.500000  1
  B  B11  1  0.828610  0.171390  0.500000  1
  B  B12  1  0.500000  0.828610  0.500000  1
