# generated using pymatgen
data_Tb8Hf11Si16Ru
_symmetry_space_group_name_H-M   'P 1'
_cell_length_a   7.26667938
_cell_length_b   7.26667913
_cell_length_c   13.28209408
_cell_angle_alpha   89.86099747
_cell_angle_beta   90.13900482
_cell_angle_gamma   89.95754964
_symmetry_Int_Tables_number   1
_chemical_formula_structural   Tb8Hf11Si16Ru
_chemical_formula_sum   'Tb8 Hf11 Si16 Ru1'
_cell_volume   701.35170535
_cell_formula_units_Z   1
loop_
 _symmetry_equiv_pos_site_id
 _symmetry_equiv_pos_as_xyz
  1  'x, y, z'
loop_
 _atom_site_type_symbol
 _atom_site_label
 _atom_site_symmetry_multiplicity
 _atom_site_fract_x
 _atom_site_fract_y
 _atom_site_fract_z
 _atom_site_occupancy
  Tb  Tb0  1  0.998540  0.343676  0.212038  1
  Tb  Tb1  1  0.005236  0.654606  0.717252  1
  Tb  Tb2  1  0.155935  0.494470  0.465197  1
  Tb  Tb3  1  0.502114  0.846318  0.032821  1
  Tb  Tb4  1  0.846318  0.502114  0.967179  1
  Tb  Tb5  1  0.494470  0.155935  0.534803  1
  Tb  Tb6  1  0.343676  0.998540  0.787962  1
  Tb  Tb7  1  0.654606  0.005236  0.282748  1
  Hf  Hf8  1  0.824705  0.824705  0.500000  1
  Hf  Hf9  1  0.324085  0.675071  0.248042  1
  Hf  Hf10  1  0.675071  0.324085  0.751958  1
  Hf  Hf11  1  0.147197  0.997603  0.372007  1
  Hf  Hf12  1  0.852444  0.004124  0.878250  1
  Hf  Hf13  1  0.502928  0.647328  0.625340  1
  Hf  Hf14  1  0.352075  0.496821  0.877062  1
  Hf  Hf15  1  0.496821  0.352075  0.122938  1
  Hf  Hf16  1  0.647328  0.502928  0.374660  1
  Hf  Hf17  1  0.997603  0.147197  0.627993  1
  Hf  Hf18  1  0.004124  0.852444  0.121750  1
  Si  Si19  1  0.360432  0.295138  0.315176  1
  Si  Si20  1  0.638801  0.705106  0.818280  1
  Si  Si21  1  0.205729  0.861674  0.566843  1
  Si  Si22  1  0.136362  0.793582  0.931347  1
  Si  Si23  1  0.793582  0.136362  0.068653  1
  Si  Si24  1  0.861674  0.205729  0.433157  1
  Si  Si25  1  0.295138  0.360432  0.684824  1
  Si  Si26  1  0.705106  0.638801  0.181720  1
  Si  Si27  1  0.292697  0.054454  0.180546  1
  Si  Si28  1  0.704164  0.950616  0.686123  1
  Si  Si29  1  0.449408  0.796081  0.434798  1
  Si  Si30  1  0.206860  0.548679  0.064281  1
  Si  Si31  1  0.548679  0.206860  0.935719  1
  Si  Si32  1  0.796081  0.449408  0.565202  1
  Si  Si33  1  0.054454  0.292697  0.819454  1
  Si  Si34  1  0.950616  0.704164  0.313877  1
  Ru  Ru35  1  0.174943  0.174943  0.000000  1
