# generated using pymatgen
data_Tm2MgNi8Ir
_symmetry_space_group_name_H-M   'P 1'
_cell_length_a   4.87028491
_cell_length_b   4.87028511
_cell_length_c   8.60707988
_cell_angle_alpha   73.56525711
_cell_angle_beta   73.56525588
_cell_angle_gamma   60.00000656
_symmetry_Int_Tables_number   1
_chemical_formula_structural   Tm2MgNi8Ir
_chemical_formula_sum   'Tm2 Mg1 Ni8 Ir1'
_cell_volume   167.10416392
_cell_formula_units_Z   1
loop_
 _symmetry_equiv_pos_site_id
 _symmetry_equiv_pos_as_xyz
  1  'x, y, z'
loop_
 _atom_site_type_symbol
 _atom_site_label
 _atom_site_symmetry_multiplicity
 _atom_site_fract_x
 _atom_site_fract_y
 _atom_site_fract_z
 _atom_site_occupancy
  Tm  Tm0  1  0.857487  0.857487  0.427539  1
  Tm  Tm1  1  0.003278  0.003278  0.990165  1
  Mg  Mg2  1  0.138277  0.138277  0.585169  1
  Ni  Ni3  1  0.078387  0.583187  0.755238  1
  Ni  Ni4  1  0.583187  0.583187  0.755238  1
  Ni  Ni5  1  0.583187  0.078387  0.755238  1
  Ni  Ni6  1  0.922864  0.417018  0.243099  1
  Ni  Ni7  1  0.417018  0.417018  0.243099  1
  Ni  Ni8  1  0.417018  0.922864  0.243099  1
  Ni  Ni9  1  0.333377  0.333377  0.999868  1
  Ni  Ni10  1  0.666351  0.666351  0.000947  1
  Ir  Ir11  1  0.499567  0.499567  0.501298  1
