# generated using pymatgen
data_Pr4Si4NiIr3
_symmetry_space_group_name_H-M   'P 1'
_cell_length_a   6.34558388
_cell_length_b   6.34558388
_cell_length_c   6.34558388
_cell_angle_alpha   89.75957095
_cell_angle_beta   89.75957095
_cell_angle_gamma   89.75957095
_symmetry_Int_Tables_number   1
_chemical_formula_structural   Pr4Si4NiIr3
_chemical_formula_sum   'Pr4 Si4 Ni1 Ir3'
_cell_volume   255.50730887
_cell_formula_units_Z   1
loop_
 _symmetry_equiv_pos_site_id
 _symmetry_equiv_pos_as_xyz
  1  'x, y, z'
loop_
 _atom_site_type_symbol
 _atom_site_label
 _atom_site_symmetry_multiplicity
 _atom_site_fract_x
 _atom_site_fract_y
 _atom_site_fract_z
 _atom_site_occupancy
  Pr  Pr0  1  0.380603  0.380603  0.380603  1
  Pr  Pr1  1  0.123394  0.622235  0.878089  1
  Pr  Pr2  1  0.622235  0.878089  0.123394  1
  Pr  Pr3  1  0.878089  0.123394  0.622235  1
  Si  Si4  1  0.664807  0.664807  0.664807  1
  Si  Si5  1  0.843056  0.326932  0.161244  1
  Si  Si6  1  0.326932  0.161244  0.843056  1
  Si  Si7  1  0.161244  0.843056  0.326932  1
  Ni  Ni8  1  0.074870  0.074870  0.074870  1
  Ir  Ir9  1  0.422694  0.931252  0.570823  1
  Ir  Ir10  1  0.931252  0.570823  0.422694  1
  Ir  Ir11  1  0.570823  0.422694  0.931252  1
