# generated using pymatgen
data_Li8Nd7SmBi8
_symmetry_space_group_name_H-M   'P 1'
_cell_length_a   9.86613200
_cell_length_b   9.86611805
_cell_length_c   7.35508000
_cell_angle_alpha   90.00105113
_cell_angle_beta   89.99850171
_cell_angle_gamma   120.00050949
_symmetry_Int_Tables_number   1
_chemical_formula_structural   Li8Nd7SmBi8
_chemical_formula_sum   'Li8 Nd7 Sm1 Bi8'
_cell_volume   620.02475869
_cell_formula_units_Z   1
loop_
 _symmetry_equiv_pos_site_id
 _symmetry_equiv_pos_as_xyz
  1  'x, y, z'
loop_
 _atom_site_type_symbol
 _atom_site_label
 _atom_site_symmetry_multiplicity
 _atom_site_fract_x
 _atom_site_fract_y
 _atom_site_fract_z
 _atom_site_occupancy
  Li  Li0  1  0.166547  0.833468  0.282594  1
  Li  Li1  1  0.666922  0.833460  0.282590  1
  Li  Li2  1  0.166540  0.333085  0.282582  1
  Li  Li3  1  0.833279  0.166719  0.791292  1
  Li  Li4  1  0.333443  0.166726  0.791296  1
  Li  Li5  1  0.833272  0.666554  0.791296  1
  Li  Li6  1  0.333331  0.666667  0.712083  1
  Li  Li7  1  0.666671  0.333337  0.208761  1
  Nd  Nd8  1  0.507672  0.492321  0.509463  1
  Nd  Nd9  1  0.984629  0.492300  0.509450  1
  Nd  Nd10  1  0.507707  0.015387  0.509452  1
  Nd  Nd11  1  0.491803  0.508209  0.009643  1
  Nd  Nd12  1  0.016431  0.508226  0.009643  1
  Nd  Nd13  1  0.491776  0.983564  0.009654  1
  Nd  Nd14  1  0.999973  0.999979  0.517015  1
  Sm  Sm15  1  0.000002  0.000001  0.016410  1
  Bi  Bi16  1  0.166300  0.833704  0.756444  1
  Bi  Bi17  1  0.667405  0.833706  0.756446  1
  Bi  Bi18  1  0.166298  0.332601  0.756447  1
  Bi  Bi19  1  0.833665  0.166334  0.252201  1
  Bi  Bi20  1  0.332665  0.166322  0.252195  1
  Bi  Bi21  1  0.833673  0.667331  0.252197  1
  Bi  Bi22  1  0.333330  0.666659  0.276762  1
  Bi  Bi23  1  0.666670  0.333340  0.774069  1
