# generated using pymatgen
data_Cs8Li4Er3InSb8
_symmetry_space_group_name_H-M   'P 1'
_cell_length_a   11.53567307
_cell_length_b   11.53567292
_cell_length_c   7.25921921
_cell_angle_alpha   89.94663554
_cell_angle_beta   90.05335955
_cell_angle_gamma   102.17918692
_symmetry_Int_Tables_number   1
_chemical_formula_structural   Cs8Li4Er3InSb8
_chemical_formula_sum   'Cs8 Li4 Er3 In1 Sb8'
_cell_volume   944.25425094
_cell_formula_units_Z   1
loop_
 _symmetry_equiv_pos_site_id
 _symmetry_equiv_pos_as_xyz
  1  'x, y, z'
loop_
 _atom_site_type_symbol
 _atom_site_label
 _atom_site_symmetry_multiplicity
 _atom_site_fract_x
 _atom_site_fract_y
 _atom_site_fract_z
 _atom_site_occupancy
  Cs  Cs0  1  0.572544  0.926552  0.748386  1
  Cs  Cs1  1  0.926552  0.572544  0.251614  1
  Cs  Cs2  1  0.427706  0.077920  0.254248  1
  Cs  Cs3  1  0.077920  0.427706  0.745752  1
  Cs  Cs4  1  0.670535  0.324433  0.774422  1
  Cs  Cs5  1  0.825539  0.174892  0.279074  1
  Cs  Cs6  1  0.324433  0.670535  0.225578  1
  Cs  Cs7  1  0.174892  0.825539  0.720926  1
  Li  Li8  1  0.619058  0.619058  0.000000  1
  Li  Li9  1  0.878865  0.878865  0.500000  1
  Li  Li10  1  0.379040  0.379040  0.000000  1
  Li  Li11  1  0.122577  0.122577  0.500000  1
  Er  Er12  1  0.870126  0.870126  0.000000  1
  Er  Er13  1  0.626154  0.626154  0.500000  1
  Er  Er14  1  0.131151  0.131151  0.000000  1
  In  In15  1  0.373382  0.373382  0.500000  1
  Sb  Sb16  1  0.341523  0.163242  0.746042  1
  Sb  Sb17  1  0.163242  0.341523  0.253958  1
  Sb  Sb18  1  0.659256  0.838245  0.250568  1
  Sb  Sb19  1  0.838245  0.659256  0.749432  1
  Sb  Sb20  1  0.912018  0.089807  0.762777  1
  Sb  Sb21  1  0.587026  0.408408  0.262952  1
  Sb  Sb22  1  0.089807  0.912018  0.237223  1
  Sb  Sb23  1  0.408408  0.587026  0.737048  1
