# generated using pymatgen
data_Ho2V3Fe4Co5P7
_symmetry_space_group_name_H-M   'P 1'
_cell_length_a   9.10770630
_cell_length_b   9.09374654
_cell_length_c   3.60920300
_cell_angle_alpha   90.00000000
_cell_angle_beta   90.00000000
_cell_angle_gamma   120.08830286
_symmetry_Int_Tables_number   1
_chemical_formula_structural   Ho2V3Fe4Co5P7
_chemical_formula_sum   'Ho2 V3 Fe4 Co5 P7'
_cell_volume   258.64654509
_cell_formula_units_Z   1
loop_
 _symmetry_equiv_pos_site_id
 _symmetry_equiv_pos_as_xyz
  1  'x, y, z'
loop_
 _atom_site_type_symbol
 _atom_site_label
 _atom_site_symmetry_multiplicity
 _atom_site_fract_x
 _atom_site_fract_y
 _atom_site_fract_z
 _atom_site_occupancy
  Ho  Ho0  1  0.000018  0.000257  0.000000  1
  Ho  Ho1  1  0.332810  0.666298  0.500000  1
  V  V2  1  0.552868  0.115691  0.500000  1
  V  V3  1  0.562863  0.447554  0.500000  1
  V  V4  1  0.883626  0.437804  0.500000  1
  Fe  Fe5  1  0.096217  0.390796  0.000000  1
  Fe  Fe6  1  0.783936  0.175676  0.000000  1
  Fe  Fe7  1  0.390161  0.214287  0.000000  1
  Fe  Fe8  1  0.824980  0.610958  0.000000  1
  Co  Co9  1  0.296025  0.901925  0.000000  1
  Co  Co10  1  0.606320  0.703965  0.000000  1
  Co  Co11  1  0.718638  0.946645  0.500000  1
  Co  Co12  1  0.229473  0.282250  0.500000  1
  Co  Co13  1  0.054246  0.771960  0.500000  1
  P  P14  1  0.555040  0.920297  0.000000  1
  P  P15  1  0.364525  0.444948  0.000000  1
  P  P16  1  0.079618  0.632483  0.000000  1
  P  P17  1  0.956165  0.216825  0.500000  1
  P  P18  1  0.260822  0.045850  0.500000  1
  P  P19  1  0.785635  0.739802  0.500000  1
  P  P20  1  0.666013  0.333727  0.000000  1
