# generated using pymatgen
data_Gd3Tm3(RuI3)2
_symmetry_space_group_name_H-M   'P 1'
_cell_length_a   4.25135300
_cell_length_b   8.94702046
_cell_length_c   12.36326600
_cell_angle_alpha   85.99101644
_cell_angle_beta   90.00000000
_cell_angle_gamma   90.00000000
_symmetry_Int_Tables_number   1
_chemical_formula_structural   Gd3Tm3(RuI3)2
_chemical_formula_sum   'Gd3 Tm3 Ru2 I6'
_cell_volume   469.11015415
_cell_formula_units_Z   1
loop_
 _symmetry_equiv_pos_site_id
 _symmetry_equiv_pos_as_xyz
  1  'x, y, z'
loop_
 _atom_site_type_symbol
 _atom_site_label
 _atom_site_symmetry_multiplicity
 _atom_site_fract_x
 _atom_site_fract_y
 _atom_site_fract_z
 _atom_site_occupancy
  Gd  Gd0  1  0.250000  0.901204  0.316203  1
  Gd  Gd1  1  0.250000  0.266044  0.897567  1
  Gd  Gd2  1  0.750000  0.733997  0.100513  1
  Tm  Tm3  1  0.750000  0.124459  0.124495  1
  Tm  Tm4  1  0.250000  0.876003  0.875697  1
  Tm  Tm5  1  0.750000  0.098496  0.689992  1
  Ru  Ru6  1  0.750000  0.055970  0.907648  1
  Ru  Ru7  1  0.250000  0.944321  0.091635  1
  I  I8  1  0.250000  0.344870  0.635706  1
  I  I9  1  0.750000  0.646214  0.362043  1
  I  I10  1  0.750000  0.143761  0.388524  1
  I  I11  1  0.250000  0.865279  0.611681  1
  I  I12  1  0.250000  0.419494  0.134168  1
  I  I13  1  0.750000  0.579887  0.864128  1
