# generated using pymatgen
data_Sr4Li2Zn2Si5Sn
_symmetry_space_group_name_H-M   'P 1'
_cell_length_a   9.91158237
_cell_length_b   9.91158308
_cell_length_c   7.04411942
_cell_angle_alpha   89.58005345
_cell_angle_beta   90.41994548
_cell_angle_gamma   152.72658042
_symmetry_Int_Tables_number   1
_chemical_formula_structural   Sr4Li2Zn2Si5Sn
_chemical_formula_sum   'Sr4 Li2 Zn2 Si5 Sn1'
_cell_volume   317.09601156
_cell_formula_units_Z   1
loop_
 _symmetry_equiv_pos_site_id
 _symmetry_equiv_pos_as_xyz
  1  'x, y, z'
loop_
 _atom_site_type_symbol
 _atom_site_label
 _atom_site_symmetry_multiplicity
 _atom_site_fract_x
 _atom_site_fract_y
 _atom_site_fract_z
 _atom_site_occupancy
  Sr  Sr0  1  0.449915  0.550085  0.755530  1
  Sr  Sr1  1  0.554403  0.445597  0.256405  1
  Sr  Sr2  1  0.654711  0.345289  0.745924  1
  Sr  Sr3  1  0.343164  0.656836  0.241516  1
  Li  Li4  1  0.817004  0.182996  0.944780  1
  Li  Li5  1  0.182596  0.817404  0.433453  1
  Zn  Zn6  1  0.185888  0.814112  0.061651  1
  Zn  Zn7  1  0.810304  0.189696  0.536607  1
  Si  Si8  1  0.722316  0.277684  0.247688  1
  Si  Si9  1  0.943039  0.056961  0.425634  1
  Si  Si10  1  0.052699  0.947301  0.587418  1
  Si  Si11  1  0.948025  0.051975  0.087185  1
  Si  Si12  1  0.057040  0.942960  0.928468  1
  Sn  Sn13  1  0.278894  0.721106  0.747742  1
