# generated using pymatgen
data_Dy4Y2MnB14Ru
_symmetry_space_group_name_H-M   'P 1'
_cell_length_a   8.06404802
_cell_length_b   8.06404764
_cell_length_c   9.32151000
_cell_angle_alpha   90.00000000
_cell_angle_beta   90.00000000
_cell_angle_gamma   155.00582987
_symmetry_Int_Tables_number   1
_chemical_formula_structural   Dy4Y2MnB14Ru
_chemical_formula_sum   'Dy4 Y2 Mn1 B14 Ru1'
_cell_volume   256.12144412
_cell_formula_units_Z   1
loop_
 _symmetry_equiv_pos_site_id
 _symmetry_equiv_pos_as_xyz
  1  'x, y, z'
loop_
 _atom_site_type_symbol
 _atom_site_label
 _atom_site_symmetry_multiplicity
 _atom_site_fract_x
 _atom_site_fract_y
 _atom_site_fract_z
 _atom_site_occupancy
  Dy  Dy0  1  0.894935  0.105065  0.442412  1
  Dy  Dy1  1  0.104535  0.895465  0.563357  1
  Dy  Dy2  1  0.894935  0.105065  0.057588  1
  Dy  Dy3  1  0.104535  0.895465  0.936643  1
  Y  Y4  1  0.243913  0.756087  0.250000  1
  Y  Y5  1  0.759154  0.240846  0.750000  1
  Mn  Mn6  1  0.946792  0.053208  0.750000  1
  B  B7  1  0.727029  0.272971  0.466462  1
  B  B8  1  0.272356  0.727644  0.533840  1
  B  B9  1  0.727029  0.272971  0.033538  1
  B  B10  1  0.272356  0.727644  0.966160  1
  B  B11  1  0.631447  0.368553  0.150547  1
  B  B12  1  0.370238  0.629762  0.846403  1
  B  B13  1  0.631447  0.368553  0.349453  1
  B  B14  1  0.370238  0.629762  0.653597  1
  B  B15  1  0.520586  0.479414  0.095962  1
  B  B16  1  0.478261  0.521739  0.901466  1
  B  B17  1  0.520586  0.479414  0.404038  1
  B  B18  1  0.478261  0.521739  0.598534  1
  B  B19  1  0.457379  0.542621  0.250000  1
  B  B20  1  0.539929  0.460071  0.750000  1
  Ru  Ru21  1  0.054060  0.945940  0.250000  1
