# generated using pymatgen
data_Er12TlFe2Co2Pt
_symmetry_space_group_name_H-M   'P 1'
_cell_length_a   8.25452282
_cell_length_b   8.25452254
_cell_length_c   8.25452307
_cell_angle_alpha   110.59264622
_cell_angle_beta   110.24459408
_cell_angle_gamma   107.59279307
_symmetry_Int_Tables_number   1
_chemical_formula_structural   Er12TlFe2Co2Pt
_chemical_formula_sum   'Er12 Tl1 Fe2 Co2 Pt1'
_cell_volume   432.61447418
_cell_formula_units_Z   1
loop_
 _symmetry_equiv_pos_site_id
 _symmetry_equiv_pos_as_xyz
  1  'x, y, z'
loop_
 _atom_site_type_symbol
 _atom_site_label
 _atom_site_symmetry_multiplicity
 _atom_site_fract_x
 _atom_site_fract_y
 _atom_site_fract_z
 _atom_site_occupancy
  Er  Er0  1  0.314770  0.617681  0.302909  1
  Er  Er1  1  0.685230  0.382319  0.697091  1
  Er  Er2  1  0.314770  0.011860  0.697091  1
  Er  Er3  1  0.685230  0.988140  0.302909  1
  Er  Er4  1  0.184948  0.291147  0.476094  1
  Er  Er5  1  0.815052  0.708853  0.523906  1
  Er  Er6  1  0.184948  0.708853  0.893802  1
  Er  Er7  1  0.815052  0.291147  0.106198  1
  Er  Er8  1  0.414856  0.214872  0.199984  1
  Er  Er9  1  0.585144  0.785128  0.800016  1
  Er  Er10  1  0.014890  0.214872  0.800016  1
  Er  Er11  1  0.985110  0.785128  0.199984  1
  Tl  Tl12  1  0.500000  0.500000  0.000000  1
  Fe  Fe13  1  0.109594  0.609594  0.500000  1
  Fe  Fe14  1  0.890406  0.390406  0.500000  1
  Co  Co15  1  0.381177  0.000000  0.381177  1
  Co  Co16  1  0.618823  0.000000  0.618823  1
  Pt  Pt17  1  0.000000  0.000000  0.000000  1
