# generated using pymatgen
data_La4Zn8Cd3In
_symmetry_space_group_name_H-M   'P 1'
_cell_length_a   4.58905500
_cell_length_b   7.41693588
_cell_length_c   10.35159600
_cell_angle_alpha   89.94952489
_cell_angle_beta   90.00000000
_cell_angle_gamma   90.00000000
_symmetry_Int_Tables_number   1
_chemical_formula_structural   La4Zn8Cd3In
_chemical_formula_sum   'La4 Zn8 Cd3 In1'
_cell_volume   352.33430699
_cell_formula_units_Z   1
loop_
 _symmetry_equiv_pos_site_id
 _symmetry_equiv_pos_as_xyz
  1  'x, y, z'
loop_
 _atom_site_type_symbol
 _atom_site_label
 _atom_site_symmetry_multiplicity
 _atom_site_fract_x
 _atom_site_fract_y
 _atom_site_fract_z
 _atom_site_occupancy
  La  La0  1  0.250000  0.306747  0.672560  1
  La  La1  1  0.250000  0.806093  0.828475  1
  La  La2  1  0.750000  0.692834  0.326047  1
  La  La3  1  0.750000  0.193640  0.171098  1
  Zn  Zn4  1  0.250000  0.904774  0.144069  1
  Zn  Zn5  1  0.250000  0.406315  0.356530  1
  Zn  Zn6  1  0.750000  0.094444  0.858451  1
  Zn  Zn7  1  0.750000  0.591834  0.643600  1
  Zn  Zn8  1  0.250000  0.187081  0.963481  1
  Zn  Zn9  1  0.250000  0.685722  0.535738  1
  Zn  Zn10  1  0.750000  0.813026  0.036143  1
  Zn  Zn11  1  0.750000  0.314962  0.463454  1
  Cd  Cd12  1  0.250000  0.528685  0.096899  1
  Cd  Cd13  1  0.250000  0.029935  0.403019  1
  Cd  Cd14  1  0.750000  0.471483  0.903006  1
  In  In15  1  0.750000  0.972424  0.597431  1
