# generated using pymatgen
data_CeYFe2Co15
_symmetry_space_group_name_H-M   'P 1'
_cell_length_a   6.30083714
_cell_length_b   6.30083643
_cell_length_c   6.30083683
_cell_angle_alpha   82.87278450
_cell_angle_beta   82.87278171
_cell_angle_gamma   82.87278611
_symmetry_Int_Tables_number   1
_chemical_formula_structural   CeYFe2Co15
_chemical_formula_sum   'Ce1 Y1 Fe2 Co15'
_cell_volume   244.79093233
_cell_formula_units_Z   1
loop_
 _symmetry_equiv_pos_site_id
 _symmetry_equiv_pos_as_xyz
  1  'x, y, z'
loop_
 _atom_site_type_symbol
 _atom_site_label
 _atom_site_symmetry_multiplicity
 _atom_site_fract_x
 _atom_site_fract_y
 _atom_site_fract_z
 _atom_site_occupancy
  Ce  Ce0  1  0.653142  0.653142  0.653142  1
  Y  Y1  1  0.343544  0.343544  0.343544  1
  Fe  Fe2  1  0.900899  0.900899  0.900899  1
  Fe  Fe3  1  0.096651  0.096651  0.096651  1
  Co  Co4  1  0.347672  0.845322  0.347672  1
  Co  Co5  1  0.347672  0.347672  0.845322  1
  Co  Co6  1  0.845322  0.347672  0.347672  1
  Co  Co7  1  0.654061  0.145626  0.654061  1
  Co  Co8  1  0.654061  0.654061  0.145626  1
  Co  Co9  1  0.145626  0.654061  0.654061  1
  Co  Co10  1  0.712750  0.289971  0.999526  1
  Co  Co11  1  0.999526  0.712750  0.289971  1
  Co  Co12  1  0.289971  0.999526  0.712750  1
  Co  Co13  1  0.999526  0.289971  0.712750  1
  Co  Co14  1  0.712750  0.999526  0.289971  1
  Co  Co15  1  0.289971  0.712750  0.999526  1
  Co  Co16  1  0.004131  0.004131  0.498594  1
  Co  Co17  1  0.498594  0.004131  0.004131  1
  Co  Co18  1  0.004131  0.498594  0.004131  1
