# generated using pymatgen
data_Sc2Be4Ir3Ru2
_symmetry_space_group_name_H-M   'P 1'
_cell_length_a   3.17840600
_cell_length_b   8.53385611
_cell_length_c   10.37322101
_cell_angle_alpha   90.00634258
_cell_angle_beta   90.00000000
_cell_angle_gamma   90.00000000
_symmetry_Int_Tables_number   1
_chemical_formula_structural   Sc2Be4Ir3Ru2
_chemical_formula_sum   'Sc4 Be8 Ir6 Ru4'
_cell_volume   281.36386195
_cell_formula_units_Z   2
loop_
 _symmetry_equiv_pos_site_id
 _symmetry_equiv_pos_as_xyz
  1  'x, y, z'
loop_
 _atom_site_type_symbol
 _atom_site_label
 _atom_site_symmetry_multiplicity
 _atom_site_fract_x
 _atom_site_fract_y
 _atom_site_fract_z
 _atom_site_occupancy
  Sc  Sc0  1  0.500000  0.842404  0.182920  1
  Sc  Sc1  1  0.500000  0.157596  0.817080  1
  Sc  Sc2  1  0.500000  0.657589  0.683012  1
  Sc  Sc3  1  0.500000  0.342411  0.316988  1
  Be  Be4  1  0.500000  0.963114  0.596360  1
  Be  Be5  1  0.500000  0.036886  0.403640  1
  Be  Be6  1  0.500000  0.847444  0.898955  1
  Be  Be7  1  0.500000  0.152556  0.101045  1
  Be  Be8  1  0.500000  0.652606  0.398941  1
  Be  Be9  1  0.500000  0.347394  0.601059  1
  Be  Be10  1  0.500000  0.463265  0.903611  1
  Be  Be11  1  0.500000  0.536735  0.096389  1
  Ir  Ir12  1  0.000000  0.659796  0.955509  1
  Ir  Ir13  1  0.000000  0.340204  0.044491  1
  Ir  Ir14  1  0.000000  0.840277  0.455349  1
  Ir  Ir15  1  0.000000  0.159723  0.544651  1
  Ir  Ir16  1  0.000000  0.000000  0.000000  1
  Ir  Ir17  1  0.000000  0.500000  0.500000  1
  Ru  Ru18  1  0.000000  0.403686  0.757594  1
  Ru  Ru19  1  0.000000  0.596314  0.242406  1
  Ru  Ru20  1  0.000000  0.903761  0.742454  1
  Ru  Ru21  1  0.000000  0.096239  0.257546  1
