# generated using pymatgen
data_Nd3Ho5Cd2PdPt
_symmetry_space_group_name_H-M   'P 1'
_cell_length_a   9.76945558
_cell_length_b   9.76945567
_cell_length_c   9.73846000
_cell_angle_alpha   60.10489708
_cell_angle_beta   60.10489680
_cell_angle_gamma   60.18557236
_symmetry_Int_Tables_number   1
_chemical_formula_structural   Nd3Ho5Cd2PdPt
_chemical_formula_sum   'Nd6 Ho10 Cd4 Pd2 Pt2'
_cell_volume   659.18921536
_cell_formula_units_Z   2
loop_
 _symmetry_equiv_pos_site_id
 _symmetry_equiv_pos_as_xyz
  1  'x, y, z'
loop_
 _atom_site_type_symbol
 _atom_site_label
 _atom_site_symmetry_multiplicity
 _atom_site_fract_x
 _atom_site_fract_y
 _atom_site_fract_z
 _atom_site_occupancy
  Nd  Nd0  1  0.938227  0.562265  0.561886  1
  Nd  Nd1  1  0.562265  0.938227  0.937621  1
  Nd  Nd2  1  0.562265  0.938227  0.561886  1
  Nd  Nd3  1  0.938227  0.562265  0.937621  1
  Nd  Nd4  1  0.561851  0.561851  0.938149  1
  Nd  Nd5  1  0.937716  0.937716  0.562284  1
  Ho  Ho6  1  0.351567  0.351567  0.348657  1
  Ho  Ho7  1  0.351567  0.351567  0.948208  1
  Ho  Ho8  1  0.353593  0.944873  0.350766  1
  Ho  Ho9  1  0.944873  0.353593  0.350766  1
  Ho  Ho10  1  0.810863  0.187841  0.188164  1
  Ho  Ho11  1  0.187841  0.810863  0.813132  1
  Ho  Ho12  1  0.187841  0.810863  0.188164  1
  Ho  Ho13  1  0.810863  0.187841  0.813132  1
  Ho  Ho14  1  0.188358  0.188358  0.811642  1
  Ho  Ho15  1  0.812204  0.812204  0.187796  1
  Cd  Cd16  1  0.579815  0.579815  0.579819  1
  Cd  Cd17  1  0.579815  0.579815  0.260553  1
  Cd  Cd18  1  0.579731  0.260766  0.579752  1
  Cd  Cd19  1  0.260766  0.579731  0.579752  1
  Pd  Pd20  1  0.143250  0.143250  0.144231  1
  Pd  Pd21  1  0.143250  0.143250  0.569271  1
  Pt  Pt22  1  0.142414  0.570838  0.143374  1
  Pt  Pt23  1  0.570838  0.142414  0.143374  1
