# generated using pymatgen
data_PrV9S16
_symmetry_space_group_name_H-M   'P 1'
_cell_length_a   6.37111600
_cell_length_b   6.37111623
_cell_length_c   12.75043400
_cell_angle_alpha   90.00000000
_cell_angle_beta   90.00000000
_cell_angle_gamma   120.00000917
_symmetry_Int_Tables_number   1
_chemical_formula_structural   PrV9S16
_chemical_formula_sum   'Pr1 V9 S16'
_cell_volume   448.21522026
_cell_formula_units_Z   1
loop_
 _symmetry_equiv_pos_site_id
 _symmetry_equiv_pos_as_xyz
  1  'x, y, z'
loop_
 _atom_site_type_symbol
 _atom_site_label
 _atom_site_symmetry_multiplicity
 _atom_site_fract_x
 _atom_site_fract_y
 _atom_site_fract_z
 _atom_site_occupancy
  Pr  Pr0  1  0.000000  0.000000  0.000000  1
  V  V1  1  0.000000  0.000000  0.271627  1
  V  V2  1  0.000000  0.000000  0.728373  1
  V  V3  1  0.506217  0.012434  0.274583  1
  V  V4  1  0.493783  0.987566  0.725417  1
  V  V5  1  0.987566  0.493783  0.274583  1
  V  V6  1  0.012434  0.506217  0.725417  1
  V  V7  1  0.506217  0.493783  0.274583  1
  V  V8  1  0.493783  0.506217  0.725417  1
  V  V9  1  0.000000  0.000000  0.500000  1
  S  S10  1  0.333333  0.666667  0.608419  1
  S  S11  1  0.666667  0.333333  0.391581  1
  S  S12  1  0.666667  0.333333  0.154393  1
  S  S13  1  0.333333  0.666667  0.845607  1
  S  S14  1  0.171637  0.343272  0.159824  1
  S  S15  1  0.828363  0.656728  0.840176  1
  S  S16  1  0.656728  0.828363  0.159824  1
  S  S17  1  0.832598  0.665198  0.613767  1
  S  S18  1  0.343272  0.171637  0.840176  1
  S  S19  1  0.167402  0.334802  0.386233  1
  S  S20  1  0.171637  0.828363  0.159824  1
  S  S21  1  0.334802  0.167402  0.613767  1
  S  S22  1  0.828363  0.171637  0.840176  1
  S  S23  1  0.665198  0.832598  0.386233  1
  S  S24  1  0.832598  0.167402  0.613767  1
  S  S25  1  0.167402  0.832598  0.386233  1
