# generated using pymatgen
data_Li4YbPu3Si8
_symmetry_space_group_name_H-M   'P 1'
_cell_length_a   3.78828800
_cell_length_b   7.66803114
_cell_length_c   10.24344215
_cell_angle_alpha   90.22342749
_cell_angle_beta   90.00000000
_cell_angle_gamma   90.00000000
_symmetry_Int_Tables_number   1
_chemical_formula_structural   Li4YbPu3Si8
_chemical_formula_sum   'Li4 Yb1 Pu3 Si8'
_cell_volume   297.55652157
_cell_formula_units_Z   1
loop_
 _symmetry_equiv_pos_site_id
 _symmetry_equiv_pos_as_xyz
  1  'x, y, z'
loop_
 _atom_site_type_symbol
 _atom_site_label
 _atom_site_symmetry_multiplicity
 _atom_site_fract_x
 _atom_site_fract_y
 _atom_site_fract_z
 _atom_site_occupancy
  Li  Li0  1  0.250000  0.487779  0.392872  1
  Li  Li1  1  0.250000  0.994368  0.104777  1
  Li  Li2  1  0.750000  0.510112  0.604112  1
  Li  Li3  1  0.750000  0.010984  0.894381  1
  Yb  Yb4  1  0.750000  0.363655  0.134700  1
  Pu  Pu5  1  0.250000  0.134287  0.636891  1
  Pu  Pu6  1  0.250000  0.636443  0.864220  1
  Pu  Pu7  1  0.750000  0.861779  0.365819  1
  Si  Si8  1  0.250000  0.238885  0.928938  1
  Si  Si9  1  0.250000  0.737849  0.567190  1
  Si  Si10  1  0.750000  0.762716  0.066213  1
  Si  Si11  1  0.750000  0.257146  0.436521  1
  Si  Si12  1  0.250000  0.153518  0.322522  1
  Si  Si13  1  0.250000  0.665995  0.182213  1
  Si  Si14  1  0.750000  0.841210  0.682789  1
  Si  Si15  1  0.750000  0.343272  0.815843  1
