# generated using pymatgen
data_Ho2LuBe2Co9B4
_symmetry_space_group_name_H-M   'P 1'
_cell_length_a   5.01198700
_cell_length_b   5.01105228
_cell_length_c   9.35200900
_cell_angle_alpha   89.99978904
_cell_angle_beta   90.00039898
_cell_angle_gamma   120.00616400
_symmetry_Int_Tables_number   1
_chemical_formula_structural   Ho2LuBe2Co9B4
_chemical_formula_sum   'Ho2 Lu1 Be2 Co9 B4'
_cell_volume   203.39835629
_cell_formula_units_Z   1
loop_
 _symmetry_equiv_pos_site_id
 _symmetry_equiv_pos_as_xyz
  1  'x, y, z'
loop_
 _atom_site_type_symbol
 _atom_site_label
 _atom_site_symmetry_multiplicity
 _atom_site_fract_x
 _atom_site_fract_y
 _atom_site_fract_z
 _atom_site_occupancy
  Ho  Ho0  1  0.999995  0.000000  0.999803  1
  Ho  Ho1  1  0.999982  0.000000  0.337865  1
  Lu  Lu2  1  0.000018  0.000000  0.662284  1
  Be  Be3  1  0.333262  0.666534  0.999832  1
  Be  Be4  1  0.666726  0.333466  0.999832  1
  Co  Co5  1  0.499991  0.000000  0.500752  1
  Co  Co6  1  0.500000  0.500005  0.500776  1
  Co  Co7  1  0.999995  0.499995  0.500776  1
  Co  Co8  1  0.499993  0.000000  0.189099  1
  Co  Co9  1  0.499992  0.499998  0.189109  1
  Co  Co10  1  0.999995  0.500002  0.189109  1
  Co  Co11  1  0.499991  0.000000  0.810123  1
  Co  Co12  1  0.499996  0.500003  0.810055  1
  Co  Co13  1  0.999993  0.499997  0.810055  1
  B  B14  1  0.333352  0.666726  0.342049  1
  B  B15  1  0.666626  0.333274  0.342049  1
  B  B16  1  0.666596  0.333201  0.658216  1
  B  B17  1  0.333395  0.666799  0.658216  1
