# generated using pymatgen
data_Ce2ErTh(AlRu)4
_symmetry_space_group_name_H-M   'P 1'
_cell_length_a   4.00718300
_cell_length_b   7.33041071
_cell_length_c   16.00750625
_cell_angle_alpha   89.85414360
_cell_angle_beta   90.00000000
_cell_angle_gamma   90.00000000
_symmetry_Int_Tables_number   1
_chemical_formula_structural   Ce2ErTh(AlRu)4
_chemical_formula_sum   'Ce4 Er2 Th2 Al8 Ru8'
_cell_volume   470.20772191
_cell_formula_units_Z   2
loop_
 _symmetry_equiv_pos_site_id
 _symmetry_equiv_pos_as_xyz
  1  'x, y, z'
loop_
 _atom_site_type_symbol
 _atom_site_label
 _atom_site_symmetry_multiplicity
 _atom_site_fract_x
 _atom_site_fract_y
 _atom_site_fract_z
 _atom_site_occupancy
  Ce  Ce0  1  0.750000  0.820371  0.436922  1
  Ce  Ce1  1  0.750000  0.451418  0.283608  1
  Ce  Ce2  1  0.750000  0.328812  0.066020  1
  Ce  Ce3  1  0.250000  0.542631  0.715019  1
  Er  Er4  1  0.750000  0.956889  0.219822  1
  Er  Er5  1  0.250000  0.157073  0.556955  1
  Th  Th6  1  0.250000  0.674234  0.940174  1
  Th  Th7  1  0.250000  0.046190  0.777831  1
  Al  Al8  1  0.750000  0.483894  0.560540  1
  Al  Al9  1  0.750000  0.372274  0.849336  1
  Al  Al10  1  0.750000  0.011409  0.939862  1
  Al  Al11  1  0.750000  0.870263  0.643974  1
  Al  Al12  1  0.250000  0.484957  0.437407  1
  Al  Al13  1  0.250000  0.999522  0.069167  1
  Al  Al14  1  0.250000  0.638974  0.156823  1
  Al  Al15  1  0.250000  0.121019  0.344056  1
  Ru  Ru16  1  0.750000  0.758013  0.815183  1
  Ru  Ru17  1  0.250000  0.245680  0.940545  1
  Ru  Ru18  1  0.750000  0.263264  0.425034  1
  Ru  Ru19  1  0.250000  0.754514  0.325224  1
  Ru  Ru20  1  0.750000  0.767535  0.066847  1
  Ru  Ru21  1  0.750000  0.248917  0.687793  1
  Ru  Ru22  1  0.250000  0.272657  0.179390  1
  Ru  Ru23  1  0.250000  0.729490  0.562472  1
