# generated using pymatgen
data_K6ScInP4
_symmetry_space_group_name_H-M   'P 1'
_cell_length_a   9.04501829
_cell_length_b   9.04501875
_cell_length_c   9.04501788
_cell_angle_alpha   137.22698259
_cell_angle_beta   129.37132839
_cell_angle_gamma   68.38342200
_symmetry_Int_Tables_number   1
_chemical_formula_structural   K6ScInP4
_chemical_formula_sum   'K6 Sc1 In1 P4'
_cell_volume   381.75572470
_cell_formula_units_Z   1
loop_
 _symmetry_equiv_pos_site_id
 _symmetry_equiv_pos_as_xyz
  1  'x, y, z'
loop_
 _atom_site_type_symbol
 _atom_site_label
 _atom_site_symmetry_multiplicity
 _atom_site_fract_x
 _atom_site_fract_y
 _atom_site_fract_z
 _atom_site_occupancy
  K  K0  1  0.008663  0.803533  0.189769  1
  K  K1  1  0.500000  0.750000  0.250000  1
  K  K2  1  0.613764  0.318894  0.310231  1
  K  K3  1  0.386236  0.696467  0.705131  1
  K  K4  1  0.500000  0.250000  0.750000  1
  K  K5  1  0.991337  0.181106  0.794869  1
  Sc  Sc6  1  0.000000  0.250000  0.250000  1
  In  In7  1  0.000000  0.750000  0.750000  1
  P  P8  1  0.089212  0.397233  0.682700  1
  P  P9  1  0.910788  0.593487  0.308020  1
  P  P10  1  0.285467  0.102767  0.191980  1
  P  P11  1  0.714533  0.906513  0.817300  1
