# generated using pymatgen
data_Sr4Sc7BiSe16
_symmetry_space_group_name_H-M   'P 1'
_cell_length_a   4.01030000
_cell_length_b   12.38022368
_cell_length_c   14.51885451
_cell_angle_alpha   90.33399603
_cell_angle_beta   90.00000000
_cell_angle_gamma   90.00000000
_symmetry_Int_Tables_number   1
_chemical_formula_structural   Sr4Sc7BiSe16
_chemical_formula_sum   'Sr4 Sc7 Bi1 Se16'
_cell_volume   720.82580867
_cell_formula_units_Z   1
loop_
 _symmetry_equiv_pos_site_id
 _symmetry_equiv_pos_as_xyz
  1  'x, y, z'
loop_
 _atom_site_type_symbol
 _atom_site_label
 _atom_site_symmetry_multiplicity
 _atom_site_fract_x
 _atom_site_fract_y
 _atom_site_fract_z
 _atom_site_occupancy
  Sr  Sr0  1  0.750000  0.738970  0.172170  1
  Sr  Sr1  1  0.750000  0.236814  0.335897  1
  Sr  Sr2  1  0.250000  0.256299  0.823749  1
  Sr  Sr3  1  0.250000  0.763725  0.668660  1
  Sc  Sc4  1  0.750000  0.052612  0.111005  1
  Sc  Sc5  1  0.750000  0.560640  0.396408  1
  Sc  Sc6  1  0.250000  0.943392  0.889939  1
  Sc  Sc7  1  0.250000  0.443915  0.611001  1
  Sc  Sc8  1  0.750000  0.081226  0.596711  1
  Sc  Sc9  1  0.750000  0.586241  0.897719  1
  Sc  Sc10  1  0.250000  0.917307  0.403443  1
  Bi  Bi11  1  0.250000  0.415020  0.095058  1
  Se  Se12  1  0.750000  0.298055  0.656885  1
  Se  Se13  1  0.750000  0.800547  0.837918  1
  Se  Se14  1  0.250000  0.702923  0.342832  1
  Se  Se15  1  0.250000  0.188496  0.169826  1
  Se  Se16  1  0.750000  0.379270  0.950632  1
  Se  Se17  1  0.750000  0.877016  0.528993  1
  Se  Se18  1  0.250000  0.631599  0.024533  1
  Se  Se19  1  0.250000  0.122329  0.472421  1
  Se  Se20  1  0.750000  0.474424  0.225210  1
  Se  Se21  1  0.750000  0.966367  0.286314  1
  Se  Se22  1  0.250000  0.533879  0.781847  1
  Se  Se23  1  0.250000  0.030179  0.714547  1
  Se  Se24  1  0.750000  0.087291  0.927224  1
  Se  Se25  1  0.750000  0.589865  0.577437  1
  Se  Se26  1  0.250000  0.908656  0.073385  1
  Se  Se27  1  0.250000  0.412944  0.428233  1
