# generated using pymatgen
data_Li3Ta7B20
_symmetry_space_group_name_H-M   'P 1'
_cell_length_a   6.10128450
_cell_length_b   6.96357303
_cell_length_c   7.36614316
_cell_angle_alpha   94.31609689
_cell_angle_beta   101.95450788
_cell_angle_gamma   116.01114369
_symmetry_Int_Tables_number   1
_chemical_formula_structural   Li3Ta7B20
_chemical_formula_sum   'Li3 Ta7 B20'
_cell_volume   270.20831807
_cell_formula_units_Z   1
loop_
 _symmetry_equiv_pos_site_id
 _symmetry_equiv_pos_as_xyz
  1  'x, y, z'
loop_
 _atom_site_type_symbol
 _atom_site_label
 _atom_site_symmetry_multiplicity
 _atom_site_fract_x
 _atom_site_fract_y
 _atom_site_fract_z
 _atom_site_occupancy
  Li  Li0  1  0.998301  0.995130  0.995499  1
  Li  Li1  1  0.495276  0.995795  0.995918  1
  Li  Li2  1  0.007818  0.611349  0.809033  1
  Ta  Ta3  1  0.498253  0.797523  0.402592  1
  Ta  Ta4  1  0.995915  0.393162  0.200422  1
  Ta  Ta5  1  0.503934  0.205953  0.600590  1
  Ta  Ta6  1  0.000015  0.798692  0.398986  1
  Ta  Ta7  1  0.502346  0.604172  0.798903  1
  Ta  Ta8  1  0.496404  0.393799  0.197731  1
  Ta  Ta9  1  0.001812  0.205793  0.599074  1
  B  B10  1  0.332351  0.230195  0.869787  1
  B  B11  1  0.331432  0.633837  0.064017  1
  B  B12  1  0.165128  0.366254  0.932519  1
  B  B13  1  0.329643  0.028037  0.262154  1
  B  B14  1  0.164737  0.762345  0.134151  1
  B  B15  1  0.833636  0.233911  0.865642  1
  B  B16  1  0.162506  0.161994  0.325462  1
  B  B17  1  0.835394  0.636285  0.061900  1
  B  B18  1  0.333604  0.434321  0.465322  1
  B  B19  1  0.667479  0.366628  0.933355  1
  B  B20  1  0.829521  0.028041  0.263955  1
  B  B21  1  0.665230  0.765539  0.130232  1
  B  B22  1  0.335231  0.836941  0.672583  1
  B  B23  1  0.166895  0.569523  0.540300  1
  B  B24  1  0.662619  0.162262  0.328164  1
  B  B25  1  0.834667  0.434510  0.470319  1
  B  B26  1  0.167671  0.969936  0.731083  1
  B  B27  1  0.839732  0.837493  0.673693  1
  B  B28  1  0.672959  0.570620  0.539402  1
  B  B29  1  0.669488  0.969959  0.737215  1
