# generated using pymatgen
data_Nb12Al11Zn13
_symmetry_space_group_name_H-M   'P 1'
_cell_length_a   8.76820800
_cell_length_b   8.76820761
_cell_length_c   8.37486200
_cell_angle_alpha   90.00000000
_cell_angle_beta   90.00000000
_cell_angle_gamma   119.99999393
_symmetry_Int_Tables_number   1
_chemical_formula_structural   Nb12Al11Zn13
_chemical_formula_sum   'Nb12 Al11 Zn13'
_cell_volume   557.60927075
_cell_formula_units_Z   1
loop_
 _symmetry_equiv_pos_site_id
 _symmetry_equiv_pos_as_xyz
  1  'x, y, z'
loop_
 _atom_site_type_symbol
 _atom_site_label
 _atom_site_symmetry_multiplicity
 _atom_site_fract_x
 _atom_site_fract_y
 _atom_site_fract_z
 _atom_site_occupancy
  Nb  Nb0  1  0.330233  0.999671  0.063218  1
  Nb  Nb1  1  0.669437  0.999671  0.936782  1
  Nb  Nb2  1  0.000329  0.330563  0.063218  1
  Nb  Nb3  1  0.671091  0.001272  0.563581  1
  Nb  Nb4  1  0.998728  0.328909  0.436419  1
  Nb  Nb5  1  0.000329  0.669767  0.936782  1
  Nb  Nb6  1  0.330181  0.001272  0.436419  1
  Nb  Nb7  1  0.998728  0.669819  0.563581  1
  Nb  Nb8  1  0.669437  0.669767  0.063218  1
  Nb  Nb9  1  0.330233  0.330563  0.936782  1
  Nb  Nb10  1  0.330181  0.328909  0.563581  1
  Nb  Nb11  1  0.671091  0.669819  0.436419  1
  Al  Al12  1  0.666667  0.333333  0.500000  1
  Al  Al13  1  0.666667  0.333333  0.000000  1
  Al  Al14  1  0.333333  0.666667  0.000000  1
  Al  Al15  1  0.178482  0.999719  0.749975  1
  Al  Al16  1  0.821237  0.999719  0.250025  1
  Al  Al17  1  0.000281  0.178763  0.749975  1
  Al  Al18  1  0.000281  0.821518  0.250025  1
  Al  Al19  1  0.821237  0.821518  0.749975  1
  Al  Al20  1  0.178482  0.178763  0.250025  1
  Al  Al21  1  0.000000  0.000000  0.500000  1
  Al  Al22  1  0.000000  0.000000  0.000000  1
  Zn  Zn23  1  0.161925  0.500613  0.747084  1
  Zn  Zn24  1  0.838705  0.499979  0.249913  1
  Zn  Zn25  1  0.499387  0.661312  0.747084  1
  Zn  Zn26  1  0.500021  0.161295  0.750087  1
  Zn  Zn27  1  0.500021  0.338726  0.249913  1
  Zn  Zn28  1  0.499387  0.838075  0.252916  1
  Zn  Zn29  1  0.338688  0.838075  0.747084  1
  Zn  Zn30  1  0.661274  0.499979  0.750087  1
  Zn  Zn31  1  0.661274  0.161295  0.249913  1
  Zn  Zn32  1  0.338688  0.500613  0.252916  1
  Zn  Zn33  1  0.838705  0.338726  0.750087  1
  Zn  Zn34  1  0.161925  0.661312  0.252916  1
  Zn  Zn35  1  0.333333  0.666667  0.500000  1
