# generated using pymatgen
data_Tb2ThNi2Ir7
_symmetry_space_group_name_H-M   'P 1'
_cell_length_a   5.32465161
_cell_length_b   5.32464978
_cell_length_c   9.02490521
_cell_angle_alpha   72.84260012
_cell_angle_beta   72.84260785
_cell_angle_gamma   60.00001104
_symmetry_Int_Tables_number   1
_chemical_formula_structural   Tb2ThNi2Ir7
_chemical_formula_sum   'Tb2 Th1 Ni2 Ir7'
_cell_volume   208.34062888
_cell_formula_units_Z   1
loop_
 _symmetry_equiv_pos_site_id
 _symmetry_equiv_pos_as_xyz
  1  'x, y, z'
loop_
 _atom_site_type_symbol
 _atom_site_label
 _atom_site_symmetry_multiplicity
 _atom_site_fract_x
 _atom_site_fract_y
 _atom_site_fract_z
 _atom_site_occupancy
  Tb  Tb0  1  0.141123  0.141123  0.576631  1
  Tb  Tb1  1  0.858877  0.858877  0.423369  1
  Th  Th2  1  0.000000  0.000000  0.000000  1
  Ni  Ni3  1  0.333646  0.333646  0.999061  1
  Ni  Ni4  1  0.666354  0.666354  0.000939  1
  Ir  Ir5  1  0.078136  0.580996  0.759870  1
  Ir  Ir6  1  0.580996  0.580996  0.759870  1
  Ir  Ir7  1  0.580996  0.078136  0.759870  1
  Ir  Ir8  1  0.921864  0.419004  0.240130  1
  Ir  Ir9  1  0.419004  0.419004  0.240130  1
  Ir  Ir10  1  0.419004  0.921864  0.240130  1
  Ir  Ir11  1  0.500000  0.500000  0.500000  1
