# generated using pymatgen
data_LiLu12Ni4Sn
_symmetry_space_group_name_H-M   'P 1'
_cell_length_a   8.18136430
_cell_length_b   8.18136376
_cell_length_c   8.18136432
_cell_angle_alpha   111.91328430
_cell_angle_beta   106.28764000
_cell_angle_gamma   110.26345955
_symmetry_Int_Tables_number   1
_chemical_formula_structural   LiLu12Ni4Sn
_chemical_formula_sum   'Li1 Lu12 Ni4 Sn1'
_cell_volume   420.49422572
_cell_formula_units_Z   1
loop_
 _symmetry_equiv_pos_site_id
 _symmetry_equiv_pos_as_xyz
  1  'x, y, z'
loop_
 _atom_site_type_symbol
 _atom_site_label
 _atom_site_symmetry_multiplicity
 _atom_site_fract_x
 _atom_site_fract_y
 _atom_site_fract_z
 _atom_site_occupancy
  Li  Li0  1  0.000000  0.500000  0.500000  1
  Lu  Lu1  1  0.321565  0.805401  0.126966  1
  Lu  Lu2  1  0.183047  0.392232  0.209185  1
  Lu  Lu3  1  0.816953  0.026136  0.209185  1
  Lu  Lu4  1  0.573767  0.301367  0.272400  1
  Lu  Lu5  1  0.971035  0.698634  0.272400  1
  Lu  Lu6  1  0.678434  0.805401  0.483836  1
  Lu  Lu7  1  0.321564  0.194599  0.516163  1
  Lu  Lu8  1  0.028966  0.301367  0.727600  1
  Lu  Lu9  1  0.426233  0.698633  0.727600  1
  Lu  Lu10  1  0.183047  0.973863  0.790815  1
  Lu  Lu11  1  0.816953  0.607767  0.790815  1
  Lu  Lu12  1  0.678435  0.194599  0.873034  1
  Ni  Ni13  1  0.124753  0.000000  0.124753  1
  Ni  Ni14  1  0.349820  0.849820  0.500000  1
  Ni  Ni15  1  0.650179  0.150179  0.500000  1
  Ni  Ni16  1  0.875248  0.000000  0.875248  1
  Sn  Sn17  1  0.500000  0.500000  0.000000  1
