# generated using pymatgen
data_Bi(NO3)3
_symmetry_space_group_name_H-M   'P 1'
_cell_length_a   4.34817900
_cell_length_b   7.14606865
_cell_length_c   11.52103521
_cell_angle_alpha   89.93107685
_cell_angle_beta   90.00000000
_cell_angle_gamma   90.00000000
_symmetry_Int_Tables_number   1
_chemical_formula_structural   Bi(NO3)3
_chemical_formula_sum   'Bi2 N6 O18'
_cell_volume   357.98579007
_cell_formula_units_Z   2
loop_
 _symmetry_equiv_pos_site_id
 _symmetry_equiv_pos_as_xyz
  1  'x, y, z'
loop_
 _atom_site_type_symbol
 _atom_site_label
 _atom_site_symmetry_multiplicity
 _atom_site_fract_x
 _atom_site_fract_y
 _atom_site_fract_z
 _atom_site_occupancy
  Bi  Bi0  1  0.499143  0.196117  0.249999  1
  Bi  Bi1  1  0.999143  0.803883  0.750001  1
  N  N2  1  0.498785  0.448042  0.750095  1
  N  N3  1  0.998785  0.551958  0.249905  1
  N  N4  1  0.873903  0.190007  0.038248  1
  N  N5  1  0.123644  0.190024  0.461688  1
  N  N6  1  0.373903  0.809993  0.961752  1
  N  N7  1  0.623644  0.809976  0.538312  1
  O  O8  1  0.499503  0.278030  0.749961  1
  O  O9  1  0.999503  0.721970  0.250039  1
  O  O10  1  0.711188  0.540345  0.804991  1
  O  O11  1  0.285352  0.539967  0.695312  1
  O  O12  1  0.211188  0.459655  0.195009  1
  O  O13  1  0.785352  0.460033  0.304688  1
  O  O14  1  0.625523  0.286907  0.053312  1
  O  O15  1  0.371922  0.286793  0.446520  1
  O  O16  1  0.125523  0.713093  0.946688  1
  O  O17  1  0.871922  0.713207  0.553480  1
  O  O18  1  0.977115  0.104359  0.130612  1
  O  O19  1  0.020241  0.104511  0.369366  1
  O  O20  1  0.477115  0.895641  0.869388  1
  O  O21  1  0.520241  0.895489  0.630634  1
  O  O22  1  0.000365  0.177614  0.944231  1
  O  O23  1  0.997062  0.177454  0.555688  1
  O  O24  1  0.500365  0.822386  0.055769  1
  O  O25  1  0.497062  0.822546  0.444312  1
