# generated using pymatgen
data_Tm2U2Ga12Pd
_symmetry_space_group_name_H-M   'P 1'
_cell_length_a   7.43070477
_cell_length_b   7.50180123
_cell_length_c   7.43283658
_cell_angle_alpha   109.37056490
_cell_angle_beta   109.39811759
_cell_angle_gamma   109.27576837
_symmetry_Int_Tables_number   1
_chemical_formula_structural   Tm2U2Ga12Pd
_chemical_formula_sum   'Tm2 U2 Ga12 Pd1'
_cell_volume   320.39893771
_cell_formula_units_Z   1
loop_
 _symmetry_equiv_pos_site_id
 _symmetry_equiv_pos_as_xyz
  1  'x, y, z'
loop_
 _atom_site_type_symbol
 _atom_site_label
 _atom_site_symmetry_multiplicity
 _atom_site_fract_x
 _atom_site_fract_y
 _atom_site_fract_z
 _atom_site_occupancy
  Tm  Tm0  1  0.000000  0.500000  0.000000  1
  Tm  Tm1  1  0.500000  0.500000  0.500000  1
  U  U2  1  0.000000  0.000000  0.500000  1
  U  U3  1  0.500000  0.000000  0.000000  1
  Ga  Ga4  1  0.749174  0.249395  0.500171  1
  Ga  Ga5  1  0.749971  0.500007  0.249896  1
  Ga  Ga6  1  0.500123  0.249384  0.749270  1
  Ga  Ga7  1  0.250029  0.499993  0.750104  1
  Ga  Ga8  1  0.250826  0.750605  0.499829  1
  Ga  Ga9  1  0.499877  0.750616  0.250730  1
  Ga  Ga10  1  0.705461  0.707492  0.001951  1
  Ga  Ga11  1  0.295545  0.000089  0.295492  1
  Ga  Ga12  1  0.998055  0.292539  0.294491  1
  Ga  Ga13  1  0.294539  0.292508  0.998049  1
  Ga  Ga14  1  0.704455  0.999911  0.704508  1
  Ga  Ga15  1  0.001945  0.707461  0.705509  1
  Pd  Pd16  1  0.000000  0.000000  0.000000  1
