# generated using pymatgen
data_Tm16Zn3HgRh4
_symmetry_space_group_name_H-M   'P 1'
_cell_length_a   9.37877069
_cell_length_b   9.37877110
_cell_length_c   9.37877017
_cell_angle_alpha   59.97949883
_cell_angle_beta   59.97949697
_cell_angle_gamma   59.97950565
_symmetry_Int_Tables_number   1
_chemical_formula_structural   Tm16Zn3HgRh4
_chemical_formula_sum   'Tm16 Zn3 Hg1 Rh4'
_cell_volume   583.07017568
_cell_formula_units_Z   1
loop_
 _symmetry_equiv_pos_site_id
 _symmetry_equiv_pos_as_xyz
  1  'x, y, z'
loop_
 _atom_site_type_symbol
 _atom_site_label
 _atom_site_symmetry_multiplicity
 _atom_site_fract_x
 _atom_site_fract_y
 _atom_site_fract_z
 _atom_site_occupancy
  Tm  Tm0  1  0.063904  0.063904  0.435130  1
  Tm  Tm1  1  0.435864  0.060500  0.435864  1
  Tm  Tm2  1  0.063904  0.435130  0.063904  1
  Tm  Tm3  1  0.062713  0.646240  0.646240  1
  Tm  Tm4  1  0.435864  0.435864  0.060500  1
  Tm  Tm5  1  0.646240  0.062713  0.646240  1
  Tm  Tm6  1  0.189833  0.811056  0.189833  1
  Tm  Tm7  1  0.189833  0.189833  0.811056  1
  Tm  Tm8  1  0.809867  0.809867  0.190520  1
  Tm  Tm9  1  0.435130  0.063904  0.063904  1
  Tm  Tm10  1  0.811056  0.189833  0.189833  1
  Tm  Tm11  1  0.060500  0.435864  0.435864  1
  Tm  Tm12  1  0.809867  0.190520  0.809867  1
  Tm  Tm13  1  0.190520  0.809867  0.809867  1
  Tm  Tm14  1  0.646240  0.646240  0.062713  1
  Tm  Tm15  1  0.645321  0.645321  0.645321  1
  Zn  Zn16  1  0.741216  0.421346  0.421346  1
  Zn  Zn17  1  0.421346  0.741216  0.421346  1
  Zn  Zn18  1  0.421346  0.421346  0.741216  1
  Hg  Hg19  1  0.418862  0.418862  0.418862  1
  Rh  Rh20  1  0.855735  0.855735  0.433055  1
  Rh  Rh21  1  0.856044  0.856044  0.856044  1
  Rh  Rh22  1  0.433055  0.855735  0.855735  1
  Rh  Rh23  1  0.855735  0.433055  0.855735  1
