# generated using pymatgen
data_Dy5ErAl16Os7
_symmetry_space_group_name_H-M   'P 1'
_cell_length_a   8.94368129
_cell_length_b   8.95126316
_cell_length_c   8.95126260
_cell_angle_alpha   59.94397933
_cell_angle_beta   60.02800889
_cell_angle_gamma   60.02800818
_symmetry_Int_Tables_number   1
_chemical_formula_structural   Dy5ErAl16Os7
_chemical_formula_sum   'Dy5 Er1 Al16 Os7'
_cell_volume   506.72146990
_cell_formula_units_Z   1
loop_
 _symmetry_equiv_pos_site_id
 _symmetry_equiv_pos_as_xyz
  1  'x, y, z'
loop_
 _atom_site_type_symbol
 _atom_site_label
 _atom_site_symmetry_multiplicity
 _atom_site_fract_x
 _atom_site_fract_y
 _atom_site_fract_z
 _atom_site_occupancy
  Dy  Dy0  1  0.712110  0.711332  0.287890  1
  Dy  Dy1  1  0.288668  0.711332  0.287890  1
  Dy  Dy2  1  0.712555  0.287445  0.287445  1
  Dy  Dy3  1  0.288668  0.287890  0.711332  1
  Dy  Dy4  1  0.712110  0.287890  0.711332  1
  Er  Er5  1  0.288086  0.711914  0.711914  1
  Al  Al6  1  0.879028  0.878223  0.363720  1
  Al  Al7  1  0.879028  0.363720  0.878223  1
  Al  Al8  1  0.361616  0.879187  0.879187  1
  Al  Al9  1  0.880010  0.879187  0.879187  1
  Al  Al10  1  0.120813  0.119990  0.638384  1
  Al  Al11  1  0.120813  0.638384  0.119990  1
  Al  Al12  1  0.636280  0.120972  0.120972  1
  Al  Al13  1  0.121777  0.120972  0.120972  1
  Al  Al14  1  0.667655  0.668503  0.996187  1
  Al  Al15  1  0.667655  0.996187  0.668503  1
  Al  Al16  1  0.998444  0.667413  0.667413  1
  Al  Al17  1  0.666732  0.667413  0.667413  1
  Al  Al18  1  0.332587  0.333268  0.001556  1
  Al  Al19  1  0.332587  0.001556  0.333268  1
  Al  Al20  1  0.003813  0.332345  0.332345  1
  Al  Al21  1  0.331497  0.332345  0.332345  1
  Os  Os22  1  0.999172  0.000828  0.000828  1
  Os  Os23  1  0.000035  0.999965  0.500666  1
  Os  Os24  1  0.499334  0.999965  0.500666  1
  Os  Os25  1  0.999780  0.500220  0.500220  1
  Os  Os26  1  0.499334  0.500666  0.999965  1
  Os  Os27  1  0.000035  0.500666  0.999965  1
  Os  Os28  1  0.499780  0.000220  0.000220  1
