# generated using pymatgen
data_Ho3TmAl4Ru3Pt
_symmetry_space_group_name_H-M   'P 1'
_cell_length_a   4.05654200
_cell_length_b   6.97855332
_cell_length_c   8.09061211
_cell_angle_alpha   90.34600013
_cell_angle_beta   90.00000000
_cell_angle_gamma   90.00000000
_symmetry_Int_Tables_number   1
_chemical_formula_structural   Ho3TmAl4Ru3Pt
_chemical_formula_sum   'Ho3 Tm1 Al4 Ru3 Pt1'
_cell_volume   229.03130044
_cell_formula_units_Z   1
loop_
 _symmetry_equiv_pos_site_id
 _symmetry_equiv_pos_as_xyz
  1  'x, y, z'
loop_
 _atom_site_type_symbol
 _atom_site_label
 _atom_site_symmetry_multiplicity
 _atom_site_fract_x
 _atom_site_fract_y
 _atom_site_fract_z
 _atom_site_occupancy
  Ho  Ho0  1  0.250000  0.028495  0.674870  1
  Ho  Ho1  1  0.250000  0.539412  0.818194  1
  Ho  Ho2  1  0.750000  0.470104  0.183170  1
  Tm  Tm3  1  0.750000  0.966248  0.321631  1
  Al  Al4  1  0.250000  0.135827  0.064887  1
  Al  Al5  1  0.250000  0.637977  0.439769  1
  Al  Al6  1  0.750000  0.856442  0.940935  1
  Al  Al7  1  0.750000  0.363434  0.557308  1
  Ru  Ru8  1  0.250000  0.265732  0.376644  1
  Ru  Ru9  1  0.250000  0.770537  0.121862  1
  Ru  Ru10  1  0.750000  0.735102  0.621819  1
  Pt  Pt11  1  0.750000  0.230691  0.878915  1
