# generated using pymatgen
data_Dy2Y2SiI6
_symmetry_space_group_name_H-M   'P 1'
_cell_length_a   4.21202900
_cell_length_b   14.01514900
_cell_length_c   14.78932700
_cell_angle_alpha   90.00000000
_cell_angle_beta   90.00000000
_cell_angle_gamma   90.00000000
_symmetry_Int_Tables_number   1
_chemical_formula_structural   Dy2Y2SiI6
_chemical_formula_sum   'Dy4 Y4 Si2 I12'
_cell_volume   873.04671678
_cell_formula_units_Z   2
loop_
 _symmetry_equiv_pos_site_id
 _symmetry_equiv_pos_as_xyz
  1  'x, y, z'
loop_
 _atom_site_type_symbol
 _atom_site_label
 _atom_site_symmetry_multiplicity
 _atom_site_fract_x
 _atom_site_fract_y
 _atom_site_fract_z
 _atom_site_occupancy
  Dy  Dy0  1  0.000000  0.111228  0.574470  1
  Dy  Dy1  1  0.000000  0.888772  0.425530  1
  Dy  Dy2  1  0.000000  0.611228  0.925530  1
  Dy  Dy3  1  0.000000  0.388772  0.074470  1
  Y  Y4  1  0.500000  0.114044  0.347764  1
  Y  Y5  1  0.500000  0.885956  0.652236  1
  Y  Y6  1  0.500000  0.614044  0.152236  1
  Y  Y7  1  0.500000  0.385956  0.847764  1
  Si  Si8  1  0.500000  0.000000  0.500000  1
  Si  Si9  1  0.500000  0.500000  0.000000  1
  I  I10  1  0.500000  0.245217  0.161437  1
  I  I11  1  0.500000  0.754783  0.838563  1
  I  I12  1  0.500000  0.745217  0.338563  1
  I  I13  1  0.500000  0.254783  0.661437  1
  I  I14  1  0.000000  0.258621  0.414310  1
  I  I15  1  0.000000  0.741379  0.585690  1
  I  I16  1  0.000000  0.758621  0.085690  1
  I  I17  1  0.000000  0.241379  0.914310  1
  I  I18  1  0.000000  0.999079  0.240573  1
  I  I19  1  0.000000  0.000921  0.759427  1
  I  I20  1  0.000000  0.499079  0.259427  1
  I  I21  1  0.000000  0.500921  0.740573  1
