# generated using pymatgen
data_Dy10GaBi5S
_symmetry_space_group_name_H-M   'P 1'
_cell_length_a   9.27060694
_cell_length_b   9.33584573
_cell_length_c   6.32818900
_cell_angle_alpha   90.01838700
_cell_angle_beta   89.96296722
_cell_angle_gamma   119.76911773
_symmetry_Int_Tables_number   1
_chemical_formula_structural   Dy10GaBi5S
_chemical_formula_sum   'Dy10 Ga1 Bi5 S1'
_cell_volume   475.42007805
_cell_formula_units_Z   1
loop_
 _symmetry_equiv_pos_site_id
 _symmetry_equiv_pos_as_xyz
  1  'x, y, z'
loop_
 _atom_site_type_symbol
 _atom_site_label
 _atom_site_symmetry_multiplicity
 _atom_site_fract_x
 _atom_site_fract_y
 _atom_site_fract_z
 _atom_site_occupancy
  Dy  Dy0  1  0.001345  0.757073  0.245978  1
  Dy  Dy1  1  0.244272  0.242927  0.245978  1
  Dy  Dy2  1  0.757668  0.000000  0.240470  1
  Dy  Dy3  1  0.982469  0.233012  0.753992  1
  Dy  Dy4  1  0.749457  0.766988  0.753992  1
  Dy  Dy5  1  0.253087  0.000000  0.753484  1
  Dy  Dy6  1  0.341687  0.676880  0.503033  1
  Dy  Dy7  1  0.664808  0.323120  0.503033  1
  Dy  Dy8  1  0.664621  0.324473  0.996966  1
  Dy  Dy9  1  0.340147  0.675527  0.996966  1
  Ga  Ga10  1  0.604030  0.000000  0.753718  1
  Bi  Bi11  1  0.004076  0.393983  0.251270  1
  Bi  Bi12  1  0.610093  0.606017  0.251270  1
  Bi  Bi13  1  0.395586  0.000000  0.249371  1
  Bi  Bi14  1  0.997207  0.610486  0.750186  1
  Bi  Bi15  1  0.386721  0.389514  0.750186  1
  S  S16  1  0.002727  0.000000  0.500107  1
