# generated using pymatgen
data_Nd4Er11Tm(CdIr)4
_symmetry_space_group_name_H-M   'P 1'
_cell_length_a   9.66640991
_cell_length_b   9.65802092
_cell_length_c   9.65802005
_cell_angle_alpha   60.05884588
_cell_angle_beta   59.97125974
_cell_angle_gamma   59.97125744
_symmetry_Int_Tables_number   1
_chemical_formula_structural   Nd4Er11Tm(CdIr)4
_chemical_formula_sum   'Nd4 Er11 Tm1 Cd4 Ir4'
_cell_volume   637.57349031
_cell_formula_units_Z   1
loop_
 _symmetry_equiv_pos_site_id
 _symmetry_equiv_pos_as_xyz
  1  'x, y, z'
loop_
 _atom_site_type_symbol
 _atom_site_label
 _atom_site_symmetry_multiplicity
 _atom_site_fract_x
 _atom_site_fract_y
 _atom_site_fract_z
 _atom_site_occupancy
  Nd  Nd0  1  0.563096  0.936862  0.563258  1
  Nd  Nd1  1  0.936784  0.563258  0.936862  1
  Nd  Nd2  1  0.563096  0.563258  0.936862  1
  Nd  Nd3  1  0.936784  0.936862  0.563258  1
  Er  Er4  1  0.351264  0.346407  0.346407  1
  Er  Er5  1  0.346470  0.351167  0.955893  1
  Er  Er6  1  0.346470  0.955893  0.351167  1
  Er  Er7  1  0.955921  0.346407  0.346407  1
  Er  Er8  1  0.814190  0.185810  0.185810  1
  Er  Er9  1  0.185855  0.814145  0.814145  1
  Er  Er10  1  0.188698  0.811402  0.188556  1
  Er  Er11  1  0.811344  0.188556  0.811402  1
  Er  Er12  1  0.188698  0.188556  0.811402  1
  Er  Er13  1  0.811344  0.811402  0.188556  1
  Er  Er14  1  0.946623  0.553377  0.553377  1
  Tm  Tm15  1  0.553295  0.946705  0.946705  1
  Cd  Cd16  1  0.583142  0.578414  0.578414  1
  Cd  Cd17  1  0.578396  0.583263  0.259945  1
  Cd  Cd18  1  0.578396  0.259945  0.583263  1
  Cd  Cd19  1  0.260030  0.578414  0.578414  1
  Ir  Ir20  1  0.147066  0.138807  0.138807  1
  Ir  Ir21  1  0.138858  0.146874  0.575410  1
  Ir  Ir22  1  0.138858  0.575410  0.146874  1
  Ir  Ir23  1  0.575320  0.138807  0.138807  1
