# generated using pymatgen
data_SmScWO6
_symmetry_space_group_name_H-M   'P 1'
_cell_length_a   5.36196300
_cell_length_b   7.63615900
_cell_length_c   11.31882100
_cell_angle_alpha   90.00000000
_cell_angle_beta   90.00000000
_cell_angle_gamma   90.00000000
_symmetry_Int_Tables_number   1
_chemical_formula_structural   SmScWO6
_chemical_formula_sum   'Sm4 Sc4 W4 O24'
_cell_volume   463.44688495
_cell_formula_units_Z   4
loop_
 _symmetry_equiv_pos_site_id
 _symmetry_equiv_pos_as_xyz
  1  'x, y, z'
loop_
 _atom_site_type_symbol
 _atom_site_label
 _atom_site_symmetry_multiplicity
 _atom_site_fract_x
 _atom_site_fract_y
 _atom_site_fract_z
 _atom_site_occupancy
  Sm  Sm0  1  0.544810  0.251734  0.044933  1
  Sm  Sm1  1  0.044809  0.751734  0.455066  1
  Sm  Sm2  1  0.955190  0.251734  0.544934  1
  Sm  Sm3  1  0.455192  0.751734  0.955067  1
  Sc  Sc4  1  0.043665  0.508688  0.141152  1
  Sc  Sc5  1  0.543664  0.008688  0.358849  1
  Sc  Sc6  1  0.456335  0.508688  0.641151  1
  Sc  Sc7  1  0.956334  0.008688  0.858848  1
  W  W8  1  0.052144  0.997656  0.140462  1
  W  W9  1  0.552145  0.497656  0.359538  1
  W  W10  1  0.447854  0.997656  0.640462  1
  W  W11  1  0.947855  0.497656  0.859538  1
  O  O12  1  0.759186  0.541490  0.018015  1
  O  O13  1  0.766677  0.959482  0.030635  1
  O  O14  1  0.173444  0.761450  0.117013  1
  O  O15  1  0.937535  0.239677  0.142798  1
  O  O16  1  0.366041  0.071701  0.205000  1
  O  O17  1  0.400447  0.438221  0.214541  1
  O  O18  1  0.900446  0.938220  0.285460  1
  O  O19  1  0.866040  0.571701  0.294999  1
  O  O20  1  0.437537  0.739677  0.357202  1
  O  O21  1  0.673443  0.261451  0.382988  1
  O  O22  1  0.266677  0.459482  0.469366  1
  O  O23  1  0.259185  0.041489  0.481986  1
  O  O24  1  0.740814  0.541490  0.518014  1
  O  O25  1  0.733323  0.959482  0.530635  1
  O  O26  1  0.326556  0.761450  0.617012  1
  O  O27  1  0.562463  0.239677  0.642798  1
  O  O28  1  0.133960  0.071701  0.705001  1
  O  O29  1  0.099553  0.438221  0.714540  1
  O  O30  1  0.599552  0.938220  0.785460  1
  O  O31  1  0.633960  0.571701  0.795000  1
  O  O32  1  0.062464  0.739677  0.857202  1
  O  O33  1  0.826555  0.261451  0.882987  1
  O  O34  1  0.233322  0.459482  0.969365  1
  O  O35  1  0.240813  0.041489  0.981985  1
