# generated using pymatgen
data_Y5Tm15(Cd3Ru)2
_symmetry_space_group_name_H-M   'P 1'
_cell_length_a   9.51123731
_cell_length_b   9.51123770
_cell_length_c   9.72077000
_cell_angle_alpha   90.00000000
_cell_angle_beta   90.00000000
_cell_angle_gamma   119.97051483
_symmetry_Int_Tables_number   1
_chemical_formula_structural   Y5Tm15(Cd3Ru)2
_chemical_formula_sum   'Y5 Tm15 Cd6 Ru2'
_cell_volume   761.78832070
_cell_formula_units_Z   1
loop_
 _symmetry_equiv_pos_site_id
 _symmetry_equiv_pos_as_xyz
  1  'x, y, z'
loop_
 _atom_site_type_symbol
 _atom_site_label
 _atom_site_symmetry_multiplicity
 _atom_site_fract_x
 _atom_site_fract_y
 _atom_site_fract_z
 _atom_site_occupancy
  Y  Y0  1  0.540323  0.081389  0.250000  1
  Y  Y1  1  0.918611  0.459677  0.250000  1
  Y  Y2  1  0.459681  0.540319  0.750000  1
  Y  Y3  1  0.459671  0.919576  0.750000  1
  Y  Y4  1  0.080424  0.540329  0.750000  1
  Tm  Tm5  1  0.000088  0.999912  0.500003  1
  Tm  Tm6  1  0.000088  0.999912  0.999997  1
  Tm  Tm7  1  0.209887  0.790113  0.439850  1
  Tm  Tm8  1  0.210615  0.419724  0.439609  1
  Tm  Tm9  1  0.580276  0.789385  0.439609  1
  Tm  Tm10  1  0.790102  0.209898  0.560075  1
  Tm  Tm11  1  0.789476  0.579958  0.559587  1
  Tm  Tm12  1  0.420042  0.210524  0.559587  1
  Tm  Tm13  1  0.790102  0.209898  0.939925  1
  Tm  Tm14  1  0.789476  0.579958  0.940413  1
  Tm  Tm15  1  0.420042  0.210524  0.940413  1
  Tm  Tm16  1  0.209887  0.790113  0.060150  1
  Tm  Tm17  1  0.210615  0.419724  0.060391  1
  Tm  Tm18  1  0.580276  0.789385  0.060391  1
  Tm  Tm19  1  0.539863  0.460137  0.250000  1
  Cd  Cd20  1  0.885974  0.114026  0.250000  1
  Cd  Cd21  1  0.884712  0.770895  0.250000  1
  Cd  Cd22  1  0.229105  0.115288  0.250000  1
  Cd  Cd23  1  0.114077  0.885923  0.750000  1
  Cd  Cd24  1  0.114234  0.228075  0.750000  1
  Cd  Cd25  1  0.771925  0.885766  0.750000  1
  Ru  Ru26  1  0.333658  0.666342  0.250000  1
  Ru  Ru27  1  0.666771  0.333229  0.750000  1
