# generated using pymatgen
data_Zr5Mn3(Co4Si3)4
_symmetry_space_group_name_H-M   'P 1'
_cell_length_a   12.05524900
_cell_length_b   12.05524972
_cell_length_c   3.65151600
_cell_angle_alpha   90.00000000
_cell_angle_beta   90.00000000
_cell_angle_gamma   119.99999529
_symmetry_Int_Tables_number   1
_chemical_formula_structural   Zr5Mn3(Co4Si3)4
_chemical_formula_sum   'Zr5 Mn3 Co16 Si12'
_cell_volume   459.57485235
_cell_formula_units_Z   1
loop_
 _symmetry_equiv_pos_site_id
 _symmetry_equiv_pos_as_xyz
  1  'x, y, z'
loop_
 _atom_site_type_symbol
 _atom_site_label
 _atom_site_symmetry_multiplicity
 _atom_site_fract_x
 _atom_site_fract_y
 _atom_site_fract_z
 _atom_site_occupancy
  Zr  Zr0  1  0.666667  0.333333  0.000000  1
  Zr  Zr1  1  0.333333  0.666667  0.000000  1
  Zr  Zr2  1  0.813685  0.813685  0.500000  1
  Zr  Zr3  1  0.186315  0.000000  0.500000  1
  Zr  Zr4  1  0.000000  0.186315  0.500000  1
  Mn  Mn5  1  0.438946  0.438946  0.000000  1
  Mn  Mn6  1  0.561054  0.000000  0.000000  1
  Mn  Mn7  1  0.000000  0.561054  0.000000  1
  Co  Co8  1  0.197165  0.376243  0.000000  1
  Co  Co9  1  0.179078  0.802835  0.000000  1
  Co  Co10  1  0.820922  0.623757  0.000000  1
  Co  Co11  1  0.802835  0.179078  0.000000  1
  Co  Co12  1  0.376243  0.197165  0.000000  1
  Co  Co13  1  0.122869  0.480217  0.500000  1
  Co  Co14  1  0.357348  0.877131  0.500000  1
  Co  Co15  1  0.519783  0.642652  0.500000  1
  Co  Co16  1  0.642652  0.519783  0.500000  1
  Co  Co17  1  0.877131  0.357348  0.500000  1
  Co  Co18  1  0.480217  0.122869  0.500000  1
  Co  Co19  1  0.000000  0.000000  0.000000  1
  Co  Co20  1  0.717462  0.000000  0.500000  1
  Co  Co21  1  0.000000  0.717462  0.500000  1
  Co  Co22  1  0.623757  0.820922  0.000000  1
  Co  Co23  1  0.282538  0.282538  0.500000  1
  Si  Si24  1  0.637601  0.637601  0.000000  1
  Si  Si25  1  0.362399  0.000000  0.000000  1
  Si  Si26  1  0.000000  0.362399  0.000000  1
  Si  Si27  1  0.482265  0.314652  0.500000  1
  Si  Si28  1  0.685348  0.167613  0.500000  1
  Si  Si29  1  0.832387  0.517735  0.500000  1
  Si  Si30  1  0.517735  0.832387  0.500000  1
  Si  Si31  1  0.167613  0.685348  0.500000  1
  Si  Si32  1  0.819897  0.000000  0.000000  1
  Si  Si33  1  0.000000  0.819897  0.000000  1
  Si  Si34  1  0.314652  0.482265  0.500000  1
  Si  Si35  1  0.180103  0.180103  0.000000  1
