# generated using pymatgen
data_Sm2Mn3Co9As7
_symmetry_space_group_name_H-M   'P 1'
_cell_length_a   3.76550900
_cell_length_b   9.48559987
_cell_length_c   9.48560000
_cell_angle_alpha   119.99999951
_cell_angle_beta   90.00000000
_cell_angle_gamma   90.00000000
_symmetry_Int_Tables_number   1
_chemical_formula_structural   Sm2Mn3Co9As7
_chemical_formula_sum   'Sm2 Mn3 Co9 As7'
_cell_volume   293.41609417
_cell_formula_units_Z   1
loop_
 _symmetry_equiv_pos_site_id
 _symmetry_equiv_pos_as_xyz
  1  'x, y, z'
loop_
 _atom_site_type_symbol
 _atom_site_label
 _atom_site_symmetry_multiplicity
 _atom_site_fract_x
 _atom_site_fract_y
 _atom_site_fract_z
 _atom_site_occupancy
  Sm  Sm0  1  0.000000  0.666667  0.333333  1
  Sm  Sm1  1  0.500000  0.333333  0.666667  1
  Mn  Mn2  1  0.500000  0.778480  0.893270  1
  Mn  Mn3  1  0.500000  0.114790  0.221520  1
  Mn  Mn4  1  0.500000  0.106730  0.885210  1
  Co  Co5  1  0.000000  0.572559  0.941059  1
  Co  Co6  1  0.000000  0.368500  0.427441  1
  Co  Co7  1  0.000000  0.058941  0.631500  1
  Co  Co8  1  0.000000  0.881508  0.157886  1
  Co  Co9  1  0.000000  0.276378  0.118492  1
  Co  Co10  1  0.000000  0.842114  0.723622  1
  Co  Co11  1  0.500000  0.949965  0.384819  1
  Co  Co12  1  0.500000  0.434854  0.050035  1
  Co  Co13  1  0.500000  0.615181  0.565146  1
  As  As14  1  0.000000  0.000000  0.000000  1
  As  As15  1  0.500000  0.710054  0.115863  1
  As  As16  1  0.500000  0.405811  0.289946  1
  As  As17  1  0.500000  0.884137  0.594189  1
  As  As18  1  0.000000  0.586257  0.697885  1
  As  As19  1  0.000000  0.111628  0.413743  1
  As  As20  1  0.000000  0.302115  0.888372  1
