# generated using pymatgen
data_Ho9Tm(In2Bi)2
_symmetry_space_group_name_H-M   'P 1'
_cell_length_a   6.60951103
_cell_length_b   9.00326777
_cell_length_c   8.97173439
_cell_angle_alpha   119.76900837
_cell_angle_beta   89.99488787
_cell_angle_gamma   90.00979592
_symmetry_Int_Tables_number   1
_chemical_formula_structural   Ho9Tm(In2Bi)2
_chemical_formula_sum   'Ho9 Tm1 In4 Bi2'
_cell_volume   463.42846647
_cell_formula_units_Z   1
loop_
 _symmetry_equiv_pos_site_id
 _symmetry_equiv_pos_as_xyz
  1  'x, y, z'
loop_
 _atom_site_type_symbol
 _atom_site_label
 _atom_site_symmetry_multiplicity
 _atom_site_fract_x
 _atom_site_fract_y
 _atom_site_fract_z
 _atom_site_occupancy
  Ho  Ho0  1  0.493112  0.328900  0.667287  1
  Ho  Ho1  1  0.493171  0.671184  0.338569  1
  Ho  Ho2  1  0.006673  0.671061  0.338457  1
  Ho  Ho3  1  0.750178  0.228553  0.991045  1
  Ho  Ho4  1  0.750087  0.771193  0.762086  1
  Ho  Ho5  1  0.750130  0.000042  0.239069  1
  Ho  Ho6  1  0.249901  0.765033  0.000235  1
  Ho  Ho7  1  0.249880  0.234679  0.235223  1
  Ho  Ho8  1  0.249839  0.000196  0.763366  1
  Tm  Tm9  1  0.007118  0.328805  0.667290  1
  In  In10  1  0.750354  0.000519  0.595872  1
  In  In11  1  0.249660  0.398050  0.002932  1
  In  In12  1  0.249673  0.601432  0.604759  1
  In  In13  1  0.249670  0.000421  0.398391  1
  Bi  Bi14  1  0.750280  0.603913  0.999347  1
  Bi  Bi15  1  0.750272  0.396019  0.396075  1
