# generated using pymatgen
data_Ba5B3O9F
_symmetry_space_group_name_H-M   'P 1'
_cell_length_a   9.24628994
_cell_length_b   9.24629044
_cell_length_c   7.67648000
_cell_angle_alpha   90.00000000
_cell_angle_beta   90.00000000
_cell_angle_gamma   110.95408749
_symmetry_Int_Tables_number   1
_chemical_formula_structural   Ba5B3O9F
_chemical_formula_sum   'Ba10 B6 O18 F2'
_cell_volume   612.88970770
_cell_formula_units_Z   2
loop_
 _symmetry_equiv_pos_site_id
 _symmetry_equiv_pos_as_xyz
  1  'x, y, z'
loop_
 _atom_site_type_symbol
 _atom_site_label
 _atom_site_symmetry_multiplicity
 _atom_site_fract_x
 _atom_site_fract_y
 _atom_site_fract_z
 _atom_site_occupancy
  Ba  Ba0  1  0.228729  0.228729  0.000000  1
  Ba  Ba1  1  0.771271  0.771271  0.500000  1
  Ba  Ba2  1  0.999964  0.748411  0.033971  1
  Ba  Ba3  1  0.748411  0.999964  0.966029  1
  Ba  Ba4  1  0.000036  0.251589  0.533971  1
  Ba  Ba5  1  0.251589  0.000036  0.466029  1
  Ba  Ba6  1  0.634836  0.365164  0.250000  1
  Ba  Ba7  1  0.365164  0.634836  0.750000  1
  Ba  Ba8  1  0.357338  0.642662  0.250000  1
  Ba  Ba9  1  0.642662  0.357338  0.750000  1
  B  B10  1  0.408327  0.987886  0.034715  1
  B  B11  1  0.987886  0.408327  0.965285  1
  B  B12  1  0.591673  0.012114  0.534715  1
  B  B13  1  0.012114  0.591673  0.465285  1
  B  B14  1  0.632511  0.632511  0.000000  1
  B  B15  1  0.367489  0.367489  0.500000  1
  O  O16  1  0.498694  0.498694  0.000000  1
  O  O17  1  0.501306  0.501306  0.500000  1
  O  O18  1  0.515527  0.135606  0.996564  1
  O  O19  1  0.135606  0.515527  0.003436  1
  O  O20  1  0.484473  0.864394  0.496564  1
  O  O21  1  0.864394  0.484473  0.503436  1
  O  O22  1  0.856821  0.440750  0.011099  1
  O  O23  1  0.440750  0.856821  0.988901  1
  O  O24  1  0.143179  0.559250  0.511099  1
  O  O25  1  0.559250  0.143179  0.488901  1
  O  O26  1  0.304190  0.298814  0.657034  1
  O  O27  1  0.298814  0.304190  0.342966  1
  O  O28  1  0.695810  0.701186  0.157034  1
  O  O29  1  0.701186  0.695810  0.842966  1
  O  O30  1  0.270384  0.971612  0.119788  1
  O  O31  1  0.971612  0.270384  0.880212  1
  O  O32  1  0.729616  0.028388  0.619788  1
  O  O33  1  0.028388  0.729616  0.380212  1
  F  F34  1  0.955678  0.044322  0.250000  1
  F  F35  1  0.044322  0.955678  0.750000  1
