# generated using pymatgen
data_NdTlSb2(SeO3)8
_symmetry_space_group_name_H-M   'P 1'
_cell_length_a   8.50174651
_cell_length_b   8.71017587
_cell_length_c   8.51584800
_cell_angle_alpha   90.09574982
_cell_angle_beta   89.68866325
_cell_angle_gamma   90.08154069
_symmetry_Int_Tables_number   1
_chemical_formula_structural   NdTlSb2(SeO3)8
_chemical_formula_sum   'Nd1 Tl1 Sb2 Se8 O24'
_cell_volume   630.60226294
_cell_formula_units_Z   1
loop_
 _symmetry_equiv_pos_site_id
 _symmetry_equiv_pos_as_xyz
  1  'x, y, z'
loop_
 _atom_site_type_symbol
 _atom_site_label
 _atom_site_symmetry_multiplicity
 _atom_site_fract_x
 _atom_site_fract_y
 _atom_site_fract_z
 _atom_site_occupancy
  Nd  Nd0  1  0.000000  0.500000  0.000000  1
  Tl  Tl1  1  0.500000  0.500000  0.500000  1
  Sb  Sb2  1  0.000000  0.000000  0.500000  1
  Sb  Sb3  1  0.500000  0.000000  0.000000  1
  Se  Se4  1  0.365764  0.683972  0.180308  1
  Se  Se5  1  0.827273  0.312243  0.365369  1
  Se  Se6  1  0.682331  0.837796  0.680264  1
  Se  Se7  1  0.194600  0.141728  0.811236  1
  Se  Se8  1  0.634236  0.316028  0.819692  1
  Se  Se9  1  0.172727  0.687757  0.634631  1
  Se  Se10  1  0.317669  0.162204  0.319736  1
  Se  Se11  1  0.805400  0.858272  0.188764  1
  O  O12  1  0.255839  0.573749  0.061792  1
  O  O13  1  0.756761  0.440036  0.502733  1
  O  O14  1  0.768431  0.975914  0.552197  1
  O  O15  1  0.268265  0.001918  0.944938  1
  O  O16  1  0.554051  0.973099  0.769912  1
  O  O17  1  0.506959  0.557969  0.245031  1
  O  O18  1  0.950430  0.419333  0.256120  1
  O  O19  1  0.052006  0.012473  0.731805  1
  O  O20  1  0.974054  0.226469  0.493147  1
  O  O21  1  0.555240  0.758000  0.554748  1
  O  O22  1  0.494363  0.773661  0.032779  1
  O  O23  1  0.083097  0.247202  0.931502  1
  O  O24  1  0.744161  0.426251  0.938208  1
  O  O25  1  0.243239  0.559964  0.497267  1
  O  O26  1  0.231569  0.024086  0.447803  1
  O  O27  1  0.731735  0.998082  0.055062  1
  O  O28  1  0.445949  0.026901  0.230088  1
  O  O29  1  0.493041  0.442031  0.754969  1
  O  O30  1  0.049570  0.580667  0.743880  1
  O  O31  1  0.947994  0.987527  0.268195  1
  O  O32  1  0.025946  0.773531  0.506853  1
  O  O33  1  0.444760  0.242000  0.445252  1
  O  O34  1  0.505637  0.226339  0.967221  1
  O  O35  1  0.916903  0.752798  0.068498  1
