# generated using pymatgen
data_La2Cu(H6Ir)2
_symmetry_space_group_name_H-M   'P 1'
_cell_length_a   4.79069800
_cell_length_b   4.79069699
_cell_length_c   8.72462100
_cell_angle_alpha   90.00000000
_cell_angle_beta   90.00000000
_cell_angle_gamma   120.00000700
_symmetry_Int_Tables_number   1
_chemical_formula_structural   La2Cu(H6Ir)2
_chemical_formula_sum   'La2 Cu1 H12 Ir2'
_cell_volume   173.41021154
_cell_formula_units_Z   1
loop_
 _symmetry_equiv_pos_site_id
 _symmetry_equiv_pos_as_xyz
  1  'x, y, z'
loop_
 _atom_site_type_symbol
 _atom_site_label
 _atom_site_symmetry_multiplicity
 _atom_site_fract_x
 _atom_site_fract_y
 _atom_site_fract_z
 _atom_site_occupancy
  La  La0  1  0.000000  0.000000  0.021492  1
  La  La1  1  0.333333  0.666667  0.608113  1
  Cu  Cu2  1  0.666667  0.333333  0.255079  1
  H  H3  1  0.166268  0.833732  0.357679  1
  H  H4  1  0.667463  0.833732  0.357679  1
  H  H5  1  0.166268  0.332537  0.357679  1
  H  H6  1  0.835617  0.164383  0.661551  1
  H  H7  1  0.328767  0.164383  0.661551  1
  H  H8  1  0.835617  0.671233  0.661551  1
  H  H9  1  0.498059  0.996118  0.880241  1
  H  H10  1  0.498059  0.501941  0.880241  1
  H  H11  1  0.003882  0.501941  0.880241  1
  H  H12  1  0.499377  0.998753  0.130888  1
  H  H13  1  0.499377  0.500623  0.130888  1
  H  H14  1  0.001247  0.500623  0.130888  1
  Ir  Ir15  1  0.666667  0.333333  0.770732  1
  Ir  Ir16  1  0.333333  0.666667  0.253510  1
