# generated using pymatgen
data_Y4Sn4Ru3Rh
_symmetry_space_group_name_H-M   'P 1'
_cell_length_a   4.75670700
_cell_length_b   7.36156762
_cell_length_c   7.48061245
_cell_angle_alpha   90.23848893
_cell_angle_beta   90.00000000
_cell_angle_gamma   90.00000000
_symmetry_Int_Tables_number   1
_chemical_formula_structural   Y4Sn4Ru3Rh
_chemical_formula_sum   'Y4 Sn4 Ru3 Rh1'
_cell_volume   261.94499203
_cell_formula_units_Z   1
loop_
 _symmetry_equiv_pos_site_id
 _symmetry_equiv_pos_as_xyz
  1  'x, y, z'
loop_
 _atom_site_type_symbol
 _atom_site_label
 _atom_site_symmetry_multiplicity
 _atom_site_fract_x
 _atom_site_fract_y
 _atom_site_fract_z
 _atom_site_occupancy
  Y  Y0  1  0.250000  0.974996  0.801257  1
  Y  Y1  1  0.250000  0.477765  0.694628  1
  Y  Y2  1  0.750000  0.018506  0.199002  1
  Y  Y3  1  0.750000  0.524736  0.304539  1
  Sn  Sn4  1  0.250000  0.795315  0.391036  1
  Sn  Sn5  1  0.250000  0.294783  0.112198  1
  Sn  Sn6  1  0.750000  0.207381  0.606700  1
  Sn  Sn7  1  0.750000  0.705905  0.891030  1
  Ru  Ru8  1  0.250000  0.157310  0.444182  1
  Ru  Ru9  1  0.250000  0.655094  0.055572  1
  Ru  Ru10  1  0.750000  0.844408  0.556362  1
  Rh  Rh11  1  0.750000  0.343802  0.943491  1
