# generated using pymatgen
data_La5SnIrO12
_symmetry_space_group_name_H-M   'P 1'
_cell_length_a   7.23256899
_cell_length_b   7.23256962
_cell_length_c   7.77119407
_cell_angle_alpha   74.47610647
_cell_angle_beta   74.47611331
_cell_angle_gamma   51.06823964
_symmetry_Int_Tables_number   1
_chemical_formula_structural   La5SnIrO12
_chemical_formula_sum   'La5 Sn1 Ir1 O12'
_cell_volume   301.99282070
_cell_formula_units_Z   1
loop_
 _symmetry_equiv_pos_site_id
 _symmetry_equiv_pos_as_xyz
  1  'x, y, z'
loop_
 _atom_site_type_symbol
 _atom_site_label
 _atom_site_symmetry_multiplicity
 _atom_site_fract_x
 _atom_site_fract_y
 _atom_site_fract_z
 _atom_site_occupancy
  La  La0  1  0.303396  0.305436  0.359650  1
  La  La1  1  0.694564  0.696604  0.640350  1
  La  La2  1  0.688761  0.698862  0.167760  1
  La  La3  1  0.301138  0.311239  0.832240  1
  La  La4  1  0.005943  0.994057  0.500000  1
  Sn  Sn5  1  0.762442  0.237558  0.000000  1
  Ir  Ir6  1  0.250120  0.749880  0.000000  1
  O  O7  1  0.092165  0.598576  0.576026  1
  O  O8  1  0.013336  0.984991  0.177512  1
  O  O9  1  0.401424  0.907835  0.423974  1
  O  O10  1  0.494853  0.506297  0.175991  1
  O  O11  1  0.102899  0.586190  0.078224  1
  O  O12  1  0.905149  0.404718  0.421527  1
  O  O13  1  0.015009  0.986664  0.822488  1
  O  O14  1  0.595282  0.094850  0.578473  1
  O  O15  1  0.493703  0.505147  0.824009  1
  O  O16  1  0.567122  0.101117  0.081201  1
  O  O17  1  0.413810  0.897101  0.921776  1
  O  O18  1  0.898883  0.432878  0.918799  1
