# generated using pymatgen
data_Tm2TcMoN4
_symmetry_space_group_name_H-M   'P 1'
_cell_length_a   3.14275000
_cell_length_b   5.62080800
_cell_length_c   10.57134700
_cell_angle_alpha   90.00000000
_cell_angle_beta   90.00000000
_cell_angle_gamma   90.00000000
_symmetry_Int_Tables_number   1
_chemical_formula_structural   Tm2TcMoN4
_chemical_formula_sum   'Tm4 Tc2 Mo2 N8'
_cell_volume   186.74067067
_cell_formula_units_Z   2
loop_
 _symmetry_equiv_pos_site_id
 _symmetry_equiv_pos_as_xyz
  1  'x, y, z'
loop_
 _atom_site_type_symbol
 _atom_site_label
 _atom_site_symmetry_multiplicity
 _atom_site_fract_x
 _atom_site_fract_y
 _atom_site_fract_z
 _atom_site_occupancy
  Tm  Tm0  1  0.250000  0.077873  0.853552  1
  Tm  Tm1  1  0.250000  0.577873  0.646448  1
  Tm  Tm2  1  0.750000  0.920316  0.148927  1
  Tm  Tm3  1  0.750000  0.420316  0.351073  1
  Tc  Tc4  1  0.250000  0.434652  0.095417  1
  Tc  Tc5  1  0.250000  0.934652  0.404583  1
  Mo  Mo6  1  0.750000  0.566553  0.905308  1
  Mo  Mo7  1  0.750000  0.066553  0.594692  1
  N  N8  1  0.250000  0.164981  0.247831  1
  N  N9  1  0.250000  0.664981  0.252169  1
  N  N10  1  0.750000  0.833474  0.754368  1
  N  N11  1  0.750000  0.333474  0.745632  1
  N  N12  1  0.250000  0.759930  0.996078  1
  N  N13  1  0.250000  0.259930  0.503922  1
  N  N14  1  0.750000  0.242221  0.003873  1
  N  N15  1  0.750000  0.742221  0.496127  1
