# generated using pymatgen
data_CaTm3Sb6Rh7
_symmetry_space_group_name_H-M   'P 1'
_cell_length_a   7.61750154
_cell_length_b   7.61750122
_cell_length_c   7.61750104
_cell_angle_alpha   109.64229740
_cell_angle_beta   109.64229331
_cell_angle_gamma   109.64229604
_symmetry_Int_Tables_number   1
_chemical_formula_structural   CaTm3Sb6Rh7
_chemical_formula_sum   'Ca1 Tm3 Sb6 Rh7'
_cell_volume   338.09141279
_cell_formula_units_Z   1
loop_
 _symmetry_equiv_pos_site_id
 _symmetry_equiv_pos_as_xyz
  1  'x, y, z'
loop_
 _atom_site_type_symbol
 _atom_site_label
 _atom_site_symmetry_multiplicity
 _atom_site_fract_x
 _atom_site_fract_y
 _atom_site_fract_z
 _atom_site_occupancy
  Ca  Ca0  1  0.500000  0.500000  0.500000  1
  Tm  Tm1  1  0.500000  0.000000  0.000000  1
  Tm  Tm2  1  0.000000  0.500000  0.000000  1
  Tm  Tm3  1  0.000000  0.000000  0.500000  1
  Sb  Sb4  1  0.317701  0.001365  0.317701  1
  Sb  Sb5  1  0.998635  0.682299  0.682299  1
  Sb  Sb6  1  0.682299  0.682299  0.998635  1
  Sb  Sb7  1  0.682299  0.998635  0.682299  1
  Sb  Sb8  1  0.001365  0.317701  0.317701  1
  Sb  Sb9  1  0.317701  0.317701  0.001365  1
  Rh  Rh10  1  0.246032  0.500000  0.753968  1
  Rh  Rh11  1  0.500000  0.246032  0.753968  1
  Rh  Rh12  1  0.753968  0.246032  0.500000  1
  Rh  Rh13  1  0.500000  0.753968  0.246032  1
  Rh  Rh14  1  0.000000  0.000000  0.000000  1
  Rh  Rh15  1  0.246032  0.753968  0.500000  1
  Rh  Rh16  1  0.753968  0.500000  0.246032  1
