# generated using pymatgen
data_Y7Er3(SnSb)4
_symmetry_space_group_name_H-M   'P 1'
_cell_length_a   8.08280300
_cell_length_b   8.13298600
_cell_length_c   15.42572501
_cell_angle_alpha   89.99688308
_cell_angle_beta   90.00000000
_cell_angle_gamma   90.00000000
_symmetry_Int_Tables_number   1
_chemical_formula_structural   Y7Er3(SnSb)4
_chemical_formula_sum   'Y14 Er6 Sn8 Sb8'
_cell_volume   1014.04587595
_cell_formula_units_Z   2
loop_
 _symmetry_equiv_pos_site_id
 _symmetry_equiv_pos_as_xyz
  1  'x, y, z'
loop_
 _atom_site_type_symbol
 _atom_site_label
 _atom_site_symmetry_multiplicity
 _atom_site_fract_x
 _atom_site_fract_y
 _atom_site_fract_z
 _atom_site_occupancy
  Y  Y0  1  0.608977  0.161484  0.380958  1
  Y  Y1  1  0.108977  0.338516  0.119042  1
  Y  Y2  1  0.608988  0.161468  0.119159  1
  Y  Y3  1  0.108988  0.338532  0.380841  1
  Y  Y4  1  0.391072  0.838588  0.619134  1
  Y  Y5  1  0.891072  0.661412  0.880866  1
  Y  Y6  1  0.557053  0.329666  0.891926  1
  Y  Y7  1  0.057053  0.170334  0.608074  1
  Y  Y8  1  0.443006  0.670445  0.391964  1
  Y  Y9  1  0.943006  0.829555  0.108036  1
  Y  Y10  1  0.443088  0.670538  0.107865  1
  Y  Y11  1  0.943088  0.829462  0.392135  1
  Y  Y12  1  0.557092  0.329781  0.608145  1
  Y  Y13  1  0.057092  0.170219  0.891855  1
  Er  Er14  1  0.390839  0.838639  0.880459  1
  Er  Er15  1  0.890839  0.661361  0.619541  1
  Er  Er16  1  0.222312  0.499447  0.749966  1
  Er  Er17  1  0.722312  0.000553  0.750034  1
  Er  Er18  1  0.777543  0.500878  0.250051  1
  Er  Er19  1  0.277543  0.999122  0.249949  1
  Sn  Sn20  1  0.587654  0.628425  0.750104  1
  Sn  Sn21  1  0.087654  0.871575  0.749896  1
  Sn  Sn22  1  0.412288  0.372263  0.250034  1
  Sn  Sn23  1  0.912288  0.127737  0.249966  1
  Sn  Sn24  1  0.360611  0.142425  0.750236  1
  Sn  Sn25  1  0.860611  0.357575  0.749764  1
  Sn  Sn26  1  0.639549  0.857164  0.250010  1
  Sn  Sn27  1  0.139549  0.642836  0.249990  1
  Sb  Sb28  1  0.267491  0.016840  0.046629  1
  Sb  Sb29  1  0.767491  0.483160  0.453371  1
  Sb  Sb30  1  0.733360  0.981692  0.547324  1
  Sb  Sb31  1  0.233360  0.518308  0.952676  1
  Sb  Sb32  1  0.731927  0.982282  0.952727  1
  Sb  Sb33  1  0.231927  0.517718  0.547273  1
  Sb  Sb34  1  0.267151  0.017297  0.452880  1
  Sb  Sb35  1  0.767151  0.482703  0.047120  1
