# generated using pymatgen
data_SrSm6OsBr12
_symmetry_space_group_name_H-M   'P 1'
_cell_length_a   9.46079620
_cell_length_b   9.44763732
_cell_length_c   9.45383046
_cell_angle_alpha   106.17604175
_cell_angle_beta   106.33208057
_cell_angle_gamma   106.23760980
_symmetry_Int_Tables_number   1
_chemical_formula_structural   SrSm6OsBr12
_chemical_formula_sum   'Sr1 Sm6 Os1 Br12'
_cell_volume   717.66288135
_cell_formula_units_Z   1
loop_
 _symmetry_equiv_pos_site_id
 _symmetry_equiv_pos_as_xyz
  1  'x, y, z'
loop_
 _atom_site_type_symbol
 _atom_site_label
 _atom_site_symmetry_multiplicity
 _atom_site_fract_x
 _atom_site_fract_y
 _atom_site_fract_z
 _atom_site_occupancy
  Sr  Sr0  1  0.500000  0.500000  0.500000  1
  Sm  Sm1  1  0.100599  0.309600  0.019779  1
  Sm  Sm2  1  0.310851  0.019698  0.101101  1
  Sm  Sm3  1  0.019349  0.100987  0.309974  1
  Sm  Sm4  1  0.980650  0.899013  0.690026  1
  Sm  Sm5  1  0.689149  0.980301  0.898898  1
  Sm  Sm6  1  0.899401  0.690400  0.980221  1
  Os  Os7  1  0.000000  0.000000  0.000000  1
  Br  Br8  1  0.219090  0.679227  0.072028  1
  Br  Br9  1  0.447141  0.366256  0.146672  1
  Br  Br10  1  0.678917  0.071932  0.218621  1
  Br  Br11  1  0.928019  0.781175  0.320655  1
  Br  Br12  1  0.146714  0.447295  0.366059  1
  Br  Br13  1  0.365948  0.146521  0.447204  1
  Br  Br14  1  0.634052  0.853479  0.552796  1
  Br  Br15  1  0.853285  0.552705  0.633941  1
  Br  Br16  1  0.071982  0.218826  0.679346  1
  Br  Br17  1  0.321084  0.928069  0.781379  1
  Br  Br18  1  0.552858  0.633743  0.853328  1
  Br  Br19  1  0.780910  0.320774  0.927972  1
