# generated using pymatgen
data_Th8MgSi16Mo11
_symmetry_space_group_name_H-M   'P 1'
_cell_length_a   7.07708767
_cell_length_b   7.07708720
_cell_length_c   13.05809500
_cell_angle_alpha   90.02500841
_cell_angle_beta   90.02500840
_cell_angle_gamma   89.74601007
_symmetry_Int_Tables_number   1
_chemical_formula_structural   Th8MgSi16Mo11
_chemical_formula_sum   'Th8 Mg1 Si16 Mo11'
_cell_volume   654.01031374
_cell_formula_units_Z   1
loop_
 _symmetry_equiv_pos_site_id
 _symmetry_equiv_pos_as_xyz
  1  'x, y, z'
loop_
 _atom_site_type_symbol
 _atom_site_label
 _atom_site_symmetry_multiplicity
 _atom_site_fract_x
 _atom_site_fract_y
 _atom_site_fract_z
 _atom_site_occupancy
  Th  Th0  1  0.003750  0.337306  0.219443  1
  Th  Th1  1  0.998941  0.664866  0.718846  1
  Th  Th2  1  0.163191  0.504046  0.469141  1
  Th  Th3  1  0.495954  0.836809  0.030859  1
  Th  Th4  1  0.837221  0.501274  0.969901  1
  Th  Th5  1  0.498726  0.162779  0.530099  1
  Th  Th6  1  0.335134  0.001059  0.781154  1
  Th  Th7  1  0.662694  0.996250  0.280557  1
  Mg  Mg8  1  0.669009  0.330991  0.750000  1
  Si  Si9  1  0.278086  0.029826  0.185759  1
  Si  Si10  1  0.715984  0.960369  0.681487  1
  Si  Si11  1  0.467243  0.779302  0.434852  1
  Si  Si12  1  0.220698  0.532757  0.065148  1
  Si  Si13  1  0.528700  0.219614  0.939396  1
  Si  Si14  1  0.780386  0.471300  0.560604  1
  Si  Si15  1  0.039631  0.284016  0.818513  1
  Si  Si16  1  0.970174  0.721914  0.314241  1
  Si  Si17  1  0.383632  0.305928  0.311472  1
  Si  Si18  1  0.619483  0.702029  0.812282  1
  Si  Si19  1  0.195778  0.882869  0.563028  1
  Si  Si20  1  0.117131  0.804222  0.936972  1
  Si  Si21  1  0.803394  0.117307  0.062036  1
  Si  Si22  1  0.882693  0.196606  0.437964  1
  Si  Si23  1  0.297971  0.380517  0.687718  1
  Si  Si24  1  0.694072  0.616368  0.188528  1
  Mo  Mo25  1  0.170686  0.166478  0.002291  1
  Mo  Mo26  1  0.833522  0.829314  0.497709  1
  Mo  Mo27  1  0.332299  0.667701  0.250000  1
  Mo  Mo28  1  0.169944  0.011490  0.376359  1
  Mo  Mo29  1  0.833431  0.991801  0.875697  1
  Mo  Mo30  1  0.491605  0.668236  0.623945  1
  Mo  Mo31  1  0.331764  0.508395  0.876055  1
  Mo  Mo32  1  0.509353  0.328992  0.126957  1
  Mo  Mo33  1  0.671008  0.490647  0.373043  1
  Mo  Mo34  1  0.008199  0.166569  0.624303  1
  Mo  Mo35  1  0.988510  0.830056  0.123641  1
