# generated using pymatgen
data_ErLu3CuPt3
_symmetry_space_group_name_H-M   'P 1'
_cell_length_a   4.47813000
_cell_length_b   5.48734911
_cell_length_c   6.81461174
_cell_angle_alpha   90.62974595
_cell_angle_beta   90.00000000
_cell_angle_gamma   90.00000000
_symmetry_Int_Tables_number   1
_chemical_formula_structural   ErLu3CuPt3
_chemical_formula_sum   'Er1 Lu3 Cu1 Pt3'
_cell_volume   167.44576648
_cell_formula_units_Z   1
loop_
 _symmetry_equiv_pos_site_id
 _symmetry_equiv_pos_as_xyz
  1  'x, y, z'
loop_
 _atom_site_type_symbol
 _atom_site_label
 _atom_site_symmetry_multiplicity
 _atom_site_fract_x
 _atom_site_fract_y
 _atom_site_fract_z
 _atom_site_occupancy
  Er  Er0  1  0.750000  0.364133  0.814506  1
  Lu  Lu1  1  0.250000  0.642838  0.181996  1
  Lu  Lu2  1  0.750000  0.139218  0.324808  1
  Lu  Lu3  1  0.250000  0.855611  0.679724  1
  Cu  Cu4  1  0.250000  0.139906  0.037907  1
  Pt  Pt5  1  0.750000  0.864085  0.967218  1
  Pt  Pt6  1  0.750000  0.657018  0.452389  1
  Pt  Pt7  1  0.250000  0.337190  0.541452  1
