# generated using pymatgen
data_Y2Ho6CdInPt2
_symmetry_space_group_name_H-M   'P 1'
_cell_length_a   9.68601803
_cell_length_b   9.68640430
_cell_length_c   9.69591700
_cell_angle_alpha   59.96487425
_cell_angle_beta   59.96882121
_cell_angle_gamma   60.00804127
_symmetry_Int_Tables_number   1
_chemical_formula_structural   Y2Ho6CdInPt2
_chemical_formula_sum   'Y4 Ho12 Cd2 In2 Pt4'
_cell_volume   642.96940767
_cell_formula_units_Z   2
loop_
 _symmetry_equiv_pos_site_id
 _symmetry_equiv_pos_as_xyz
  1  'x, y, z'
loop_
 _atom_site_type_symbol
 _atom_site_label
 _atom_site_symmetry_multiplicity
 _atom_site_fract_x
 _atom_site_fract_y
 _atom_site_fract_z
 _atom_site_occupancy
  Y  Y0  1  0.564336  0.937759  0.564085  1
  Y  Y1  1  0.937759  0.564336  0.933820  1
  Y  Y2  1  0.564721  0.564721  0.935279  1
  Y  Y3  1  0.938252  0.938252  0.561748  1
  Ho  Ho4  1  0.351089  0.351542  0.350895  1
  Ho  Ho5  1  0.351542  0.351089  0.946474  1
  Ho  Ho6  1  0.352442  0.943371  0.351757  1
  Ho  Ho7  1  0.943371  0.352442  0.352430  1
  Ho  Ho8  1  0.810127  0.190386  0.189732  1
  Ho  Ho9  1  0.190386  0.810127  0.809754  1
  Ho  Ho10  1  0.190459  0.810207  0.189550  1
  Ho  Ho11  1  0.810207  0.190459  0.809784  1
  Ho  Ho12  1  0.188858  0.188858  0.811142  1
  Ho  Ho13  1  0.808629  0.808629  0.191371  1
  Ho  Ho14  1  0.938922  0.563353  0.562920  1
  Ho  Ho15  1  0.563353  0.938922  0.934805  1
  Cd  Cd16  1  0.580764  0.252372  0.583570  1
  Cd  Cd17  1  0.252372  0.580764  0.583297  1
  In  In18  1  0.582541  0.582145  0.583868  1
  In  In19  1  0.582145  0.582541  0.251446  1
  Pt  Pt20  1  0.142601  0.142254  0.144474  1
  Pt  Pt21  1  0.142254  0.142601  0.570670  1
  Pt  Pt22  1  0.141826  0.571044  0.143776  1
  Pt  Pt23  1  0.571044  0.141826  0.143353  1
