# generated using pymatgen
data_Li8Ca4Si3Ge
_symmetry_space_group_name_H-M   'P 1'
_cell_length_a   5.79266100
_cell_length_b   4.57158200
_cell_length_c   12.50579100
_cell_angle_alpha   90.00000000
_cell_angle_beta   89.99939099
_cell_angle_gamma   90.00000000
_symmetry_Int_Tables_number   1
_chemical_formula_structural   Li8Ca4Si3Ge
_chemical_formula_sum   'Li8 Ca4 Si3 Ge1'
_cell_volume   331.17366458
_cell_formula_units_Z   1
loop_
 _symmetry_equiv_pos_site_id
 _symmetry_equiv_pos_as_xyz
  1  'x, y, z'
loop_
 _atom_site_type_symbol
 _atom_site_label
 _atom_site_symmetry_multiplicity
 _atom_site_fract_x
 _atom_site_fract_y
 _atom_site_fract_z
 _atom_site_occupancy
  Li  Li0  1  0.475170  0.749999  0.199071  1
  Li  Li1  1  0.025085  0.749999  0.199124  1
  Li  Li2  1  0.526211  0.250000  0.301379  1
  Li  Li3  1  0.974031  0.250000  0.301437  1
  Li  Li4  1  0.025607  0.749999  0.698834  1
  Li  Li5  1  0.474152  0.749999  0.698886  1
  Li  Li6  1  0.974171  0.250000  0.801100  1
  Li  Li7  1  0.525582  0.250000  0.801154  1
  Ca  Ca8  1  0.750041  0.250000  0.036707  1
  Ca  Ca9  1  0.250039  0.749999  0.462994  1
  Ca  Ca10  1  0.749961  0.250000  0.537084  1
  Ca  Ca11  1  0.249958  0.749999  0.962455  1
  Si  Si12  1  0.750058  0.749999  0.369330  1
  Si  Si13  1  0.249941  0.250000  0.630629  1
  Si  Si14  1  0.749936  0.749999  0.869424  1
  Ge  Ge15  1  0.250058  0.250000  0.130396  1
