# generated using pymatgen
data_Ac3Mg2ZnIr2Pd
_symmetry_space_group_name_H-M   'P 1'
_cell_length_a   7.74912400
_cell_length_b   7.76302455
_cell_length_c   4.20440300
_cell_angle_alpha   90.00000000
_cell_angle_beta   90.00000000
_cell_angle_gamma   119.94077624
_symmetry_Int_Tables_number   1
_chemical_formula_structural   Ac3Mg2ZnIr2Pd
_chemical_formula_sum   'Ac3 Mg2 Zn1 Ir2 Pd1'
_cell_volume   219.16813247
_cell_formula_units_Z   1
loop_
 _symmetry_equiv_pos_site_id
 _symmetry_equiv_pos_as_xyz
  1  'x, y, z'
loop_
 _atom_site_type_symbol
 _atom_site_label
 _atom_site_symmetry_multiplicity
 _atom_site_fract_x
 _atom_site_fract_y
 _atom_site_fract_z
 _atom_site_occupancy
  Ac  Ac0  1  0.993410  0.414657  0.000000  1
  Ac  Ac1  1  0.578753  0.585343  0.000000  1
  Ac  Ac2  1  0.434617  0.000000  0.000000  1
  Mg  Mg3  1  0.002431  0.765411  0.500000  1
  Mg  Mg4  1  0.237020  0.234589  0.500000  1
  Zn  Zn5  1  0.769780  0.000000  0.500000  1
  Ir  Ir6  1  0.663069  0.339632  0.500000  1
  Ir  Ir7  1  0.323435  0.660368  0.500000  1
  Pd  Pd8  1  0.997485  0.000000  0.000000  1
