# generated using pymatgen
data_Th6Cd23Ru
_symmetry_space_group_name_H-M   'P 1'
_cell_length_a   10.08791064
_cell_length_b   10.08791275
_cell_length_c   10.08791000
_cell_angle_alpha   60.00008046
_cell_angle_beta   60.00007512
_cell_angle_gamma   59.99998850
_symmetry_Int_Tables_number   1
_chemical_formula_structural   Th6Cd23Ru
_chemical_formula_sum   'Th6 Cd23 Ru1'
_cell_volume   725.92076217
_cell_formula_units_Z   1
loop_
 _symmetry_equiv_pos_site_id
 _symmetry_equiv_pos_as_xyz
  1  'x, y, z'
loop_
 _atom_site_type_symbol
 _atom_site_label
 _atom_site_symmetry_multiplicity
 _atom_site_fract_x
 _atom_site_fract_y
 _atom_site_fract_z
 _atom_site_occupancy
  Th  Th0  1  0.802787  0.802789  0.197211  1
  Th  Th1  1  0.197211  0.802789  0.197212  1
  Th  Th2  1  0.802789  0.197211  0.197213  1
  Th  Th3  1  0.197213  0.197211  0.802789  1
  Th  Th4  1  0.802789  0.197211  0.802788  1
  Th  Th5  1  0.197211  0.802789  0.802787  1
  Cd  Cd6  1  0.831564  0.831564  0.505306  1
  Cd  Cd7  1  0.831564  0.505306  0.831564  1
  Cd  Cd8  1  0.505306  0.831564  0.831564  1
  Cd  Cd9  1  0.831564  0.831563  0.831564  1
  Cd  Cd10  1  0.168436  0.168436  0.494694  1
  Cd  Cd11  1  0.168436  0.494694  0.168436  1
  Cd  Cd12  1  0.494694  0.168436  0.168436  1
  Cd  Cd13  1  0.168436  0.168437  0.168436  1
  Cd  Cd14  1  0.620663  0.620663  0.138012  1
  Cd  Cd15  1  0.620663  0.138012  0.620663  1
  Cd  Cd16  1  0.138012  0.620663  0.620663  1
  Cd  Cd17  1  0.620663  0.620663  0.620663  1
  Cd  Cd18  1  0.379337  0.379337  0.861988  1
  Cd  Cd19  1  0.379337  0.861988  0.379337  1
  Cd  Cd20  1  0.861988  0.379337  0.379337  1
  Cd  Cd21  1  0.379337  0.379337  0.379337  1
  Cd  Cd22  1  0.000000  0.000000  0.500000  1
  Cd  Cd23  1  0.500000  0.000000  0.500000  1
  Cd  Cd24  1  0.000000  0.500000  0.500000  1
  Cd  Cd25  1  0.500000  0.500000  0.000000  1
  Cd  Cd26  1  0.000000  0.500000  0.000000  1
  Cd  Cd27  1  0.500000  0.000000  0.000000  1
  Cd  Cd28  1  0.500000  0.500000  0.500000  1
  Ru  Ru29  1  0.000000  0.000000  0.000000  1
