# generated using pymatgen
data_Dy9Y7Cd4TcNi3
_symmetry_space_group_name_H-M   'P 1'
_cell_length_a   9.64357412
_cell_length_b   9.64473378
_cell_length_c   9.64531411
_cell_angle_alpha   59.39890399
_cell_angle_beta   59.39408050
_cell_angle_gamma   59.46755060
_symmetry_Int_Tables_number   1
_chemical_formula_structural   Dy9Y7Cd4TcNi3
_chemical_formula_sum   'Dy9 Y7 Cd4 Tc1 Ni3'
_cell_volume   625.98133206
_cell_formula_units_Z   1
loop_
 _symmetry_equiv_pos_site_id
 _symmetry_equiv_pos_as_xyz
  1  'x, y, z'
loop_
 _atom_site_type_symbol
 _atom_site_label
 _atom_site_symmetry_multiplicity
 _atom_site_fract_x
 _atom_site_fract_y
 _atom_site_fract_z
 _atom_site_occupancy
  Dy  Dy0  1  0.596982  0.596749  0.596588  1
  Dy  Dy1  1  0.601364  0.601205  0.204851  1
  Dy  Dy2  1  0.600920  0.205159  0.601242  1
  Dy  Dy3  1  0.204972  0.600945  0.601392  1
  Dy  Dy4  1  0.061114  0.437757  0.437645  1
  Dy  Dy5  1  0.437912  0.060641  0.060991  1
  Dy  Dy6  1  0.437781  0.061151  0.437687  1
  Dy  Dy7  1  0.060498  0.437905  0.061096  1
  Dy  Dy8  1  0.437680  0.437725  0.061243  1
  Y  Y9  1  0.060508  0.060659  0.437882  1
  Y  Y10  1  0.187182  0.814402  0.815023  1
  Y  Y11  1  0.804974  0.189850  0.189639  1
  Y  Y12  1  0.814506  0.187033  0.815095  1
  Y  Y13  1  0.189973  0.804886  0.189760  1
  Y  Y14  1  0.814919  0.814958  0.186775  1
  Y  Y15  1  0.189467  0.189472  0.805684  1
  Cd  Cd16  1  0.829635  0.829676  0.829039  1
  Cd  Cd17  1  0.829684  0.829713  0.506008  1
  Cd  Cd18  1  0.829369  0.506130  0.829451  1
  Cd  Cd19  1  0.506156  0.829365  0.829457  1
  Tc  Tc20  1  0.393614  0.393728  0.393719  1
  Ni  Ni21  1  0.392026  0.392203  0.826026  1
  Ni  Ni22  1  0.393888  0.824906  0.391857  1
  Ni  Ni23  1  0.824872  0.393780  0.391846  1
