# generated using pymatgen
data_CsUSe3
_symmetry_space_group_name_H-M   'P 1'
_cell_length_a   7.01979000
_cell_length_b   7.81683500
_cell_length_c   13.62068300
_cell_angle_alpha   90.00000000
_cell_angle_beta   90.00000000
_cell_angle_gamma   90.00000000
_symmetry_Int_Tables_number   1
_chemical_formula_structural   CsUSe3
_chemical_formula_sum   'Cs4 U4 Se12'
_cell_volume   747.40147499
_cell_formula_units_Z   4
loop_
 _symmetry_equiv_pos_site_id
 _symmetry_equiv_pos_as_xyz
  1  'x, y, z'
loop_
 _atom_site_type_symbol
 _atom_site_label
 _atom_site_symmetry_multiplicity
 _atom_site_fract_x
 _atom_site_fract_y
 _atom_site_fract_z
 _atom_site_occupancy
  Cs  Cs0  1  0.751583  0.250000  0.916775  1
  Cs  Cs1  1  0.248417  0.750000  0.083225  1
  Cs  Cs2  1  0.748417  0.750000  0.416775  1
  Cs  Cs3  1  0.251583  0.250000  0.583225  1
  U  U4  1  0.489137  0.750000  0.750117  1
  U  U5  1  0.010863  0.250000  0.250117  1
  U  U6  1  0.510863  0.250000  0.249883  1
  U  U7  1  0.989137  0.750000  0.749883  1
  Se  Se8  1  0.239097  0.987997  0.828317  1
  Se  Se9  1  0.260458  0.250000  0.092451  1
  Se  Se10  1  0.260903  0.487997  0.328317  1
  Se  Se11  1  0.760903  0.487997  0.171683  1
  Se  Se12  1  0.239097  0.512003  0.828317  1
  Se  Se13  1  0.239542  0.750000  0.592451  1
  Se  Se14  1  0.739542  0.750000  0.907549  1
  Se  Se15  1  0.739097  0.987997  0.671683  1
  Se  Se16  1  0.260903  0.012003  0.328317  1
  Se  Se17  1  0.760903  0.012003  0.171683  1
  Se  Se18  1  0.760458  0.250000  0.407549  1
  Se  Se19  1  0.739097  0.512003  0.671683  1
