# generated using pymatgen
data_Sc10Ge6C
_symmetry_space_group_name_H-M   'P 1'
_cell_length_a   7.98109900
_cell_length_b   7.98109833
_cell_length_c   5.90492000
_cell_angle_alpha   90.00000000
_cell_angle_beta   90.00000000
_cell_angle_gamma   119.99999863
_symmetry_Int_Tables_number   1
_chemical_formula_structural   Sc10Ge6C
_chemical_formula_sum   'Sc10 Ge6 C1'
_cell_volume   325.73919245
_cell_formula_units_Z   1
loop_
 _symmetry_equiv_pos_site_id
 _symmetry_equiv_pos_as_xyz
  1  'x, y, z'
loop_
 _atom_site_type_symbol
 _atom_site_label
 _atom_site_symmetry_multiplicity
 _atom_site_fract_x
 _atom_site_fract_y
 _atom_site_fract_z
 _atom_site_occupancy
  Sc  Sc0  1  0.000000  0.768545  0.270625  1
  Sc  Sc1  1  0.231455  0.231455  0.270625  1
  Sc  Sc2  1  0.768545  0.000000  0.270625  1
  Sc  Sc3  1  0.000000  0.231455  0.729375  1
  Sc  Sc4  1  0.768545  0.768545  0.729375  1
  Sc  Sc5  1  0.231455  0.000000  0.729375  1
  Sc  Sc6  1  0.333333  0.666667  0.000000  1
  Sc  Sc7  1  0.666667  0.333333  0.000000  1
  Sc  Sc8  1  0.666667  0.333333  0.500000  1
  Sc  Sc9  1  0.333333  0.666667  0.500000  1
  Ge  Ge10  1  0.000000  0.399420  0.250017  1
  Ge  Ge11  1  0.600580  0.600580  0.250017  1
  Ge  Ge12  1  0.399420  0.000000  0.250017  1
  Ge  Ge13  1  0.000000  0.600580  0.749983  1
  Ge  Ge14  1  0.399420  0.399420  0.749983  1
  Ge  Ge15  1  0.600580  0.000000  0.749983  1
  C  C16  1  0.000000  0.000000  0.500000  1
