# generated using pymatgen
data_Yb4CN4
_symmetry_space_group_name_H-M   'P 1'
_cell_length_a   11.24897100
_cell_length_b   3.50094800
_cell_length_c   13.88017700
_cell_angle_alpha   90.00000000
_cell_angle_beta   90.00000000
_cell_angle_gamma   90.00000000
_symmetry_Int_Tables_number   1
_chemical_formula_structural   Yb4CN4
_chemical_formula_sum   'Yb16 C4 N16'
_cell_volume   546.62999847
_cell_formula_units_Z   4
loop_
 _symmetry_equiv_pos_site_id
 _symmetry_equiv_pos_as_xyz
  1  'x, y, z'
loop_
 _atom_site_type_symbol
 _atom_site_label
 _atom_site_symmetry_multiplicity
 _atom_site_fract_x
 _atom_site_fract_y
 _atom_site_fract_z
 _atom_site_occupancy
  Yb  Yb0  1  0.121192  0.250000  0.165845  1
  Yb  Yb1  1  0.621192  0.250000  0.334155  1
  Yb  Yb2  1  0.878808  0.750000  0.834155  1
  Yb  Yb3  1  0.378808  0.750000  0.665845  1
  Yb  Yb4  1  0.879416  0.250000  0.043828  1
  Yb  Yb5  1  0.379416  0.250000  0.456172  1
  Yb  Yb6  1  0.120584  0.750000  0.956172  1
  Yb  Yb7  1  0.620584  0.750000  0.543828  1
  Yb  Yb8  1  0.376088  0.250000  0.880717  1
  Yb  Yb9  1  0.876088  0.250000  0.619283  1
  Yb  Yb10  1  0.623912  0.750000  0.119283  1
  Yb  Yb11  1  0.123912  0.750000  0.380717  1
  Yb  Yb12  1  0.135915  0.250000  0.758041  1
  Yb  Yb13  1  0.635915  0.250000  0.741959  1
  Yb  Yb14  1  0.864085  0.750000  0.241959  1
  Yb  Yb15  1  0.364085  0.750000  0.258041  1
  C  C16  1  0.360724  0.250000  0.082949  1
  C  C17  1  0.860724  0.250000  0.417051  1
  C  C18  1  0.639276  0.750000  0.917051  1
  C  C19  1  0.139276  0.750000  0.582949  1
  N  N20  1  0.735270  0.250000  0.187535  1
  N  N21  1  0.235270  0.250000  0.312465  1
  N  N22  1  0.264730  0.750000  0.812465  1
  N  N23  1  0.764730  0.750000  0.687535  1
  N  N24  1  0.000007  0.250000  0.882458  1
  N  N25  1  0.500007  0.250000  0.617542  1
  N  N26  1  0.999993  0.750000  0.117542  1
  N  N27  1  0.499993  0.750000  0.382458  1
  N  N28  1  0.267835  0.250000  0.034257  1
  N  N29  1  0.767835  0.250000  0.465743  1
  N  N30  1  0.732165  0.750000  0.965743  1
  N  N31  1  0.232165  0.750000  0.534257  1
  N  N32  1  0.453617  0.250000  0.131251  1
  N  N33  1  0.953617  0.250000  0.368749  1
  N  N34  1  0.546383  0.750000  0.868749  1
  N  N35  1  0.046383  0.750000  0.631251  1
