# generated using pymatgen
data_Tb2Y4TcBi2
_symmetry_space_group_name_H-M   'P 1'
_cell_length_a   8.33662083
_cell_length_b   8.33662029
_cell_length_c   4.29599600
_cell_angle_alpha   90.00000000
_cell_angle_beta   90.00000000
_cell_angle_gamma   119.90558170
_symmetry_Int_Tables_number   1
_chemical_formula_structural   Tb2Y4TcBi2
_chemical_formula_sum   'Tb2 Y4 Tc1 Bi2'
_cell_volume   258.81353308
_cell_formula_units_Z   1
loop_
 _symmetry_equiv_pos_site_id
 _symmetry_equiv_pos_as_xyz
  1  'x, y, z'
loop_
 _atom_site_type_symbol
 _atom_site_label
 _atom_site_symmetry_multiplicity
 _atom_site_fract_x
 _atom_site_fract_y
 _atom_site_fract_z
 _atom_site_occupancy
  Tb  Tb0  1  0.232630  0.999969  0.500000  1
  Tb  Tb1  1  0.999969  0.232630  0.500000  1
  Y  Y2  1  0.766323  0.766323  0.500000  1
  Y  Y3  1  0.605623  0.000045  0.000000  1
  Y  Y4  1  0.000045  0.605623  0.000000  1
  Y  Y5  1  0.394479  0.394479  0.000000  1
  Tc  Tc6  1  0.000538  0.000538  0.000000  1
  Bi  Bi7  1  0.333696  0.666697  0.500000  1
  Bi  Bi8  1  0.666697  0.333696  0.500000  1
