# generated using pymatgen
data_MoPt(SeO3)4
_symmetry_space_group_name_H-M   'P 1'
_cell_length_a   8.19652500
_cell_length_b   8.22596110
_cell_length_c   8.24759481
_cell_angle_alpha   90.00419218
_cell_angle_beta   90.00000000
_cell_angle_gamma   90.00000000
_symmetry_Int_Tables_number   1
_chemical_formula_structural   MoPt(SeO3)4
_chemical_formula_sum   'Mo2 Pt2 Se8 O24'
_cell_volume   556.08827084
_cell_formula_units_Z   2
loop_
 _symmetry_equiv_pos_site_id
 _symmetry_equiv_pos_as_xyz
  1  'x, y, z'
loop_
 _atom_site_type_symbol
 _atom_site_label
 _atom_site_symmetry_multiplicity
 _atom_site_fract_x
 _atom_site_fract_y
 _atom_site_fract_z
 _atom_site_occupancy
  Mo  Mo0  1  0.000000  0.500000  0.000000  1
  Mo  Mo1  1  0.500000  0.500000  0.500000  1
  Pt  Pt2  1  0.000000  0.000000  0.500000  1
  Pt  Pt3  1  0.500000  0.000000  0.000000  1
  Se  Se4  1  0.329999  0.681084  0.161047  1
  Se  Se5  1  0.829999  0.318916  0.338953  1
  Se  Se6  1  0.674194  0.840951  0.680751  1
  Se  Se7  1  0.174194  0.159049  0.819249  1
  Se  Se8  1  0.670001  0.318916  0.838953  1
  Se  Se9  1  0.170001  0.681084  0.661047  1
  Se  Se10  1  0.325806  0.159049  0.319249  1
  Se  Se11  1  0.825806  0.840951  0.180751  1
  O  O12  1  0.247983  0.526253  0.044796  1
  O  O13  1  0.747983  0.473747  0.455204  1
  O  O14  1  0.756027  0.962888  0.525967  1
  O  O15  1  0.256027  0.037112  0.974033  1
  O  O16  1  0.541213  0.991658  0.757320  1
  O  O17  1  0.474600  0.563878  0.263191  1
  O  O18  1  0.974600  0.436122  0.236809  1
  O  O19  1  0.041213  0.008342  0.742680  1
  O  O20  1  0.960543  0.242935  0.490675  1
  O  O21  1  0.531145  0.741838  0.562301  1
  O  O22  1  0.460543  0.757065  0.009325  1
  O  O23  1  0.031145  0.258162  0.937699  1
  O  O24  1  0.752017  0.473747  0.955204  1
  O  O25  1  0.252017  0.526253  0.544796  1
  O  O26  1  0.243973  0.037112  0.474033  1
  O  O27  1  0.743973  0.962888  0.025967  1
  O  O28  1  0.458787  0.008342  0.242680  1
  O  O29  1  0.525400  0.436122  0.736809  1
  O  O30  1  0.025400  0.563878  0.763191  1
  O  O31  1  0.958787  0.991658  0.257320  1
  O  O32  1  0.039457  0.757065  0.509325  1
  O  O33  1  0.468855  0.258162  0.437699  1
  O  O34  1  0.539457  0.242935  0.990675  1
  O  O35  1  0.968855  0.741838  0.062301  1
