# generated using pymatgen
data_DyEr7B2(Os2C3)2
_symmetry_space_group_name_H-M   'P 1'
_cell_length_a   5.09448800
_cell_length_b   6.51382532
_cell_length_c   9.77936633
_cell_angle_alpha   90.29672809
_cell_angle_beta   90.00000000
_cell_angle_gamma   90.00000000
_symmetry_Int_Tables_number   1
_chemical_formula_structural   DyEr7B2(Os2C3)2
_chemical_formula_sum   'Dy1 Er7 B2 Os4 C6'
_cell_volume   324.52005624
_cell_formula_units_Z   1
loop_
 _symmetry_equiv_pos_site_id
 _symmetry_equiv_pos_as_xyz
  1  'x, y, z'
loop_
 _atom_site_type_symbol
 _atom_site_label
 _atom_site_symmetry_multiplicity
 _atom_site_fract_x
 _atom_site_fract_y
 _atom_site_fract_z
 _atom_site_occupancy
  Dy  Dy0  1  0.250000  0.026032  0.285408  1
  Er  Er1  1  0.250000  0.679379  0.551281  1
  Er  Er2  1  0.750000  0.321495  0.449137  1
  Er  Er3  1  0.750000  0.825871  0.054180  1
  Er  Er4  1  0.250000  0.173311  0.945578  1
  Er  Er5  1  0.250000  0.522167  0.211756  1
  Er  Er6  1  0.750000  0.477308  0.787889  1
  Er  Er7  1  0.750000  0.974068  0.715255  1
  B  B8  1  0.250000  0.448777  0.757133  1
  B  B9  1  0.750000  0.550975  0.242959  1
  Os  Os10  1  0.250000  0.723796  0.864288  1
  Os  Os11  1  0.750000  0.276105  0.135208  1
  Os  Os12  1  0.750000  0.790098  0.372264  1
  Os  Os13  1  0.250000  0.209819  0.627913  1
  C  C14  1  0.750000  0.046651  0.259831  1
  C  C15  1  0.250000  0.953443  0.739866  1
  C  C16  1  0.250000  0.820504  0.051686  1
  C  C17  1  0.750000  0.178483  0.947672  1
  C  C18  1  0.750000  0.675421  0.554411  1
  C  C19  1  0.250000  0.326296  0.446284  1
