# generated using pymatgen
data_Tb3Yb(US5)2
_symmetry_space_group_name_H-M   'P 1'
_cell_length_a   7.39976045
_cell_length_b   7.91626813
_cell_length_c   11.69571800
_cell_angle_alpha   90.00000000
_cell_angle_beta   90.00000000
_cell_angle_gamma   90.15128430
_symmetry_Int_Tables_number   1
_chemical_formula_structural   Tb3Yb(US5)2
_chemical_formula_sum   'Tb6 Yb2 U4 S20'
_cell_volume   685.11508588
_cell_formula_units_Z   2
loop_
 _symmetry_equiv_pos_site_id
 _symmetry_equiv_pos_as_xyz
  1  'x, y, z'
loop_
 _atom_site_type_symbol
 _atom_site_label
 _atom_site_symmetry_multiplicity
 _atom_site_fract_x
 _atom_site_fract_y
 _atom_site_fract_z
 _atom_site_occupancy
  Tb  Tb0  1  0.476860  0.999220  0.678559  1
  Tb  Tb1  1  0.023140  0.500780  0.178559  1
  Tb  Tb2  1  0.472712  0.500992  0.676427  1
  Tb  Tb3  1  0.027288  0.999008  0.176427  1
  Tb  Tb4  1  0.523199  0.999751  0.323054  1
  Tb  Tb5  1  0.976801  0.500249  0.823054  1
  Yb  Yb6  1  0.523290  0.500678  0.322994  1
  Yb  Yb7  1  0.976710  0.999322  0.822994  1
  U  U8  1  0.070911  0.751700  0.489812  1
  U  U9  1  0.429089  0.748300  0.989812  1
  U  U10  1  0.926635  0.250503  0.509471  1
  U  U11  1  0.573365  0.249497  0.009471  1
  S  S12  1  0.836001  0.954773  0.593506  1
  S  S13  1  0.663999  0.545227  0.093506  1
  S  S14  1  0.160367  0.458618  0.403704  1
  S  S15  1  0.339633  0.041382  0.903704  1
  S  S16  1  0.165379  0.044405  0.403525  1
  S  S17  1  0.334621  0.455595  0.903525  1
  S  S18  1  0.834845  0.545705  0.596329  1
  S  S19  1  0.665155  0.954295  0.096329  1
  S  S20  1  0.834466  0.753376  0.312025  1
  S  S21  1  0.665534  0.746624  0.812025  1
  S  S22  1  0.170466  0.255305  0.685256  1
  S  S23  1  0.329534  0.244695  0.185256  1
  S  S24  1  0.455084  0.756033  0.502331  1
  S  S25  1  0.044916  0.743967  0.002331  1
  S  S26  1  0.544300  0.245355  0.502990  1
  S  S27  1  0.955700  0.254645  0.002990  1
  S  S28  1  0.195598  0.745899  0.715101  1
  S  S29  1  0.304402  0.754101  0.215101  1
  S  S30  1  0.807663  0.245278  0.284916  1
  S  S31  1  0.692337  0.254722  0.784916  1
