# generated using pymatgen
data_SmDy3Er2Ta2O14
_symmetry_space_group_name_H-M   'P 1'
_cell_length_a   6.48740052
_cell_length_b   6.49332102
_cell_length_c   7.49137475
_cell_angle_alpha   90.02773283
_cell_angle_beta   89.90106201
_cell_angle_gamma   108.69947586
_symmetry_Int_Tables_number   1
_chemical_formula_structural   SmDy3Er2Ta2O14
_chemical_formula_sum   'Sm1 Dy3 Er2 Ta2 O14'
_cell_volume   298.91396522
_cell_formula_units_Z   1
loop_
 _symmetry_equiv_pos_site_id
 _symmetry_equiv_pos_as_xyz
  1  'x, y, z'
loop_
 _atom_site_type_symbol
 _atom_site_label
 _atom_site_symmetry_multiplicity
 _atom_site_fract_x
 _atom_site_fract_y
 _atom_site_fract_z
 _atom_site_occupancy
  Sm  Sm0  1  0.475480  0.474477  0.000836  1
  Dy  Dy1  1  0.537833  0.536766  0.499336  1
  Dy  Dy2  1  0.000185  0.465448  0.741398  1
  Dy  Dy3  1  0.534410  0.000814  0.755783  1
  Er  Er4  1  0.001255  0.534505  0.244105  1
  Er  Er5  1  0.465253  0.999490  0.258934  1
  Ta  Ta6  1  0.002812  0.003013  0.498960  1
  Ta  Ta7  1  0.997571  0.997884  0.001069  1
  O  O8  1  0.933153  0.066970  0.750175  1
  O  O9  1  0.640364  0.359856  0.744456  1
  O  O10  1  0.309356  0.051451  0.541106  1
  O  O11  1  0.941864  0.687113  0.959414  1
  O  O12  1  0.632966  0.367599  0.255329  1
  O  O13  1  0.918394  0.672196  0.524116  1
  O  O14  1  0.326906  0.078636  0.975327  1
  O  O15  1  0.077256  0.326667  0.027830  1
  O  O16  1  0.672561  0.918940  0.472790  1
  O  O17  1  0.369342  0.631635  0.744698  1
  O  O18  1  0.688376  0.945201  0.044314  1
  O  O19  1  0.048273  0.308256  0.455003  1
  O  O20  1  0.357358  0.642371  0.255277  1
  O  O21  1  0.069034  0.930711  0.249743  1
