# generated using pymatgen
data_Gd2Dy3Sn3Sb
_symmetry_space_group_name_H-M   'P 1'
_cell_length_a   8.17525000
_cell_length_b   8.19890700
_cell_length_c   15.45840100
_cell_angle_alpha   90.00000000
_cell_angle_beta   90.00000000
_cell_angle_gamma   90.00000000
_symmetry_Int_Tables_number   1
_chemical_formula_structural   Gd2Dy3Sn3Sb
_chemical_formula_sum   'Gd8 Dy12 Sn12 Sb4'
_cell_volume   1036.14747147
_cell_formula_units_Z   4
loop_
 _symmetry_equiv_pos_site_id
 _symmetry_equiv_pos_as_xyz
  1  'x, y, z'
loop_
 _atom_site_type_symbol
 _atom_site_label
 _atom_site_symmetry_multiplicity
 _atom_site_fract_x
 _atom_site_fract_y
 _atom_site_fract_z
 _atom_site_occupancy
  Gd  Gd0  1  0.527563  0.323799  0.899841  1
  Gd  Gd1  1  0.027563  0.176201  0.600159  1
  Gd  Gd2  1  0.472437  0.676201  0.399841  1
  Gd  Gd3  1  0.972437  0.823799  0.100159  1
  Gd  Gd4  1  0.478959  0.678436  0.099014  1
  Gd  Gd5  1  0.978959  0.821564  0.400986  1
  Gd  Gd6  1  0.521041  0.321564  0.599014  1
  Gd  Gd7  1  0.021041  0.178436  0.900986  1
  Dy  Dy8  1  0.369629  0.839050  0.877633  1
  Dy  Dy9  1  0.869629  0.660950  0.622367  1
  Dy  Dy10  1  0.630371  0.160950  0.377633  1
  Dy  Dy11  1  0.130371  0.339050  0.122367  1
  Dy  Dy12  1  0.633194  0.162126  0.122304  1
  Dy  Dy13  1  0.133194  0.337874  0.377696  1
  Dy  Dy14  1  0.366806  0.837874  0.622304  1
  Dy  Dy15  1  0.866806  0.662126  0.877696  1
  Dy  Dy16  1  0.197603  0.500295  0.748307  1
  Dy  Dy17  1  0.697603  0.999705  0.751693  1
  Dy  Dy18  1  0.802397  0.499705  0.248307  1
  Dy  Dy19  1  0.302397  0.000295  0.251693  1
  Sn  Sn20  1  0.709261  0.964030  0.957478  1
  Sn  Sn21  1  0.209261  0.535970  0.542522  1
  Sn  Sn22  1  0.290739  0.035970  0.457478  1
  Sn  Sn23  1  0.790739  0.464030  0.042522  1
  Sn  Sn24  1  0.563422  0.621782  0.749355  1
  Sn  Sn25  1  0.063422  0.878218  0.750645  1
  Sn  Sn26  1  0.436578  0.378218  0.249355  1
  Sn  Sn27  1  0.936578  0.121782  0.250645  1
  Sn  Sn28  1  0.330787  0.145364  0.750596  1
  Sn  Sn29  1  0.830787  0.354636  0.749404  1
  Sn  Sn30  1  0.669213  0.854636  0.250596  1
  Sn  Sn31  1  0.169213  0.645364  0.249404  1
  Sb  Sb32  1  0.287450  0.034771  0.043669  1
  Sb  Sb33  1  0.787450  0.465229  0.456331  1
  Sb  Sb34  1  0.712550  0.965229  0.543669  1
  Sb  Sb35  1  0.212550  0.534771  0.956331  1
