# generated using pymatgen
data_Er2Ga4PdAu
_symmetry_space_group_name_H-M   'P 1'
_cell_length_a   5.56845552
_cell_length_b   5.56845628
_cell_length_c   6.61324400
_cell_angle_alpha   90.00000000
_cell_angle_beta   90.00000000
_cell_angle_gamma   132.74844671
_symmetry_Int_Tables_number   1
_chemical_formula_structural   Er2Ga4PdAu
_chemical_formula_sum   'Er2 Ga4 Pd1 Au1'
_cell_volume   150.58504394
_cell_formula_units_Z   1
loop_
 _symmetry_equiv_pos_site_id
 _symmetry_equiv_pos_as_xyz
  1  'x, y, z'
loop_
 _atom_site_type_symbol
 _atom_site_label
 _atom_site_symmetry_multiplicity
 _atom_site_fract_x
 _atom_site_fract_y
 _atom_site_fract_z
 _atom_site_occupancy
  Er  Er0  1  0.589646  0.410354  0.250000  1
  Er  Er1  1  0.412812  0.587188  0.750000  1
  Ga  Ga2  1  0.874577  0.125423  0.454594  1
  Ga  Ga3  1  0.124413  0.875587  0.554676  1
  Ga  Ga4  1  0.874577  0.125423  0.045406  1
  Ga  Ga5  1  0.124413  0.875587  0.945324  1
  Pd  Pd6  1  0.700425  0.299575  0.750000  1
  Au  Au7  1  0.299137  0.700863  0.250000  1
