# generated using pymatgen
data_CeErMoC2
_symmetry_space_group_name_H-M   'P 1'
_cell_length_a   5.71505757
_cell_length_b   5.73373281
_cell_length_c   10.05926536
_cell_angle_alpha   90.93505181
_cell_angle_beta   89.95791499
_cell_angle_gamma   91.15224132
_symmetry_Int_Tables_number   1
_chemical_formula_structural   CeErMoC2
_chemical_formula_sum   'Ce4 Er4 Mo4 C8'
_cell_volume   329.51760852
_cell_formula_units_Z   4
loop_
 _symmetry_equiv_pos_site_id
 _symmetry_equiv_pos_as_xyz
  1  'x, y, z'
loop_
 _atom_site_type_symbol
 _atom_site_label
 _atom_site_symmetry_multiplicity
 _atom_site_fract_x
 _atom_site_fract_y
 _atom_site_fract_z
 _atom_site_occupancy
  Ce  Ce0  1  0.303228  0.703228  0.159461  1
  Ce  Ce1  1  0.185939  0.184560  0.655751  1
  Ce  Ce2  1  0.803441  0.797832  0.343110  1
  Ce  Ce3  1  0.813880  0.812774  0.651032  1
  Er  Er4  1  0.201361  0.199887  0.343242  1
  Er  Er5  1  0.300013  0.701977  0.845307  1
  Er  Er6  1  0.699537  0.301905  0.844512  1
  Er  Er7  1  0.701698  0.300327  0.155803  1
  Mo  Mo8  1  0.322226  0.671990  0.501894  1
  Mo  Mo9  1  0.818241  0.823600  0.999946  1
  Mo  Mo10  1  0.179565  0.185109  0.000765  1
  Mo  Mo11  1  0.675201  0.318730  0.500617  1
  C  C12  1  0.000784  0.008856  0.152716  1
  C  C13  1  0.498995  0.498323  0.657380  1
  C  C14  1  0.493668  0.998509  0.495782  1
  C  C15  1  0.502755  0.491797  0.346831  1
  C  C16  1  0.998676  0.000655  0.851435  1
  C  C17  1  0.501244  0.008481  0.998191  1
  C  C18  1  0.997177  0.502050  0.998977  1
  C  C19  1  0.002369  0.489408  0.497249  1
