# generated using pymatgen
data_Tb3Mg3InAgIr
_symmetry_space_group_name_H-M   'P 1'
_cell_length_a   8.03307900
_cell_length_b   8.03307783
_cell_length_c   3.83698300
_cell_angle_alpha   90.00000000
_cell_angle_beta   90.00000000
_cell_angle_gamma   119.99999246
_symmetry_Int_Tables_number   1
_chemical_formula_structural   Tb3Mg3InAgIr
_chemical_formula_sum   'Tb3 Mg3 In1 Ag1 Ir1'
_cell_volume   214.42950964
_cell_formula_units_Z   1
loop_
 _symmetry_equiv_pos_site_id
 _symmetry_equiv_pos_as_xyz
  1  'x, y, z'
loop_
 _atom_site_type_symbol
 _atom_site_label
 _atom_site_symmetry_multiplicity
 _atom_site_fract_x
 _atom_site_fract_y
 _atom_site_fract_z
 _atom_site_occupancy
  Tb  Tb0  1  0.566744  0.958913  0.000000  1
  Tb  Tb1  1  0.041087  0.607831  0.000000  1
  Tb  Tb2  1  0.392169  0.433256  0.000000  1
  Mg  Mg3  1  0.253114  0.000070  0.500000  1
  Mg  Mg4  1  0.999930  0.253044  0.500000  1
  Mg  Mg5  1  0.746956  0.746886  0.500000  1
  In  In6  1  0.666667  0.333333  0.500000  1
  Ag  Ag7  1  0.000000  0.000000  0.000000  1
  Ir  Ir8  1  0.333333  0.666667  0.500000  1
