# generated using pymatgen
data_SmHo5(Co3P2)6
_symmetry_space_group_name_H-M   'P 1'
_cell_length_a   3.69839300
_cell_length_b   10.53554200
_cell_length_c   12.19186200
_cell_angle_alpha   90.00000000
_cell_angle_beta   90.00000000
_cell_angle_gamma   90.00000000
_symmetry_Int_Tables_number   1
_chemical_formula_structural   SmHo5(Co3P2)6
_chemical_formula_sum   'Sm1 Ho5 Co18 P12'
_cell_volume   475.05071866
_cell_formula_units_Z   1
loop_
 _symmetry_equiv_pos_site_id
 _symmetry_equiv_pos_as_xyz
  1  'x, y, z'
loop_
 _atom_site_type_symbol
 _atom_site_label
 _atom_site_symmetry_multiplicity
 _atom_site_fract_x
 _atom_site_fract_y
 _atom_site_fract_z
 _atom_site_occupancy
  Sm  Sm0  1  0.000000  0.500000  0.522301  1
  Ho  Ho1  1  0.500000  0.000000  0.478075  1
  Ho  Ho2  1  0.500000  0.818327  0.205904  1
  Ho  Ho3  1  0.500000  0.181673  0.205904  1
  Ho  Ho4  1  0.000000  0.682635  0.794700  1
  Ho  Ho5  1  0.000000  0.317365  0.794700  1
  Co  Co6  1  0.000000  0.500000  0.987113  1
  Co  Co7  1  0.500000  0.000000  0.013921  1
  Co  Co8  1  0.500000  0.295359  0.430030  1
  Co  Co9  1  0.500000  0.704641  0.430030  1
  Co  Co10  1  0.000000  0.200755  0.569813  1
  Co  Co11  1  0.000000  0.799245  0.569813  1
  Co  Co12  1  0.500000  0.879650  0.710295  1
  Co  Co13  1  0.500000  0.120350  0.710295  1
  Co  Co14  1  0.000000  0.621434  0.289187  1
  Co  Co15  1  0.000000  0.378566  0.289187  1
  Co  Co16  1  0.500000  0.332887  0.994507  1
  Co  Co17  1  0.500000  0.667113  0.994507  1
  Co  Co18  1  0.000000  0.166386  0.005352  1
  Co  Co19  1  0.000000  0.833614  0.005352  1
  Co  Co20  1  0.500000  0.500000  0.157261  1
  Co  Co21  1  0.000000  0.000000  0.841068  1
  Co  Co22  1  0.500000  0.500000  0.705238  1
  Co  Co23  1  0.000000  0.000000  0.296379  1
  P  P24  1  0.500000  0.308480  0.616922  1
  P  P25  1  0.500000  0.691520  0.616922  1
  P  P26  1  0.000000  0.188556  0.383962  1
  P  P27  1  0.000000  0.811444  0.383962  1
  P  P28  1  0.500000  0.500000  0.883422  1
  P  P29  1  0.000000  0.000000  0.117419  1
  P  P30  1  0.500000  0.847741  0.892941  1
  P  P31  1  0.500000  0.152259  0.892941  1
  P  P32  1  0.000000  0.653608  0.106712  1
  P  P33  1  0.000000  0.346392  0.106712  1
  P  P34  1  0.500000  0.500000  0.341257  1
  P  P35  1  0.000000  0.000000  0.655897  1
