# generated using pymatgen
data_Tm10Hg5Pd4Pb3
_symmetry_space_group_name_H-M   'P 1'
_cell_length_a   3.57183400
_cell_length_b   8.08244421
_cell_length_c   18.24729600
_cell_angle_alpha   90.23016359
_cell_angle_beta   90.00000000
_cell_angle_gamma   90.00000000
_symmetry_Int_Tables_number   1
_chemical_formula_structural   Tm10Hg5Pd4Pb3
_chemical_formula_sum   'Tm10 Hg5 Pd4 Pb3'
_cell_volume   526.77965751
_cell_formula_units_Z   1
loop_
 _symmetry_equiv_pos_site_id
 _symmetry_equiv_pos_as_xyz
  1  'x, y, z'
loop_
 _atom_site_type_symbol
 _atom_site_label
 _atom_site_symmetry_multiplicity
 _atom_site_fract_x
 _atom_site_fract_y
 _atom_site_fract_z
 _atom_site_occupancy
  Tm  Tm0  1  0.000000  0.106789  0.414910  1
  Tm  Tm1  1  0.000000  0.892292  0.583684  1
  Tm  Tm2  1  0.000000  0.396635  0.917842  1
  Tm  Tm3  1  0.000000  0.615555  0.085600  1
  Tm  Tm4  1  0.000000  0.230715  0.210976  1
  Tm  Tm5  1  0.000000  0.755726  0.785745  1
  Tm  Tm6  1  0.000000  0.252302  0.716710  1
  Tm  Tm7  1  0.000000  0.751046  0.278562  1
  Tm  Tm8  1  0.000000  0.003200  0.006459  1
  Tm  Tm9  1  0.000000  0.499060  0.499212  1
  Hg  Hg10  1  0.500000  0.917297  0.145659  1
  Hg  Hg11  1  0.500000  0.296194  0.063926  1
  Hg  Hg12  1  0.500000  0.709438  0.937950  1
  Hg  Hg13  1  0.500000  0.205781  0.562947  1
  Hg  Hg14  1  0.500000  0.792767  0.435683  1
  Pd  Pd15  1  0.500000  0.027523  0.301568  1
  Pd  Pd16  1  0.500000  0.971002  0.697390  1
  Pd  Pd17  1  0.500000  0.472425  0.803828  1
  Pd  Pd18  1  0.500000  0.523075  0.196814  1
  Pb  Pb19  1  0.500000  0.421278  0.351237  1
  Pb  Pb20  1  0.500000  0.579317  0.647950  1
  Pb  Pb21  1  0.500000  0.080585  0.855351  1
