# generated using pymatgen
data_Nd2Mg3CdIr18
_symmetry_space_group_name_H-M   'P 1'
_cell_length_a   8.93986200
_cell_length_b   8.93986222
_cell_length_c   5.09481300
_cell_angle_alpha   90.00000000
_cell_angle_beta   90.00000000
_cell_angle_gamma   89.98732295
_symmetry_Int_Tables_number   1
_chemical_formula_structural   Nd2Mg3CdIr18
_chemical_formula_sum   'Nd2 Mg3 Cd1 Ir18'
_cell_volume   407.18322524
_cell_formula_units_Z   1
loop_
 _symmetry_equiv_pos_site_id
 _symmetry_equiv_pos_as_xyz
  1  'x, y, z'
loop_
 _atom_site_type_symbol
 _atom_site_label
 _atom_site_symmetry_multiplicity
 _atom_site_fract_x
 _atom_site_fract_y
 _atom_site_fract_z
 _atom_site_occupancy
  Nd  Nd0  1  0.500084  0.500464  0.000000  1
  Nd  Nd1  1  0.999536  0.999916  0.000000  1
  Mg  Mg2  1  0.116831  0.616810  0.000000  1
  Mg  Mg3  1  0.883190  0.383169  0.000000  1
  Mg  Mg4  1  0.383151  0.116849  0.000000  1
  Cd  Cd5  1  0.616376  0.883624  0.000000  1
  Ir  Ir6  1  0.316662  0.818061  0.760268  1
  Ir  Ir7  1  0.681939  0.183338  0.760268  1
  Ir  Ir8  1  0.181861  0.318139  0.761093  1
  Ir  Ir9  1  0.819745  0.680255  0.759900  1
  Ir  Ir10  1  0.681939  0.183338  0.239732  1
  Ir  Ir11  1  0.316662  0.818061  0.239732  1
  Ir  Ir12  1  0.819745  0.680255  0.240100  1
  Ir  Ir13  1  0.181861  0.318139  0.238907  1
  Ir  Ir14  1  0.556180  0.703852  0.500000  1
  Ir  Ir15  1  0.443199  0.294992  0.500000  1
  Ir  Ir16  1  0.943515  0.205860  0.500000  1
  Ir  Ir17  1  0.057123  0.794438  0.500000  1
  Ir  Ir18  1  0.705562  0.442877  0.500000  1
  Ir  Ir19  1  0.294140  0.556485  0.500000  1
  Ir  Ir20  1  0.205008  0.056801  0.500000  1
  Ir  Ir21  1  0.796148  0.943820  0.500000  1
  Ir  Ir22  1  0.000215  0.499785  0.500000  1
  Ir  Ir23  1  0.499329  0.000671  0.500000  1
