# generated using pymatgen
data_Cs2LuHf(CuSe3)2
_symmetry_space_group_name_H-M   'P 1'
_cell_length_a   8.43960478
_cell_length_b   8.43960375
_cell_length_c   10.42624130
_cell_angle_alpha   90.92259074
_cell_angle_beta   89.07741051
_cell_angle_gamma   153.01264304
_symmetry_Int_Tables_number   1
_chemical_formula_structural   Cs2LuHf(CuSe3)2
_chemical_formula_sum   'Cs2 Lu1 Hf1 Cu2 Se6'
_cell_volume   336.95431467
_cell_formula_units_Z   1
loop_
 _symmetry_equiv_pos_site_id
 _symmetry_equiv_pos_as_xyz
  1  'x, y, z'
loop_
 _atom_site_type_symbol
 _atom_site_label
 _atom_site_symmetry_multiplicity
 _atom_site_fract_x
 _atom_site_fract_y
 _atom_site_fract_z
 _atom_site_occupancy
  Cs  Cs0  1  0.746155  0.253845  0.254640  1
  Cs  Cs1  1  0.253845  0.746155  0.745360  1
  Lu  Lu2  1  0.000000  0.000000  0.500000  1
  Hf  Hf3  1  0.000000  0.000000  0.000000  1
  Cu  Cu4  1  0.532149  0.467851  0.748965  1
  Cu  Cu5  1  0.467851  0.532149  0.251035  1
  Se  Se6  1  0.615313  0.384687  0.555653  1
  Se  Se7  1  0.384687  0.615313  0.444347  1
  Se  Se8  1  0.058369  0.941631  0.240319  1
  Se  Se9  1  0.941631  0.058369  0.759681  1
  Se  Se10  1  0.609529  0.390471  0.947826  1
  Se  Se11  1  0.390471  0.609529  0.052174  1
