# generated using pymatgen
data_La2TbDySi6
_symmetry_space_group_name_H-M   'P 1'
_cell_length_a   3.98613500
_cell_length_b   4.36948656
_cell_length_c   12.58548201
_cell_angle_alpha   99.99674858
_cell_angle_beta   90.00000000
_cell_angle_gamma   90.00000000
_symmetry_Int_Tables_number   1
_chemical_formula_structural   La2TbDySi6
_chemical_formula_sum   'La2 Tb1 Dy1 Si6'
_cell_volume   215.87784193
_cell_formula_units_Z   1
loop_
 _symmetry_equiv_pos_site_id
 _symmetry_equiv_pos_as_xyz
  1  'x, y, z'
loop_
 _atom_site_type_symbol
 _atom_site_label
 _atom_site_symmetry_multiplicity
 _atom_site_fract_x
 _atom_site_fract_y
 _atom_site_fract_z
 _atom_site_occupancy
  La  La0  1  0.750000  0.429108  0.858216  1
  La  La1  1  0.250000  0.570950  0.141900  1
  Tb  Tb2  1  0.250000  0.297266  0.594530  1
  Dy  Dy3  1  0.750000  0.702612  0.405225  1
  Si  Si4  1  0.750000  0.025237  0.050472  1
  Si  Si5  1  0.250000  0.974775  0.949552  1
  Si  Si6  1  0.750000  0.121042  0.242085  1
  Si  Si7  1  0.250000  0.879041  0.758080  1
  Si  Si8  1  0.750000  0.821142  0.642284  1
  Si  Si9  1  0.250000  0.178829  0.357657  1
