# generated using pymatgen
data_Ba2Al16Pt9
_symmetry_space_group_name_H-M   'P 1'
_cell_length_a   11.34584416
_cell_length_b   11.34584457
_cell_length_c   11.34584541
_cell_angle_alpha   158.58255887
_cell_angle_beta   115.14171186
_cell_angle_gamma   69.15732083
_symmetry_Int_Tables_number   1
_chemical_formula_structural   Ba2Al16Pt9
_chemical_formula_sum   'Ba2 Al16 Pt9'
_cell_volume   479.30246055
_cell_formula_units_Z   1
loop_
 _symmetry_equiv_pos_site_id
 _symmetry_equiv_pos_as_xyz
  1  'x, y, z'
loop_
 _atom_site_type_symbol
 _atom_site_label
 _atom_site_symmetry_multiplicity
 _atom_site_fract_x
 _atom_site_fract_y
 _atom_site_fract_z
 _atom_site_occupancy
  Ba  Ba0  1  0.228092  0.228092  0.000000  1
  Ba  Ba1  1  0.771908  0.771908  0.000000  1
  Al  Al2  1  0.277349  0.394500  0.882848  1
  Al  Al3  1  0.094038  0.921745  0.172293  1
  Al  Al4  1  0.506170  0.204115  0.302056  1
  Al  Al5  1  0.250547  0.078255  0.172293  1
  Al  Al6  1  0.916839  0.416839  0.500000  1
  Al  Al7  1  0.722651  0.605500  0.117152  1
  Al  Al8  1  0.902059  0.204115  0.697944  1
  Al  Al9  1  0.493830  0.795885  0.697944  1
  Al  Al10  1  0.383147  0.000000  0.383147  1
  Al  Al11  1  0.616853  0.000000  0.616853  1
  Al  Al12  1  0.488348  0.605500  0.882848  1
  Al  Al13  1  0.097941  0.795885  0.302056  1
  Al  Al14  1  0.905962  0.078255  0.827707  1
  Al  Al15  1  0.749453  0.921745  0.827707  1
  Al  Al16  1  0.511652  0.394500  0.117152  1
  Al  Al17  1  0.083161  0.583161  0.500000  1
  Pt  Pt18  1  0.748729  0.500000  0.248729  1
  Pt  Pt19  1  0.036271  0.342250  0.694020  1
  Pt  Pt20  1  0.617860  0.117860  0.500000  1
  Pt  Pt21  1  0.251271  0.500000  0.751271  1
  Pt  Pt22  1  0.382140  0.882140  0.500000  1
  Pt  Pt23  1  0.000000  0.000000  0.000000  1
  Pt  Pt24  1  0.648230  0.342250  0.305980  1
  Pt  Pt25  1  0.351770  0.657750  0.694020  1
  Pt  Pt26  1  0.963729  0.657750  0.305980  1
