# generated using pymatgen
data_LuHf(Al3Co)3
_symmetry_space_group_name_H-M   'P 1'
_cell_length_a   7.29320362
_cell_length_b   7.28496662
_cell_length_c   9.09716900
_cell_angle_alpha   90.00000000
_cell_angle_beta   90.00000000
_cell_angle_gamma   119.47029998
_symmetry_Int_Tables_number   1
_chemical_formula_structural   LuHf(Al3Co)3
_chemical_formula_sum   'Lu2 Hf2 Al18 Co6'
_cell_volume   420.80048788
_cell_formula_units_Z   2
loop_
 _symmetry_equiv_pos_site_id
 _symmetry_equiv_pos_as_xyz
  1  'x, y, z'
loop_
 _atom_site_type_symbol
 _atom_site_label
 _atom_site_symmetry_multiplicity
 _atom_site_fract_x
 _atom_site_fract_y
 _atom_site_fract_z
 _atom_site_occupancy
  Lu  Lu0  1  0.671856  0.992985  0.250000  1
  Lu  Lu1  1  0.328144  0.007015  0.750000  1
  Hf  Hf2  1  0.994843  0.672351  0.250000  1
  Hf  Hf3  1  0.005157  0.327649  0.750000  1
  Al  Al4  1  0.121803  0.119495  0.250000  1
  Al  Al5  1  0.878197  0.880505  0.750000  1
  Al  Al6  1  0.996543  0.336599  0.072089  1
  Al  Al7  1  0.003457  0.663401  0.927911  1
  Al  Al8  1  0.003457  0.663401  0.572089  1
  Al  Al9  1  0.333300  0.995838  0.426138  1
  Al  Al10  1  0.996543  0.336599  0.427911  1
  Al  Al11  1  0.666700  0.004162  0.573862  1
  Al  Al12  1  0.666700  0.004162  0.926138  1
  Al  Al13  1  0.333300  0.995838  0.073862  1
  Al  Al14  1  0.329941  0.332006  0.548854  1
  Al  Al15  1  0.670059  0.667994  0.451146  1
  Al  Al16  1  0.670059  0.667994  0.048854  1
  Al  Al17  1  0.329941  0.332006  0.951146  1
  Al  Al18  1  0.334453  0.554329  0.250000  1
  Al  Al19  1  0.665547  0.445671  0.750000  1
  Al  Al20  1  0.560998  0.343506  0.250000  1
  Al  Al21  1  0.439002  0.656494  0.750000  1
  Co  Co22  1  0.672817  0.328478  0.999289  1
  Co  Co23  1  0.327183  0.671522  0.000711  1
  Co  Co24  1  0.327183  0.671522  0.499289  1
  Co  Co25  1  0.672817  0.328478  0.500711  1
  Co  Co26  1  0.000000  0.000000  0.000000  1
  Co  Co27  1  0.000000  0.000000  0.500000  1
