# generated using pymatgen
data_Y4NiB16Ir3
_symmetry_space_group_name_H-M   'P 1'
_cell_length_a   6.97811706
_cell_length_b   6.97804425
_cell_length_c   6.97812430
_cell_angle_alpha   111.30731990
_cell_angle_beta   112.26695853
_cell_angle_gamma   104.93456792
_symmetry_Int_Tables_number   1
_chemical_formula_structural   Y4NiB16Ir3
_chemical_formula_sum   'Y4 Ni1 B16 Ir3'
_cell_volume   260.33174324
_cell_formula_units_Z   1
loop_
 _symmetry_equiv_pos_site_id
 _symmetry_equiv_pos_as_xyz
  1  'x, y, z'
loop_
 _atom_site_type_symbol
 _atom_site_label
 _atom_site_symmetry_multiplicity
 _atom_site_fract_x
 _atom_site_fract_y
 _atom_site_fract_z
 _atom_site_occupancy
  Y  Y0  1  0.787647  0.790763  0.003115  1
  Y  Y1  1  0.212351  0.215465  0.003115  1
  Y  Y2  1  0.751500  0.252187  0.500687  1
  Y  Y3  1  0.248501  0.749188  0.500689  1
  Ni  Ni4  1  0.499998  0.256817  0.756820  1
  B  B5  1  0.270039  0.108632  0.378676  1
  B  B6  1  0.735439  0.893758  0.629192  1
  B  B7  1  0.264565  0.893758  0.158319  1
  B  B8  1  0.729956  0.108632  0.838593  1
  B  B9  1  0.108101  0.731660  0.839759  1
  B  B10  1  0.891132  0.264758  0.155887  1
  B  B11  1  0.108870  0.264758  0.373626  1
  B  B12  1  0.891901  0.731660  0.623561  1
  B  B13  1  0.117914  0.112638  0.531381  1
  B  B14  1  0.584848  0.584462  0.474952  1
  B  B15  1  0.109511  0.584462  0.999614  1
  B  B16  1  0.581256  0.112638  0.994723  1
  B  B17  1  0.890486  0.890109  0.474958  1
  B  B18  1  0.418747  0.413472  0.531383  1
  B  B19  1  0.882089  0.413473  0.994726  1
  B  B20  1  0.415151  0.890109  0.999622  1
  Ir  Ir21  1  0.267165  0.496768  0.763939  1
  Ir  Ir22  1  0.732829  0.496768  0.229604  1
  Ir  Ir23  1  0.500006  0.743066  0.243060  1
