# generated using pymatgen
data_Ac7SmSe16
_symmetry_space_group_name_H-M   'P 1'
_cell_length_a   8.75884187
_cell_length_b   8.77387508
_cell_length_c   8.84335382
_cell_angle_alpha   90.21276213
_cell_angle_beta   89.86087095
_cell_angle_gamma   89.90166344
_symmetry_Int_Tables_number   1
_chemical_formula_structural   Ac7SmSe16
_chemical_formula_sum   'Ac7 Sm1 Se16'
_cell_volume   679.59505888
_cell_formula_units_Z   1
loop_
 _symmetry_equiv_pos_site_id
 _symmetry_equiv_pos_as_xyz
  1  'x, y, z'
loop_
 _atom_site_type_symbol
 _atom_site_label
 _atom_site_symmetry_multiplicity
 _atom_site_fract_x
 _atom_site_fract_y
 _atom_site_fract_z
 _atom_site_occupancy
  Ac  Ac0  1  0.251929  0.486316  0.723622  1
  Ac  Ac1  1  0.251658  0.988071  0.724077  1
  Ac  Ac2  1  0.752904  0.512114  0.723162  1
  Ac  Ac3  1  0.753357  0.013690  0.722506  1
  Ac  Ac4  1  0.498532  0.232514  0.277624  1
  Ac  Ac5  1  0.996512  0.766129  0.278028  1
  Ac  Ac6  1  0.495884  0.729630  0.273164  1
  Sm  Sm7  1  0.998805  0.268244  0.278394  1
  Se  Se8  1  0.500161  0.245373  0.635667  1
  Se  Se9  1  0.999858  0.754371  0.636660  1
  Se  Se10  1  0.499277  0.745046  0.631219  1
  Se  Se11  1  0.000963  0.253164  0.624941  1
  Se  Se12  1  0.757582  0.496894  0.362986  1
  Se  Se13  1  0.756042  0.009384  0.364107  1
  Se  Se14  1  0.243042  0.489203  0.363001  1
  Se  Se15  1  0.246697  0.999449  0.364448  1
  Se  Se16  1  0.234014  0.715370  0.998720  1
  Se  Se17  1  0.240027  0.217975  0.001851  1
  Se  Se18  1  0.748647  0.284554  0.001316  1
  Se  Se19  1  0.738591  0.786262  0.997913  1
  Se  Se20  1  0.007338  0.537937  0.003322  1
  Se  Se21  1  0.509003  0.959087  0.001584  1
  Se  Se22  1  0.512306  0.453759  0.001639  1
  Se  Se23  1  0.006868  0.055465  0.010050  1
