# generated using pymatgen
data_Ac3Sn3RuRhAu
_symmetry_space_group_name_H-M   'P 1'
_cell_length_a   7.84310200
_cell_length_b   7.84310296
_cell_length_c   4.37711400
_cell_angle_alpha   90.00000000
_cell_angle_beta   90.00000000
_cell_angle_gamma   119.99999141
_symmetry_Int_Tables_number   1
_chemical_formula_structural   Ac3Sn3RuRhAu
_chemical_formula_sum   'Ac3 Sn3 Ru1 Rh1 Au1'
_cell_volume   233.18161541
_cell_formula_units_Z   1
loop_
 _symmetry_equiv_pos_site_id
 _symmetry_equiv_pos_as_xyz
  1  'x, y, z'
loop_
 _atom_site_type_symbol
 _atom_site_label
 _atom_site_symmetry_multiplicity
 _atom_site_fract_x
 _atom_site_fract_y
 _atom_site_fract_z
 _atom_site_occupancy
  Ac  Ac0  1  0.407810  0.419372  0.500000  1
  Ac  Ac1  1  0.580628  0.988439  0.500000  1
  Ac  Ac2  1  0.011561  0.592190  0.500000  1
  Sn  Sn3  1  0.760514  0.768418  0.000000  1
  Sn  Sn4  1  0.231582  0.992097  0.000000  1
  Sn  Sn5  1  0.007903  0.239486  0.000000  1
  Ru  Ru6  1  0.000000  0.000000  0.500000  1
  Rh  Rh7  1  0.333333  0.666667  0.000000  1
  Au  Au8  1  0.666667  0.333333  0.000000  1
