# generated using pymatgen
data_Ho4TmLu3Ga3Co
_symmetry_space_group_name_H-M   'P 1'
_cell_length_a   9.87153400
_cell_length_b   9.87212624
_cell_length_c   6.88807006
_cell_angle_alpha   90.01285643
_cell_angle_beta   90.00000000
_cell_angle_gamma   119.99801553
_symmetry_Int_Tables_number   1
_chemical_formula_structural   Ho4TmLu3Ga3Co
_chemical_formula_sum   'Ho8 Tm2 Lu6 Ga6 Co2'
_cell_volume   581.34267262
_cell_formula_units_Z   2
loop_
 _symmetry_equiv_pos_site_id
 _symmetry_equiv_pos_as_xyz
  1  'x, y, z'
loop_
 _atom_site_type_symbol
 _atom_site_label
 _atom_site_symmetry_multiplicity
 _atom_site_fract_x
 _atom_site_fract_y
 _atom_site_fract_z
 _atom_site_occupancy
  Ho  Ho0  1  0.464178  0.535424  0.207790  1
  Ho  Ho1  1  0.071246  0.535424  0.207790  1
  Ho  Ho2  1  0.464406  0.928812  0.207526  1
  Ho  Ho3  1  0.535538  0.464117  0.708258  1
  Ho  Ho4  1  0.928579  0.464117  0.708258  1
  Ho  Ho5  1  0.535837  0.071673  0.708397  1
  Ho  Ho6  1  0.000108  0.000216  0.230074  1
  Ho  Ho7  1  0.000051  0.000101  0.731211  1
  Tm  Tm8  1  0.173635  0.826353  0.511379  1
  Tm  Tm9  1  0.652717  0.826353  0.511379  1
  Lu  Lu10  1  0.173816  0.347632  0.511337  1
  Lu  Lu11  1  0.826194  0.173802  0.011388  1
  Lu  Lu12  1  0.347609  0.173802  0.011388  1
  Lu  Lu13  1  0.826188  0.652375  0.011339  1
  Lu  Lu14  1  0.333211  0.666423  0.826522  1
  Lu  Lu15  1  0.666672  0.333342  0.325882  1
  Ga  Ga16  1  0.163529  0.836468  0.959119  1
  Ga  Ga17  1  0.672936  0.836468  0.959119  1
  Ga  Ga18  1  0.163510  0.327022  0.958711  1
  Ga  Ga19  1  0.836673  0.164068  0.458563  1
  Ga  Ga20  1  0.327397  0.164068  0.458563  1
  Ga  Ga21  1  0.836180  0.672359  0.458512  1
  Co  Co22  1  0.333116  0.666233  0.445693  1
  Co  Co23  1  0.666674  0.333348  0.945837  1
