# generated using pymatgen
data_Er4V3TcB16
_symmetry_space_group_name_H-M   'P 1'
_cell_length_a   3.47943800
_cell_length_b   5.96576204
_cell_length_c   11.54528407
_cell_angle_alpha   89.98747520
_cell_angle_beta   90.00000000
_cell_angle_gamma   90.00000000
_symmetry_Int_Tables_number   1
_chemical_formula_structural   Er4V3TcB16
_chemical_formula_sum   'Er4 V3 Tc1 B16'
_cell_volume   239.65121824
_cell_formula_units_Z   1
loop_
 _symmetry_equiv_pos_site_id
 _symmetry_equiv_pos_as_xyz
  1  'x, y, z'
loop_
 _atom_site_type_symbol
 _atom_site_label
 _atom_site_symmetry_multiplicity
 _atom_site_fract_x
 _atom_site_fract_y
 _atom_site_fract_z
 _atom_site_occupancy
  Er  Er0  1  0.500000  0.124062  0.849650  1
  Er  Er1  1  0.500000  0.875395  0.151034  1
  Er  Er2  1  0.500000  0.626373  0.651652  1
  Er  Er3  1  0.500000  0.374642  0.348900  1
  V  V4  1  0.500000  0.871771  0.417759  1
  V  V5  1  0.500000  0.627727  0.915954  1
  V  V6  1  0.500000  0.372516  0.082841  1
  Tc  Tc7  1  0.500000  0.128231  0.583083  1
  B  B8  1  0.000000  0.285639  0.685208  1
  B  B9  1  0.000000  0.714168  0.314468  1
  B  B10  1  0.000000  0.786701  0.814065  1
  B  B11  1  0.000000  0.212987  0.185905  1
  B  B12  1  0.000000  0.365386  0.531891  1
  B  B13  1  0.000000  0.634510  0.467652  1
  B  B14  1  0.000000  0.865132  0.967515  1
  B  B15  1  0.000000  0.134814  0.032610  1
  B  B16  1  0.000000  0.022685  0.307216  1
  B  B17  1  0.000000  0.976843  0.692702  1
  B  B18  1  0.000000  0.523271  0.192963  1
  B  B19  1  0.000000  0.476627  0.807098  1
  B  B20  1  0.000000  0.114522  0.452270  1
  B  B21  1  0.000000  0.885547  0.547401  1
  B  B22  1  0.000000  0.615342  0.047846  1
  B  B23  1  0.000000  0.385107  0.952319  1
