# generated using pymatgen
data_Sr7UAs6
_symmetry_space_group_name_H-M   'P 1'
_cell_length_a   8.04680949
_cell_length_b   8.18383071
_cell_length_c   8.18383098
_cell_angle_alpha   109.80789553
_cell_angle_beta   109.13240093
_cell_angle_gamma   109.13240884
_symmetry_Int_Tables_number   1
_chemical_formula_structural   Sr7UAs6
_chemical_formula_sum   'Sr7 U1 As6'
_cell_volume   416.59500751
_cell_formula_units_Z   1
loop_
 _symmetry_equiv_pos_site_id
 _symmetry_equiv_pos_as_xyz
  1  'x, y, z'
loop_
 _atom_site_type_symbol
 _atom_site_label
 _atom_site_symmetry_multiplicity
 _atom_site_fract_x
 _atom_site_fract_y
 _atom_site_fract_z
 _atom_site_occupancy
  Sr  Sr0  1  0.501296  0.001751  0.636884  1
  Sr  Sr1  1  0.370520  0.369549  0.376299  1
  Sr  Sr2  1  0.994221  0.123701  0.493249  1
  Sr  Sr3  1  0.864411  0.863116  0.864866  1
  Sr  Sr4  1  0.999545  0.635134  0.498249  1
  Sr  Sr5  1  0.634921  0.500000  0.000000  1
  Sr  Sr6  1  0.500971  0.006751  0.130451  1
  U  U7  1  0.140086  0.500000  0.000000  1
  As  As8  1  0.891462  0.265197  0.116946  1
  As  As9  1  0.126265  0.851749  0.234803  1
  As  As10  1  0.360752  0.618533  0.761936  1
  As  As11  1  0.242219  0.143403  0.881467  1
  As  As12  1  0.774516  0.383054  0.648251  1
  As  As13  1  0.598816  0.738064  0.356597  1
