# generated using pymatgen
data_Zr4Mn2Fe2Si3As
_symmetry_space_group_name_H-M   'P 1'
_cell_length_a   3.69683900
_cell_length_b   6.62062623
_cell_length_c   7.68952400
_cell_angle_alpha   90.31917869
_cell_angle_beta   90.00000000
_cell_angle_gamma   90.00000000
_symmetry_Int_Tables_number   1
_chemical_formula_structural   Zr4Mn2Fe2Si3As
_chemical_formula_sum   'Zr4 Mn2 Fe2 Si3 As1'
_cell_volume   188.20117276
_cell_formula_units_Z   1
loop_
 _symmetry_equiv_pos_site_id
 _symmetry_equiv_pos_as_xyz
  1  'x, y, z'
loop_
 _atom_site_type_symbol
 _atom_site_label
 _atom_site_symmetry_multiplicity
 _atom_site_fract_x
 _atom_site_fract_y
 _atom_site_fract_z
 _atom_site_occupancy
  Zr  Zr0  1  0.250000  0.529635  0.675960  1
  Zr  Zr1  1  0.250000  0.029121  0.820513  1
  Zr  Zr2  1  0.750000  0.965054  0.177965  1
  Zr  Zr3  1  0.750000  0.471647  0.325990  1
  Mn  Mn4  1  0.250000  0.130977  0.442684  1
  Mn  Mn5  1  0.250000  0.639219  0.059413  1
  Fe  Fe6  1  0.750000  0.369584  0.933571  1
  Fe  Fe7  1  0.750000  0.866497  0.561812  1
  Si  Si8  1  0.250000  0.768257  0.379270  1
  Si  Si9  1  0.750000  0.732451  0.872829  1
  Si  Si10  1  0.750000  0.231030  0.625151  1
  As  As11  1  0.250000  0.266527  0.124839  1
