# generated using pymatgen
data_Zr7ScSi16MoW11
_symmetry_space_group_name_H-M   'P 1'
_cell_length_a   6.61254763
_cell_length_b   6.77832286
_cell_length_c   12.69926129
_cell_angle_alpha   89.97014274
_cell_angle_beta   90.02638627
_cell_angle_gamma   89.96631367
_symmetry_Int_Tables_number   1
_chemical_formula_structural   Zr7ScSi16MoW11
_chemical_formula_sum   'Zr7 Sc1 Si16 Mo1 W11'
_cell_volume   569.20583432
_cell_formula_units_Z   1
loop_
 _symmetry_equiv_pos_site_id
 _symmetry_equiv_pos_as_xyz
  1  'x, y, z'
loop_
 _atom_site_type_symbol
 _atom_site_label
 _atom_site_symmetry_multiplicity
 _atom_site_fract_x
 _atom_site_fract_y
 _atom_site_fract_z
 _atom_site_occupancy
  Zr  Zr0  1  0.495778  0.671354  0.592337  1
  Zr  Zr1  1  0.994953  0.828169  0.908149  1
  Zr  Zr2  1  0.505645  0.327875  0.092157  1
  Zr  Zr3  1  0.006120  0.172683  0.407457  1
  Zr  Zr4  1  0.505087  0.328381  0.407396  1
  Zr  Zr5  1  0.005284  0.171560  0.092486  1
  Zr  Zr6  1  0.493747  0.671996  0.907919  1
  Sc  Sc7  1  0.994545  0.829019  0.591312  1
  Si  Si8  1  0.667867  0.959399  0.457779  1
  Si  Si9  1  0.167242  0.541258  0.043042  1
  Si  Si10  1  0.332337  0.042100  0.957395  1
  Si  Si11  1  0.833754  0.459834  0.543920  1
  Si  Si12  1  0.331257  0.039797  0.543380  1
  Si  Si13  1  0.832451  0.458274  0.957435  1
  Si  Si14  1  0.667241  0.958533  0.042575  1
  Si  Si15  1  0.166583  0.542289  0.457440  1
  Si  Si16  1  0.466089  0.379214  0.749788  1
  Si  Si17  1  0.965714  0.119523  0.749014  1
  Si  Si18  1  0.534161  0.619331  0.249629  1
  Si  Si19  1  0.034315  0.879244  0.250758  1
  Si  Si20  1  0.700323  0.858815  0.748788  1
  Si  Si21  1  0.197241  0.642680  0.748958  1
  Si  Si22  1  0.300851  0.140580  0.249795  1
  Si  Si23  1  0.800852  0.359158  0.250245  1
  Mo  Mo24  1  0.666615  0.164279  0.624113  1
  W  W25  1  0.167504  0.337221  0.875680  1
  W  W26  1  0.332396  0.836533  0.124089  1
  W  W27  1  0.831651  0.663863  0.375892  1
  W  W28  1  0.334461  0.836061  0.375612  1
  W  W29  1  0.832568  0.663943  0.124373  1
  W  W30  1  0.666914  0.163269  0.875194  1
  W  W31  1  0.167777  0.336103  0.624495  1
  W  W32  1  0.834238  0.506818  0.750746  1
  W  W33  1  0.333068  0.992248  0.750470  1
  W  W34  1  0.166908  0.490939  0.250435  1
  W  W35  1  0.666465  0.007654  0.249745  1
