# generated using pymatgen
data_Al2V4SnMo5
_symmetry_space_group_name_H-M   'P 1'
_cell_length_a   4.95940025
_cell_length_b   4.95234122
_cell_length_c   14.81160711
_cell_angle_alpha   90.07767338
_cell_angle_beta   90.07266523
_cell_angle_gamma   90.23635519
_symmetry_Int_Tables_number   1
_chemical_formula_structural   Al2V4SnMo5
_chemical_formula_sum   'Al4 V8 Sn2 Mo10'
_cell_volume   363.77885902
_cell_formula_units_Z   2
loop_
 _symmetry_equiv_pos_site_id
 _symmetry_equiv_pos_as_xyz
  1  'x, y, z'
loop_
 _atom_site_type_symbol
 _atom_site_label
 _atom_site_symmetry_multiplicity
 _atom_site_fract_x
 _atom_site_fract_y
 _atom_site_fract_z
 _atom_site_occupancy
  Al  Al0  1  0.492993  0.493909  0.165045  1
  Al  Al1  1  0.493349  0.493487  0.498208  1
  Al  Al2  1  0.492564  0.494081  0.832177  1
  Al  Al3  1  0.004466  0.007193  0.000207  1
  V  V4  1  0.504194  0.996296  0.419976  1
  V  V5  1  0.505345  0.996115  0.752951  1
  V  V6  1  0.248919  0.502786  0.998939  1
  V  V7  1  0.258373  0.506957  0.332391  1
  V  V8  1  0.259388  0.506005  0.665927  1
  V  V9  1  0.996908  0.255347  0.162949  1
  V  V10  1  0.996446  0.258259  0.502280  1
  V  V11  1  0.995060  0.256574  0.838686  1
  Sn  Sn12  1  0.008157  0.008986  0.334650  1
  Sn  Sn13  1  0.008361  0.008784  0.671053  1
  Mo  Mo14  1  0.504280  0.996847  0.248418  1
  Mo  Mo15  1  0.503447  0.997228  0.580364  1
  Mo  Mo16  1  0.501164  0.997288  0.913514  1
  Mo  Mo17  1  0.751322  0.501018  0.999144  1
  Mo  Mo18  1  0.739458  0.502645  0.332336  1
  Mo  Mo19  1  0.738933  0.503012  0.666798  1
  Mo  Mo20  1  0.998869  0.742072  0.162905  1
  Mo  Mo21  1  0.998219  0.737730  0.501418  1
  Mo  Mo22  1  0.998189  0.739888  0.837599  1
  Mo  Mo23  1  0.501593  0.997493  0.082063  1
