# generated using pymatgen
data_Er4Al18Ir3Pd2Pt
_symmetry_space_group_name_H-M   'P 1'
_cell_length_a   7.58552116
_cell_length_b   7.58556578
_cell_length_c   9.41408546
_cell_angle_alpha   89.98283657
_cell_angle_beta   89.98136991
_cell_angle_gamma   119.61979775
_symmetry_Int_Tables_number   1
_chemical_formula_structural   Er4Al18Ir3Pd2Pt
_chemical_formula_sum   'Er4 Al18 Ir3 Pd2 Pt1'
_cell_volume   470.90491831
_cell_formula_units_Z   1
loop_
 _symmetry_equiv_pos_site_id
 _symmetry_equiv_pos_as_xyz
  1  'x, y, z'
loop_
 _atom_site_type_symbol
 _atom_site_label
 _atom_site_symmetry_multiplicity
 _atom_site_fract_x
 _atom_site_fract_y
 _atom_site_fract_z
 _atom_site_occupancy
  Er  Er0  1  0.995237  0.670833  0.250521  1
  Er  Er1  1  0.004730  0.329015  0.749544  1
  Er  Er2  1  0.670948  0.995257  0.250466  1
  Er  Er3  1  0.329158  0.004792  0.749510  1
  Al  Al4  1  0.130192  0.129488  0.250386  1
  Al  Al5  1  0.870509  0.869800  0.749611  1
  Al  Al6  1  0.003333  0.338248  0.077276  1
  Al  Al7  1  0.002450  0.664969  0.922672  1
  Al  Al8  1  0.999799  0.661298  0.575788  1
  Al  Al9  1  0.338702  0.000203  0.424217  1
  Al  Al10  1  0.000350  0.338478  0.423939  1
  Al  Al11  1  0.661513  0.999647  0.576059  1
  Al  Al12  1  0.661751  0.996664  0.922723  1
  Al  Al13  1  0.335030  0.997556  0.077325  1
  Al  Al14  1  0.335692  0.335678  0.555654  1
  Al  Al15  1  0.664324  0.664308  0.444340  1
  Al  Al16  1  0.663834  0.666973  0.057638  1
  Al  Al17  1  0.333030  0.336172  0.942363  1
  Al  Al18  1  0.338811  0.549286  0.250346  1
  Al  Al19  1  0.661755  0.452598  0.747597  1
  Al  Al20  1  0.547408  0.338249  0.252402  1
  Al  Al21  1  0.450708  0.661189  0.749652  1
  Ir  Ir22  1  0.328016  0.672002  0.999997  1
  Ir  Ir23  1  0.328049  0.671949  0.499996  1
  Ir  Ir24  1  0.672418  0.327598  0.499996  1
  Pd  Pd25  1  0.999808  0.000201  0.999984  1
  Pd  Pd26  1  0.000151  0.999854  0.499998  1
  Pt  Pt27  1  0.672296  0.327693  0.000001  1
