# generated using pymatgen
data_Nb10SiIr4
_symmetry_space_group_name_H-M   'P 1'
_cell_length_a   9.89297200
_cell_length_b   9.89297200
_cell_length_c   5.17040500
_cell_angle_alpha   90.00000000
_cell_angle_beta   90.00000000
_cell_angle_gamma   90.00000000
_symmetry_Int_Tables_number   1
_chemical_formula_structural   Nb10SiIr4
_chemical_formula_sum   'Nb20 Si2 Ir8'
_cell_volume   506.03216483
_cell_formula_units_Z   2
loop_
 _symmetry_equiv_pos_site_id
 _symmetry_equiv_pos_as_xyz
  1  'x, y, z'
loop_
 _atom_site_type_symbol
 _atom_site_label
 _atom_site_symmetry_multiplicity
 _atom_site_fract_x
 _atom_site_fract_y
 _atom_site_fract_z
 _atom_site_occupancy
  Nb  Nb0  1  0.396984  0.396984  0.000000  1
  Nb  Nb1  1  0.896984  0.103016  0.500000  1
  Nb  Nb2  1  0.103016  0.896984  0.500000  1
  Nb  Nb3  1  0.603016  0.603016  0.000000  1
  Nb  Nb4  1  0.128351  0.464954  0.000000  1
  Nb  Nb5  1  0.964954  0.371649  0.500000  1
  Nb  Nb6  1  0.035046  0.628351  0.500000  1
  Nb  Nb7  1  0.871649  0.535046  0.000000  1
  Nb  Nb8  1  0.371649  0.964954  0.500000  1
  Nb  Nb9  1  0.628351  0.035046  0.500000  1
  Nb  Nb10  1  0.464954  0.128351  0.000000  1
  Nb  Nb11  1  0.535046  0.871649  0.000000  1
  Nb  Nb12  1  0.181800  0.181800  0.252470  1
  Nb  Nb13  1  0.681800  0.318200  0.752470  1
  Nb  Nb14  1  0.318200  0.681800  0.752470  1
  Nb  Nb15  1  0.818200  0.818200  0.252470  1
  Nb  Nb16  1  0.318200  0.681800  0.247530  1
  Nb  Nb17  1  0.681800  0.318200  0.247530  1
  Nb  Nb18  1  0.181800  0.181800  0.747530  1
  Nb  Nb19  1  0.818200  0.818200  0.747530  1
  Si  Si20  1  0.000000  0.000000  0.000000  1
  Si  Si21  1  0.500000  0.500000  0.500000  1
  Ir  Ir22  1  0.257725  0.937710  0.000000  1
  Ir  Ir23  1  0.437710  0.242275  0.500000  1
  Ir  Ir24  1  0.562290  0.757725  0.500000  1
  Ir  Ir25  1  0.742275  0.062290  0.000000  1
  Ir  Ir26  1  0.242275  0.437710  0.500000  1
  Ir  Ir27  1  0.757725  0.562290  0.500000  1
  Ir  Ir28  1  0.937710  0.257725  0.000000  1
  Ir  Ir29  1  0.062290  0.742275  0.000000  1
