# generated using pymatgen
data_Ba6HoTl(NiO6)2
_symmetry_space_group_name_H-M   'P 1'
_cell_length_a   7.13586776
_cell_length_b   7.13586682
_cell_length_c   7.13586818
_cell_angle_alpha   93.03665775
_cell_angle_beta   93.03667082
_cell_angle_gamma   93.03666073
_symmetry_Int_Tables_number   1
_chemical_formula_structural   Ba6HoTl(NiO6)2
_chemical_formula_sum   'Ba6 Ho1 Tl1 Ni2 O12'
_cell_volume   361.77563509
_cell_formula_units_Z   1
loop_
 _symmetry_equiv_pos_site_id
 _symmetry_equiv_pos_as_xyz
  1  'x, y, z'
loop_
 _atom_site_type_symbol
 _atom_site_label
 _atom_site_symmetry_multiplicity
 _atom_site_fract_x
 _atom_site_fract_y
 _atom_site_fract_z
 _atom_site_occupancy
  Ba  Ba0  1  0.381321  0.118678  0.750000  1
  Ba  Ba1  1  0.750000  0.381322  0.118679  1
  Ba  Ba2  1  0.249999  0.620501  0.879500  1
  Ba  Ba3  1  0.620500  0.879499  0.250001  1
  Ba  Ba4  1  0.118679  0.750000  0.381322  1
  Ba  Ba5  1  0.879499  0.250000  0.620501  1
  Ho  Ho6  1  0.250001  0.250000  0.250000  1
  Tl  Tl7  1  0.750000  0.750001  0.750000  1
  Ni  Ni8  1  0.497915  0.497915  0.497915  1
  Ni  Ni9  1  0.002085  0.002085  0.002085  1
  O  O10  1  0.776867  0.586862  0.459140  1
  O  O11  1  0.586863  0.459139  0.776867  1
  O  O12  1  0.459139  0.776867  0.586863  1
  O  O13  1  0.040860  0.913138  0.723134  1
  O  O14  1  0.913137  0.723133  0.040860  1
  O  O15  1  0.723134  0.040860  0.913137  1
  O  O16  1  0.216389  0.405164  0.532452  1
  O  O17  1  0.405164  0.532451  0.216389  1
  O  O18  1  0.532451  0.216389  0.405163  1
  O  O19  1  0.967549  0.094836  0.283612  1
  O  O20  1  0.283612  0.967548  0.094835  1
  O  O21  1  0.094835  0.283611  0.967548  1
