# generated using pymatgen
data_Yb3(GePd)2
_symmetry_space_group_name_H-M   'P 1'
_cell_length_a   5.56499000
_cell_length_b   8.12715600
_cell_length_c   13.35198300
_cell_angle_alpha   90.00000000
_cell_angle_beta   90.00000000
_cell_angle_gamma   90.00000000
_symmetry_Int_Tables_number   1
_chemical_formula_structural   Yb3(GePd)2
_chemical_formula_sum   'Yb12 Ge8 Pd8'
_cell_volume   603.87737016
_cell_formula_units_Z   4
loop_
 _symmetry_equiv_pos_site_id
 _symmetry_equiv_pos_as_xyz
  1  'x, y, z'
loop_
 _atom_site_type_symbol
 _atom_site_label
 _atom_site_symmetry_multiplicity
 _atom_site_fract_x
 _atom_site_fract_y
 _atom_site_fract_z
 _atom_site_occupancy
  Yb  Yb0  1  0.648043  0.254040  0.250000  1
  Yb  Yb1  1  0.351957  0.745960  0.750000  1
  Yb  Yb2  1  0.351957  0.754040  0.250000  1
  Yb  Yb3  1  0.648043  0.245960  0.750000  1
  Yb  Yb4  1  0.143985  0.392101  0.101350  1
  Yb  Yb5  1  0.856015  0.607899  0.898650  1
  Yb  Yb6  1  0.856015  0.607899  0.601350  1
  Yb  Yb7  1  0.856015  0.892101  0.398650  1
  Yb  Yb8  1  0.143985  0.392101  0.398650  1
  Yb  Yb9  1  0.143985  0.107899  0.601350  1
  Yb  Yb10  1  0.143985  0.107899  0.898650  1
  Yb  Yb11  1  0.856015  0.892101  0.101350  1
  Ge  Ge12  1  0.145529  0.103848  0.250000  1
  Ge  Ge13  1  0.854471  0.896152  0.750000  1
  Ge  Ge14  1  0.854471  0.603848  0.250000  1
  Ge  Ge15  1  0.145529  0.396152  0.750000  1
  Ge  Ge16  1  0.654302  0.250000  0.000000  1
  Ge  Ge17  1  0.345698  0.750000  0.000000  1
  Ge  Ge18  1  0.345698  0.750000  0.500000  1
  Ge  Ge19  1  0.654302  0.250000  0.500000  1
  Pd  Pd20  1  0.379061  0.039399  0.090759  1
  Pd  Pd21  1  0.620939  0.960601  0.909241  1
  Pd  Pd22  1  0.620939  0.960601  0.590759  1
  Pd  Pd23  1  0.620939  0.539399  0.409241  1
  Pd  Pd24  1  0.379061  0.039399  0.409241  1
  Pd  Pd25  1  0.379061  0.460601  0.590759  1
  Pd  Pd26  1  0.379061  0.460601  0.909241  1
  Pd  Pd27  1  0.620939  0.539399  0.090759  1
