# generated using pymatgen
data_Er16Cd4Ru3Pt
_symmetry_space_group_name_H-M   'P 1'
_cell_length_a   9.59269022
_cell_length_b   9.62208070
_cell_length_c   9.62175860
_cell_angle_alpha   59.52184155
_cell_angle_beta   59.42558486
_cell_angle_gamma   59.42507860
_symmetry_Int_Tables_number   1
_chemical_formula_structural   Er16Cd4Ru3Pt
_chemical_formula_sum   'Er16 Cd4 Ru3 Pt1'
_cell_volume   620.23324977
_cell_formula_units_Z   1
loop_
 _symmetry_equiv_pos_site_id
 _symmetry_equiv_pos_as_xyz
  1  'x, y, z'
loop_
 _atom_site_type_symbol
 _atom_site_label
 _atom_site_symmetry_multiplicity
 _atom_site_fract_x
 _atom_site_fract_y
 _atom_site_fract_z
 _atom_site_occupancy
  Er  Er0  1  0.346703  0.350856  0.350814  1
  Er  Er1  1  0.346319  0.350491  0.956097  1
  Er  Er2  1  0.346327  0.956092  0.350478  1
  Er  Er3  1  0.961982  0.345787  0.345793  1
  Er  Er4  1  0.814836  0.189136  0.189119  1
  Er  Er5  1  0.185121  0.811122  0.811094  1
  Er  Er6  1  0.188004  0.810729  0.188343  1
  Er  Er7  1  0.813093  0.189373  0.805011  1
  Er  Er8  1  0.187981  0.188364  0.810718  1
  Er  Er9  1  0.813094  0.805018  0.189348  1
  Er  Er10  1  0.937928  0.560937  0.560878  1
  Er  Er11  1  0.557955  0.937511  0.937527  1
  Er  Er12  1  0.558007  0.938431  0.565681  1
  Er  Er13  1  0.937670  0.560882  0.938147  1
  Er  Er14  1  0.558014  0.565719  0.938397  1
  Er  Er15  1  0.937623  0.938203  0.560855  1
  Cd  Cd16  1  0.580319  0.580707  0.580835  1
  Cd  Cd17  1  0.581029  0.580668  0.257480  1
  Cd  Cd18  1  0.580728  0.257466  0.580929  1
  Cd  Cd19  1  0.256478  0.581128  0.581146  1
  Ru  Ru20  1  0.144742  0.138480  0.138464  1
  Ru  Ru21  1  0.144819  0.141777  0.577866  1
  Ru  Ru22  1  0.144781  0.577910  0.141773  1
  Pt  Pt23  1  0.576449  0.143213  0.143208  1
