# generated using pymatgen
data_Pa2Al20Tc3Os
_symmetry_space_group_name_H-M   'P 1'
_cell_length_a   6.88578284
_cell_length_b   6.87272127
_cell_length_c   9.16245111
_cell_angle_alpha   90.05772388
_cell_angle_beta   90.06641295
_cell_angle_gamma   97.39240253
_symmetry_Int_Tables_number   1
_chemical_formula_structural   Pa2Al20Tc3Os
_chemical_formula_sum   'Pa2 Al20 Tc3 Os1'
_cell_volume   429.99984209
_cell_formula_units_Z   1
loop_
 _symmetry_equiv_pos_site_id
 _symmetry_equiv_pos_as_xyz
  1  'x, y, z'
loop_
 _atom_site_type_symbol
 _atom_site_label
 _atom_site_symmetry_multiplicity
 _atom_site_fract_x
 _atom_site_fract_y
 _atom_site_fract_z
 _atom_site_occupancy
  Pa  Pa0  1  0.866156  0.127698  0.751246  1
  Pa  Pa1  1  0.133844  0.872302  0.248754  1
  Al  Al2  1  0.518848  0.781780  0.749352  1
  Al  Al3  1  0.784669  0.520552  0.249662  1
  Al  Al4  1  0.481152  0.218220  0.250648  1
  Al  Al5  1  0.215331  0.479448  0.750338  1
  Al  Al6  1  0.623429  0.377113  0.953829  1
  Al  Al7  1  0.376571  0.622887  0.046171  1
  Al  Al8  1  0.622870  0.376698  0.546218  1
  Al  Al9  1  0.377130  0.623302  0.453782  1
  Al  Al10  1  0.409272  0.143037  0.749767  1
  Al  Al11  1  0.142960  0.409757  0.249769  1
  Al  Al12  1  0.590728  0.856963  0.250233  1
  Al  Al13  1  0.857040  0.590243  0.750231  1
  Al  Al14  1  0.844223  0.155684  0.398807  1
  Al  Al15  1  0.155777  0.844316  0.601193  1
  Al  Al16  1  0.844252  0.156531  0.101733  1
  Al  Al17  1  0.155748  0.843469  0.898267  1
  Al  Al18  1  0.774339  0.774321  0.000347  1
  Al  Al19  1  0.775569  0.775739  0.500414  1
  Al  Al20  1  0.225661  0.225679  0.999653  1
  Al  Al21  1  0.224431  0.224261  0.499586  1
  Tc  Tc22  1  0.500000  0.000000  0.000000  1
  Tc  Tc23  1  0.000000  0.500000  0.000000  1
  Tc  Tc24  1  0.500000  0.000000  0.500000  1
  Os  Os25  1  0.000000  0.500000  0.500000  1
