# generated using pymatgen
data_Li(La4Pt3)2
_symmetry_space_group_name_H-M   'P 1'
_cell_length_a   7.84772659
_cell_length_b   7.84772703
_cell_length_c   7.84772742
_cell_angle_alpha   70.54622389
_cell_angle_beta   70.54622462
_cell_angle_gamma   70.54622025
_symmetry_Int_Tables_number   1
_chemical_formula_structural   Li(La4Pt3)2
_chemical_formula_sum   'Li1 La8 Pt6'
_cell_volume   416.08007923
_cell_formula_units_Z   1
loop_
 _symmetry_equiv_pos_site_id
 _symmetry_equiv_pos_as_xyz
  1  'x, y, z'
loop_
 _atom_site_type_symbol
 _atom_site_label
 _atom_site_symmetry_multiplicity
 _atom_site_fract_x
 _atom_site_fract_y
 _atom_site_fract_z
 _atom_site_occupancy
  Li  Li0  1  0.000000  0.000000  0.000000  1
  La  La1  1  0.811737  0.811737  0.811737  1
  La  La2  1  0.188263  0.188263  0.188263  1
  La  La3  1  0.318241  0.617321  0.850828  1
  La  La4  1  0.850828  0.318241  0.617321  1
  La  La5  1  0.617321  0.850828  0.318241  1
  La  La6  1  0.681759  0.382679  0.149172  1
  La  La7  1  0.149172  0.681759  0.382679  1
  La  La8  1  0.382679  0.149172  0.681759  1
  Pt  Pt9  1  0.175059  0.956080  0.578911  1
  Pt  Pt10  1  0.578911  0.175059  0.956080  1
  Pt  Pt11  1  0.956080  0.578911  0.175059  1
  Pt  Pt12  1  0.824941  0.043920  0.421089  1
  Pt  Pt13  1  0.421089  0.824941  0.043920  1
  Pt  Pt14  1  0.043920  0.421089  0.824941  1
