# generated using pymatgen
data_NaPr4Nd(EuTe4)2
_symmetry_space_group_name_H-M   'P 1'
_cell_length_a   9.14283540
_cell_length_b   9.14283463
_cell_length_c   9.13414083
_cell_angle_alpha   59.48504055
_cell_angle_beta   59.48504450
_cell_angle_gamma   59.51022501
_symmetry_Int_Tables_number   1
_chemical_formula_structural   NaPr4Nd(EuTe4)2
_chemical_formula_sum   'Na1 Pr4 Nd1 Eu2 Te8'
_cell_volume   533.68111113
_cell_formula_units_Z   1
loop_
 _symmetry_equiv_pos_site_id
 _symmetry_equiv_pos_as_xyz
  1  'x, y, z'
loop_
 _atom_site_type_symbol
 _atom_site_label
 _atom_site_symmetry_multiplicity
 _atom_site_fract_x
 _atom_site_fract_y
 _atom_site_fract_z
 _atom_site_occupancy
  Na  Na0  1  0.125000  0.125000  0.625000  1
  Pr  Pr1  1  0.625000  0.125000  0.625000  1
  Pr  Pr2  1  0.625000  0.625000  0.625000  1
  Pr  Pr3  1  0.125000  0.625000  0.625000  1
  Pr  Pr4  1  0.625000  0.625000  0.125000  1
  Nd  Nd5  1  0.125000  0.125000  0.125000  1
  Eu  Eu6  1  0.125000  0.625000  0.125000  1
  Eu  Eu7  1  0.625000  0.125000  0.125000  1
  Te  Te8  1  0.372251  0.876731  0.376141  1
  Te  Te9  1  0.877749  0.373269  0.873859  1
  Te  Te10  1  0.875759  0.875759  0.374145  1
  Te  Te11  1  0.875418  0.875418  0.872963  1
  Te  Te12  1  0.876731  0.372251  0.376141  1
  Te  Te13  1  0.374241  0.374241  0.875855  1
  Te  Te14  1  0.374582  0.374582  0.377037  1
  Te  Te15  1  0.373269  0.877749  0.873859  1
