# generated using pymatgen
data_Ba2La3GdS8
_symmetry_space_group_name_H-M   'P 1'
_cell_length_a   4.19064400
_cell_length_b   12.50699600
_cell_length_c   14.97214100
_cell_angle_alpha   90.00000000
_cell_angle_beta   90.00000000
_cell_angle_gamma   90.00000000
_symmetry_Int_Tables_number   1
_chemical_formula_structural   Ba2La3GdS8
_chemical_formula_sum   'Ba4 La6 Gd2 S16'
_cell_volume   784.72536003
_cell_formula_units_Z   2
loop_
 _symmetry_equiv_pos_site_id
 _symmetry_equiv_pos_as_xyz
  1  'x, y, z'
loop_
 _atom_site_type_symbol
 _atom_site_label
 _atom_site_symmetry_multiplicity
 _atom_site_fract_x
 _atom_site_fract_y
 _atom_site_fract_z
 _atom_site_occupancy
  Ba  Ba0  1  0.250000  0.755971  0.338495  1
  Ba  Ba1  1  0.250000  0.255971  0.161505  1
  Ba  Ba2  1  0.750000  0.242535  0.657191  1
  Ba  Ba3  1  0.750000  0.742535  0.842809  1
  La  La4  1  0.250000  0.425775  0.389755  1
  La  La5  1  0.250000  0.925775  0.110245  1
  La  La6  1  0.750000  0.573180  0.608803  1
  La  La7  1  0.750000  0.073180  0.891197  1
  La  La8  1  0.250000  0.421673  0.899024  1
  La  La9  1  0.250000  0.921673  0.600976  1
  Gd  Gd10  1  0.750000  0.578599  0.104586  1
  Gd  Gd11  1  0.750000  0.078599  0.395414  1
  S  S12  1  0.250000  0.209461  0.823466  1
  S  S13  1  0.250000  0.709461  0.676534  1
  S  S14  1  0.750000  0.785828  0.174052  1
  S  S15  1  0.750000  0.285828  0.325948  1
  S  S16  1  0.250000  0.130629  0.517623  1
  S  S17  1  0.250000  0.630629  0.982377  1
  S  S18  1  0.750000  0.874220  0.471304  1
  S  S19  1  0.750000  0.374220  0.028696  1
  S  S20  1  0.250000  0.022248  0.286532  1
  S  S21  1  0.250000  0.522248  0.213468  1
  S  S22  1  0.750000  0.980628  0.716316  1
  S  S23  1  0.750000  0.480628  0.783684  1
  S  S24  1  0.250000  0.417815  0.579344  1
  S  S25  1  0.250000  0.917815  0.920656  1
  S  S26  1  0.750000  0.581436  0.418930  1
  S  S27  1  0.750000  0.081436  0.081070  1
