# generated using pymatgen
data_Er4Sc8Ni4SnRu
_symmetry_space_group_name_H-M   'P 1'
_cell_length_a   7.91916469
_cell_length_b   7.91916501
_cell_length_c   7.91916580
_cell_angle_alpha   111.59346353
_cell_angle_beta   110.28721730
_cell_angle_gamma   106.57410180
_symmetry_Int_Tables_number   1
_chemical_formula_structural   Er4Sc8Ni4SnRu
_chemical_formula_sum   'Er4 Sc8 Ni4 Sn1 Ru1'
_cell_volume   381.52979287
_cell_formula_units_Z   1
loop_
 _symmetry_equiv_pos_site_id
 _symmetry_equiv_pos_as_xyz
  1  'x, y, z'
loop_
 _atom_site_type_symbol
 _atom_site_label
 _atom_site_symmetry_multiplicity
 _atom_site_fract_x
 _atom_site_fract_y
 _atom_site_fract_z
 _atom_site_occupancy
  Er  Er0  1  0.185619  0.785923  0.971542  1
  Er  Er1  1  0.814381  0.785923  0.600305  1
  Er  Er2  1  0.185619  0.214077  0.399695  1
  Er  Er3  1  0.814381  0.214077  0.028458  1
  Sc  Sc4  1  0.321335  0.127924  0.806588  1
  Sc  Sc5  1  0.678665  0.485254  0.806588  1
  Sc  Sc6  1  0.409476  0.719281  0.690194  1
  Sc  Sc7  1  0.590524  0.280719  0.309806  1
  Sc  Sc8  1  0.970912  0.280719  0.690194  1
  Sc  Sc9  1  0.029088  0.719281  0.309806  1
  Sc  Sc10  1  0.321335  0.514746  0.193412  1
  Sc  Sc11  1  0.678665  0.872076  0.193412  1
  Ni  Ni12  1  0.869607  0.869607  0.000000  1
  Ni  Ni13  1  0.130393  0.130393  0.000000  1
  Ni  Ni14  1  0.642022  0.500000  0.142022  1
  Ni  Ni15  1  0.357978  0.500000  0.857978  1
  Sn  Sn16  1  0.500000  0.000000  0.500000  1
  Ru  Ru17  1  0.000000  0.500000  0.500000  1
