# generated using pymatgen
data_DyLu4CoRu
_symmetry_space_group_name_H-M   'P 1'
_cell_length_a   6.20215380
_cell_length_b   7.07946688
_cell_length_c   8.33396511
_cell_angle_alpha   96.82572864
_cell_angle_beta   112.37376042
_cell_angle_gamma   89.58789040
_symmetry_Int_Tables_number   1
_chemical_formula_structural   DyLu4CoRu
_chemical_formula_sum   'Dy2 Lu8 Co2 Ru2'
_cell_volume   335.69347622
_cell_formula_units_Z   2
loop_
 _symmetry_equiv_pos_site_id
 _symmetry_equiv_pos_as_xyz
  1  'x, y, z'
loop_
 _atom_site_type_symbol
 _atom_site_label
 _atom_site_symmetry_multiplicity
 _atom_site_fract_x
 _atom_site_fract_y
 _atom_site_fract_z
 _atom_site_occupancy
  Dy  Dy0  1  0.526385  0.088547  0.814047  1
  Dy  Dy1  1  0.473615  0.911453  0.185953  1
  Lu  Lu2  1  0.700666  0.417920  0.189137  1
  Lu  Lu3  1  0.299334  0.582080  0.810863  1
  Lu  Lu4  1  0.288882  0.321199  0.432507  1
  Lu  Lu5  1  0.711118  0.678801  0.567493  1
  Lu  Lu6  1  0.857240  0.187144  0.564639  1
  Lu  Lu7  1  0.142760  0.812856  0.435361  1
  Lu  Lu8  1  0.078543  0.259941  0.000548  1
  Lu  Lu9  1  0.921457  0.740059  0.999452  1
  Co  Co10  1  0.325770  0.576271  0.226894  1
  Co  Co11  1  0.674230  0.423729  0.773106  1
  Ru  Ru12  1  0.102456  0.924457  0.783221  1
  Ru  Ru13  1  0.897544  0.075543  0.216779  1
