# generated using pymatgen
data_Th6As13Rh20
_symmetry_space_group_name_H-M   'P 1'
_cell_length_a   13.81230700
_cell_length_b   13.81230610
_cell_length_c   4.10095600
_cell_angle_alpha   90.00000000
_cell_angle_beta   90.00000000
_cell_angle_gamma   119.99999975
_symmetry_Int_Tables_number   1
_chemical_formula_structural   Th6As13Rh20
_chemical_formula_sum   'Th6 As13 Rh20'
_cell_volume   677.56062440
_cell_formula_units_Z   1
loop_
 _symmetry_equiv_pos_site_id
 _symmetry_equiv_pos_as_xyz
  1  'x, y, z'
loop_
 _atom_site_type_symbol
 _atom_site_label
 _atom_site_symmetry_multiplicity
 _atom_site_fract_x
 _atom_site_fract_y
 _atom_site_fract_z
 _atom_site_occupancy
  Th  Th0  1  0.530300  0.720044  0.254692  1
  Th  Th1  1  0.279956  0.810255  0.254692  1
  Th  Th2  1  0.189745  0.469700  0.254692  1
  Th  Th3  1  0.469700  0.279956  0.745308  1
  Th  Th4  1  0.720044  0.189745  0.745308  1
  Th  Th5  1  0.810255  0.530300  0.745308  1
  As  As6  1  0.525639  0.138168  0.243238  1
  As  As7  1  0.861832  0.387472  0.243238  1
  As  As8  1  0.612528  0.474361  0.243238  1
  As  As9  1  0.949129  0.719221  0.246454  1
  As  As10  1  0.280779  0.229908  0.246454  1
  As  As11  1  0.770092  0.050871  0.246454  1
  As  As12  1  0.387472  0.525639  0.756762  1
  As  As13  1  0.474361  0.861832  0.756762  1
  As  As14  1  0.138168  0.612528  0.756762  1
  As  As15  1  0.719221  0.770092  0.753546  1
  As  As16  1  0.229908  0.949129  0.753546  1
  As  As17  1  0.050871  0.280779  0.753546  1
  As  As18  1  0.000000  0.000000  0.000000  1
  Rh  Rh19  1  0.333333  0.666667  0.721255  1
  Rh  Rh20  1  0.921652  0.248831  0.244243  1
  Rh  Rh21  1  0.751169  0.672820  0.244243  1
  Rh  Rh22  1  0.327180  0.078348  0.244243  1
  Rh  Rh23  1  0.436852  0.020707  0.745968  1
  Rh  Rh24  1  0.979293  0.416146  0.745968  1
  Rh  Rh25  1  0.583854  0.563148  0.745968  1
  Rh  Rh26  1  0.666667  0.333333  0.278745  1
  Rh  Rh27  1  0.089322  0.187403  0.268112  1
  Rh  Rh28  1  0.812597  0.901918  0.268112  1
  Rh  Rh29  1  0.098082  0.910678  0.268112  1
  Rh  Rh30  1  0.020707  0.583854  0.254032  1
  Rh  Rh31  1  0.416146  0.436852  0.254032  1
  Rh  Rh32  1  0.563148  0.979293  0.254032  1
  Rh  Rh33  1  0.672820  0.921652  0.755757  1
  Rh  Rh34  1  0.078348  0.751169  0.755757  1
  Rh  Rh35  1  0.248831  0.327180  0.755757  1
  Rh  Rh36  1  0.910678  0.812597  0.731888  1
  Rh  Rh37  1  0.187403  0.098082  0.731888  1
  Rh  Rh38  1  0.901918  0.089322  0.731888  1
