# generated using pymatgen
data_Ho4Al18Ir3Pd2Pt
_symmetry_space_group_name_H-M   'P 1'
_cell_length_a   7.59143439
_cell_length_b   7.59143396
_cell_length_c   9.42879114
_cell_angle_alpha   89.97674138
_cell_angle_beta   89.97674345
_cell_angle_gamma   119.65385730
_symmetry_Int_Tables_number   1
_chemical_formula_structural   Ho4Al18Ir3Pd2Pt
_chemical_formula_sum   'Ho4 Al18 Ir3 Pd2 Pt1'
_cell_volume   472.21353119
_cell_formula_units_Z   1
loop_
 _symmetry_equiv_pos_site_id
 _symmetry_equiv_pos_as_xyz
  1  'x, y, z'
loop_
 _atom_site_type_symbol
 _atom_site_label
 _atom_site_symmetry_multiplicity
 _atom_site_fract_x
 _atom_site_fract_y
 _atom_site_fract_z
 _atom_site_occupancy
  Ho  Ho0  1  0.995846  0.670395  0.250653  1
  Ho  Ho1  1  0.004929  0.330189  0.749434  1
  Ho  Ho2  1  0.669811  0.995071  0.250566  1
  Ho  Ho3  1  0.329605  0.004154  0.749347  1
  Al  Al4  1  0.126291  0.127011  0.250409  1
  Al  Al5  1  0.872989  0.873709  0.749591  1
  Al  Al6  1  0.000144  0.331765  0.076797  1
  Al  Al7  1  0.999328  0.668620  0.922598  1
  Al  Al8  1  0.997249  0.665000  0.575141  1
  Al  Al9  1  0.335000  0.002751  0.424859  1
  Al  Al10  1  0.996204  0.331051  0.424884  1
  Al  Al11  1  0.668949  0.003796  0.575116  1
  Al  Al12  1  0.668235  0.999856  0.923203  1
  Al  Al13  1  0.331380  0.000672  0.077402  1
  Al  Al14  1  0.332842  0.329552  0.553524  1
  Al  Al15  1  0.670448  0.667158  0.446476  1
  Al  Al16  1  0.669234  0.669367  0.057603  1
  Al  Al17  1  0.330633  0.330766  0.942397  1
  Al  Al18  1  0.339909  0.546001  0.250262  1
  Al  Al19  1  0.659474  0.451732  0.747602  1
  Al  Al20  1  0.548268  0.340526  0.252398  1
  Al  Al21  1  0.453999  0.660091  0.749738  1
  Ir  Ir22  1  0.671949  0.328051  0.500000  1
  Ir  Ir23  1  0.999822  0.000178  0.000000  1
  Ir  Ir24  1  0.000310  0.999690  0.500000  1
  Pd  Pd25  1  0.672103  0.327897  0.000000  1
  Pd  Pd26  1  0.327407  0.672593  0.000000  1
  Pt  Pt27  1  0.327647  0.672353  0.500000  1
