# generated using pymatgen
data_CaCe2(CdPd)3
_symmetry_space_group_name_H-M   'P 1'
_cell_length_a   7.65153007
_cell_length_b   7.75981859
_cell_length_c   4.04685400
_cell_angle_alpha   90.00000000
_cell_angle_beta   90.00000000
_cell_angle_gamma   119.06742869
_symmetry_Int_Tables_number   1
_chemical_formula_structural   CaCe2(CdPd)3
_chemical_formula_sum   'Ca1 Ce2 Cd3 Pd3'
_cell_volume   210.01627511
_cell_formula_units_Z   1
loop_
 _symmetry_equiv_pos_site_id
 _symmetry_equiv_pos_as_xyz
  1  'x, y, z'
loop_
 _atom_site_type_symbol
 _atom_site_label
 _atom_site_symmetry_multiplicity
 _atom_site_fract_x
 _atom_site_fract_y
 _atom_site_fract_z
 _atom_site_occupancy
  Ca  Ca0  1  0.404372  0.999705  0.500000  1
  Ce  Ce1  1  0.000788  0.408941  0.500000  1
  Ce  Ce2  1  0.591008  0.590224  0.500000  1
  Cd  Cd3  1  0.735718  0.999252  0.000000  1
  Cd  Cd4  1  0.008192  0.756129  0.000000  1
  Cd  Cd5  1  0.253306  0.244302  0.000000  1
  Pd  Pd6  1  0.330583  0.648236  0.000000  1
  Pd  Pd7  1  0.683651  0.352128  0.000000  1
  Pd  Pd8  1  0.992382  0.001082  0.500000  1
