# generated using pymatgen
data_NdEuNi4(SnSb)2
_symmetry_space_group_name_H-M   'P 1'
_cell_length_a   4.38610100
_cell_length_b   4.38610100
_cell_length_c   10.46272900
_cell_angle_alpha   90.00000000
_cell_angle_beta   90.00000000
_cell_angle_gamma   90.00000000
_symmetry_Int_Tables_number   1
_chemical_formula_structural   NdEuNi4(SnSb)2
_chemical_formula_sum   'Nd1 Eu1 Ni4 Sn2 Sb2'
_cell_volume   201.28074571
_cell_formula_units_Z   1
loop_
 _symmetry_equiv_pos_site_id
 _symmetry_equiv_pos_as_xyz
  1  'x, y, z'
loop_
 _atom_site_type_symbol
 _atom_site_label
 _atom_site_symmetry_multiplicity
 _atom_site_fract_x
 _atom_site_fract_y
 _atom_site_fract_z
 _atom_site_occupancy
  Nd  Nd0  1  0.500000  0.000000  0.240063  1
  Eu  Eu1  1  0.000000  0.500000  0.759507  1
  Ni  Ni2  1  0.500000  0.000000  0.629957  1
  Ni  Ni3  1  0.500000  0.500000  0.002507  1
  Ni  Ni4  1  0.000000  0.500000  0.366717  1
  Ni  Ni5  1  0.000000  0.000000  0.002507  1
  Sn  Sn6  1  0.500000  0.500000  0.499825  1
  Sn  Sn7  1  0.000000  0.000000  0.499825  1
  Sb  Sb8  1  0.000000  0.500000  0.127273  1
  Sb  Sb9  1  0.500000  0.000000  0.871818  1
