# generated using pymatgen
data_Tb8Ho12Si15Se
_symmetry_space_group_name_H-M   'P 1'
_cell_length_a   7.47798889
_cell_length_b   7.63909861
_cell_length_c   14.59566000
_cell_angle_alpha   89.79653805
_cell_angle_beta   86.33496371
_cell_angle_gamma   89.96738338
_symmetry_Int_Tables_number   1
_chemical_formula_structural   Tb8Ho12Si15Se
_chemical_formula_sum   'Tb8 Ho12 Si15 Se1'
_cell_volume   832.06792921
_cell_formula_units_Z   1
loop_
 _symmetry_equiv_pos_site_id
 _symmetry_equiv_pos_as_xyz
  1  'x, y, z'
loop_
 _atom_site_type_symbol
 _atom_site_label
 _atom_site_symmetry_multiplicity
 _atom_site_fract_x
 _atom_site_fract_y
 _atom_site_fract_z
 _atom_site_occupancy
  Tb  Tb0  1  0.025012  0.184528  0.101433  1
  Tb  Tb1  1  0.975503  0.817385  0.898386  1
  Tb  Tb2  1  0.476038  0.684982  0.898857  1
  Tb  Tb3  1  0.001556  0.825241  0.600252  1
  Tb  Tb4  1  0.524388  0.315836  0.101451  1
  Tb  Tb5  1  0.990487  0.171284  0.397095  1
  Tb  Tb6  1  0.500441  0.313010  0.398021  1
  Tb  Tb7  1  0.511055  0.685811  0.601085  1
  Ho  Ho8  1  0.168585  0.507251  0.751841  1
  Ho  Ho9  1  0.830973  0.493935  0.254641  1
  Ho  Ho10  1  0.329276  0.004858  0.254130  1
  Ho  Ho11  1  0.671238  0.994506  0.746599  1
  Ho  Ho12  1  0.358563  0.162241  0.620809  1
  Ho  Ho13  1  0.642990  0.833390  0.379509  1
  Ho  Ho14  1  0.142417  0.665233  0.380835  1
  Ho  Ho15  1  0.674050  0.822236  0.122527  1
  Ho  Ho16  1  0.853220  0.334148  0.618377  1
  Ho  Ho17  1  0.326128  0.178374  0.876780  1
  Ho  Ho18  1  0.825842  0.323170  0.876821  1
  Ho  Ho19  1  0.173874  0.677183  0.122666  1
  Si  Si20  1  0.044381  0.111822  0.749724  1
  Si  Si21  1  0.956004  0.888508  0.248352  1
  Si  Si22  1  0.455412  0.608624  0.249407  1
  Si  Si23  1  0.543206  0.391720  0.748849  1
  Si  Si24  1  0.286974  0.870762  0.750576  1
  Si  Si25  1  0.713974  0.127895  0.247969  1
  Si  Si26  1  0.214417  0.371286  0.249185  1
  Si  Si27  1  0.787481  0.629100  0.750111  1
  Si  Si28  1  0.790464  0.533757  0.456919  1
  Si  Si29  1  0.293842  0.964066  0.458763  1
  Si  Si30  1  0.853745  0.529483  0.040988  1
  Si  Si31  1  0.701724  0.035705  0.542335  1
  Si  Si32  1  0.145445  0.472533  0.958216  1
  Si  Si33  1  0.645139  0.029598  0.958215  1
  Si  Si34  1  0.353847  0.971259  0.041476  1
  Se  Se35  1  0.212307  0.469280  0.546799  1
