# generated using pymatgen
data_Cs4CeO4
_symmetry_space_group_name_H-M   'P 1'
_cell_length_a   7.71061200
_cell_length_b   12.29253239
_cell_length_c   12.17716471
_cell_angle_alpha   68.74948030
_cell_angle_beta   90.00000000
_cell_angle_gamma   90.00000000
_symmetry_Int_Tables_number   1
_chemical_formula_structural   Cs4CeO4
_chemical_formula_sum   'Cs16 Ce4 O16'
_cell_volume   1075.70809982
_cell_formula_units_Z   4
loop_
 _symmetry_equiv_pos_site_id
 _symmetry_equiv_pos_as_xyz
  1  'x, y, z'
loop_
 _atom_site_type_symbol
 _atom_site_label
 _atom_site_symmetry_multiplicity
 _atom_site_fract_x
 _atom_site_fract_y
 _atom_site_fract_z
 _atom_site_occupancy
  Cs  Cs0  1  0.652571  0.891686  0.633009  1
  Cs  Cs1  1  0.347429  0.108314  0.366991  1
  Cs  Cs2  1  0.847429  0.391686  0.633009  1
  Cs  Cs3  1  0.588692  0.306836  0.055160  1
  Cs  Cs4  1  0.088692  0.193164  0.944840  1
  Cs  Cs5  1  0.411308  0.693164  0.944840  1
  Cs  Cs6  1  0.911308  0.806836  0.055160  1
  Cs  Cs7  1  0.611580  0.092869  0.842465  1
  Cs  Cs8  1  0.111580  0.407131  0.157535  1
  Cs  Cs9  1  0.388420  0.907131  0.157535  1
  Cs  Cs10  1  0.888420  0.592869  0.842465  1
  Cs  Cs11  1  0.676868  0.706432  0.429638  1
  Cs  Cs12  1  0.176868  0.793568  0.570362  1
  Cs  Cs13  1  0.323132  0.293568  0.570362  1
  Cs  Cs14  1  0.823132  0.206432  0.429638  1
  Cs  Cs15  1  0.152571  0.608314  0.366991  1
  Ce  Ce16  1  0.372168  0.494167  0.756564  1
  Ce  Ce17  1  0.872168  0.005833  0.243436  1
  Ce  Ce18  1  0.127832  0.994167  0.756564  1
  Ce  Ce19  1  0.627832  0.505833  0.243436  1
  O  O20  1  0.237828  0.972387  0.923796  1
  O  O21  1  0.011819  0.162624  0.222593  1
  O  O22  1  0.511819  0.337376  0.777407  1
  O  O23  1  0.988181  0.837376  0.777407  1
  O  O24  1  0.737828  0.527613  0.076204  1
  O  O25  1  0.762172  0.027613  0.076204  1
  O  O26  1  0.262172  0.472387  0.923796  1
  O  O27  1  0.326668  0.020675  0.628243  1
  O  O28  1  0.826668  0.479325  0.371757  1
  O  O29  1  0.673332  0.979325  0.371757  1
  O  O30  1  0.173332  0.520675  0.628243  1
  O  O31  1  0.025038  0.849460  0.301778  1
  O  O32  1  0.525038  0.650540  0.698222  1
  O  O33  1  0.974962  0.150540  0.698222  1
  O  O34  1  0.474962  0.349460  0.301778  1
  O  O35  1  0.488181  0.662624  0.222593  1
