# generated using pymatgen
data_Dy3Tm3Lu10(Ga3Co)2
_symmetry_space_group_name_H-M   'P 1'
_cell_length_a   9.79720300
_cell_length_b   9.80578944
_cell_length_c   6.88906806
_cell_angle_alpha   90.01930962
_cell_angle_beta   90.00000000
_cell_angle_gamma   119.97103460
_symmetry_Int_Tables_number   1
_chemical_formula_structural   Dy3Tm3Lu10(Ga3Co)2
_chemical_formula_sum   'Dy3 Tm3 Lu10 Ga6 Co2'
_cell_volume   573.32704600
_cell_formula_units_Z   1
loop_
 _symmetry_equiv_pos_site_id
 _symmetry_equiv_pos_as_xyz
  1  'x, y, z'
loop_
 _atom_site_type_symbol
 _atom_site_label
 _atom_site_symmetry_multiplicity
 _atom_site_fract_x
 _atom_site_fract_y
 _atom_site_fract_z
 _atom_site_occupancy
  Dy  Dy0  1  0.535891  0.071781  0.708831  1
  Dy  Dy1  1  0.000056  0.000113  0.231690  1
  Dy  Dy2  1  0.999965  0.999930  0.731724  1
  Tm  Tm3  1  0.463337  0.926675  0.208237  1
  Tm  Tm4  1  0.535971  0.464296  0.708251  1
  Tm  Tm5  1  0.928326  0.464296  0.708251  1
  Lu  Lu6  1  0.173623  0.824748  0.511516  1
  Lu  Lu7  1  0.651125  0.824748  0.511516  1
  Lu  Lu8  1  0.174486  0.348972  0.510832  1
  Lu  Lu9  1  0.826739  0.175132  0.013910  1
  Lu  Lu10  1  0.348393  0.175132  0.013910  1
  Lu  Lu11  1  0.825385  0.650770  0.014303  1
  Lu  Lu12  1  0.332787  0.665573  0.827178  1
  Lu  Lu13  1  0.667234  0.334467  0.326407  1
  Lu  Lu14  1  0.462831  0.537046  0.207530  1
  Lu  Lu15  1  0.074213  0.537046  0.207530  1
  Ga  Ga16  1  0.163615  0.835891  0.957298  1
  Ga  Ga17  1  0.672275  0.835891  0.957298  1
  Ga  Ga18  1  0.164330  0.328660  0.957778  1
  Ga  Ga19  1  0.836435  0.163463  0.456525  1
  Ga  Ga20  1  0.327029  0.163463  0.456525  1
  Ga  Ga21  1  0.836312  0.672623  0.456017  1
  Co  Co22  1  0.332702  0.665407  0.445242  1
  Co  Co23  1  0.666939  0.333875  0.946535  1
