# generated using pymatgen
data_Hf2Mg3ScTa4(NbN6)2
_symmetry_space_group_name_H-M   'P 1'
_cell_length_a   5.29328100
_cell_length_b   5.29328066
_cell_length_c   10.57896500
_cell_angle_alpha   90.00000000
_cell_angle_beta   90.00000000
_cell_angle_gamma   120.04513920
_symmetry_Int_Tables_number   1
_chemical_formula_structural   Hf2Mg3ScTa4(NbN6)2
_chemical_formula_sum   'Hf2 Mg3 Sc1 Ta4 Nb2 N12'
_cell_volume   256.58186850
_cell_formula_units_Z   1
loop_
 _symmetry_equiv_pos_site_id
 _symmetry_equiv_pos_as_xyz
  1  'x, y, z'
loop_
 _atom_site_type_symbol
 _atom_site_label
 _atom_site_symmetry_multiplicity
 _atom_site_fract_x
 _atom_site_fract_y
 _atom_site_fract_z
 _atom_site_occupancy
  Hf  Hf0  1  0.998931  0.001069  0.500000  1
  Hf  Hf1  1  0.999170  0.000830  0.000000  1
  Mg  Mg2  1  0.333209  0.666791  0.500000  1
  Mg  Mg3  1  0.667149  0.332851  0.500000  1
  Mg  Mg4  1  0.667092  0.332908  0.000000  1
  Sc  Sc5  1  0.333187  0.666813  0.000000  1
  Ta  Ta6  1  0.337960  0.337103  0.749725  1
  Ta  Ta7  1  0.662897  0.662040  0.250275  1
  Ta  Ta8  1  0.337138  0.999968  0.250288  1
  Ta  Ta9  1  0.000032  0.662862  0.749712  1
  Nb  Nb10  1  0.999932  0.336710  0.249823  1
  Nb  Nb11  1  0.663290  0.000068  0.750177  1
  N  N12  1  0.667806  0.663424  0.623430  1
  N  N13  1  0.669304  0.662534  0.876728  1
  N  N14  1  0.337466  0.330696  0.123272  1
  N  N15  1  0.336576  0.332194  0.376570  1
  N  N16  1  0.329510  0.002480  0.876448  1
  N  N17  1  0.328243  0.999862  0.623680  1
  N  N18  1  0.000138  0.671757  0.376320  1
  N  N19  1  0.997520  0.670490  0.123552  1
  N  N20  1  0.664936  0.998775  0.123374  1
  N  N21  1  0.662503  0.995212  0.376755  1
  N  N22  1  0.001225  0.335064  0.876626  1
  N  N23  1  0.004788  0.337497  0.623245  1
