# generated using pymatgen
data_Ce4Th(FeB3)2
_symmetry_space_group_name_H-M   'P 1'
_cell_length_a   5.36298233
_cell_length_b   5.36298364
_cell_length_c   8.31644196
_cell_angle_alpha   71.18989433
_cell_angle_beta   71.18990228
_cell_angle_gamma   59.99998746
_symmetry_Int_Tables_number   1
_chemical_formula_structural   Ce4Th(FeB3)2
_chemical_formula_sum   'Ce4 Th1 Fe2 B6'
_cell_volume   192.25565368
_cell_formula_units_Z   1
loop_
 _symmetry_equiv_pos_site_id
 _symmetry_equiv_pos_as_xyz
  1  'x, y, z'
loop_
 _atom_site_type_symbol
 _atom_site_label
 _atom_site_symmetry_multiplicity
 _atom_site_fract_x
 _atom_site_fract_y
 _atom_site_fract_z
 _atom_site_occupancy
  Ce  Ce0  1  0.744624  0.744624  0.766127  1
  Ce  Ce1  1  0.255376  0.255376  0.233873  1
  Ce  Ce2  1  0.588149  0.588149  0.235552  1
  Ce  Ce3  1  0.411851  0.411851  0.764448  1
  Th  Th4  1  0.000000  0.000000  0.000000  1
  Fe  Fe5  1  0.885542  0.885542  0.343375  1
  Fe  Fe6  1  0.114458  0.114458  0.656626  1
  B  B7  1  0.500000  0.167594  0.500000  1
  B  B8  1  0.832406  0.500000  0.500000  1
  B  B9  1  0.167594  0.832406  0.500000  1
  B  B10  1  0.167594  0.500000  0.500000  1
  B  B11  1  0.832406  0.167594  0.500000  1
  B  B12  1  0.500000  0.832406  0.500000  1
