# generated using pymatgen
data_Ba6Zn(SbO6)2
_symmetry_space_group_name_H-M   'P 1'
_cell_length_a   9.40697848
_cell_length_b   9.40697753
_cell_length_c   7.29377225
_cell_angle_alpha   67.34459130
_cell_angle_beta   67.34459262
_cell_angle_gamma   36.90238572
_symmetry_Int_Tables_number   1
_chemical_formula_structural   Ba6Zn(SbO6)2
_chemical_formula_sum   'Ba6 Zn1 Sb2 O12'
_cell_volume   354.16416608
_cell_formula_units_Z   1
loop_
 _symmetry_equiv_pos_site_id
 _symmetry_equiv_pos_as_xyz
  1  'x, y, z'
loop_
 _atom_site_type_symbol
 _atom_site_label
 _atom_site_symmetry_multiplicity
 _atom_site_fract_x
 _atom_site_fract_y
 _atom_site_fract_z
 _atom_site_occupancy
  Ba  Ba0  1  0.205553  0.205553  0.708941  1
  Ba  Ba1  1  0.889321  0.889321  0.707054  1
  Ba  Ba2  1  0.547542  0.547542  0.718120  1
  Ba  Ba3  1  0.794447  0.794447  0.291059  1
  Ba  Ba4  1  0.452458  0.452458  0.281880  1
  Ba  Ba5  1  0.110679  0.110679  0.292946  1
  Zn  Zn6  1  0.000000  0.000000  0.000000  1
  Sb  Sb7  1  0.667899  0.667899  0.001143  1
  Sb  Sb8  1  0.332101  0.332101  0.998857  1
  O  O9  1  0.277754  0.277754  0.302660  1
  O  O10  1  0.948109  0.948109  0.312240  1
  O  O11  1  0.621030  0.621030  0.304480  1
  O  O12  1  0.722246  0.722246  0.697340  1
  O  O13  1  0.378970  0.378970  0.695520  1
  O  O14  1  0.051891  0.051891  0.687760  1
  O  O15  1  0.000000  0.500000  0.000000  1
  O  O16  1  0.646667  0.174652  0.000996  1
  O  O17  1  0.353333  0.825348  0.999004  1
  O  O18  1  0.500000  0.000000  0.000000  1
  O  O19  1  0.174652  0.646667  0.000996  1
  O  O20  1  0.825348  0.353333  0.999004  1
