# generated using pymatgen
data_Hf4V4SiP3
_symmetry_space_group_name_H-M   'P 1'
_cell_length_a   3.47705000
_cell_length_b   6.64399175
_cell_length_c   7.93224844
_cell_angle_alpha   89.87855760
_cell_angle_beta   90.00000000
_cell_angle_gamma   90.00000000
_symmetry_Int_Tables_number   1
_chemical_formula_structural   Hf4V4SiP3
_chemical_formula_sum   'Hf4 V4 Si1 P3'
_cell_volume   183.24635822
_cell_formula_units_Z   1
loop_
 _symmetry_equiv_pos_site_id
 _symmetry_equiv_pos_as_xyz
  1  'x, y, z'
loop_
 _atom_site_type_symbol
 _atom_site_label
 _atom_site_symmetry_multiplicity
 _atom_site_fract_x
 _atom_site_fract_y
 _atom_site_fract_z
 _atom_site_occupancy
  Hf  Hf0  1  0.250000  0.039117  0.830270  1
  Hf  Hf1  1  0.250000  0.539694  0.670005  1
  Hf  Hf2  1  0.750000  0.962234  0.165429  1
  Hf  Hf3  1  0.750000  0.454986  0.331298  1
  V  V4  1  0.250000  0.133119  0.442435  1
  V  V5  1  0.250000  0.628422  0.055404  1
  V  V6  1  0.750000  0.872668  0.562590  1
  V  V7  1  0.750000  0.368945  0.940915  1
  Si  Si8  1  0.250000  0.761229  0.364213  1
  P  P9  1  0.250000  0.261683  0.136862  1
  P  P10  1  0.750000  0.239891  0.637620  1
  P  P11  1  0.750000  0.738011  0.862958  1
