# generated using pymatgen
data_CsK3SnSe4
_symmetry_space_group_name_H-M   'P 1'
_cell_length_a   8.39623300
_cell_length_b   10.57438600
_cell_length_c   15.77342700
_cell_angle_alpha   90.00000000
_cell_angle_beta   90.00000000
_cell_angle_gamma   90.00000000
_symmetry_Int_Tables_number   1
_chemical_formula_structural   CsK3SnSe4
_chemical_formula_sum   'Cs4 K12 Sn4 Se16'
_cell_volume   1400.44385323
_cell_formula_units_Z   4
loop_
 _symmetry_equiv_pos_site_id
 _symmetry_equiv_pos_as_xyz
  1  'x, y, z'
loop_
 _atom_site_type_symbol
 _atom_site_label
 _atom_site_symmetry_multiplicity
 _atom_site_fract_x
 _atom_site_fract_y
 _atom_site_fract_z
 _atom_site_occupancy
  Cs  Cs0  1  0.000000  0.000000  0.000000  1
  Cs  Cs1  1  0.500000  0.000000  0.500000  1
  Cs  Cs2  1  0.000000  0.500000  0.000000  1
  Cs  Cs3  1  0.500000  0.500000  0.500000  1
  K  K4  1  0.970665  0.750000  0.428179  1
  K  K5  1  0.470665  0.250000  0.071821  1
  K  K6  1  0.029335  0.250000  0.571821  1
  K  K7  1  0.529335  0.750000  0.928179  1
  K  K8  1  0.832182  0.049696  0.264521  1
  K  K9  1  0.332182  0.950304  0.235479  1
  K  K10  1  0.167818  0.549696  0.735479  1
  K  K11  1  0.667818  0.450304  0.764521  1
  K  K12  1  0.167818  0.950304  0.735479  1
  K  K13  1  0.667818  0.049696  0.764521  1
  K  K14  1  0.832182  0.450304  0.264521  1
  K  K15  1  0.332182  0.549696  0.235479  1
  Sn  Sn16  1  0.778339  0.750000  0.671749  1
  Sn  Sn17  1  0.221661  0.250000  0.328251  1
  Sn  Sn18  1  0.721661  0.750000  0.171749  1
  Sn  Sn19  1  0.278339  0.250000  0.828251  1
  Se  Se20  1  0.972538  0.250000  0.819402  1
  Se  Se21  1  0.527462  0.250000  0.319402  1
  Se  Se22  1  0.472538  0.750000  0.680598  1
  Se  Se23  1  0.027462  0.750000  0.180598  1
  Se  Se24  1  0.619587  0.554719  0.093601  1
  Se  Se25  1  0.119587  0.445281  0.406399  1
  Se  Se26  1  0.380413  0.054719  0.906399  1
  Se  Se27  1  0.880413  0.945281  0.593601  1
  Se  Se28  1  0.380413  0.445281  0.906399  1
  Se  Se29  1  0.880413  0.554719  0.593601  1
  Se  Se30  1  0.619587  0.945281  0.093601  1
  Se  Se31  1  0.119587  0.054719  0.406399  1
  Se  Se32  1  0.612350  0.750000  0.325661  1
  Se  Se33  1  0.112350  0.250000  0.174339  1
  Se  Se34  1  0.387650  0.250000  0.674339  1
  Se  Se35  1  0.887650  0.750000  0.825661  1
