# generated using pymatgen
data_Nd3Er2P12Ru17Pt2
_symmetry_space_group_name_H-M   'P 1'
_cell_length_a   12.69472000
_cell_length_b   12.58198821
_cell_length_c   4.00700000
_cell_angle_alpha   90.00000000
_cell_angle_beta   90.00000000
_cell_angle_gamma   120.29683752
_symmetry_Int_Tables_number   1
_chemical_formula_structural   Nd3Er2P12Ru17Pt2
_chemical_formula_sum   'Nd3 Er2 P12 Ru17 Pt2'
_cell_volume   552.60594854
_cell_formula_units_Z   1
loop_
 _symmetry_equiv_pos_site_id
 _symmetry_equiv_pos_as_xyz
  1  'x, y, z'
loop_
 _atom_site_type_symbol
 _atom_site_label
 _atom_site_symmetry_multiplicity
 _atom_site_fract_x
 _atom_site_fract_y
 _atom_site_fract_z
 _atom_site_occupancy
  Nd  Nd0  1  0.001841  0.183640  0.500000  1
  Nd  Nd1  1  0.818202  0.816360  0.500000  1
  Nd  Nd2  1  0.184753  0.000000  0.500000  1
  Er  Er3  1  0.664038  0.326917  0.000000  1
  Er  Er4  1  0.337120  0.673083  0.000000  1
  P  P5  1  0.998573  0.809499  0.000000  1
  P  P6  1  0.189074  0.190501  0.000000  1
  P  P7  1  0.814213  0.000000  0.000000  1
  P  P8  1  0.694023  0.172163  0.500000  1
  P  P9  1  0.814063  0.514997  0.500000  1
  P  P10  1  0.478895  0.298243  0.500000  1
  P  P11  1  0.180653  0.701757  0.500000  1
  P  P12  1  0.521859  0.827837  0.500000  1
  P  P13  1  0.299066  0.485003  0.500000  1
  P  P14  1  0.000248  0.367058  0.000000  1
  P  P15  1  0.633190  0.632942  0.000000  1
  P  P16  1  0.375071  0.000000  0.000000  1
  Ru  Ru17  1  0.554667  0.000000  0.000000  1
  Ru  Ru18  1  0.997559  0.706076  0.500000  1
  Ru  Ru19  1  0.291483  0.293924  0.500000  1
  Ru  Ru20  1  0.715039  0.000000  0.500000  1
  Ru  Ru21  1  0.805823  0.185614  0.000000  1
  Ru  Ru22  1  0.812234  0.614296  0.000000  1
  Ru  Ru23  1  0.380429  0.196155  0.000000  1
  Ru  Ru24  1  0.184274  0.803845  0.000000  1
  Ru  Ru25  1  0.620209  0.814386  0.000000  1
  Ru  Ru26  1  0.197938  0.385704  0.000000  1
  Ru  Ru27  1  0.870001  0.366960  0.500000  1
  Ru  Ru28  1  0.627574  0.504653  0.500000  1
  Ru  Ru29  1  0.493507  0.124264  0.500000  1
  Ru  Ru30  1  0.369244  0.875736  0.500000  1
  Ru  Ru31  1  0.503041  0.633040  0.500000  1
  Ru  Ru32  1  0.122921  0.495347  0.500000  1
  Ru  Ru33  1  0.002314  0.000000  0.000000  1
  Pt  Pt34  1  0.998335  0.549808  0.000000  1
  Pt  Pt35  1  0.448527  0.450192  0.000000  1
