# generated using pymatgen
data_Nd7Ho13Pb16
_symmetry_space_group_name_H-M   'P 1'
_cell_length_a   8.26781613
_cell_length_b   8.37195705
_cell_length_c   15.77620277
_cell_angle_alpha   90.04861296
_cell_angle_beta   90.23188125
_cell_angle_gamma   89.71192892
_symmetry_Int_Tables_number   1
_chemical_formula_structural   Nd7Ho13Pb16
_chemical_formula_sum   'Nd7 Ho13 Pb16'
_cell_volume   1091.97095294
_cell_formula_units_Z   1
loop_
 _symmetry_equiv_pos_site_id
 _symmetry_equiv_pos_as_xyz
  1  'x, y, z'
loop_
 _atom_site_type_symbol
 _atom_site_label
 _atom_site_symmetry_multiplicity
 _atom_site_fract_x
 _atom_site_fract_y
 _atom_site_fract_z
 _atom_site_occupancy
  Nd  Nd0  1  0.970914  0.821418  0.900158  1
  Nd  Nd1  1  0.528940  0.322003  0.098692  1
  Nd  Nd2  1  0.030157  0.177829  0.401332  1
  Nd  Nd3  1  0.529922  0.323264  0.401623  1
  Nd  Nd4  1  0.028840  0.178086  0.098688  1
  Nd  Nd5  1  0.471773  0.677791  0.901679  1
  Nd  Nd6  1  0.970409  0.821224  0.598902  1
  Ho  Ho7  1  0.627609  0.159303  0.621476  1
  Ho  Ho8  1  0.128991  0.340876  0.878243  1
  Ho  Ho9  1  0.371665  0.840618  0.121652  1
  Ho  Ho10  1  0.873208  0.659577  0.379106  1
  Ho  Ho11  1  0.373385  0.840037  0.379265  1
  Ho  Ho12  1  0.871265  0.659450  0.121440  1
  Ho  Ho13  1  0.628267  0.158671  0.877536  1
  Ho  Ho14  1  0.127768  0.341132  0.621067  1
  Ho  Ho15  1  0.466670  0.676139  0.600313  1
  Ho  Ho16  1  0.793997  0.495730  0.749077  1
  Ho  Ho17  1  0.294843  0.005065  0.749270  1
  Ho  Ho18  1  0.205539  0.505002  0.250527  1
  Ho  Ho19  1  0.705410  0.994643  0.250246  1
  Pb  Pb20  1  0.711765  0.963506  0.456535  1
  Pb  Pb21  1  0.210839  0.537854  0.043368  1
  Pb  Pb22  1  0.289105  0.037330  0.956427  1
  Pb  Pb23  1  0.783815  0.466423  0.544202  1
  Pb  Pb24  1  0.290003  0.034477  0.543857  1
  Pb  Pb25  1  0.789559  0.461503  0.956543  1
  Pb  Pb26  1  0.710992  0.962657  0.043041  1
  Pb  Pb27  1  0.214299  0.539630  0.458693  1
  Pb  Pb28  1  0.431203  0.372350  0.749741  1
  Pb  Pb29  1  0.931311  0.128967  0.749715  1
  Pb  Pb30  1  0.568861  0.628970  0.250222  1
  Pb  Pb31  1  0.069063  0.870962  0.250094  1
  Pb  Pb32  1  0.656517  0.848845  0.747786  1
  Pb  Pb33  1  0.161863  0.648220  0.749260  1
  Pb  Pb34  1  0.340843  0.148472  0.250180  1
  Pb  Pb35  1  0.840388  0.351976  0.250042  1
