# generated using pymatgen
data_Sm4CrTc3B16
_symmetry_space_group_name_H-M   'P 1'
_cell_length_a   3.61804000
_cell_length_b   6.02072300
_cell_length_c   11.65421073
_cell_angle_alpha   89.86795410
_cell_angle_beta   90.00000000
_cell_angle_gamma   90.00000000
_symmetry_Int_Tables_number   1
_chemical_formula_structural   Sm4CrTc3B16
_chemical_formula_sum   'Sm4 Cr1 Tc3 B16'
_cell_volume   253.86552300
_cell_formula_units_Z   1
loop_
 _symmetry_equiv_pos_site_id
 _symmetry_equiv_pos_as_xyz
  1  'x, y, z'
loop_
 _atom_site_type_symbol
 _atom_site_label
 _atom_site_symmetry_multiplicity
 _atom_site_fract_x
 _atom_site_fract_y
 _atom_site_fract_z
 _atom_site_occupancy
  Sm  Sm0  1  0.000000  0.624411  0.350093  1
  Sm  Sm1  1  0.000000  0.376392  0.649892  1
  Sm  Sm2  1  0.000000  0.125738  0.150789  1
  Sm  Sm3  1  0.000000  0.874134  0.847935  1
  Cr  Cr4  1  0.000000  0.874503  0.582693  1
  Tc  Tc5  1  0.000000  0.631799  0.087201  1
  Tc  Tc6  1  0.000000  0.368006  0.913029  1
  Tc  Tc7  1  0.000000  0.125062  0.417280  1
  B  B8  1  0.500000  0.782214  0.184740  1
  B  B9  1  0.500000  0.217261  0.815151  1
  B  B10  1  0.500000  0.282146  0.316852  1
  B  B11  1  0.500000  0.719239  0.682496  1
  B  B12  1  0.500000  0.861930  0.031587  1
  B  B13  1  0.500000  0.138063  0.968160  1
  B  B14  1  0.500000  0.361451  0.468217  1
  B  B15  1  0.500000  0.639412  0.532912  1
  B  B16  1  0.500000  0.886381  0.454765  1
  B  B17  1  0.500000  0.111817  0.546980  1
  B  B18  1  0.500000  0.387601  0.046172  1
  B  B19  1  0.500000  0.612954  0.953407  1
  B  B20  1  0.500000  0.975395  0.310034  1
  B  B21  1  0.500000  0.023449  0.689894  1
  B  B22  1  0.500000  0.474088  0.191070  1
  B  B23  1  0.500000  0.526555  0.808652  1
