# generated using pymatgen
data_Tb4Co9Cu2(NiB2)3
_symmetry_space_group_name_H-M   'P 1'
_cell_length_a   5.05301556
_cell_length_b   5.04903251
_cell_length_c   12.87025800
_cell_angle_alpha   89.99987106
_cell_angle_beta   90.00042566
_cell_angle_gamma   119.84069040
_symmetry_Int_Tables_number   1
_chemical_formula_structural   Tb4Co9Cu2(NiB2)3
_chemical_formula_sum   'Tb4 Co9 Cu2 Ni3 B6'
_cell_volume   284.82075192
_cell_formula_units_Z   1
loop_
 _symmetry_equiv_pos_site_id
 _symmetry_equiv_pos_as_xyz
  1  'x, y, z'
loop_
 _atom_site_type_symbol
 _atom_site_label
 _atom_site_symmetry_multiplicity
 _atom_site_fract_x
 _atom_site_fract_y
 _atom_site_fract_z
 _atom_site_occupancy
  Tb  Tb0  1  0.999992  0.000000  0.997077  1
  Tb  Tb1  1  0.999995  0.000002  0.500242  1
  Tb  Tb2  1  0.999982  0.999998  0.262067  1
  Tb  Tb3  1  0.000000  0.000002  0.737748  1
  Co  Co4  1  0.999980  0.499995  0.162154  1
  Co  Co5  1  0.500000  0.000002  0.839023  1
  Co  Co6  1  0.000000  0.500002  0.839505  1
  Co  Co7  1  0.499989  0.000000  0.385021  1
  Co  Co8  1  0.499991  0.500001  0.384935  1
  Co  Co9  1  0.999988  0.499999  0.384524  1
  Co  Co10  1  0.499997  0.000001  0.615298  1
  Co  Co11  1  0.499997  0.500001  0.614680  1
  Co  Co12  1  0.999997  0.500002  0.614940  1
  Cu  Cu13  1  0.327738  0.666287  0.999965  1
  Cu  Cu14  1  0.672247  0.333711  0.999965  1
  Ni  Ni15  1  0.499972  0.999996  0.158732  1
  Ni  Ni16  1  0.499982  0.499997  0.159016  1
  Ni  Ni17  1  0.500000  0.500004  0.842001  1
  B  B18  1  0.332929  0.666671  0.500556  1
  B  B19  1  0.667059  0.333332  0.500556  1
  B  B20  1  0.329893  0.665465  0.270567  1
  B  B21  1  0.670072  0.334526  0.270567  1
  B  B22  1  0.669314  0.332436  0.730430  1
  B  B23  1  0.330684  0.667568  0.730429  1
