# generated using pymatgen
data_Dy16InAg3IrRh3
_symmetry_space_group_name_H-M   'P 1'
_cell_length_a   9.55164038
_cell_length_b   9.55164115
_cell_length_c   9.55164234
_cell_angle_alpha   60.18349656
_cell_angle_beta   60.18349091
_cell_angle_gamma   60.18349678
_symmetry_Int_Tables_number   1
_chemical_formula_structural   Dy16InAg3IrRh3
_chemical_formula_sum   'Dy16 In1 Ag3 Ir1 Rh3'
_cell_volume   618.75676827
_cell_formula_units_Z   1
loop_
 _symmetry_equiv_pos_site_id
 _symmetry_equiv_pos_as_xyz
  1  'x, y, z'
loop_
 _atom_site_type_symbol
 _atom_site_label
 _atom_site_symmetry_multiplicity
 _atom_site_fract_x
 _atom_site_fract_y
 _atom_site_fract_z
 _atom_site_occupancy
  Dy  Dy0  1  0.688254  0.312441  0.312441  1
  Dy  Dy1  1  0.689922  0.689922  0.310270  1
  Dy  Dy2  1  0.312441  0.688254  0.312441  1
  Dy  Dy3  1  0.935402  0.935402  0.560491  1
  Dy  Dy4  1  0.148626  0.148626  0.554156  1
  Dy  Dy5  1  0.562515  0.937229  0.562515  1
  Dy  Dy6  1  0.147801  0.147801  0.147801  1
  Dy  Dy7  1  0.312441  0.312441  0.688254  1
  Dy  Dy8  1  0.937229  0.562515  0.562515  1
  Dy  Dy9  1  0.562515  0.562515  0.937229  1
  Dy  Dy10  1  0.560491  0.935402  0.935402  1
  Dy  Dy11  1  0.935402  0.560491  0.935402  1
  Dy  Dy12  1  0.148626  0.554156  0.148626  1
  Dy  Dy13  1  0.310270  0.689922  0.689922  1
  Dy  Dy14  1  0.689922  0.310270  0.689922  1
  Dy  Dy15  1  0.554156  0.148626  0.148626  1
  In  In16  1  0.921096  0.921096  0.921096  1
  Ag  Ag17  1  0.916996  0.916996  0.249097  1
  Ag  Ag18  1  0.249097  0.916996  0.916996  1
  Ag  Ag19  1  0.916996  0.249097  0.916996  1
  Ir  Ir20  1  0.357468  0.357468  0.357468  1
  Rh  Rh21  1  0.929207  0.356564  0.356564  1
  Rh  Rh22  1  0.356564  0.356564  0.929207  1
  Rh  Rh23  1  0.356564  0.929207  0.356564  1
