# generated using pymatgen
data_Ti6Nb2Co7Si14Os
_symmetry_space_group_name_H-M   'P 1'
_cell_length_a   9.23552130
_cell_length_b   9.22824173
_cell_length_c   9.23302509
_cell_angle_alpha   94.20278770
_cell_angle_beta   94.24333867
_cell_angle_gamma   148.50545509
_symmetry_Int_Tables_number   1
_chemical_formula_structural   Ti6Nb2Co7Si14Os
_chemical_formula_sum   'Ti6 Nb2 Co7 Si14 Os1'
_cell_volume   395.67223406
_cell_formula_units_Z   1
loop_
 _symmetry_equiv_pos_site_id
 _symmetry_equiv_pos_as_xyz
  1  'x, y, z'
loop_
 _atom_site_type_symbol
 _atom_site_label
 _atom_site_symmetry_multiplicity
 _atom_site_fract_x
 _atom_site_fract_y
 _atom_site_fract_z
 _atom_site_occupancy
  Ti  Ti0  1  0.861599  0.132199  0.000060  1
  Ti  Ti1  1  0.138455  0.867866  0.000051  1
  Ti  Ti2  1  0.502516  0.691922  0.193814  1
  Ti  Ti3  1  0.499241  0.307205  0.807615  1
  Ti  Ti4  1  0.308318  0.500343  0.807607  1
  Ti  Ti5  1  0.691328  0.501899  0.193786  1
  Nb  Nb6  1  0.133124  0.133112  0.266320  1
  Nb  Nb7  1  0.866770  0.866760  0.733464  1
  Co  Co8  1  0.102823  0.602827  0.205654  1
  Co  Co9  1  0.099652  0.898138  0.499560  1
  Co  Co10  1  0.399923  0.601444  0.499574  1
  Co  Co11  1  0.598001  0.397397  0.498184  1
  Co  Co12  1  0.900220  0.100803  0.498187  1
  Co  Co13  1  0.899058  0.399092  0.798040  1
  Co  Co14  1  0.599178  0.099195  0.198372  1
  Si  Si15  1  0.293194  0.293155  0.586283  1
  Si  Si16  1  0.706954  0.706903  0.413901  1
  Si  Si17  1  0.725488  0.318031  0.006453  1
  Si  Si18  1  0.280950  0.688430  0.006422  1
  Si  Si19  1  0.998744  0.294325  0.294003  1
  Si  Si20  1  0.988566  0.698827  0.704189  1
  Si  Si21  1  0.715676  0.005411  0.704244  1
  Si  Si22  1  0.295279  0.999707  0.294028  1
  Si  Si23  1  0.503988  0.908338  0.404687  1
  Si  Si24  1  0.505179  0.100657  0.589025  1
  Si  Si25  1  0.083781  0.488345  0.589029  1
  Si  Si26  1  0.900695  0.496380  0.404671  1
  Si  Si27  1  0.748876  0.749729  0.999898  1
  Si  Si28  1  0.251033  0.250174  0.999924  1
  Os  Os29  1  0.401392  0.901386  0.802957  1
