# generated using pymatgen
data_Zr19Si16Os
_symmetry_space_group_name_H-M   'P 1'
_cell_length_a   7.12260268
_cell_length_b   7.12260267
_cell_length_c   12.98308707
_cell_angle_alpha   89.79207969
_cell_angle_beta   90.20792040
_cell_angle_gamma   90.02287024
_symmetry_Int_Tables_number   1
_chemical_formula_structural   Zr19Si16Os
_chemical_formula_sum   'Zr19 Si16 Os1'
_cell_volume   658.64235470
_cell_formula_units_Z   1
loop_
 _symmetry_equiv_pos_site_id
 _symmetry_equiv_pos_as_xyz
  1  'x, y, z'
loop_
 _atom_site_type_symbol
 _atom_site_label
 _atom_site_symmetry_multiplicity
 _atom_site_fract_x
 _atom_site_fract_y
 _atom_site_fract_z
 _atom_site_occupancy
  Zr  Zr0  1  0.356124  0.503207  0.380377  1
  Zr  Zr1  1  0.856434  0.999877  0.373332  1
  Zr  Zr2  1  0.001765  0.145155  0.127863  1
  Zr  Zr3  1  0.999877  0.856434  0.626668  1
  Zr  Zr4  1  0.644077  0.500076  0.873607  1
  Zr  Zr5  1  0.503207  0.356124  0.619623  1
  Zr  Zr6  1  0.500076  0.644077  0.126393  1
  Zr  Zr7  1  0.145155  0.001765  0.872137  1
  Zr  Zr8  1  0.997848  0.649537  0.035867  1
  Zr  Zr9  1  0.001381  0.347413  0.533689  1
  Zr  Zr10  1  0.649537  0.997848  0.964133  1
  Zr  Zr11  1  0.149751  0.503359  0.782018  1
  Zr  Zr12  1  0.849971  0.497995  0.285065  1
  Zr  Zr13  1  0.503359  0.149751  0.217982  1
  Zr  Zr14  1  0.497995  0.849971  0.714935  1
  Zr  Zr15  1  0.347413  0.001381  0.466311  1
  Zr  Zr16  1  0.822922  0.176555  0.746443  1
  Zr  Zr17  1  0.176555  0.822922  0.253557  1
  Zr  Zr18  1  0.324614  0.324614  0.000000  1
  Si  Si19  1  0.040468  0.697106  0.439905  1
  Si  Si20  1  0.947358  0.301268  0.936763  1
  Si  Si21  1  0.697106  0.040468  0.560095  1
  Si  Si22  1  0.199750  0.448926  0.188720  1
  Si  Si23  1  0.794829  0.558207  0.680821  1
  Si  Si24  1  0.448926  0.199750  0.811280  1
  Si  Si25  1  0.558207  0.794829  0.319179  1
  Si  Si26  1  0.301268  0.947358  0.063237  1
  Si  Si27  1  0.852476  0.794831  0.820917  1
  Si  Si28  1  0.149863  0.205608  0.322843  1
  Si  Si29  1  0.794831  0.852476  0.179083  1
  Si  Si30  1  0.294876  0.646923  0.573279  1
  Si  Si31  1  0.705361  0.353249  0.072217  1
  Si  Si32  1  0.646923  0.294876  0.426721  1
  Si  Si33  1  0.353249  0.705361  0.927783  1
  Si  Si34  1  0.205608  0.149863  0.677157  1
  Os  Os35  1  0.680841  0.680841  0.500000  1
