# generated using pymatgen
data_Hf2Co9Tc3As7
_symmetry_space_group_name_H-M   'P 1'
_cell_length_a   3.78366800
_cell_length_b   9.31533273
_cell_length_c   9.31533500
_cell_angle_alpha   120.00000356
_cell_angle_beta   90.00000000
_cell_angle_gamma   90.00000000
_symmetry_Int_Tables_number   1
_chemical_formula_structural   Hf2Co9Tc3As7
_chemical_formula_sum   'Hf2 Co9 Tc3 As7'
_cell_volume   284.34165554
_cell_formula_units_Z   1
loop_
 _symmetry_equiv_pos_site_id
 _symmetry_equiv_pos_as_xyz
  1  'x, y, z'
loop_
 _atom_site_type_symbol
 _atom_site_label
 _atom_site_symmetry_multiplicity
 _atom_site_fract_x
 _atom_site_fract_y
 _atom_site_fract_z
 _atom_site_occupancy
  Hf  Hf0  1  0.000000  0.666667  0.333333  1
  Hf  Hf1  1  0.500000  0.333333  0.666667  1
  Co  Co2  1  0.000000  0.564002  0.934926  1
  Co  Co3  1  0.000000  0.370924  0.435998  1
  Co  Co4  1  0.000000  0.065074  0.629076  1
  Co  Co5  1  0.000000  0.873847  0.160920  1
  Co  Co6  1  0.000000  0.287072  0.126153  1
  Co  Co7  1  0.000000  0.839080  0.712928  1
  Co  Co8  1  0.500000  0.943657  0.383975  1
  Co  Co9  1  0.500000  0.440317  0.056343  1
  Co  Co10  1  0.500000  0.616025  0.559683  1
  Tc  Tc11  1  0.500000  0.781844  0.900606  1
  Tc  Tc12  1  0.500000  0.118762  0.218156  1
  Tc  Tc13  1  0.500000  0.099394  0.881238  1
  As  As14  1  0.000000  0.000000  0.000000  1
  As  As15  1  0.500000  0.708483  0.121108  1
  As  As16  1  0.500000  0.412626  0.291517  1
  As  As17  1  0.500000  0.878892  0.587374  1
  As  As18  1  0.000000  0.584795  0.701622  1
  As  As19  1  0.000000  0.116827  0.415205  1
  As  As20  1  0.000000  0.298378  0.883173  1
