# generated using pymatgen
data_Y4Ho6(SnSb)3
_symmetry_space_group_name_H-M   'P 1'
_cell_length_a   6.40359100
_cell_length_b   8.96592192
_cell_length_c   8.96253700
_cell_angle_alpha   119.98817764
_cell_angle_beta   89.99989260
_cell_angle_gamma   90.00034328
_symmetry_Int_Tables_number   1
_chemical_formula_structural   Y4Ho6(SnSb)3
_chemical_formula_sum   'Y4 Ho6 Sn3 Sb3'
_cell_volume   445.68893974
_cell_formula_units_Z   1
loop_
 _symmetry_equiv_pos_site_id
 _symmetry_equiv_pos_as_xyz
  1  'x, y, z'
loop_
 _atom_site_type_symbol
 _atom_site_label
 _atom_site_symmetry_multiplicity
 _atom_site_fract_x
 _atom_site_fract_y
 _atom_site_fract_z
 _atom_site_occupancy
  Y  Y0  1  0.750003  0.000003  0.241576  1
  Y  Y1  1  0.249998  0.757188  0.999873  1
  Y  Y2  1  0.250004  0.242781  0.242656  1
  Y  Y3  1  0.250002  0.999997  0.757372  1
  Ho  Ho4  1  0.500702  0.333343  0.666707  1
  Ho  Ho5  1  0.500703  0.666655  0.333364  1
  Ho  Ho6  1  0.999298  0.666655  0.333365  1
  Ho  Ho7  1  0.999299  0.333343  0.666708  1
  Ho  Ho8  1  0.749999  0.241686  0.999954  1
  Ho  Ho9  1  0.750002  0.758340  0.758294  1
  Sn  Sn10  1  0.749997  0.607183  0.999803  1
  Sn  Sn11  1  0.749997  0.392829  0.392623  1
  Sn  Sn12  1  0.749999  0.000011  0.607628  1
  Sb  Sb13  1  0.249994  0.391202  0.000025  1
  Sb  Sb14  1  0.250002  0.608787  0.608817  1
  Sb  Sb15  1  0.250003  0.999996  0.391236  1
