# generated using pymatgen
data_Ho2Fe2Ni2P7Ru8
_symmetry_space_group_name_H-M   'P 1'
_cell_length_a   9.32634616
_cell_length_b   9.26353965
_cell_length_c   3.81037900
_cell_angle_alpha   90.00000000
_cell_angle_beta   90.00000000
_cell_angle_gamma   120.04798796
_symmetry_Int_Tables_number   1
_chemical_formula_structural   Ho2Fe2Ni2P7Ru8
_chemical_formula_sum   'Ho2 Fe2 Ni2 P7 Ru8'
_cell_volume   284.95553177
_cell_formula_units_Z   1
loop_
 _symmetry_equiv_pos_site_id
 _symmetry_equiv_pos_as_xyz
  1  'x, y, z'
loop_
 _atom_site_type_symbol
 _atom_site_label
 _atom_site_symmetry_multiplicity
 _atom_site_fract_x
 _atom_site_fract_y
 _atom_site_fract_z
 _atom_site_occupancy
  Ho  Ho0  1  0.001951  0.999053  0.000000  1
  Ho  Ho1  1  0.327823  0.664179  0.500000  1
  Fe  Fe2  1  0.391540  0.219053  0.000000  1
  Fe  Fe3  1  0.822947  0.600866  0.000000  1
  Ni  Ni4  1  0.093099  0.395078  0.000000  1
  Ni  Ni5  1  0.783680  0.177723  0.000000  1
  P  P6  1  0.553462  0.919635  0.000000  1
  P  P7  1  0.365611  0.443416  0.000000  1
  P  P8  1  0.072967  0.630763  0.000000  1
  P  P9  1  0.952986  0.215475  0.500000  1
  P  P10  1  0.266408  0.052916  0.500000  1
  P  P11  1  0.783697  0.732411  0.500000  1
  P  P12  1  0.661389  0.332147  0.000000  1
  Ru  Ru13  1  0.302636  0.904497  0.000000  1
  Ru  Ru14  1  0.603078  0.695521  0.000000  1
  Ru  Ru15  1  0.718982  0.949502  0.500000  1
  Ru  Ru16  1  0.230229  0.289622  0.500000  1
  Ru  Ru17  1  0.051332  0.772371  0.500000  1
  Ru  Ru18  1  0.544779  0.127540  0.500000  1
  Ru  Ru19  1  0.580300  0.448794  0.500000  1
  Ru  Ru20  1  0.891104  0.429434  0.500000  1
