# generated using pymatgen
data_Th5Co4(P4Ru5)3
_symmetry_space_group_name_H-M   'P 1'
_cell_length_a   12.60298300
_cell_length_b   12.60298287
_cell_length_c   3.92733500
_cell_angle_alpha   90.00000000
_cell_angle_beta   90.00000000
_cell_angle_gamma   120.00000297
_symmetry_Int_Tables_number   1
_chemical_formula_structural   Th5Co4(P4Ru5)3
_chemical_formula_sum   'Th5 Co4 P12 Ru15'
_cell_volume   540.22572748
_cell_formula_units_Z   1
loop_
 _symmetry_equiv_pos_site_id
 _symmetry_equiv_pos_as_xyz
  1  'x, y, z'
loop_
 _atom_site_type_symbol
 _atom_site_label
 _atom_site_symmetry_multiplicity
 _atom_site_fract_x
 _atom_site_fract_y
 _atom_site_fract_z
 _atom_site_occupancy
  Th  Th0  1  0.666667  0.333333  0.000000  1
  Th  Th1  1  0.333333  0.666667  0.000000  1
  Th  Th2  1  0.185407  0.185407  0.500000  1
  Th  Th3  1  0.814593  0.000000  0.500000  1
  Th  Th4  1  0.000000  0.814593  0.500000  1
  Co  Co5  1  0.717363  0.717363  0.500000  1
  Co  Co6  1  0.282637  0.000000  0.500000  1
  Co  Co7  1  0.000000  0.282637  0.500000  1
  Co  Co8  1  0.000000  0.000000  0.000000  1
  P  P9  1  0.371494  0.371494  0.000000  1
  P  P10  1  0.628506  0.000000  0.000000  1
  P  P11  1  0.000000  0.628506  0.000000  1
  P  P12  1  0.838067  0.310844  0.500000  1
  P  P13  1  0.689156  0.527223  0.500000  1
  P  P14  1  0.472777  0.161933  0.500000  1
  P  P15  1  0.310844  0.838067  0.500000  1
  P  P16  1  0.527223  0.689156  0.500000  1
  P  P17  1  0.161933  0.472777  0.500000  1
  P  P18  1  0.821232  0.821232  0.000000  1
  P  P19  1  0.178768  0.000000  0.000000  1
  P  P20  1  0.000000  0.178768  0.000000  1
  Ru  Ru21  1  0.823241  0.195329  0.000000  1
  Ru  Ru22  1  0.804671  0.627911  0.000000  1
  Ru  Ru23  1  0.372089  0.176759  0.000000  1
  Ru  Ru24  1  0.195329  0.823241  0.000000  1
  Ru  Ru25  1  0.627911  0.804671  0.000000  1
  Ru  Ru26  1  0.176759  0.372089  0.000000  1
  Ru  Ru27  1  0.555461  0.555461  0.000000  1
  Ru  Ru28  1  0.444539  0.000000  0.000000  1
  Ru  Ru29  1  0.000000  0.444539  0.000000  1
  Ru  Ru30  1  0.637971  0.126880  0.500000  1
  Ru  Ru31  1  0.873120  0.511093  0.500000  1
  Ru  Ru32  1  0.488907  0.362029  0.500000  1
  Ru  Ru33  1  0.126880  0.637971  0.500000  1
  Ru  Ru34  1  0.511093  0.873120  0.500000  1
  Ru  Ru35  1  0.362029  0.488907  0.500000  1
