# generated using pymatgen
data_CsUPtS3
_symmetry_space_group_name_H-M   'P 1'
_cell_length_a   3.99179600
_cell_length_b   8.06567434
_cell_length_c   10.16685200
_cell_angle_alpha   90.00000000
_cell_angle_beta   90.00000000
_cell_angle_gamma   75.67298146
_symmetry_Int_Tables_number   1
_chemical_formula_structural   CsUPtS3
_chemical_formula_sum   'Cs2 U2 Pt2 S6'
_cell_volume   317.15685113
_cell_formula_units_Z   2
loop_
 _symmetry_equiv_pos_site_id
 _symmetry_equiv_pos_as_xyz
  1  'x, y, z'
loop_
 _atom_site_type_symbol
 _atom_site_label
 _atom_site_symmetry_multiplicity
 _atom_site_fract_x
 _atom_site_fract_y
 _atom_site_fract_z
 _atom_site_occupancy
  Cs  Cs0  1  0.743636  0.512729  0.250000  1
  Cs  Cs1  1  0.256366  0.487271  0.750000  1
  U  U2  1  0.000000  0.000000  0.000000  1
  U  U3  1  0.000000  0.000000  0.500000  1
  Pt  Pt4  1  0.466792  0.066418  0.250000  1
  Pt  Pt5  1  0.533209  0.933581  0.750000  1
  S  S6  1  0.387257  0.225488  0.047345  1
  S  S7  1  0.055270  0.889463  0.250000  1
  S  S8  1  0.387257  0.225488  0.452656  1
  S  S9  1  0.612744  0.774512  0.547345  1
  S  S10  1  0.944731  0.110537  0.750000  1
  S  S11  1  0.612744  0.774512  0.952656  1
