# generated using pymatgen
data_TbNdHo4(Co3P2)6
_symmetry_space_group_name_H-M   'P 1'
_cell_length_a   3.71213700
_cell_length_b   10.54728300
_cell_length_c   12.21715000
_cell_angle_alpha   90.00000000
_cell_angle_beta   90.00000000
_cell_angle_gamma   90.00000000
_symmetry_Int_Tables_number   1
_chemical_formula_structural   TbNdHo4(Co3P2)6
_chemical_formula_sum   'Tb1 Nd1 Ho4 Co18 P12'
_cell_volume   478.33757883
_cell_formula_units_Z   1
loop_
 _symmetry_equiv_pos_site_id
 _symmetry_equiv_pos_as_xyz
  1  'x, y, z'
loop_
 _atom_site_type_symbol
 _atom_site_label
 _atom_site_symmetry_multiplicity
 _atom_site_fract_x
 _atom_site_fract_y
 _atom_site_fract_z
 _atom_site_occupancy
  Tb  Tb0  1  0.500000  0.000000  0.478109  1
  Nd  Nd1  1  0.000000  0.500000  0.522490  1
  Ho  Ho2  1  0.500000  0.817945  0.205607  1
  Ho  Ho3  1  0.500000  0.182055  0.205607  1
  Ho  Ho4  1  0.000000  0.682768  0.795026  1
  Ho  Ho5  1  0.000000  0.317232  0.795026  1
  Co  Co6  1  0.000000  0.500000  0.986775  1
  Co  Co7  1  0.500000  0.000000  0.013858  1
  Co  Co8  1  0.500000  0.294580  0.429555  1
  Co  Co9  1  0.500000  0.705420  0.429555  1
  Co  Co10  1  0.000000  0.200795  0.570275  1
  Co  Co11  1  0.000000  0.799205  0.570275  1
  Co  Co12  1  0.500000  0.879961  0.711247  1
  Co  Co13  1  0.500000  0.120039  0.711247  1
  Co  Co14  1  0.000000  0.621295  0.288271  1
  Co  Co15  1  0.000000  0.378705  0.288271  1
  Co  Co16  1  0.500000  0.333000  0.994827  1
  Co  Co17  1  0.500000  0.667000  0.994827  1
  Co  Co18  1  0.000000  0.166466  0.005046  1
  Co  Co19  1  0.000000  0.833534  0.005046  1
  Co  Co20  1  0.500000  0.500000  0.156712  1
  Co  Co21  1  0.000000  0.000000  0.841651  1
  Co  Co22  1  0.500000  0.500000  0.706262  1
  Co  Co23  1  0.000000  0.000000  0.295501  1
  P  P24  1  0.500000  0.307111  0.617555  1
  P  P25  1  0.500000  0.692889  0.617555  1
  P  P26  1  0.000000  0.189251  0.383451  1
  P  P27  1  0.000000  0.810749  0.383451  1
  P  P28  1  0.500000  0.500000  0.883692  1
  P  P29  1  0.000000  0.000000  0.117204  1
  P  P30  1  0.500000  0.847341  0.893357  1
  P  P31  1  0.500000  0.152659  0.893357  1
  P  P32  1  0.000000  0.653650  0.106278  1
  P  P33  1  0.000000  0.346350  0.106278  1
  P  P34  1  0.500000  0.500000  0.339811  1
  P  P35  1  0.000000  0.000000  0.656943  1
