# generated using pymatgen
data_DyHo2GaAg3Ge2
_symmetry_space_group_name_H-M   'P 1'
_cell_length_a   7.19916749
_cell_length_b   7.19916843
_cell_length_c   4.17844500
_cell_angle_alpha   90.00000000
_cell_angle_beta   90.00000000
_cell_angle_gamma   120.04177066
_symmetry_Int_Tables_number   1
_chemical_formula_structural   DyHo2GaAg3Ge2
_chemical_formula_sum   'Dy1 Ho2 Ga1 Ag3 Ge2'
_cell_volume   187.46792899
_cell_formula_units_Z   1
loop_
 _symmetry_equiv_pos_site_id
 _symmetry_equiv_pos_as_xyz
  1  'x, y, z'
loop_
 _atom_site_type_symbol
 _atom_site_label
 _atom_site_symmetry_multiplicity
 _atom_site_fract_x
 _atom_site_fract_y
 _atom_site_fract_z
 _atom_site_occupancy
  Dy  Dy0  1  0.420452  0.420452  0.000000  1
  Ho  Ho1  1  0.000035  0.579542  0.000000  1
  Ho  Ho2  1  0.579542  0.000035  0.000000  1
  Ga  Ga3  1  0.999784  0.999784  0.000000  1
  Ag  Ag4  1  0.751946  0.751946  0.500000  1
  Ag  Ag5  1  0.248232  0.999844  0.500000  1
  Ag  Ag6  1  0.999844  0.248232  0.500000  1
  Ge  Ge7  1  0.666938  0.333226  0.500000  1
  Ge  Ge8  1  0.333226  0.666938  0.500000  1
