# generated using pymatgen
data_Tb3Y(FeOs)4
_symmetry_space_group_name_H-M   'P 1'
_cell_length_a   5.23943000
_cell_length_b   5.29903020
_cell_length_c   9.22655086
_cell_angle_alpha   72.27375355
_cell_angle_beta   90.00000000
_cell_angle_gamma   119.62863193
_symmetry_Int_Tables_number   1
_chemical_formula_structural   Tb3Y(FeOs)4
_chemical_formula_sum   'Tb3 Y1 Fe4 Os4'
_cell_volume   208.56464558
_cell_formula_units_Z   1
loop_
 _symmetry_equiv_pos_site_id
 _symmetry_equiv_pos_as_xyz
  1  'x, y, z'
loop_
 _atom_site_type_symbol
 _atom_site_label
 _atom_site_symmetry_multiplicity
 _atom_site_fract_x
 _atom_site_fract_y
 _atom_site_fract_z
 _atom_site_occupancy
  Tb  Tb0  1  0.811933  0.123867  0.561258  1
  Tb  Tb1  1  0.188182  0.876361  0.438666  1
  Tb  Tb2  1  0.688279  0.876558  0.938511  1
  Y  Y3  1  0.311776  0.123553  0.061705  1
  Fe  Fe4  1  0.749933  0.499804  0.249718  1
  Fe  Fe5  1  0.250142  0.500037  0.750207  1
  Fe  Fe6  1  0.249871  0.499804  0.249718  1
  Fe  Fe7  1  0.749895  0.500037  0.750207  1
  Os  Os8  1  0.999990  0.499979  0.999976  1
  Os  Os9  1  0.500079  0.500159  0.499926  1
  Os  Os10  1  0.749708  0.999417  0.249895  1
  Os  Os11  1  0.250211  0.000424  0.750217  1
