# generated using pymatgen
data_Dy4HfZn3Rh4
_symmetry_space_group_name_H-M   'P 1'
_cell_length_a   4.03632600
_cell_length_b   7.07313308
_cell_length_c   8.32941825
_cell_angle_alpha   91.03091673
_cell_angle_beta   90.00000000
_cell_angle_gamma   90.00000000
_symmetry_Int_Tables_number   1
_chemical_formula_structural   Dy4HfZn3Rh4
_chemical_formula_sum   'Dy4 Hf1 Zn3 Rh4'
_cell_volume   237.76199199
_cell_formula_units_Z   1
loop_
 _symmetry_equiv_pos_site_id
 _symmetry_equiv_pos_as_xyz
  1  'x, y, z'
loop_
 _atom_site_type_symbol
 _atom_site_label
 _atom_site_symmetry_multiplicity
 _atom_site_fract_x
 _atom_site_fract_y
 _atom_site_fract_z
 _atom_site_occupancy
  Dy  Dy0  1  0.250000  0.548181  0.187031  1
  Dy  Dy1  1  0.750000  0.479443  0.808063  1
  Dy  Dy2  1  0.250000  0.033832  0.322726  1
  Dy  Dy3  1  0.750000  0.949653  0.663227  1
  Hf  Hf4  1  0.250000  0.129218  0.939959  1
  Zn  Zn5  1  0.750000  0.859610  0.072161  1
  Zn  Zn6  1  0.250000  0.630002  0.562007  1
  Zn  Zn7  1  0.750000  0.362781  0.440344  1
  Rh  Rh8  1  0.750000  0.737088  0.379038  1
  Rh  Rh9  1  0.250000  0.252291  0.634608  1
  Rh  Rh10  1  0.750000  0.250489  0.116894  1
  Rh  Rh11  1  0.250000  0.767411  0.873944  1
