# generated using pymatgen
data_Zr10ZnIn2CuBi4
_symmetry_space_group_name_H-M   'P 1'
_cell_length_a   8.79726929
_cell_length_b   8.79726979
_cell_length_c   5.93155511
_cell_angle_alpha   89.98918842
_cell_angle_beta   89.98918359
_cell_angle_gamma   119.81396825
_symmetry_Int_Tables_number   1
_chemical_formula_structural   Zr10ZnIn2CuBi4
_chemical_formula_sum   'Zr10 Zn1 In2 Cu1 Bi4'
_cell_volume   398.29608607
_cell_formula_units_Z   1
loop_
 _symmetry_equiv_pos_site_id
 _symmetry_equiv_pos_as_xyz
  1  'x, y, z'
loop_
 _atom_site_type_symbol
 _atom_site_label
 _atom_site_symmetry_multiplicity
 _atom_site_fract_x
 _atom_site_fract_y
 _atom_site_fract_z
 _atom_site_occupancy
  Zr  Zr0  1  0.733070  0.006047  0.246644  1
  Zr  Zr1  1  0.006047  0.733070  0.246644  1
  Zr  Zr2  1  0.268973  0.268973  0.246165  1
  Zr  Zr3  1  0.253492  0.997930  0.754196  1
  Zr  Zr4  1  0.997930  0.253492  0.754196  1
  Zr  Zr5  1  0.744193  0.744193  0.752672  1
  Zr  Zr6  1  0.331761  0.666293  0.495175  1
  Zr  Zr7  1  0.666293  0.331761  0.495175  1
  Zr  Zr8  1  0.666269  0.331394  0.004683  1
  Zr  Zr9  1  0.331394  0.666269  0.004683  1
  Zn  Zn10  1  0.001974  0.001974  0.481453  1
  In  In11  1  0.381450  0.000672  0.251603  1
  In  In12  1  0.000672  0.381450  0.251603  1
  Cu  Cu13  1  0.002331  0.002331  0.020006  1
  Bi  Bi14  1  0.620668  0.620668  0.251109  1
  Bi  Bi15  1  0.607083  0.999261  0.748171  1
  Bi  Bi16  1  0.999261  0.607083  0.748171  1
  Bi  Bi17  1  0.387138  0.387138  0.747654  1
