# generated using pymatgen
data_HoTmMo(SeO4)3
_symmetry_space_group_name_H-M   'P 1'
_cell_length_a   6.55286414
_cell_length_b   7.12269123
_cell_length_c   10.81238618
_cell_angle_alpha   84.86768759
_cell_angle_beta   73.28772150
_cell_angle_gamma   86.62279496
_symmetry_Int_Tables_number   1
_chemical_formula_structural   HoTmMo(SeO4)3
_chemical_formula_sum   'Ho2 Tm2 Mo2 Se6 O24'
_cell_volume   481.11212049
_cell_formula_units_Z   2
loop_
 _symmetry_equiv_pos_site_id
 _symmetry_equiv_pos_as_xyz
  1  'x, y, z'
loop_
 _atom_site_type_symbol
 _atom_site_label
 _atom_site_symmetry_multiplicity
 _atom_site_fract_x
 _atom_site_fract_y
 _atom_site_fract_z
 _atom_site_occupancy
  Ho  Ho0  1  0.732634  0.638077  0.508572  1
  Ho  Ho1  1  0.267366  0.361923  0.491428  1
  Tm  Tm2  1  0.205557  0.182658  0.168885  1
  Tm  Tm3  1  0.794443  0.817342  0.831115  1
  Mo  Mo4  1  0.722851  0.893311  0.204664  1
  Mo  Mo5  1  0.277149  0.106689  0.795336  1
  Se  Se6  1  0.203902  0.659462  0.215438  1
  Se  Se7  1  0.796098  0.340538  0.784562  1
  Se  Se8  1  0.657955  0.365075  0.142114  1
  Se  Se9  1  0.342045  0.634925  0.857886  1
  Se  Se10  1  0.789614  0.140083  0.493705  1
  Se  Se11  1  0.210386  0.859917  0.506295  1
  O  O12  1  0.694148  0.671259  0.298458  1
  O  O13  1  0.305852  0.328741  0.701542  1
  O  O14  1  0.717932  0.958467  0.417151  1
  O  O15  1  0.282068  0.041533  0.582849  1
  O  O16  1  0.449348  0.975745  0.231824  1
  O  O17  1  0.550652  0.024255  0.768176  1
  O  O18  1  0.826652  0.172233  0.178544  1
  O  O19  1  0.173348  0.827767  0.821456  1
  O  O20  1  0.784267  0.832972  0.041967  1
  O  O21  1  0.215733  0.167028  0.958033  1
  O  O22  1  0.060787  0.875023  0.193238  1
  O  O23  1  0.939213  0.124977  0.806762  1
  O  O24  1  0.100819  0.494846  0.147786  1
  O  O25  1  0.899181  0.505154  0.852214  1
  O  O26  1  0.081016  0.601456  0.383285  1
  O  O27  1  0.918984  0.398544  0.616715  1
  O  O28  1  0.546775  0.272342  0.038179  1
  O  O29  1  0.453225  0.727658  0.961821  1
  O  O30  1  0.422946  0.346686  0.271068  1
  O  O31  1  0.577054  0.653314  0.728932  1
  O  O32  1  0.044523  0.191327  0.390533  1
  O  O33  1  0.955477  0.808673  0.609467  1
  O  O34  1  0.639840  0.339538  0.460489  1
  O  O35  1  0.360160  0.660462  0.539511  1
