# generated using pymatgen
data_LuHf15(Si4Mo)4
_symmetry_space_group_name_H-M   'P 1'
_cell_length_a   6.97062601
_cell_length_b   6.96803393
_cell_length_c   12.73276544
_cell_angle_alpha   89.98071413
_cell_angle_beta   90.02294619
_cell_angle_gamma   90.26653123
_symmetry_Int_Tables_number   1
_chemical_formula_structural   LuHf15(Si4Mo)4
_chemical_formula_sum   'Lu1 Hf15 Si16 Mo4'
_cell_volume   618.44348613
_cell_formula_units_Z   1
loop_
 _symmetry_equiv_pos_site_id
 _symmetry_equiv_pos_as_xyz
  1  'x, y, z'
loop_
 _atom_site_type_symbol
 _atom_site_label
 _atom_site_symmetry_multiplicity
 _atom_site_fract_x
 _atom_site_fract_y
 _atom_site_fract_z
 _atom_site_occupancy
  Lu  Lu0  1  0.495967  0.156577  0.531836  1
  Hf  Hf1  1  0.504716  0.845438  0.031266  1
  Hf  Hf2  1  0.655879  0.003149  0.279585  1
  Hf  Hf3  1  0.345541  0.996605  0.781289  1
  Hf  Hf4  1  0.845740  0.504533  0.968652  1
  Hf  Hf5  1  0.152882  0.498190  0.468146  1
  Hf  Hf6  1  0.003659  0.655101  0.720787  1
  Hf  Hf7  1  0.995955  0.345336  0.218866  1
  Hf  Hf8  1  0.496961  0.355988  0.123974  1
  Hf  Hf9  1  0.502672  0.643906  0.625360  1
  Hf  Hf10  1  0.856702  0.002609  0.875354  1
  Hf  Hf11  1  0.143732  0.995898  0.373500  1
  Hf  Hf12  1  0.645889  0.502354  0.373779  1
  Hf  Hf13  1  0.355563  0.498703  0.875783  1
  Hf  Hf14  1  0.001801  0.856166  0.125098  1
  Hf  Hf15  1  0.997686  0.143079  0.626093  1
  Si  Si16  1  0.795612  0.145489  0.072048  1
  Si  Si17  1  0.201231  0.851898  0.571299  1
  Si  Si18  1  0.646475  0.703378  0.821981  1
  Si  Si19  1  0.352353  0.298549  0.319169  1
  Si  Si20  1  0.857873  0.204166  0.427145  1
  Si  Si21  1  0.145502  0.796380  0.927846  1
  Si  Si22  1  0.703262  0.646026  0.178220  1
  Si  Si23  1  0.292655  0.356769  0.680907  1
  Si  Si24  1  0.547179  0.197425  0.932896  1
  Si  Si25  1  0.452275  0.799567  0.431939  1
  Si  Si26  1  0.698904  0.951110  0.684728  1
  Si  Si27  1  0.302932  0.046216  0.182939  1
  Si  Si28  1  0.803498  0.453982  0.567404  1
  Si  Si29  1  0.196927  0.547486  0.067231  1
  Si  Si30  1  0.953122  0.697474  0.316184  1
  Si  Si31  1  0.046151  0.303117  0.817403  1
  Mo  Mo32  1  0.672369  0.328656  0.751442  1
  Mo  Mo33  1  0.327632  0.671240  0.249303  1
  Mo  Mo34  1  0.828778  0.823399  0.500209  1
  Mo  Mo35  1  0.173925  0.174040  0.000341  1
