# generated using pymatgen
data_Ta12Al5Si3(IrC)4
_symmetry_space_group_name_H-M   'P 1'
_cell_length_a   8.27605657
_cell_length_b   8.27605654
_cell_length_c   8.27214203
_cell_angle_alpha   60.00728269
_cell_angle_beta   60.00728222
_cell_angle_gamma   60.02533205
_symmetry_Int_Tables_number   1
_chemical_formula_structural   Ta12Al5Si3(IrC)4
_chemical_formula_sum   'Ta12 Al5 Si3 Ir4 C4'
_cell_volume   400.75668346
_cell_formula_units_Z   1
loop_
 _symmetry_equiv_pos_site_id
 _symmetry_equiv_pos_as_xyz
  1  'x, y, z'
loop_
 _atom_site_type_symbol
 _atom_site_label
 _atom_site_symmetry_multiplicity
 _atom_site_fract_x
 _atom_site_fract_y
 _atom_site_fract_z
 _atom_site_occupancy
  Ta  Ta0  1  0.565795  0.934258  0.565145  1
  Ta  Ta1  1  0.315176  0.687213  0.682195  1
  Ta  Ta2  1  0.687664  0.315043  0.315390  1
  Ta  Ta3  1  0.315043  0.687664  0.315390  1
  Ta  Ta4  1  0.684795  0.684795  0.315295  1
  Ta  Ta5  1  0.316084  0.316084  0.684311  1
  Ta  Ta6  1  0.565276  0.565276  0.934451  1
  Ta  Ta7  1  0.934258  0.565795  0.565145  1
  Ta  Ta8  1  0.567943  0.934855  0.934825  1
  Ta  Ta9  1  0.934248  0.934248  0.568296  1
  Ta  Ta10  1  0.687213  0.315176  0.682195  1
  Ta  Ta11  1  0.934855  0.567943  0.934825  1
  Al  Al12  1  0.335358  0.335358  0.996978  1
  Al  Al13  1  0.917560  0.250452  0.917142  1
  Al  Al14  1  0.917102  0.917102  0.251607  1
  Al  Al15  1  0.250452  0.917560  0.917142  1
  Al  Al16  1  0.334675  0.334675  0.332122  1
  Si  Si17  1  0.915452  0.915452  0.915222  1
  Si  Si18  1  0.993011  0.338529  0.334356  1
  Si  Si19  1  0.338529  0.993011  0.334356  1
  Ir  Ir20  1  0.125644  0.125644  0.134580  1
  Ir  Ir21  1  0.625278  0.117433  0.124896  1
  Ir  Ir22  1  0.117433  0.625278  0.124896  1
  Ir  Ir23  1  0.122076  0.122076  0.619016  1
  C  C24  1  0.624713  0.624713  0.625008  1
  C  C25  1  0.124209  0.625251  0.625208  1
  C  C26  1  0.625251  0.124209  0.625208  1
  C  C27  1  0.624907  0.624907  0.124802  1
