# generated using pymatgen
data_Ac7SmZnAg7Sn8
_symmetry_space_group_name_H-M   'P 1'
_cell_length_a   9.80917100
_cell_length_b   9.80917224
_cell_length_c   8.19971500
_cell_angle_alpha   90.00000000
_cell_angle_beta   90.00000000
_cell_angle_gamma   119.99999244
_symmetry_Int_Tables_number   1
_chemical_formula_structural   Ac7SmZnAg7Sn8
_chemical_formula_sum   'Ac7 Sm1 Zn1 Ag7 Sn8'
_cell_volume   683.27273092
_cell_formula_units_Z   1
loop_
 _symmetry_equiv_pos_site_id
 _symmetry_equiv_pos_as_xyz
  1  'x, y, z'
loop_
 _atom_site_type_symbol
 _atom_site_label
 _atom_site_symmetry_multiplicity
 _atom_site_fract_x
 _atom_site_fract_y
 _atom_site_fract_z
 _atom_site_occupancy
  Ac  Ac0  1  0.487846  0.512154  0.502406  1
  Ac  Ac1  1  0.487846  0.975692  0.502406  1
  Ac  Ac2  1  0.024308  0.512154  0.502406  1
  Ac  Ac3  1  0.514321  0.485679  0.005629  1
  Ac  Ac4  1  0.514321  0.028641  0.005629  1
  Ac  Ac5  1  0.971359  0.485679  0.005629  1
  Ac  Ac6  1  0.000000  0.000000  0.505059  1
  Sm  Sm7  1  0.000000  0.000000  0.004583  1
  Zn  Zn8  1  0.333333  0.666667  0.825593  1
  Ag  Ag9  1  0.834053  0.165947  0.723642  1
  Ag  Ag10  1  0.834053  0.668109  0.723642  1
  Ag  Ag11  1  0.331891  0.165947  0.723642  1
  Ag  Ag12  1  0.163853  0.836147  0.196151  1
  Ag  Ag13  1  0.163853  0.327703  0.196151  1
  Ag  Ag14  1  0.672297  0.836147  0.196151  1
  Ag  Ag15  1  0.666667  0.333333  0.301503  1
  Sn  Sn16  1  0.836165  0.163835  0.276024  1
  Sn  Sn17  1  0.836165  0.672328  0.276024  1
  Sn  Sn18  1  0.327672  0.163835  0.276024  1
  Sn  Sn19  1  0.165385  0.834615  0.789182  1
  Sn  Sn20  1  0.165385  0.330774  0.789182  1
  Sn  Sn21  1  0.669226  0.834615  0.789182  1
  Sn  Sn22  1  0.666667  0.333333  0.716126  1
  Sn  Sn23  1  0.333333  0.666667  0.226049  1
