# generated using pymatgen
data_Tm3Zr5(Nb3Si4)4
_symmetry_space_group_name_H-M   'P 1'
_cell_length_a   6.94198569
_cell_length_b   6.94070904
_cell_length_c   12.86122578
_cell_angle_alpha   89.97563234
_cell_angle_beta   90.05512695
_cell_angle_gamma   89.86408275
_symmetry_Int_Tables_number   1
_chemical_formula_structural   Tm3Zr5(Nb3Si4)4
_chemical_formula_sum   'Tm3 Zr5 Nb12 Si16'
_cell_volume   619.68138807
_cell_formula_units_Z   1
loop_
 _symmetry_equiv_pos_site_id
 _symmetry_equiv_pos_as_xyz
  1  'x, y, z'
loop_
 _atom_site_type_symbol
 _atom_site_label
 _atom_site_symmetry_multiplicity
 _atom_site_fract_x
 _atom_site_fract_y
 _atom_site_fract_z
 _atom_site_occupancy
  Tm  Tm0  1  0.998802  0.658644  0.031872  1
  Tm  Tm1  1  0.001872  0.340160  0.531253  1
  Tm  Tm2  1  0.658814  0.998882  0.968279  1
  Zr  Zr3  1  0.157985  0.498362  0.782749  1
  Zr  Zr4  1  0.842135  0.501495  0.283419  1
  Zr  Zr5  1  0.498435  0.158358  0.217597  1
  Zr  Zr6  1  0.501479  0.842797  0.717154  1
  Zr  Zr7  1  0.344529  0.996306  0.467258  1
  Nb  Nb8  1  0.348004  0.506043  0.375831  1
  Nb  Nb9  1  0.845661  0.996126  0.373459  1
  Nb  Nb10  1  0.005149  0.153557  0.128075  1
  Nb  Nb11  1  0.995286  0.848333  0.625946  1
  Nb  Nb12  1  0.651202  0.493739  0.874604  1
  Nb  Nb13  1  0.503973  0.348572  0.623714  1
  Nb  Nb14  1  0.494053  0.651502  0.125491  1
  Nb  Nb15  1  0.153891  0.004349  0.872209  1
  Nb  Nb16  1  0.669130  0.672208  0.500187  1
  Nb  Nb17  1  0.828905  0.170790  0.749323  1
  Nb  Nb18  1  0.171393  0.829643  0.250910  1
  Nb  Nb19  1  0.329545  0.329663  0.000104  1
  Si  Si20  1  0.045834  0.705417  0.436887  1
  Si  Si21  1  0.955582  0.295683  0.936755  1
  Si  Si22  1  0.701498  0.045481  0.562998  1
  Si  Si23  1  0.203262  0.453918  0.187654  1
  Si  Si24  1  0.796914  0.545524  0.687082  1
  Si  Si25  1  0.453961  0.203245  0.812657  1
  Si  Si26  1  0.545103  0.797462  0.313073  1
  Si  Si27  1  0.296185  0.955490  0.063266  1
  Si  Si28  1  0.865341  0.792670  0.819068  1
  Si  Si29  1  0.136732  0.205522  0.321152  1
  Si  Si30  1  0.792691  0.865426  0.181141  1
  Si  Si31  1  0.294699  0.638356  0.572420  1
  Si  Si32  1  0.705363  0.363917  0.072865  1
  Si  Si33  1  0.633757  0.293243  0.426894  1
  Si  Si34  1  0.363917  0.705042  0.927266  1
  Si  Si35  1  0.208917  0.134075  0.679388  1
