# generated using pymatgen
data_Tb4Ho2Al17Si7Os8
_symmetry_space_group_name_H-M   'P 1'
_cell_length_a   8.69989920
_cell_length_b   8.68801498
_cell_length_c   9.49144100
_cell_angle_alpha   90.00000000
_cell_angle_beta   90.00000000
_cell_angle_gamma   120.11793643
_symmetry_Int_Tables_number   1
_chemical_formula_structural   Tb4Ho2Al17Si7Os8
_chemical_formula_sum   'Tb4 Ho2 Al17 Si7 Os8'
_cell_volume   620.55491594
_cell_formula_units_Z   1
loop_
 _symmetry_equiv_pos_site_id
 _symmetry_equiv_pos_as_xyz
  1  'x, y, z'
loop_
 _atom_site_type_symbol
 _atom_site_label
 _atom_site_symmetry_multiplicity
 _atom_site_fract_x
 _atom_site_fract_y
 _atom_site_fract_z
 _atom_site_occupancy
  Tb  Tb0  1  0.192164  0.386900  0.250000  1
  Tb  Tb1  1  0.807629  0.615222  0.750000  1
  Tb  Tb2  1  0.386790  0.190565  0.750000  1
  Tb  Tb3  1  0.803338  0.191071  0.750000  1
  Ho  Ho4  1  0.610494  0.807240  0.250000  1
  Ho  Ho5  1  0.196214  0.805738  0.250000  1
  Al  Al6  1  0.164480  0.329883  0.577826  1
  Al  Al7  1  0.834365  0.671383  0.420579  1
  Al  Al8  1  0.671060  0.834927  0.577050  1
  Al  Al9  1  0.834365  0.671383  0.079421  1
  Al  Al10  1  0.329660  0.165727  0.421922  1
  Al  Al11  1  0.164480  0.329883  0.922174  1
  Al  Al12  1  0.163751  0.834249  0.576002  1
  Al  Al13  1  0.329660  0.165727  0.078078  1
  Al  Al14  1  0.835246  0.163817  0.421320  1
  Al  Al15  1  0.671060  0.834927  0.922950  1
  Al  Al16  1  0.835246  0.163817  0.078680  1
  Al  Al17  1  0.163751  0.834249  0.923998  1
  Al  Al18  1  0.126322  0.565958  0.750000  1
  Al  Al19  1  0.565003  0.435284  0.250000  1
  Al  Al20  1  0.438630  0.566740  0.750000  1
  Al  Al21  1  0.999106  0.998386  0.250000  1
  Al  Al22  1  0.999874  0.000753  0.750000  1
  Si  Si23  1  0.333571  0.665034  0.039074  1
  Si  Si24  1  0.666551  0.335811  0.961061  1
  Si  Si25  1  0.666551  0.335811  0.538939  1
  Si  Si26  1  0.333571  0.665034  0.460926  1
  Si  Si27  1  0.564746  0.124144  0.250000  1
  Si  Si28  1  0.436282  0.872732  0.750000  1
  Si  Si29  1  0.874645  0.435158  0.250000  1
  Os  Os30  1  0.500860  0.000886  0.001589  1
  Os  Os31  1  0.998460  0.499609  0.006838  1
  Os  Os32  1  0.500860  0.000886  0.498411  1
  Os  Os33  1  0.500793  0.500433  0.000627  1
  Os  Os34  1  0.998460  0.499609  0.493162  1
  Os  Os35  1  0.500793  0.500433  0.499373  1
  Os  Os36  1  0.000586  0.000294  0.999948  1
  Os  Os37  1  0.000586  0.000294  0.500052  1
