# generated using pymatgen
data_La10Sb6AsH
_symmetry_space_group_name_H-M   'P 1'
_cell_length_a   9.61590200
_cell_length_b   9.61590251
_cell_length_c   6.70424300
_cell_angle_alpha   90.00000000
_cell_angle_beta   90.00000000
_cell_angle_gamma   119.99999825
_symmetry_Int_Tables_number   1
_chemical_formula_structural   La10Sb6AsH
_chemical_formula_sum   'La10 Sb6 As1 H1'
_cell_volume   536.85928264
_cell_formula_units_Z   1
loop_
 _symmetry_equiv_pos_site_id
 _symmetry_equiv_pos_as_xyz
  1  'x, y, z'
loop_
 _atom_site_type_symbol
 _atom_site_label
 _atom_site_symmetry_multiplicity
 _atom_site_fract_x
 _atom_site_fract_y
 _atom_site_fract_z
 _atom_site_occupancy
  La  La0  1  0.666667  0.333333  0.000000  1
  La  La1  1  0.333333  0.666667  0.000000  1
  La  La2  1  0.333333  0.666667  0.500000  1
  La  La3  1  0.666667  0.333333  0.500000  1
  La  La4  1  0.746879  0.746879  0.753631  1
  La  La5  1  0.253121  0.000000  0.753631  1
  La  La6  1  0.000000  0.253121  0.753631  1
  La  La7  1  0.253121  0.253121  0.246369  1
  La  La8  1  0.746879  0.000000  0.246369  1
  La  La9  1  0.000000  0.746879  0.246369  1
  Sb  Sb10  1  0.387758  0.387758  0.748399  1
  Sb  Sb11  1  0.612242  0.000000  0.748399  1
  Sb  Sb12  1  0.000000  0.612242  0.748399  1
  Sb  Sb13  1  0.612242  0.612242  0.251601  1
  Sb  Sb14  1  0.387758  0.000000  0.251601  1
  Sb  Sb15  1  0.000000  0.387758  0.251601  1
  As  As16  1  0.000000  0.000000  0.500000  1
  H  H17  1  0.000000  0.000000  0.000000  1
