# generated using pymatgen
data_Dy2HoTh11Ru6
_symmetry_space_group_name_H-M   'P 1'
_cell_length_a   9.81670633
_cell_length_b   9.88120981
_cell_length_c   6.40762017
_cell_angle_alpha   90.08626760
_cell_angle_beta   89.98643512
_cell_angle_gamma   120.18843888
_symmetry_Int_Tables_number   1
_chemical_formula_structural   Dy2HoTh11Ru6
_chemical_formula_sum   'Dy2 Ho1 Th11 Ru6'
_cell_volume   537.24817760
_cell_formula_units_Z   1
loop_
 _symmetry_equiv_pos_site_id
 _symmetry_equiv_pos_as_xyz
  1  'x, y, z'
loop_
 _atom_site_type_symbol
 _atom_site_label
 _atom_site_symmetry_multiplicity
 _atom_site_fract_x
 _atom_site_fract_y
 _atom_site_fract_z
 _atom_site_occupancy
  Dy  Dy0  1  0.460102  0.536417  0.296404  1
  Dy  Dy1  1  0.073649  0.535665  0.301231  1
  Ho  Ho2  1  0.925936  0.462529  0.800859  1
  Th  Th3  1  0.249790  0.126657  0.510676  1
  Th  Th4  1  0.542516  0.083011  0.796156  1
  Th  Th5  1  0.747996  0.873830  0.012003  1
  Th  Th6  1  0.666505  0.333141  0.277484  1
  Th  Th7  1  0.125060  0.870535  0.009025  1
  Th  Th8  1  0.459077  0.916943  0.296387  1
  Th  Th9  1  0.540118  0.463510  0.798816  1
  Th  Th10  1  0.876194  0.129060  0.511350  1
  Th  Th11  1  0.124321  0.252387  0.013180  1
  Th  Th12  1  0.874203  0.748194  0.509137  1
  Th  Th13  1  0.333718  0.665998  0.773587  1
  Ru  Ru14  1  0.812071  0.630435  0.047474  1
  Ru  Ru15  1  0.814612  0.182685  0.046026  1
  Ru  Ru16  1  0.632003  0.816396  0.545204  1
  Ru  Ru17  1  0.370615  0.187829  0.041886  1
  Ru  Ru18  1  0.183584  0.365943  0.552800  1
  Ru  Ru19  1  0.187930  0.818835  0.544310  1
