# generated using pymatgen
data_Hf4Ti3MnP4
_symmetry_space_group_name_H-M   'P 1'
_cell_length_a   3.54173200
_cell_length_b   6.64725704
_cell_length_c   7.98046196
_cell_angle_alpha   90.06004434
_cell_angle_beta   90.00000000
_cell_angle_gamma   90.00000000
_symmetry_Int_Tables_number   1
_chemical_formula_structural   Hf4Ti3MnP4
_chemical_formula_sum   'Hf4 Ti3 Mn1 P4'
_cell_volume   187.88234018
_cell_formula_units_Z   1
loop_
 _symmetry_equiv_pos_site_id
 _symmetry_equiv_pos_as_xyz
  1  'x, y, z'
loop_
 _atom_site_type_symbol
 _atom_site_label
 _atom_site_symmetry_multiplicity
 _atom_site_fract_x
 _atom_site_fract_y
 _atom_site_fract_z
 _atom_site_occupancy
  Hf  Hf0  1  0.250000  0.533496  0.166800  1
  Hf  Hf1  1  0.750000  0.458038  0.834566  1
  Hf  Hf2  1  0.750000  0.966237  0.672053  1
  Hf  Hf3  1  0.250000  0.038366  0.325711  1
  Ti  Ti4  1  0.250000  0.633083  0.562016  1
  Ti  Ti5  1  0.750000  0.359413  0.441505  1
  Ti  Ti6  1  0.750000  0.872030  0.056594  1
  Mn  Mn7  1  0.250000  0.137774  0.942034  1
  P  P8  1  0.250000  0.765096  0.861149  1
  P  P9  1  0.750000  0.238032  0.129634  1
  P  P10  1  0.750000  0.738874  0.360956  1
  P  P11  1  0.250000  0.259560  0.646982  1
