# generated using pymatgen
data_EuHoCo9Tc3P7
_symmetry_space_group_name_H-M   'P 1'
_cell_length_a   3.74008000
_cell_length_b   9.14697996
_cell_length_c   9.14698200
_cell_angle_alpha   120.00000015
_cell_angle_beta   90.00000000
_cell_angle_gamma   90.00000000
_symmetry_Int_Tables_number   1
_chemical_formula_structural   EuHoCo9Tc3P7
_chemical_formula_sum   'Eu1 Ho1 Co9 Tc3 P7'
_cell_volume   270.99861720
_cell_formula_units_Z   1
loop_
 _symmetry_equiv_pos_site_id
 _symmetry_equiv_pos_as_xyz
  1  'x, y, z'
loop_
 _atom_site_type_symbol
 _atom_site_label
 _atom_site_symmetry_multiplicity
 _atom_site_fract_x
 _atom_site_fract_y
 _atom_site_fract_z
 _atom_site_occupancy
  Eu  Eu0  1  0.500000  0.333333  0.666667  1
  Ho  Ho1  1  0.000000  0.666667  0.333333  1
  Co  Co2  1  0.000000  0.569457  0.943849  1
  Co  Co3  1  0.000000  0.374393  0.430543  1
  Co  Co4  1  0.000000  0.056151  0.625607  1
  Co  Co5  1  0.000000  0.878473  0.157720  1
  Co  Co6  1  0.000000  0.279247  0.121527  1
  Co  Co7  1  0.000000  0.842280  0.720753  1
  Co  Co8  1  0.500000  0.943495  0.381292  1
  Co  Co9  1  0.500000  0.437796  0.056505  1
  Co  Co10  1  0.500000  0.618708  0.562204  1
  Tc  Tc11  1  0.500000  0.781794  0.903111  1
  Tc  Tc12  1  0.500000  0.121317  0.218206  1
  Tc  Tc13  1  0.500000  0.096889  0.878683  1
  P  P14  1  0.000000  0.000000  0.000000  1
  P  P15  1  0.500000  0.707148  0.114501  1
  P  P16  1  0.500000  0.407354  0.292852  1
  P  P17  1  0.500000  0.885499  0.592646  1
  P  P18  1  0.000000  0.591245  0.700733  1
  P  P19  1  0.000000  0.109489  0.408755  1
  P  P20  1  0.000000  0.299267  0.890511  1
