# generated using pymatgen
data_Tb3Ho(SiPt2)4
_symmetry_space_group_name_H-M   'P 1'
_cell_length_a   5.54845534
_cell_length_b   6.96018200
_cell_length_c   7.35615300
_cell_angle_alpha   90.00000000
_cell_angle_beta   90.03976712
_cell_angle_gamma   90.00000000
_symmetry_Int_Tables_number   1
_chemical_formula_structural   Tb3Ho(SiPt2)4
_chemical_formula_sum   'Tb3 Ho1 Si4 Pt8'
_cell_volume   284.08175308
_cell_formula_units_Z   1
loop_
 _symmetry_equiv_pos_site_id
 _symmetry_equiv_pos_as_xyz
  1  'x, y, z'
loop_
 _atom_site_type_symbol
 _atom_site_label
 _atom_site_symmetry_multiplicity
 _atom_site_fract_x
 _atom_site_fract_y
 _atom_site_fract_z
 _atom_site_occupancy
  Tb  Tb0  1  0.135194  0.750000  0.473835  1
  Tb  Tb1  1  0.363927  0.750000  0.973258  1
  Tb  Tb2  1  0.635593  0.250000  0.027115  1
  Ho  Ho3  1  0.863164  0.250000  0.525713  1
  Si  Si4  1  0.135761  0.250000  0.878251  1
  Si  Si5  1  0.363222  0.250000  0.380363  1
  Si  Si6  1  0.636049  0.750000  0.620772  1
  Si  Si7  1  0.864141  0.750000  0.120559  1
  Pt  Pt8  1  0.093658  0.050962  0.181132  1
  Pt  Pt9  1  0.093658  0.449038  0.181132  1
  Pt  Pt10  1  0.407141  0.051081  0.679961  1
  Pt  Pt11  1  0.407141  0.448919  0.679961  1
  Pt  Pt12  1  0.594473  0.550344  0.319844  1
  Pt  Pt13  1  0.594473  0.949656  0.319844  1
  Pt  Pt14  1  0.906203  0.550159  0.819130  1
  Pt  Pt15  1  0.906203  0.949841  0.819130  1
