# generated using pymatgen
data_YbSe27
_symmetry_space_group_name_H-M   'P 1'
_cell_length_a   14.75517897
_cell_length_b   14.75517934
_cell_length_c   14.75517936
_cell_angle_alpha   118.62425558
_cell_angle_beta   118.62425251
_cell_angle_gamma   118.62424891
_symmetry_Int_Tables_number   1
_chemical_formula_structural   YbSe27
_chemical_formula_sum   'Yb1 Se27'
_cell_volume   972.27210594
_cell_formula_units_Z   1
loop_
 _symmetry_equiv_pos_site_id
 _symmetry_equiv_pos_as_xyz
  1  'x, y, z'
loop_
 _atom_site_type_symbol
 _atom_site_label
 _atom_site_symmetry_multiplicity
 _atom_site_fract_x
 _atom_site_fract_y
 _atom_site_fract_z
 _atom_site_occupancy
  Yb  Yb0  1  0.444365  0.444365  0.444365  1
  Se  Se1  1  0.021035  0.650044  0.650044  1
  Se  Se2  1  0.650044  0.650044  0.021035  1
  Se  Se3  1  0.650044  0.021035  0.650044  1
  Se  Se4  1  0.267758  0.898381  0.752290  1
  Se  Se5  1  0.898381  0.752290  0.267758  1
  Se  Se6  1  0.752290  0.267758  0.898381  1
  Se  Se7  1  0.898381  0.267758  0.752290  1
  Se  Se8  1  0.267758  0.752290  0.898381  1
  Se  Se9  1  0.752290  0.898381  0.267758  1
  Se  Se10  1  0.074530  0.613382  0.410738  1
  Se  Se11  1  0.613382  0.410738  0.074530  1
  Se  Se12  1  0.410738  0.074530  0.613382  1
  Se  Se13  1  0.613382  0.074530  0.410738  1
  Se  Se14  1  0.074530  0.410738  0.613382  1
  Se  Se15  1  0.410738  0.613382  0.074530  1
  Se  Se16  1  0.367168  0.740911  0.592058  1
  Se  Se17  1  0.740911  0.592058  0.367168  1
  Se  Se18  1  0.592058  0.367168  0.740911  1
  Se  Se19  1  0.740911  0.367168  0.592058  1
  Se  Se20  1  0.367168  0.592058  0.740911  1
  Se  Se21  1  0.592058  0.740911  0.367168  1
  Se  Se22  1  0.176595  0.418060  0.418060  1
  Se  Se23  1  0.418060  0.418060  0.176595  1
  Se  Se24  1  0.418060  0.176595  0.418060  1
  Se  Se25  1  0.014924  0.909771  0.909771  1
  Se  Se26  1  0.909771  0.909771  0.014924  1
  Se  Se27  1  0.909771  0.014924  0.909771  1
