# generated using pymatgen
data_Dy4Tm4CrOs3C8
_symmetry_space_group_name_H-M   'P 1'
_cell_length_a   5.05968600
_cell_length_b   6.47360807
_cell_length_c   9.66774149
_cell_angle_alpha   90.11713526
_cell_angle_beta   90.00000000
_cell_angle_gamma   90.00000000
_symmetry_Int_Tables_number   1
_chemical_formula_structural   Dy4Tm4CrOs3C8
_chemical_formula_sum   'Dy4 Tm4 Cr1 Os3 C8'
_cell_volume   316.66064349
_cell_formula_units_Z   1
loop_
 _symmetry_equiv_pos_site_id
 _symmetry_equiv_pos_as_xyz
  1  'x, y, z'
loop_
 _atom_site_type_symbol
 _atom_site_label
 _atom_site_symmetry_multiplicity
 _atom_site_fract_x
 _atom_site_fract_y
 _atom_site_fract_z
 _atom_site_occupancy
  Dy  Dy0  1  0.250000  0.530800  0.209865  1
  Dy  Dy1  1  0.750000  0.470140  0.785297  1
  Dy  Dy2  1  0.750000  0.972878  0.714049  1
  Dy  Dy3  1  0.250000  0.030674  0.288906  1
  Tm  Tm4  1  0.250000  0.679085  0.558197  1
  Tm  Tm5  1  0.750000  0.325253  0.445238  1
  Tm  Tm6  1  0.750000  0.822877  0.053379  1
  Tm  Tm7  1  0.250000  0.172795  0.944075  1
  Cr  Cr8  1  0.250000  0.725762  0.863843  1
  Os  Os9  1  0.750000  0.277432  0.133846  1
  Os  Os10  1  0.750000  0.778192  0.365302  1
  Os  Os11  1  0.250000  0.226000  0.636985  1
  C  C12  1  0.250000  0.463138  0.765550  1
  C  C13  1  0.750000  0.544019  0.240189  1
  C  C14  1  0.750000  0.043437  0.258759  1
  C  C15  1  0.250000  0.951641  0.742900  1
  C  C16  1  0.250000  0.819541  0.043908  1
  C  C17  1  0.750000  0.169103  0.947576  1
  C  C18  1  0.750000  0.670148  0.552778  1
  C  C19  1  0.250000  0.327088  0.449355  1
