# generated using pymatgen
data_TbHo2Zr(Al3Ir)6
_symmetry_space_group_name_H-M   'P 1'
_cell_length_a   7.53936812
_cell_length_b   7.53136651
_cell_length_c   9.41943400
_cell_angle_alpha   90.00000000
_cell_angle_beta   90.00000000
_cell_angle_gamma   119.62321339
_symmetry_Int_Tables_number   1
_chemical_formula_structural   TbHo2Zr(Al3Ir)6
_chemical_formula_sum   'Tb1 Ho2 Zr1 Al18 Ir6'
_cell_volume   464.94393783
_cell_formula_units_Z   1
loop_
 _symmetry_equiv_pos_site_id
 _symmetry_equiv_pos_as_xyz
  1  'x, y, z'
loop_
 _atom_site_type_symbol
 _atom_site_label
 _atom_site_symmetry_multiplicity
 _atom_site_fract_x
 _atom_site_fract_y
 _atom_site_fract_z
 _atom_site_occupancy
  Tb  Tb0  1  0.005656  0.328070  0.750000  1
  Ho  Ho1  1  0.670637  0.995657  0.250000  1
  Ho  Ho2  1  0.329423  0.006288  0.750000  1
  Zr  Zr3  1  0.996730  0.671678  0.250000  1
  Al  Al4  1  0.125477  0.122985  0.250000  1
  Al  Al5  1  0.871129  0.869525  0.750000  1
  Al  Al6  1  0.000196  0.337461  0.078522  1
  Al  Al7  1  0.999452  0.665464  0.929680  1
  Al  Al8  1  0.999452  0.665464  0.570320  1
  Al  Al9  1  0.332428  0.998306  0.421619  1
  Al  Al10  1  0.000196  0.337461  0.421478  1
  Al  Al11  1  0.664418  0.998103  0.574271  1
  Al  Al12  1  0.664418  0.998103  0.925729  1
  Al  Al13  1  0.332428  0.998306  0.078381  1
  Al  Al14  1  0.334062  0.333863  0.551017  1
  Al  Al15  1  0.668831  0.667028  0.443388  1
  Al  Al16  1  0.668831  0.667028  0.056612  1
  Al  Al17  1  0.334062  0.333863  0.948983  1
  Al  Al18  1  0.335935  0.549311  0.250000  1
  Al  Al19  1  0.660721  0.452379  0.750000  1
  Al  Al20  1  0.554413  0.343703  0.250000  1
  Al  Al21  1  0.451548  0.660113  0.750000  1
  Ir  Ir22  1  0.672214  0.328092  0.000819  1
  Ir  Ir23  1  0.328035  0.672393  0.001564  1
  Ir  Ir24  1  0.328035  0.672393  0.498436  1
  Ir  Ir25  1  0.672214  0.328092  0.499181  1
  Ir  Ir26  1  0.999530  0.999436  0.000788  1
  Ir  Ir27  1  0.999530  0.999436  0.499212  1
