# generated using pymatgen
data_Li2Ta(NiSb)3
_symmetry_space_group_name_H-M   'P 1'
_cell_length_a   7.25010775
_cell_length_b   7.28504881
_cell_length_c   7.28504911
_cell_angle_alpha   119.86242914
_cell_angle_beta   99.60199019
_cell_angle_gamma   99.60198540
_symmetry_Int_Tables_number   1
_chemical_formula_structural   Li2Ta(NiSb)3
_chemical_formula_sum   'Li4 Ta2 Ni6 Sb6'
_cell_volume   314.65338854
_cell_formula_units_Z   2
loop_
 _symmetry_equiv_pos_site_id
 _symmetry_equiv_pos_as_xyz
  1  'x, y, z'
loop_
 _atom_site_type_symbol
 _atom_site_label
 _atom_site_symmetry_multiplicity
 _atom_site_fract_x
 _atom_site_fract_y
 _atom_site_fract_z
 _atom_site_occupancy
  Li  Li0  1  0.000424  0.503533  0.000531  1
  Li  Li1  1  0.499512  0.331607  0.166978  1
  Li  Li2  1  0.999511  0.166979  0.331608  1
  Li  Li3  1  0.500425  0.000533  0.503534  1
  Ta  Ta4  1  0.001541  0.831293  0.669653  1
  Ta  Ta5  1  0.501542  0.669654  0.831295  1
  Ni  Ni6  1  0.119423  0.193514  0.027004  1
  Ni  Ni7  1  0.619424  0.027003  0.193513  1
  Ni  Ni8  1  0.119978  0.874457  0.388643  1
  Ni  Ni9  1  0.635412  0.712425  0.556116  1
  Ni  Ni10  1  0.135412  0.556117  0.712426  1
  Ni  Ni11  1  0.619978  0.388643  0.874456  1
  Sb  Sb12  1  0.247137  0.919729  0.098328  1
  Sb  Sb13  1  0.747878  0.749488  0.252600  1
  Sb  Sb14  1  0.253695  0.572812  0.401290  1
  Sb  Sb15  1  0.753697  0.401291  0.572813  1
  Sb  Sb16  1  0.247878  0.252600  0.749488  1
  Sb  Sb17  1  0.747136  0.098327  0.919728  1
