# generated using pymatgen
data_Pr2BeAlBO7
_symmetry_space_group_name_H-M   'P 1'
_cell_length_a   7.58127500
_cell_length_b   4.88288094
_cell_length_c   7.58843981
_cell_angle_alpha   89.79189481
_cell_angle_beta   90.00000000
_cell_angle_gamma   90.00000000
_symmetry_Int_Tables_number   1
_chemical_formula_structural   Pr2BeAlBO7
_chemical_formula_sum   'Pr4 Be2 Al2 B2 O14'
_cell_volume   280.91052695
_cell_formula_units_Z   2
loop_
 _symmetry_equiv_pos_site_id
 _symmetry_equiv_pos_as_xyz
  1  'x, y, z'
loop_
 _atom_site_type_symbol
 _atom_site_label
 _atom_site_symmetry_multiplicity
 _atom_site_fract_x
 _atom_site_fract_y
 _atom_site_fract_z
 _atom_site_occupancy
  Pr  Pr0  1  0.663449  0.511588  0.579053  1
  Pr  Pr1  1  0.163449  0.488412  0.420947  1
  Pr  Pr2  1  0.335449  0.503963  0.907232  1
  Pr  Pr3  1  0.835449  0.496037  0.092768  1
  Be  Be4  1  0.866832  0.953674  0.384114  1
  Be  Be5  1  0.366832  0.046326  0.615886  1
  Al  Al6  1  0.498090  0.000588  0.245376  1
  Al  Al7  1  0.998090  0.999412  0.754624  1
  B  B8  1  0.134278  0.943152  0.116357  1
  B  B9  1  0.634278  0.056848  0.883643  1
  O  O10  1  0.577086  0.195666  0.059915  1
  O  O11  1  0.077086  0.804334  0.940085  1
  O  O12  1  0.425166  0.203288  0.423435  1
  O  O13  1  0.925166  0.796712  0.576565  1
  O  O14  1  0.675725  0.793208  0.316769  1
  O  O15  1  0.175725  0.206792  0.683231  1
  O  O16  1  0.312759  0.809297  0.164228  1
  O  O17  1  0.812759  0.190703  0.835772  1
  O  O18  1  0.860176  0.279298  0.385878  1
  O  O19  1  0.360176  0.720702  0.614122  1
  O  O20  1  0.140342  0.239609  0.105526  1
  O  O21  1  0.640342  0.760391  0.894474  1
  O  O22  1  0.510647  0.164591  0.753637  1
  O  O23  1  0.010647  0.835409  0.246363  1
