# generated using pymatgen
data_PrTmAlZnPt2
_symmetry_space_group_name_H-M   'P 1'
_cell_length_a   4.35924700
_cell_length_b   6.96550400
_cell_length_c   8.02447600
_cell_angle_alpha   90.00000000
_cell_angle_beta   90.00000000
_cell_angle_gamma   90.00000000
_symmetry_Int_Tables_number   1
_chemical_formula_structural   PrTmAlZnPt2
_chemical_formula_sum   'Pr2 Tm2 Al2 Zn2 Pt4'
_cell_volume   243.65801721
_cell_formula_units_Z   2
loop_
 _symmetry_equiv_pos_site_id
 _symmetry_equiv_pos_as_xyz
  1  'x, y, z'
loop_
 _atom_site_type_symbol
 _atom_site_label
 _atom_site_symmetry_multiplicity
 _atom_site_fract_x
 _atom_site_fract_y
 _atom_site_fract_z
 _atom_site_occupancy
  Pr  Pr0  1  0.750000  0.968582  0.321428  1
  Pr  Pr1  1  0.750000  0.468582  0.178572  1
  Tm  Tm2  1  0.250000  0.028516  0.691978  1
  Tm  Tm3  1  0.250000  0.528516  0.808022  1
  Al  Al4  1  0.750000  0.859262  0.934232  1
  Al  Al5  1  0.750000  0.359262  0.565768  1
  Zn  Zn6  1  0.250000  0.150745  0.062212  1
  Zn  Zn7  1  0.250000  0.650745  0.437788  1
  Pt  Pt8  1  0.250000  0.264304  0.405377  1
  Pt  Pt9  1  0.250000  0.764304  0.094623  1
  Pt  Pt10  1  0.750000  0.728590  0.631863  1
  Pt  Pt11  1  0.750000  0.228590  0.868137  1
