# generated using pymatgen
data_PrZr4Np3F28
_symmetry_space_group_name_H-M   'P 1'
_cell_length_a   5.86268742
_cell_length_b   9.50295975
_cell_length_c   12.71200600
_cell_angle_alpha   61.45466532
_cell_angle_beta   90.15844912
_cell_angle_gamma   90.11992790
_symmetry_Int_Tables_number   1
_chemical_formula_structural   PrZr4Np3F28
_chemical_formula_sum   'Pr1 Zr4 Np3 F28'
_cell_volume   622.12784918
_cell_formula_units_Z   1
loop_
 _symmetry_equiv_pos_site_id
 _symmetry_equiv_pos_as_xyz
  1  'x, y, z'
loop_
 _atom_site_type_symbol
 _atom_site_label
 _atom_site_symmetry_multiplicity
 _atom_site_fract_x
 _atom_site_fract_y
 _atom_site_fract_z
 _atom_site_occupancy
  Pr  Pr0  1  0.743026  0.812577  0.264413  1
  Zr  Zr1  1  0.743803  0.276337  0.455054  1
  Zr  Zr2  1  0.243663  0.721963  0.044799  1
  Zr  Zr3  1  0.256853  0.722827  0.544970  1
  Zr  Zr4  1  0.756629  0.277541  0.955311  1
  Np  Np5  1  0.241474  0.182522  0.235457  1
  Np  Np6  1  0.258946  0.185279  0.735800  1
  Np  Np7  1  0.758783  0.815393  0.764282  1
  F  F8  1  0.453169  0.715137  0.919255  1
  F  F9  1  0.954220  0.283883  0.580925  1
  F  F10  1  0.545662  0.286382  0.079866  1
  F  F11  1  0.042870  0.715850  0.419992  1
  F  F12  1  0.458836  0.284080  0.547146  1
  F  F13  1  0.956143  0.715192  0.953791  1
  F  F14  1  0.540709  0.717747  0.451743  1
  F  F15  1  0.043803  0.285569  0.046222  1
  F  F16  1  0.765648  0.521507  0.859898  1
  F  F17  1  0.265444  0.479663  0.639658  1
  F  F18  1  0.233895  0.478950  0.139773  1
  F  F19  1  0.735229  0.520616  0.360330  1
  F  F20  1  0.766308  0.033167  0.057597  1
  F  F21  1  0.269005  0.967724  0.443769  1
  F  F22  1  0.231435  0.966848  0.942573  1
  F  F23  1  0.730099  0.031645  0.556859  1
  F  F24  1  0.983796  0.735820  0.639914  1
  F  F25  1  0.483048  0.265494  0.859671  1
  F  F26  1  0.017570  0.263231  0.361142  1
  F  F27  1  0.516387  0.735256  0.140428  1
  F  F28  1  0.039074  0.742103  0.168331  1
  F  F29  1  0.537113  0.260297  0.330752  1
  F  F30  1  0.962131  0.261190  0.830718  1
  F  F31  1  0.461440  0.738573  0.670353  1
  F  F32  1  0.411641  0.967537  0.231374  1
  F  F33  1  0.912473  0.032174  0.267556  1
  F  F34  1  0.589815  0.032692  0.768449  1
  F  F35  1  0.089864  0.967233  0.731829  1
