# generated using pymatgen
data_U3FePb3O13
_symmetry_space_group_name_H-M   'P 1'
_cell_length_a   7.66271349
_cell_length_b   7.66271343
_cell_length_c   7.66271471
_cell_angle_alpha   63.66922924
_cell_angle_beta   63.66922858
_cell_angle_gamma   63.66923114
_symmetry_Int_Tables_number   1
_chemical_formula_structural   U3FePb3O13
_chemical_formula_sum   'U3 Fe1 Pb3 O13'
_cell_volume   343.92996318
_cell_formula_units_Z   1
loop_
 _symmetry_equiv_pos_site_id
 _symmetry_equiv_pos_as_xyz
  1  'x, y, z'
loop_
 _atom_site_type_symbol
 _atom_site_label
 _atom_site_symmetry_multiplicity
 _atom_site_fract_x
 _atom_site_fract_y
 _atom_site_fract_z
 _atom_site_occupancy
  U  U0  1  0.998925  0.499645  0.499645  1
  U  U1  1  0.499645  0.499645  0.998925  1
  U  U2  1  0.499645  0.998925  0.499645  1
  Fe  Fe3  1  0.499240  0.499240  0.499240  1
  Pb  Pb4  1  0.479205  0.010538  0.010538  1
  Pb  Pb5  1  0.010538  0.010538  0.479205  1
  Pb  Pb6  1  0.010538  0.479205  0.010538  1
  O  O7  1  0.826094  0.426743  0.426743  1
  O  O8  1  0.439952  0.816996  0.816996  1
  O  O9  1  0.426743  0.426743  0.826094  1
  O  O10  1  0.816996  0.816996  0.439952  1
  O  O11  1  0.816996  0.439952  0.816996  1
  O  O12  1  0.426743  0.826094  0.426743  1
  O  O13  1  0.175344  0.567771  0.567771  1
  O  O14  1  0.557703  0.181167  0.181167  1
  O  O15  1  0.567771  0.567771  0.175344  1
  O  O16  1  0.181167  0.181167  0.557703  1
  O  O17  1  0.181167  0.557703  0.181167  1
  O  O18  1  0.567771  0.175344  0.567771  1
  O  O19  1  0.142814  0.142814  0.142814  1
