# generated using pymatgen
data_Pr16Cd4Ir3Pt
_symmetry_space_group_name_H-M   'P 1'
_cell_length_a   10.04460841
_cell_length_b   10.04460911
_cell_length_c   10.04460903
_cell_angle_alpha   60.20032737
_cell_angle_beta   60.20032304
_cell_angle_gamma   60.20032778
_symmetry_Int_Tables_number   1
_chemical_formula_structural   Pr16Cd4Ir3Pt
_chemical_formula_sum   'Pr16 Cd4 Ir3 Pt1'
_cell_volume   719.86266344
_cell_formula_units_Z   1
loop_
 _symmetry_equiv_pos_site_id
 _symmetry_equiv_pos_as_xyz
  1  'x, y, z'
loop_
 _atom_site_type_symbol
 _atom_site_label
 _atom_site_symmetry_multiplicity
 _atom_site_fract_x
 _atom_site_fract_y
 _atom_site_fract_z
 _atom_site_occupancy
  Pr  Pr0  1  0.347194  0.347194  0.347194  1
  Pr  Pr1  1  0.351257  0.351257  0.951626  1
  Pr  Pr2  1  0.351257  0.951626  0.351257  1
  Pr  Pr3  1  0.951626  0.351257  0.351257  1
  Pr  Pr4  1  0.805601  0.190829  0.190829  1
  Pr  Pr5  1  0.188929  0.809145  0.809145  1
  Pr  Pr6  1  0.190829  0.805601  0.190829  1
  Pr  Pr7  1  0.809145  0.188929  0.809145  1
  Pr  Pr8  1  0.190829  0.190829  0.805601  1
  Pr  Pr9  1  0.809145  0.809145  0.188929  1
  Pr  Pr10  1  0.939990  0.561947  0.561947  1
  Pr  Pr11  1  0.561784  0.938752  0.938752  1
  Pr  Pr12  1  0.561947  0.939990  0.561947  1
  Pr  Pr13  1  0.938752  0.561784  0.938752  1
  Pr  Pr14  1  0.561947  0.561947  0.939990  1
  Pr  Pr15  1  0.938752  0.938752  0.561784  1
  Cd  Cd16  1  0.579919  0.579919  0.579919  1
  Cd  Cd17  1  0.580034  0.580034  0.259880  1
  Cd  Cd18  1  0.580034  0.259880  0.580034  1
  Cd  Cd19  1  0.259880  0.580034  0.580034  1
  Ir  Ir20  1  0.142176  0.142176  0.574267  1
  Ir  Ir21  1  0.142176  0.574267  0.142176  1
  Ir  Ir22  1  0.574267  0.142176  0.142176  1
  Pt  Pt23  1  0.142529  0.142529  0.142529  1
