# generated using pymatgen
data_Li3Y3InGeAs
_symmetry_space_group_name_H-M   'P 1'
_cell_length_a   7.20075100
_cell_length_b   7.20075000
_cell_length_c   4.28182700
_cell_angle_alpha   90.00000000
_cell_angle_beta   90.00000000
_cell_angle_gamma   119.99999083
_symmetry_Int_Tables_number   1
_chemical_formula_structural   Li3Y3InGeAs
_chemical_formula_sum   'Li3 Y3 In1 Ge1 As1'
_cell_volume   192.27167711
_cell_formula_units_Z   1
loop_
 _symmetry_equiv_pos_site_id
 _symmetry_equiv_pos_as_xyz
  1  'x, y, z'
loop_
 _atom_site_type_symbol
 _atom_site_label
 _atom_site_symmetry_multiplicity
 _atom_site_fract_x
 _atom_site_fract_y
 _atom_site_fract_z
 _atom_site_occupancy
  Li  Li0  1  0.249758  0.999173  0.500000  1
  Li  Li1  1  0.749415  0.750242  0.500000  1
  Li  Li2  1  0.000827  0.250585  0.500000  1
  Y  Y3  1  0.995415  0.560270  0.000000  1
  Y  Y4  1  0.564854  0.004585  0.000000  1
  Y  Y5  1  0.439730  0.435146  0.000000  1
  In  In6  1  0.000000  0.000000  0.000000  1
  Ge  Ge7  1  0.666667  0.333333  0.500000  1
  As  As8  1  0.333333  0.666667  0.500000  1
