# generated using pymatgen
data_Dy5Ho3Ti11Si16Au
_symmetry_space_group_name_H-M   'P 1'
_cell_length_a   7.06350867
_cell_length_b   7.06282286
_cell_length_c   12.88255911
_cell_angle_alpha   90.13633168
_cell_angle_beta   89.85459209
_cell_angle_gamma   89.62783703
_symmetry_Int_Tables_number   1
_chemical_formula_structural   Dy5Ho3Ti11Si16Au
_chemical_formula_sum   'Dy5 Ho3 Ti11 Si16 Au1'
_cell_volume   642.67163582
_cell_formula_units_Z   1
loop_
 _symmetry_equiv_pos_site_id
 _symmetry_equiv_pos_as_xyz
  1  'x, y, z'
loop_
 _atom_site_type_symbol
 _atom_site_label
 _atom_site_symmetry_multiplicity
 _atom_site_fract_x
 _atom_site_fract_y
 _atom_site_fract_z
 _atom_site_occupancy
  Dy  Dy0  1  0.340609  0.002515  0.466774  1
  Dy  Dy1  1  0.496932  0.841074  0.716842  1
  Dy  Dy2  1  0.501699  0.157320  0.214146  1
  Dy  Dy3  1  0.841185  0.496899  0.283138  1
  Dy  Dy4  1  0.157272  0.501607  0.785823  1
  Ho  Ho5  1  0.656326  0.001219  0.968528  1
  Ho  Ho6  1  0.001843  0.340960  0.533521  1
  Ho  Ho7  1  0.001204  0.656301  0.031274  1
  Ti  Ti8  1  0.175048  0.825876  0.249411  1
  Ti  Ti9  1  0.825949  0.175099  0.750643  1
  Ti  Ti10  1  0.672619  0.672415  0.500016  1
  Ti  Ti11  1  0.147503  0.007864  0.877205  1
  Ti  Ti12  1  0.495435  0.651140  0.122779  1
  Ti  Ti13  1  0.507176  0.350408  0.625688  1
  Ti  Ti14  1  0.651214  0.495408  0.877080  1
  Ti  Ti15  1  0.350352  0.506874  0.374404  1
  Ti  Ti16  1  0.849938  0.991576  0.374350  1
  Ti  Ti17  1  0.007819  0.147633  0.122747  1
  Ti  Ti18  1  0.991643  0.849775  0.625736  1
  Si  Si19  1  0.201048  0.132512  0.684762  1
  Si  Si20  1  0.374088  0.720136  0.929132  1
  Si  Si21  1  0.631209  0.294177  0.433021  1
  Si  Si22  1  0.720213  0.374035  0.070752  1
  Si  Si23  1  0.293698  0.630503  0.567149  1
  Si  Si24  1  0.798446  0.867066  0.182494  1
  Si  Si25  1  0.132272  0.201701  0.315221  1
  Si  Si26  1  0.867132  0.798491  0.817386  1
  Si  Si27  1  0.285936  0.937749  0.065816  1
  Si  Si28  1  0.547103  0.790385  0.314414  1
  Si  Si29  1  0.454399  0.208587  0.809997  1
  Si  Si30  1  0.790625  0.546906  0.685521  1
  Si  Si31  1  0.208552  0.454415  0.189937  1
  Si  Si32  1  0.709377  0.048215  0.564691  1
  Si  Si33  1  0.937695  0.285919  0.934094  1
  Si  Si34  1  0.047791  0.708612  0.435569  1
  Au  Au35  1  0.328652  0.328625  0.999940  1
