# generated using pymatgen
data_Ti3Mn2BeCoP2
_symmetry_space_group_name_H-M   'P 1'
_cell_length_a   6.11812600
_cell_length_b   6.16585212
_cell_length_c   3.32308900
_cell_angle_alpha   90.00000000
_cell_angle_beta   90.00000000
_cell_angle_gamma   119.74427850
_symmetry_Int_Tables_number   1
_chemical_formula_structural   Ti3Mn2BeCoP2
_chemical_formula_sum   'Ti3 Mn2 Be1 Co1 P2'
_cell_volume   108.84223887
_cell_formula_units_Z   1
loop_
 _symmetry_equiv_pos_site_id
 _symmetry_equiv_pos_as_xyz
  1  'x, y, z'
loop_
 _atom_site_type_symbol
 _atom_site_label
 _atom_site_symmetry_multiplicity
 _atom_site_fract_x
 _atom_site_fract_y
 _atom_site_fract_z
 _atom_site_occupancy
  Ti  Ti0  1  0.600856  0.000000  0.000000  1
  Ti  Ti1  1  0.993453  0.591712  0.000000  1
  Ti  Ti2  1  0.401741  0.408288  0.000000  1
  Mn  Mn3  1  0.999584  0.243002  0.500000  1
  Mn  Mn4  1  0.756582  0.756998  0.500000  1
  Be  Be5  1  0.009542  0.000000  0.000000  1
  Co  Co6  1  0.245142  0.000000  0.500000  1
  P  P7  1  0.330950  0.668800  0.500000  1
  P  P8  1  0.662151  0.331200  0.500000  1
