# generated using pymatgen
data_Nd5Mn4(P4Ir5)3
_symmetry_space_group_name_H-M   'P 1'
_cell_length_a   12.56357661
_cell_length_b   12.63712074
_cell_length_c   3.99410100
_cell_angle_alpha   90.00000000
_cell_angle_beta   90.00000000
_cell_angle_gamma   119.76702034
_symmetry_Int_Tables_number   1
_chemical_formula_structural   Nd5Mn4(P4Ir5)3
_chemical_formula_sum   'Nd5 Mn4 P12 Ir15'
_cell_volume   550.46016595
_cell_formula_units_Z   1
loop_
 _symmetry_equiv_pos_site_id
 _symmetry_equiv_pos_as_xyz
  1  'x, y, z'
loop_
 _atom_site_type_symbol
 _atom_site_label
 _atom_site_symmetry_multiplicity
 _atom_site_fract_x
 _atom_site_fract_y
 _atom_site_fract_z
 _atom_site_occupancy
  Nd  Nd0  1  0.672937  0.335700  0.000000  1
  Nd  Nd1  1  0.330990  0.665545  0.000000  1
  Nd  Nd2  1  0.814979  0.815373  0.500000  1
  Nd  Nd3  1  0.183829  0.001307  0.500000  1
  Nd  Nd4  1  0.999364  0.184865  0.500000  1
  Mn  Mn5  1  0.294490  0.294182  0.500000  1
  Mn  Mn6  1  0.706072  0.999402  0.500000  1
  Mn  Mn7  1  0.998070  0.706832  0.500000  1
  Mn  Mn8  1  0.878462  0.360742  0.500000  1
  P  P9  1  0.700507  0.175795  0.500000  1
  P  P10  1  0.841201  0.517453  0.500000  1
  P  P11  1  0.478322  0.310164  0.500000  1
  P  P12  1  0.163949  0.689935  0.500000  1
  P  P13  1  0.523972  0.834308  0.500000  1
  P  P14  1  0.307320  0.475129  0.500000  1
  P  P15  1  0.637265  0.636087  0.000000  1
  P  P16  1  0.363567  0.001178  0.000000  1
  P  P17  1  0.988939  0.362191  0.000000  1
  P  P18  1  0.185165  0.186242  0.000000  1
  P  P19  1  0.813875  0.998291  0.000000  1
  P  P20  1  0.997833  0.814763  0.000000  1
  Ir  Ir21  1  0.799777  0.176133  0.000000  1
  Ir  Ir22  1  0.819434  0.623553  0.000000  1
  Ir  Ir23  1  0.379005  0.199203  0.000000  1
  Ir  Ir24  1  0.178951  0.803881  0.000000  1
  Ir  Ir25  1  0.621054  0.818628  0.000000  1
  Ir  Ir26  1  0.194134  0.376575  0.000000  1
  Ir  Ir27  1  0.452980  0.453056  0.000000  1
  Ir  Ir28  1  0.545339  0.997707  0.000000  1
  Ir  Ir29  1  0.998413  0.549246  0.000000  1
  Ir  Ir30  1  0.639307  0.508188  0.500000  1
  Ir  Ir31  1  0.494352  0.128772  0.500000  1
  Ir  Ir32  1  0.361521  0.871509  0.500000  1
  Ir  Ir33  1  0.508846  0.635918  0.500000  1
  Ir  Ir34  1  0.125044  0.490964  0.500000  1
  Ir  Ir35  1  0.000735  0.001177  0.000000  1
