# generated using pymatgen
data_Er9Th3Tc3Ru
_symmetry_space_group_name_H-M   'P 1'
_cell_length_a   6.31495271
_cell_length_b   7.29633172
_cell_length_c   9.34936000
_cell_angle_alpha   90.00000000
_cell_angle_beta   90.00000000
_cell_angle_gamma   90.29516421
_symmetry_Int_Tables_number   1
_chemical_formula_structural   Er9Th3Tc3Ru
_chemical_formula_sum   'Er9 Th3 Tc3 Ru1'
_cell_volume   430.77529950
_cell_formula_units_Z   1
loop_
 _symmetry_equiv_pos_site_id
 _symmetry_equiv_pos_as_xyz
  1  'x, y, z'
loop_
 _atom_site_type_symbol
 _atom_site_label
 _atom_site_symmetry_multiplicity
 _atom_site_fract_x
 _atom_site_fract_y
 _atom_site_fract_z
 _atom_site_occupancy
  Er  Er0  1  0.333743  0.677374  0.064600  1
  Er  Er1  1  0.165610  0.173807  0.436099  1
  Er  Er2  1  0.665077  0.324474  0.566736  1
  Er  Er3  1  0.831219  0.824623  0.932026  1
  Er  Er4  1  0.665077  0.324474  0.933264  1
  Er  Er5  1  0.831219  0.824623  0.567974  1
  Er  Er6  1  0.333743  0.677374  0.435400  1
  Er  Er7  1  0.165610  0.173807  0.063901  1
  Er  Er8  1  0.364580  0.958951  0.750000  1
  Th  Th9  1  0.856511  0.548993  0.250000  1
  Th  Th10  1  0.642543  0.047121  0.250000  1
  Th  Th11  1  0.144997  0.453253  0.750000  1
  Tc  Tc12  1  0.024965  0.871618  0.250000  1
  Tc  Tc13  1  0.474157  0.370092  0.250000  1
  Tc  Tc14  1  0.969824  0.132461  0.750000  1
  Ru  Ru15  1  0.531126  0.616955  0.750000  1
