# generated using pymatgen
data_SmHoRh2O7
_symmetry_space_group_name_H-M   'P 1'
_cell_length_a   7.27565105
_cell_length_b   7.27564998
_cell_length_c   7.29591200
_cell_angle_alpha   59.90782403
_cell_angle_beta   59.90782889
_cell_angle_gamma   59.77834350
_symmetry_Int_Tables_number   1
_chemical_formula_structural   SmHoRh2O7
_chemical_formula_sum   'Sm2 Ho2 Rh4 O14'
_cell_volume   272.25195401
_cell_formula_units_Z   2
loop_
 _symmetry_equiv_pos_site_id
 _symmetry_equiv_pos_as_xyz
  1  'x, y, z'
loop_
 _atom_site_type_symbol
 _atom_site_label
 _atom_site_symmetry_multiplicity
 _atom_site_fract_x
 _atom_site_fract_y
 _atom_site_fract_z
 _atom_site_occupancy
  Sm  Sm0  1  0.125000  0.125000  0.625000  1
  Sm  Sm1  1  0.125000  0.125000  0.125000  1
  Ho  Ho2  1  0.625000  0.125000  0.125000  1
  Ho  Ho3  1  0.125000  0.625000  0.125000  1
  Rh  Rh4  1  0.625000  0.625000  0.625000  1
  Rh  Rh5  1  0.125000  0.625000  0.625000  1
  Rh  Rh6  1  0.625000  0.125000  0.625000  1
  Rh  Rh7  1  0.625000  0.625000  0.125000  1
  O  O8  1  0.289098  0.289098  0.710902  1
  O  O9  1  0.289668  0.705424  0.289076  1
  O  O10  1  0.960332  0.544576  0.960924  1
  O  O11  1  0.705424  0.289668  0.289076  1
  O  O12  1  0.994620  0.994620  0.005380  1
  O  O13  1  0.540139  0.540139  0.959861  1
  O  O14  1  0.289668  0.705424  0.715832  1
  O  O15  1  0.544576  0.960332  0.534168  1
  O  O16  1  0.544576  0.960332  0.960924  1
  O  O17  1  0.709861  0.709861  0.290139  1
  O  O18  1  0.255380  0.255380  0.244620  1
  O  O19  1  0.960902  0.960902  0.539098  1
  O  O20  1  0.960332  0.544576  0.534168  1
  O  O21  1  0.705424  0.289668  0.715832  1
