# generated using pymatgen
data_Er4Tm3PaSb20
_symmetry_space_group_name_H-M   'P 1'
_cell_length_a   4.21750200
_cell_length_b   13.16930217
_cell_length_c   14.54835800
_cell_angle_alpha   78.47348214
_cell_angle_beta   90.00000000
_cell_angle_gamma   90.00000000
_symmetry_Int_Tables_number   1
_chemical_formula_structural   Er4Tm3PaSb20
_chemical_formula_sum   'Er4 Tm3 Pa1 Sb20'
_cell_volume   791.74221807
_cell_formula_units_Z   1
loop_
 _symmetry_equiv_pos_site_id
 _symmetry_equiv_pos_as_xyz
  1  'x, y, z'
loop_
 _atom_site_type_symbol
 _atom_site_label
 _atom_site_symmetry_multiplicity
 _atom_site_fract_x
 _atom_site_fract_y
 _atom_site_fract_z
 _atom_site_occupancy
  Er  Er0  1  0.250000  0.390390  0.772427  1
  Er  Er1  1  0.750000  0.605938  0.228820  1
  Er  Er2  1  0.250000  0.662866  0.857557  1
  Er  Er3  1  0.750000  0.338547  0.144247  1
  Tm  Tm4  1  0.750000  0.327882  0.426152  1
  Tm  Tm5  1  0.250000  0.954068  0.355741  1
  Tm  Tm6  1  0.750000  0.048438  0.641223  1
  Pa  Pa7  1  0.250000  0.670389  0.571354  1
  Sb  Sb8  1  0.250000  0.142075  0.775034  1
  Sb  Sb9  1  0.750000  0.856974  0.222775  1
  Sb  Sb10  1  0.250000  0.138959  0.483394  1
  Sb  Sb11  1  0.750000  0.854041  0.514206  1
  Sb  Sb12  1  0.250000  0.152962  0.168343  1
  Sb  Sb13  1  0.750000  0.849368  0.835062  1
  Sb  Sb14  1  0.250000  0.420998  0.977197  1
  Sb  Sb15  1  0.750000  0.579548  0.022471  1
  Sb  Sb16  1  0.750000  0.035927  0.912691  1
  Sb  Sb17  1  0.250000  0.970379  0.088035  1
  Sb  Sb18  1  0.750000  0.138643  0.319308  1
  Sb  Sb19  1  0.250000  0.861618  0.685510  1
  Sb  Sb20  1  0.750000  0.277950  0.937594  1
  Sb  Sb21  1  0.250000  0.721582  0.063477  1
  Sb  Sb22  1  0.750000  0.284751  0.655239  1
  Sb  Sb23  1  0.250000  0.715234  0.344860  1
  Sb  Sb24  1  0.750000  0.579166  0.729377  1
  Sb  Sb25  1  0.250000  0.422421  0.267944  1
  Sb  Sb26  1  0.750000  0.570762  0.447823  1
  Sb  Sb27  1  0.250000  0.428126  0.552138  1
