# generated using pymatgen
data_Hf4Nb2Al16Rh7
_symmetry_space_group_name_H-M   'P 1'
_cell_length_a   8.64059185
_cell_length_b   8.68090879
_cell_length_c   8.68091019
_cell_angle_alpha   59.69296557
_cell_angle_beta   60.15351253
_cell_angle_gamma   60.15351181
_symmetry_Int_Tables_number   1
_chemical_formula_structural   Hf4Nb2Al16Rh7
_chemical_formula_sum   'Hf4 Nb2 Al16 Rh7'
_cell_volume   460.40525004
_cell_formula_units_Z   1
loop_
 _symmetry_equiv_pos_site_id
 _symmetry_equiv_pos_as_xyz
  1  'x, y, z'
loop_
 _atom_site_type_symbol
 _atom_site_label
 _atom_site_symmetry_multiplicity
 _atom_site_fract_x
 _atom_site_fract_y
 _atom_site_fract_z
 _atom_site_occupancy
  Hf  Hf0  1  0.316569  0.683430  0.316569  1
  Hf  Hf1  1  0.316569  0.316569  0.683430  1
  Hf  Hf2  1  0.683430  0.316569  0.683430  1
  Hf  Hf3  1  0.683430  0.683430  0.316569  1
  Nb  Nb4  1  0.680765  0.319234  0.319234  1
  Nb  Nb5  1  0.319234  0.680765  0.680765  1
  Al  Al6  1  0.340887  0.337348  0.337348  1
  Al  Al7  1  0.337348  0.340887  0.984416  1
  Al  Al8  1  0.984416  0.337348  0.337348  1
  Al  Al9  1  0.337348  0.984416  0.340887  1
  Al  Al10  1  0.659113  0.662652  0.662652  1
  Al  Al11  1  0.662652  0.659113  0.015584  1
  Al  Al12  1  0.662652  0.015584  0.659113  1
  Al  Al13  1  0.015584  0.662652  0.662652  1
  Al  Al14  1  0.117813  0.121106  0.121106  1
  Al  Al15  1  0.121106  0.117813  0.639976  1
  Al  Al16  1  0.639976  0.121106  0.121106  1
  Al  Al17  1  0.121106  0.639976  0.117813  1
  Al  Al18  1  0.882186  0.878893  0.878893  1
  Al  Al19  1  0.878893  0.882186  0.360027  1
  Al  Al20  1  0.878893  0.360027  0.882186  1
  Al  Al21  1  0.360027  0.878893  0.878893  1
  Rh  Rh22  1  0.000000  0.000000  0.000000  1
  Rh  Rh23  1  0.500000  0.000000  0.000000  1
  Rh  Rh24  1  0.000000  0.500000  0.500000  1
  Rh  Rh25  1  0.000000  0.500000  0.000000  1
  Rh  Rh26  1  0.000000  0.000000  0.500000  1
  Rh  Rh27  1  0.500000  0.000000  0.500000  1
  Rh  Rh28  1  0.500000  0.500000  0.000000  1
