# generated using pymatgen
data_Er8Lu2Sn5Bi
_symmetry_space_group_name_H-M   'P 1'
_cell_length_a   8.88547100
_cell_length_b   8.89781397
_cell_length_c   6.44360839
_cell_angle_alpha   89.96545707
_cell_angle_beta   90.00000000
_cell_angle_gamma   119.95412639
_symmetry_Int_Tables_number   1
_chemical_formula_structural   Er8Lu2Sn5Bi
_chemical_formula_sum   'Er8 Lu2 Sn5 Bi1'
_cell_volume   441.39154386
_cell_formula_units_Z   1
loop_
 _symmetry_equiv_pos_site_id
 _symmetry_equiv_pos_as_xyz
  1  'x, y, z'
loop_
 _atom_site_type_symbol
 _atom_site_label
 _atom_site_symmetry_multiplicity
 _atom_site_fract_x
 _atom_site_fract_y
 _atom_site_fract_z
 _atom_site_occupancy
  Er  Er0  1  0.993438  0.757701  0.749892  1
  Er  Er1  1  0.000587  0.238829  0.249954  1
  Er  Er2  1  0.761758  0.761171  0.250046  1
  Er  Er3  1  0.765324  0.000000  0.750000  1
  Er  Er4  1  0.235737  0.242299  0.750108  1
  Er  Er5  1  0.237362  0.000000  0.250000  1
  Er  Er6  1  0.670455  0.337507  0.498229  1
  Er  Er7  1  0.332947  0.662493  0.001771  1
  Lu  Lu8  1  0.332895  0.662143  0.497972  1
  Lu  Lu9  1  0.670753  0.337857  0.002028  1
  Sn  Sn10  1  0.395585  0.393180  0.249958  1
  Sn  Sn11  1  0.002406  0.606820  0.250042  1
  Sn  Sn12  1  0.999113  0.395809  0.749972  1
  Sn  Sn13  1  0.603304  0.604191  0.750028  1
  Sn  Sn14  1  0.605195  0.000000  0.250000  1
  Bi  Bi15  1  0.393141  0.000000  0.750000  1
