# generated using pymatgen
data_TbIn2(SnRh)4
_symmetry_space_group_name_H-M   'P 1'
_cell_length_a   6.99357732
_cell_length_b   6.99357678
_cell_length_c   6.96517573
_cell_angle_alpha   120.49745082
_cell_angle_beta   120.49745089
_cell_angle_gamma   89.37671212
_symmetry_Int_Tables_number   1
_chemical_formula_structural   TbIn2(SnRh)4
_chemical_formula_sum   'Tb1 In2 Sn4 Rh4'
_cell_volume   238.55795794
_cell_formula_units_Z   1
loop_
 _symmetry_equiv_pos_site_id
 _symmetry_equiv_pos_as_xyz
  1  'x, y, z'
loop_
 _atom_site_type_symbol
 _atom_site_label
 _atom_site_symmetry_multiplicity
 _atom_site_fract_x
 _atom_site_fract_y
 _atom_site_fract_z
 _atom_site_occupancy
  Tb  Tb0  1  0.999908  0.999908  0.000000  1
  In  In1  1  0.876700  0.539441  0.000000  1
  In  In2  1  0.539441  0.876700  0.000000  1
  Sn  Sn3  1  0.460248  0.460248  0.334450  1
  Sn  Sn4  1  0.498836  0.998836  0.500000  1
  Sn  Sn5  1  0.998836  0.498836  0.500000  1
  Sn  Sn6  1  0.125796  0.125796  0.665550  1
  Rh  Rh7  1  0.604104  0.250542  0.000000  1
  Rh  Rh8  1  0.250542  0.604104  0.000000  1
  Rh  Rh9  1  0.760342  0.760342  0.375093  1
  Rh  Rh10  1  0.385250  0.385250  0.624908  1
