# generated using pymatgen
data_ErTm2As4Rh7
_symmetry_space_group_name_H-M   'P 1'
_cell_length_a   7.90410355
_cell_length_b   7.90410386
_cell_length_c   9.38628900
_cell_angle_alpha   56.79579481
_cell_angle_beta   56.79579332
_cell_angle_gamma   29.48053379
_symmetry_Int_Tables_number   1
_chemical_formula_structural   ErTm2As4Rh7
_chemical_formula_sum   'Er1 Tm2 As4 Rh7'
_cell_volume   237.86114128
_cell_formula_units_Z   1
loop_
 _symmetry_equiv_pos_site_id
 _symmetry_equiv_pos_as_xyz
  1  'x, y, z'
loop_
 _atom_site_type_symbol
 _atom_site_label
 _atom_site_symmetry_multiplicity
 _atom_site_fract_x
 _atom_site_fract_y
 _atom_site_fract_z
 _atom_site_occupancy
  Er  Er0  1  0.500000  0.500000  0.500000  1
  Tm  Tm1  1  0.834377  0.834377  0.158527  1
  Tm  Tm2  1  0.165623  0.165623  0.841473  1
  As  As3  1  0.390823  0.390823  0.329614  1
  As  As4  1  0.609177  0.609177  0.670386  1
  As  As5  1  0.832274  0.832274  0.769716  1
  As  As6  1  0.167726  0.167726  0.230284  1
  Rh  Rh7  1  0.667085  0.667085  0.073197  1
  Rh  Rh8  1  0.009030  0.009030  0.221006  1
  Rh  Rh9  1  0.990970  0.990970  0.778994  1
  Rh  Rh10  1  0.500000  0.500000  0.000000  1
  Rh  Rh11  1  0.197587  0.197587  0.459803  1
  Rh  Rh12  1  0.802413  0.802413  0.540197  1
  Rh  Rh13  1  0.332915  0.332915  0.926803  1
