# generated using pymatgen
data_Ta5NbAl4(AuC)2
_symmetry_space_group_name_H-M   'P 1'
_cell_length_a   8.43900969
_cell_length_b   8.43900937
_cell_length_c   8.43195165
_cell_angle_alpha   59.89369671
_cell_angle_beta   59.89369672
_cell_angle_gamma   59.94108106
_symmetry_Int_Tables_number   1
_chemical_formula_structural   Ta5NbAl4(AuC)2
_chemical_formula_sum   'Ta10 Nb2 Al8 Au4 C4'
_cell_volume   423.74369302
_cell_formula_units_Z   2
loop_
 _symmetry_equiv_pos_site_id
 _symmetry_equiv_pos_as_xyz
  1  'x, y, z'
loop_
 _atom_site_type_symbol
 _atom_site_label
 _atom_site_symmetry_multiplicity
 _atom_site_fract_x
 _atom_site_fract_y
 _atom_site_fract_z
 _atom_site_occupancy
  Ta  Ta0  1  0.679155  0.320944  0.321080  1
  Ta  Ta1  1  0.320810  0.678855  0.320863  1
  Ta  Ta2  1  0.679799  0.678848  0.320735  1
  Ta  Ta3  1  0.320744  0.320656  0.679240  1
  Ta  Ta4  1  0.571152  0.570201  0.929265  1
  Ta  Ta5  1  0.929246  0.570438  0.570981  1
  Ta  Ta6  1  0.571145  0.929190  0.929137  1
  Ta  Ta7  1  0.929344  0.929256  0.570760  1
  Ta  Ta8  1  0.679562  0.320754  0.679019  1
  Ta  Ta9  1  0.929056  0.570845  0.928920  1
  Nb  Nb10  1  0.569808  0.930328  0.569375  1
  Nb  Nb11  1  0.319672  0.680192  0.680625  1
  Al  Al12  1  0.914142  0.913869  0.913846  1
  Al  Al13  1  0.991799  0.336076  0.336045  1
  Al  Al14  1  0.336099  0.991545  0.336525  1
  Al  Al15  1  0.336014  0.336478  0.991472  1
  Al  Al16  1  0.913924  0.258201  0.913955  1
  Al  Al17  1  0.913522  0.913986  0.258528  1
  Al  Al18  1  0.258455  0.913901  0.913475  1
  Al  Al19  1  0.336131  0.335858  0.336154  1
  Au  Au20  1  0.124866  0.125134  0.125000  1
  Au  Au21  1  0.625113  0.125325  0.124359  1
  Au  Au22  1  0.124675  0.624887  0.125641  1
  Au  Au23  1  0.124025  0.125975  0.625000  1
  C  C24  1  0.626863  0.623137  0.625000  1
  C  C25  1  0.124195  0.624560  0.624815  1
  C  C26  1  0.625440  0.125805  0.625185  1
  C  C27  1  0.625244  0.624756  0.125000  1
