# generated using pymatgen
data_NdEr6Sn23Os6
_symmetry_space_group_name_H-M   'P 1'
_cell_length_a   9.85682800
_cell_length_b   9.85682761
_cell_length_c   10.11194800
_cell_angle_alpha   90.00000000
_cell_angle_beta   90.00000000
_cell_angle_gamma   120.00000130
_symmetry_Int_Tables_number   1
_chemical_formula_structural   NdEr6Sn23Os6
_chemical_formula_sum   'Nd1 Er6 Sn23 Os6'
_cell_volume   850.82411956
_cell_formula_units_Z   1
loop_
 _symmetry_equiv_pos_site_id
 _symmetry_equiv_pos_as_xyz
  1  'x, y, z'
loop_
 _atom_site_type_symbol
 _atom_site_label
 _atom_site_symmetry_multiplicity
 _atom_site_fract_x
 _atom_site_fract_y
 _atom_site_fract_z
 _atom_site_occupancy
  Nd  Nd0  1  0.000000  0.000000  0.000000  1
  Er  Er1  1  0.486897  0.513103  0.301036  1
  Er  Er2  1  0.513103  0.486897  0.698964  1
  Er  Er3  1  0.486897  0.973797  0.301036  1
  Er  Er4  1  0.513103  0.026203  0.698964  1
  Er  Er5  1  0.026203  0.513103  0.301036  1
  Er  Er6  1  0.973797  0.486897  0.698964  1
  Sn  Sn7  1  0.118149  0.881851  0.277715  1
  Sn  Sn8  1  0.881851  0.118149  0.722285  1
  Sn  Sn9  1  0.118149  0.236296  0.277715  1
  Sn  Sn10  1  0.881851  0.763704  0.722285  1
  Sn  Sn11  1  0.763704  0.881851  0.277715  1
  Sn  Sn12  1  0.236296  0.118149  0.722285  1
  Sn  Sn13  1  0.779107  0.220893  0.464246  1
  Sn  Sn14  1  0.220893  0.779107  0.535754  1
  Sn  Sn15  1  0.779107  0.558214  0.464246  1
  Sn  Sn16  1  0.220893  0.441786  0.535754  1
  Sn  Sn17  1  0.441786  0.220893  0.464246  1
  Sn  Sn18  1  0.558214  0.779107  0.535754  1
  Sn  Sn19  1  0.350334  0.000000  0.000000  1
  Sn  Sn20  1  0.649666  0.000000  0.000000  1
  Sn  Sn21  1  0.000000  0.350334  0.000000  1
  Sn  Sn22  1  0.000000  0.649666  0.000000  1
  Sn  Sn23  1  0.649666  0.649666  0.000000  1
  Sn  Sn24  1  0.350334  0.350334  0.000000  1
  Sn  Sn25  1  0.333333  0.666667  0.134050  1
  Sn  Sn26  1  0.666667  0.333333  0.865950  1
  Sn  Sn27  1  0.333333  0.666667  0.828280  1
  Sn  Sn28  1  0.666667  0.333333  0.171720  1
  Sn  Sn29  1  0.000000  0.000000  0.500000  1
  Os  Os30  1  0.828929  0.171071  0.203047  1
  Os  Os31  1  0.171071  0.828929  0.796953  1
  Os  Os32  1  0.828929  0.657859  0.203047  1
  Os  Os33  1  0.171071  0.342141  0.796953  1
  Os  Os34  1  0.342141  0.171071  0.203047  1
  Os  Os35  1  0.657859  0.828929  0.796953  1
