# generated using pymatgen
data_Tm4TcB12Os
_symmetry_space_group_name_H-M   'P 1'
_cell_length_a   3.62753100
_cell_length_b   9.08085676
_cell_length_c   11.46141272
_cell_angle_alpha   89.89585342
_cell_angle_beta   90.00000000
_cell_angle_gamma   90.00000000
_symmetry_Int_Tables_number   1
_chemical_formula_structural   Tm4TcB12Os
_chemical_formula_sum   'Tm8 Tc2 B24 Os2'
_cell_volume   377.55079743
_cell_formula_units_Z   2
loop_
 _symmetry_equiv_pos_site_id
 _symmetry_equiv_pos_as_xyz
  1  'x, y, z'
loop_
 _atom_site_type_symbol
 _atom_site_label
 _atom_site_symmetry_multiplicity
 _atom_site_fract_x
 _atom_site_fract_y
 _atom_site_fract_z
 _atom_site_occupancy
  Tm  Tm0  1  0.000000  0.324629  0.415345  1
  Tm  Tm1  1  0.000000  0.675371  0.584655  1
  Tm  Tm2  1  0.000000  0.820516  0.087614  1
  Tm  Tm3  1  0.000000  0.179484  0.912386  1
  Tm  Tm4  1  0.000000  0.941757  0.371151  1
  Tm  Tm5  1  0.000000  0.058243  0.628850  1
  Tm  Tm6  1  0.000000  0.443789  0.129757  1
  Tm  Tm7  1  0.000000  0.556211  0.870242  1
  Tc  Tc8  1  0.000000  0.638232  0.320318  1
  Tc  Tc9  1  0.000000  0.361768  0.679682  1
  B  B10  1  0.500000  0.553082  0.433361  1
  B  B11  1  0.500000  0.446918  0.566639  1
  B  B12  1  0.500000  0.053525  0.066492  1
  B  B13  1  0.500000  0.946475  0.933508  1
  B  B14  1  0.500000  0.748846  0.419414  1
  B  B15  1  0.500000  0.251154  0.580586  1
  B  B16  1  0.500000  0.249237  0.080768  1
  B  B17  1  0.500000  0.750763  0.919232  1
  B  B18  1  0.500000  0.791920  0.265089  1
  B  B19  1  0.500000  0.208080  0.734911  1
  B  B20  1  0.500000  0.291212  0.234615  1
  B  B21  1  0.500000  0.708787  0.765385  1
  B  B22  1  0.500000  0.631115  0.184818  1
  B  B23  1  0.500000  0.368885  0.815182  1
  B  B24  1  0.500000  0.130603  0.314503  1
  B  B25  1  0.500000  0.869397  0.685497  1
  B  B26  1  0.500000  0.981992  0.212082  1
  B  B27  1  0.500000  0.018008  0.787918  1
  B  B28  1  0.500000  0.481873  0.287557  1
  B  B29  1  0.500000  0.518127  0.712443  1
  B  B30  1  0.500000  0.602792  0.028235  1
  B  B31  1  0.500000  0.397208  0.971765  1
  B  B32  1  0.500000  0.102795  0.471140  1
  B  B33  1  0.500000  0.897205  0.528860  1
  Os  Os34  1  0.000000  0.137392  0.178182  1
  Os  Os35  1  0.000000  0.862608  0.821818  1
