# generated using pymatgen
data_SrSn2F6
_symmetry_space_group_name_H-M   'P 1'
_cell_length_a   4.60887489
_cell_length_b   7.66358574
_cell_length_c   10.29806038
_cell_angle_alpha   98.54087987
_cell_angle_beta   101.55954135
_cell_angle_gamma   93.23133722
_symmetry_Int_Tables_number   1
_chemical_formula_structural   SrSn2F6
_chemical_formula_sum   'Sr2 Sn4 F12'
_cell_volume   351.00798220
_cell_formula_units_Z   2
loop_
 _symmetry_equiv_pos_site_id
 _symmetry_equiv_pos_as_xyz
  1  'x, y, z'
loop_
 _atom_site_type_symbol
 _atom_site_label
 _atom_site_symmetry_multiplicity
 _atom_site_fract_x
 _atom_site_fract_y
 _atom_site_fract_z
 _atom_site_occupancy
  Sr  Sr0  1  0.392418  0.254725  0.054354  1
  Sr  Sr1  1  0.607582  0.745275  0.945646  1
  Sn  Sn2  1  0.357139  0.788526  0.267698  1
  Sn  Sn3  1  0.642861  0.211474  0.732302  1
  Sn  Sn4  1  0.983849  0.715449  0.629228  1
  Sn  Sn5  1  0.016151  0.284551  0.370772  1
  F  F6  1  0.909325  0.440286  0.613348  1
  F  F7  1  0.090675  0.559714  0.386652  1
  F  F8  1  0.056296  0.732799  0.845205  1
  F  F9  1  0.943704  0.267201  0.154795  1
  F  F10  1  0.902054  0.790942  0.185215  1
  F  F11  1  0.097946  0.209058  0.814785  1
  F  F12  1  0.619459  0.049502  0.887966  1
  F  F13  1  0.380541  0.950498  0.112034  1
  F  F14  1  0.539673  0.308656  0.312669  1
  F  F15  1  0.460327  0.691344  0.687331  1
  F  F16  1  0.644906  0.417439  0.894575  1
  F  F17  1  0.355094  0.582561  0.105425  1
