# generated using pymatgen
data_YTh3(Al3Ir)6
_symmetry_space_group_name_H-M   'P 1'
_cell_length_a   7.64006352
_cell_length_b   7.64700723
_cell_length_c   9.51216200
_cell_angle_alpha   90.00000000
_cell_angle_beta   90.00000000
_cell_angle_gamma   119.48367122
_symmetry_Int_Tables_number   1
_chemical_formula_structural   YTh3(Al3Ir)6
_chemical_formula_sum   'Y1 Th3 Al18 Ir6'
_cell_volume   483.76504713
_cell_formula_units_Z   1
loop_
 _symmetry_equiv_pos_site_id
 _symmetry_equiv_pos_as_xyz
  1  'x, y, z'
loop_
 _atom_site_type_symbol
 _atom_site_label
 _atom_site_symmetry_multiplicity
 _atom_site_fract_x
 _atom_site_fract_y
 _atom_site_fract_z
 _atom_site_occupancy
  Y  Y0  1  0.328689  0.005845  0.750000  1
  Th  Th1  1  0.995192  0.671184  0.250000  1
  Th  Th2  1  0.003694  0.329166  0.750000  1
  Th  Th3  1  0.670285  0.994648  0.250000  1
  Al  Al4  1  0.135078  0.132528  0.250000  1
  Al  Al5  1  0.870210  0.869307  0.750000  1
  Al  Al6  1  0.005732  0.335774  0.074458  1
  Al  Al7  1  0.000030  0.669139  0.922883  1
  Al  Al8  1  0.000030  0.669139  0.577117  1
  Al  Al9  1  0.335284  0.004228  0.430992  1
  Al  Al10  1  0.005732  0.335774  0.425542  1
  Al  Al11  1  0.659914  0.995519  0.577060  1
  Al  Al12  1  0.659914  0.995519  0.922940  1
  Al  Al13  1  0.335284  0.004228  0.069008  1
  Al  Al14  1  0.335915  0.332831  0.552769  1
  Al  Al15  1  0.663414  0.663331  0.454438  1
  Al  Al16  1  0.663414  0.663331  0.045562  1
  Al  Al17  1  0.335915  0.332831  0.947231  1
  Al  Al18  1  0.341683  0.544536  0.250000  1
  Al  Al19  1  0.657095  0.450434  0.750000  1
  Al  Al20  1  0.544522  0.338944  0.250000  1
  Al  Al21  1  0.452931  0.661460  0.750000  1
  Ir  Ir22  1  0.674121  0.328543  0.000398  1
  Ir  Ir23  1  0.327332  0.671497  0.000551  1
  Ir  Ir24  1  0.327332  0.671497  0.499449  1
  Ir  Ir25  1  0.674121  0.328543  0.499602  1
  Ir  Ir26  1  0.998568  0.000112  0.000653  1
  Ir  Ir27  1  0.998568  0.000112  0.499347  1
