# generated using pymatgen
data_Al11CrRe2Rh
_symmetry_space_group_name_H-M   'P 1'
_cell_length_a   5.15250107
_cell_length_b   5.16414659
_cell_length_c   9.00408400
_cell_angle_alpha   105.32077344
_cell_angle_beta   90.28795345
_cell_angle_gamma   100.19657635
_symmetry_Int_Tables_number   1
_chemical_formula_structural   Al11CrRe2Rh
_chemical_formula_sum   'Al11 Cr1 Re2 Rh1'
_cell_volume   227.08039565
_cell_formula_units_Z   1
loop_
 _symmetry_equiv_pos_site_id
 _symmetry_equiv_pos_as_xyz
  1  'x, y, z'
loop_
 _atom_site_type_symbol
 _atom_site_label
 _atom_site_symmetry_multiplicity
 _atom_site_fract_x
 _atom_site_fract_y
 _atom_site_fract_z
 _atom_site_occupancy
  Al  Al0  1  0.796060  0.252944  0.630590  1
  Al  Al1  1  0.200978  0.741822  0.366992  1
  Al  Al2  1  0.145381  0.468096  0.874419  1
  Al  Al3  1  0.854536  0.540528  0.133327  1
  Al  Al4  1  0.999303  0.998032  0.998731  1
  Al  Al5  1  0.507782  0.096410  0.878463  1
  Al  Al6  1  0.500192  0.902849  0.132678  1
  Al  Al7  1  0.574184  0.330468  0.376626  1
  Al  Al8  1  0.436296  0.682177  0.621553  1
  Al  Al9  1  0.938228  0.799404  0.659203  1
  Al  Al10  1  0.045679  0.184764  0.324285  1
  Cr  Cr11  1  0.719787  0.852070  0.403569  1
  Re  Re12  1  0.661482  0.604821  0.863614  1
  Re  Re13  1  0.338151  0.386775  0.132830  1
  Rh  Rh14  1  0.281959  0.158839  0.603119  1
