# generated using pymatgen
data_PaCrB4
_symmetry_space_group_name_H-M   'P 1'
_cell_length_a   5.91518100
_cell_length_b   11.43912200
_cell_length_c   3.54859600
_cell_angle_alpha   90.00000000
_cell_angle_beta   90.00000000
_cell_angle_gamma   90.00000000
_symmetry_Int_Tables_number   1
_chemical_formula_structural   PaCrB4
_chemical_formula_sum   'Pa4 Cr4 B16'
_cell_volume   240.11389282
_cell_formula_units_Z   4
loop_
 _symmetry_equiv_pos_site_id
 _symmetry_equiv_pos_as_xyz
  1  'x, y, z'
loop_
 _atom_site_type_symbol
 _atom_site_label
 _atom_site_symmetry_multiplicity
 _atom_site_fract_x
 _atom_site_fract_y
 _atom_site_fract_z
 _atom_site_occupancy
  Pa  Pa0  1  0.624742  0.349172  0.000000  1
  Pa  Pa1  1  0.375258  0.650828  0.000000  1
  Pa  Pa2  1  0.124742  0.150828  0.000000  1
  Pa  Pa3  1  0.875258  0.849172  0.000000  1
  Cr  Cr4  1  0.629985  0.086733  0.000000  1
  Cr  Cr5  1  0.370015  0.913267  0.000000  1
  Cr  Cr6  1  0.129985  0.413267  0.000000  1
  Cr  Cr7  1  0.870015  0.586733  0.000000  1
  B  B8  1  0.782338  0.185025  0.500000  1
  B  B9  1  0.217662  0.814975  0.500000  1
  B  B10  1  0.282338  0.314975  0.500000  1
  B  B11  1  0.717662  0.685025  0.500000  1
  B  B12  1  0.862229  0.032528  0.500000  1
  B  B13  1  0.137771  0.967472  0.500000  1
  B  B14  1  0.362229  0.467472  0.500000  1
  B  B15  1  0.637771  0.532528  0.500000  1
  B  B16  1  0.887620  0.454189  0.500000  1
  B  B17  1  0.112380  0.545811  0.500000  1
  B  B18  1  0.387620  0.045811  0.500000  1
  B  B19  1  0.612380  0.954189  0.500000  1
  B  B20  1  0.973088  0.309275  0.500000  1
  B  B21  1  0.026912  0.690725  0.500000  1
  B  B22  1  0.473088  0.190725  0.500000  1
  B  B23  1  0.526912  0.809275  0.500000  1
