# generated using pymatgen
data_Eu2BC11
_symmetry_space_group_name_H-M   'P 1'
_cell_length_a   4.39085744
_cell_length_b   4.39085739
_cell_length_c   9.60890004
_cell_angle_alpha   91.26930267
_cell_angle_beta   88.73069712
_cell_angle_gamma   120.02570950
_symmetry_Int_Tables_number   1
_chemical_formula_structural   Eu2BC11
_chemical_formula_sum   'Eu2 B1 C11'
_cell_volume   160.34237978
_cell_formula_units_Z   1
loop_
 _symmetry_equiv_pos_site_id
 _symmetry_equiv_pos_as_xyz
  1  'x, y, z'
loop_
 _atom_site_type_symbol
 _atom_site_label
 _atom_site_symmetry_multiplicity
 _atom_site_fract_x
 _atom_site_fract_y
 _atom_site_fract_z
 _atom_site_occupancy
  Eu  Eu0  1  0.330571  0.688358  0.251274  1
  Eu  Eu1  1  0.688358  0.330571  0.748726  1
  B  B2  1  0.327798  0.327798  0.500000  1
  C  C3  1  0.661861  0.994673  0.499608  1
  C  C4  1  0.994673  0.661861  0.500392  1
  C  C5  1  0.673475  0.673475  0.500000  1
  C  C6  1  0.983840  0.328907  0.496872  1
  C  C7  1  0.328907  0.983840  0.503128  1
  C  C8  1  0.668520  0.668520  0.000000  1
  C  C9  1  0.335145  0.001788  0.999269  1
  C  C10  1  0.001788  0.335145  0.000731  1
  C  C11  1  0.334946  0.334946  0.000000  1
  C  C12  1  0.001721  0.668398  0.000368  1
  C  C13  1  0.668398  0.001721  0.999632  1
