# generated using pymatgen
data_Tb2LuPa(InPd2)2
_symmetry_space_group_name_H-M   'P 1'
_cell_length_a   7.80952200
_cell_length_b   7.80952153
_cell_length_c   3.68082700
_cell_angle_alpha   90.00000000
_cell_angle_beta   90.00000000
_cell_angle_gamma   91.59518793
_symmetry_Int_Tables_number   1
_chemical_formula_structural   Tb2LuPa(InPd2)2
_chemical_formula_sum   'Tb2 Lu1 Pa1 In2 Pd4'
_cell_volume   224.40159761
_cell_formula_units_Z   1
loop_
 _symmetry_equiv_pos_site_id
 _symmetry_equiv_pos_as_xyz
  1  'x, y, z'
loop_
 _atom_site_type_symbol
 _atom_site_label
 _atom_site_symmetry_multiplicity
 _atom_site_fract_x
 _atom_site_fract_y
 _atom_site_fract_z
 _atom_site_occupancy
  Tb  Tb0  1  0.824823  0.669646  0.500000  1
  Tb  Tb1  1  0.169646  0.324823  0.500000  1
  Lu  Lu2  1  0.675218  0.175218  0.500000  1
  Pa  Pa3  1  0.331324  0.831324  0.500000  1
  In  In4  1  0.995035  0.000124  0.000000  1
  In  In5  1  0.500124  0.495035  0.000000  1
  Pd  Pd6  1  0.370859  0.119376  0.000000  1
  Pd  Pd7  1  0.874296  0.374296  0.000000  1
  Pd  Pd8  1  0.139299  0.639299  0.000000  1
  Pd  Pd9  1  0.619376  0.870859  0.000000  1
