# generated using pymatgen
data_Mn2Al(GaIr2)3
_symmetry_space_group_name_H-M   'P 1'
_cell_length_a   4.30710700
_cell_length_b   6.08665000
_cell_length_c   12.93753100
_cell_angle_alpha   90.00000000
_cell_angle_beta   89.99755720
_cell_angle_gamma   90.00000000
_symmetry_Int_Tables_number   1
_chemical_formula_structural   Mn2Al(GaIr2)3
_chemical_formula_sum   'Mn4 Al2 Ga6 Ir12'
_cell_volume   339.16840849
_cell_formula_units_Z   2
loop_
 _symmetry_equiv_pos_site_id
 _symmetry_equiv_pos_as_xyz
  1  'x, y, z'
loop_
 _atom_site_type_symbol
 _atom_site_label
 _atom_site_symmetry_multiplicity
 _atom_site_fract_x
 _atom_site_fract_y
 _atom_site_fract_z
 _atom_site_occupancy
  Mn  Mn0  1  0.999878  0.500001  0.332667  1
  Mn  Mn1  1  0.500003  0.000000  0.498949  1
  Mn  Mn2  1  0.000116  0.500001  0.667712  1
  Mn  Mn3  1  0.500112  0.000000  0.834013  1
  Al  Al4  1  0.999992  0.500001  0.000766  1
  Al  Al5  1  0.499884  0.000000  0.165907  1
  Ga  Ga6  1  0.999989  0.000000  0.996663  1
  Ga  Ga7  1  0.499897  0.500001  0.169955  1
  Ga  Ga8  1  0.999871  0.000000  0.337144  1
  Ga  Ga9  1  0.500000  0.500001  0.498866  1
  Ga  Ga10  1  0.000126  0.000000  0.667811  1
  Ga  Ga11  1  0.500120  0.500001  0.829546  1
  Ir  Ir12  1  0.499991  0.252896  0.002867  1
  Ir  Ir13  1  0.499991  0.747104  0.002867  1
  Ir  Ir14  1  0.999900  0.247084  0.163802  1
  Ir  Ir15  1  0.999900  0.752916  0.163802  1
  Ir  Ir16  1  0.499876  0.245620  0.329328  1
  Ir  Ir17  1  0.499876  0.754380  0.329328  1
  Ir  Ir18  1  0.000006  0.252170  0.500374  1
  Ir  Ir19  1  0.000006  0.747830  0.500374  1
  Ir  Ir20  1  0.500125  0.247871  0.666315  1
  Ir  Ir21  1  0.500125  0.752129  0.666315  1
  Ir  Ir22  1  0.000114  0.254406  0.837311  1
  Ir  Ir23  1  0.000114  0.745594  0.837311  1
