# generated using pymatgen
data_MgScZnB2Ir5
_symmetry_space_group_name_H-M   'P 1'
_cell_length_a   9.48680892
_cell_length_b   9.48680892
_cell_length_c   2.97226600
_cell_angle_alpha   90.00000000
_cell_angle_beta   90.00000000
_cell_angle_gamma   89.25979119
_symmetry_Int_Tables_number   1
_chemical_formula_structural   MgScZnB2Ir5
_chemical_formula_sum   'Mg2 Sc2 Zn2 B4 Ir10'
_cell_volume   267.48026004
_cell_formula_units_Z   2
loop_
 _symmetry_equiv_pos_site_id
 _symmetry_equiv_pos_as_xyz
  1  'x, y, z'
loop_
 _atom_site_type_symbol
 _atom_site_label
 _atom_site_symmetry_multiplicity
 _atom_site_fract_x
 _atom_site_fract_y
 _atom_site_fract_z
 _atom_site_occupancy
  Mg  Mg0  1  0.824098  0.675902  0.000000  1
  Mg  Mg1  1  0.175902  0.324098  0.000000  1
  Sc  Sc2  1  0.322226  0.822226  0.000000  1
  Sc  Sc3  1  0.677774  0.177774  0.000000  1
  Zn  Zn4  1  0.000000  0.000000  0.000000  1
  Zn  Zn5  1  0.500000  0.500000  0.000000  1
  B  B6  1  0.124517  0.624517  0.000000  1
  B  B7  1  0.875483  0.375483  0.000000  1
  B  B8  1  0.627865  0.872135  0.000000  1
  B  B9  1  0.372135  0.127865  0.000000  1
  Ir  Ir10  1  0.215482  0.069748  0.500000  1
  Ir  Ir11  1  0.784519  0.930252  0.500000  1
  Ir  Ir12  1  0.715567  0.430145  0.500000  1
  Ir  Ir13  1  0.284433  0.569855  0.500000  1
  Ir  Ir14  1  0.430252  0.284518  0.500000  1
  Ir  Ir15  1  0.569748  0.715482  0.500000  1
  Ir  Ir16  1  0.069855  0.784434  0.500000  1
  Ir  Ir17  1  0.930145  0.215567  0.500000  1
  Ir  Ir18  1  0.000000  0.500000  0.500000  1
  Ir  Ir19  1  0.500000  0.000000  0.500000  1
