# generated using pymatgen
data_Tb16MgCd3(NiRu)2
_symmetry_space_group_name_H-M   'P 1'
_cell_length_a   9.64963554
_cell_length_b   9.64963397
_cell_length_c   9.68608325
_cell_angle_alpha   59.59850105
_cell_angle_beta   59.59850759
_cell_angle_gamma   59.47620611
_symmetry_Int_Tables_number   1
_chemical_formula_structural   Tb16MgCd3(NiRu)2
_chemical_formula_sum   'Tb16 Mg1 Cd3 Ni2 Ru2'
_cell_volume   631.34219800
_cell_formula_units_Z   1
loop_
 _symmetry_equiv_pos_site_id
 _symmetry_equiv_pos_as_xyz
  1  'x, y, z'
loop_
 _atom_site_type_symbol
 _atom_site_label
 _atom_site_symmetry_multiplicity
 _atom_site_fract_x
 _atom_site_fract_y
 _atom_site_fract_z
 _atom_site_occupancy
  Tb  Tb0  1  0.349239  0.349239  0.345152  1
  Tb  Tb1  1  0.349729  0.349729  0.959302  1
  Tb  Tb2  1  0.350080  0.958164  0.345788  1
  Tb  Tb3  1  0.958164  0.350080  0.345788  1
  Tb  Tb4  1  0.810721  0.187846  0.189528  1
  Tb  Tb5  1  0.185378  0.812231  0.812547  1
  Tb  Tb6  1  0.187846  0.810721  0.189528  1
  Tb  Tb7  1  0.812231  0.185378  0.812547  1
  Tb  Tb8  1  0.188647  0.188647  0.810708  1
  Tb  Tb9  1  0.810998  0.810998  0.189618  1
  Tb  Tb10  1  0.938294  0.559461  0.567054  1
  Tb  Tb11  1  0.558139  0.938487  0.937993  1
  Tb  Tb12  1  0.559461  0.938294  0.567054  1
  Tb  Tb13  1  0.938487  0.558139  0.937993  1
  Tb  Tb14  1  0.566540  0.566540  0.935991  1
  Tb  Tb15  1  0.939320  0.939320  0.561685  1
  Mg  Mg16  1  0.574385  0.574385  0.576820  1
  Cd  Cd17  1  0.579667  0.579667  0.256552  1
  Cd  Cd18  1  0.580960  0.255233  0.580292  1
  Cd  Cd19  1  0.255233  0.580960  0.580292  1
  Ni  Ni20  1  0.142182  0.575992  0.142398  1
  Ni  Ni21  1  0.575992  0.142182  0.142398  1
  Ru  Ru22  1  0.143889  0.143889  0.137885  1
  Ru  Ru23  1  0.144413  0.144413  0.575085  1
