# generated using pymatgen
data_NdHoTh2(Al8Pt3)3
_symmetry_space_group_name_H-M   'P 1'
_cell_length_a   7.59505747
_cell_length_b   7.60913903
_cell_length_c   13.22670488
_cell_angle_alpha   84.50853943
_cell_angle_beta   78.96401545
_cell_angle_gamma   59.95023545
_symmetry_Int_Tables_number   1
_chemical_formula_structural   NdHoTh2(Al8Pt3)3
_chemical_formula_sum   'Nd1 Ho1 Th2 Al24 Pt9'
_cell_volume   649.41802725
_cell_formula_units_Z   1
loop_
 _symmetry_equiv_pos_site_id
 _symmetry_equiv_pos_as_xyz
  1  'x, y, z'
loop_
 _atom_site_type_symbol
 _atom_site_label
 _atom_site_symmetry_multiplicity
 _atom_site_fract_x
 _atom_site_fract_y
 _atom_site_fract_z
 _atom_site_occupancy
  Nd  Nd0  1  0.732897  0.498176  0.808761  1
  Ho  Ho1  1  0.266051  0.501500  0.193875  1
  Th  Th2  1  0.395154  0.168056  0.806391  1
  Th  Th3  1  0.604743  0.832071  0.193725  1
  Al  Al4  1  0.687422  0.832861  0.945685  1
  Al  Al5  1  0.312308  0.169679  0.056303  1
  Al  Al6  1  0.146006  0.832830  0.560817  1
  Al  Al7  1  0.854356  0.166798  0.438334  1
  Al  Al8  1  0.481125  0.167219  0.557129  1
  Al  Al9  1  0.518894  0.832951  0.442040  1
  Al  Al10  1  0.212782  0.168802  0.333305  1
  Al  Al11  1  0.788162  0.832028  0.664657  1
  Al  Al12  1  0.437940  0.510461  0.665066  1
  Al  Al13  1  0.561447  0.489819  0.333058  1
  Al  Al14  1  0.109640  0.158781  0.663256  1
  Al  Al15  1  0.892130  0.840047  0.334644  1
  Al  Al16  1  0.348952  0.502476  0.947913  1
  Al  Al17  1  0.647026  0.497832  0.055781  1
  Al  Al18  1  0.014022  0.165564  0.956220  1
  Al  Al19  1  0.987171  0.832298  0.046258  1
  Al  Al20  1  0.186438  0.500020  0.440630  1
  Al  Al21  1  0.814124  0.500020  0.558190  1
  Al  Al22  1  0.734292  0.167451  0.183824  1
  Al  Al23  1  0.263371  0.834932  0.816224  1
  Al  Al24  1  0.061890  0.634037  0.814595  1
  Al  Al25  1  0.941072  0.365678  0.185373  1
  Al  Al26  1  0.860107  0.038074  0.815533  1
  Al  Al27  1  0.139676  0.958995  0.184387  1
  Pt  Pt28  1  0.122371  0.491791  0.637444  1
  Pt  Pt29  1  0.879425  0.508409  0.361315  1
  Pt  Pt30  1  0.656543  0.170881  0.000343  1
  Pt  Pt31  1  0.342635  0.829393  0.000746  1
  Pt  Pt32  1  0.537677  0.166242  0.361138  1
  Pt  Pt33  1  0.461393  0.835015  0.637638  1
  Pt  Pt34  1  0.779063  0.173824  0.636578  1
  Pt  Pt35  1  0.221676  0.824723  0.362144  1
  Pt  Pt36  1  0.000018  0.500264  0.000678  1
