# generated using pymatgen
data_Ba2Na2SrAs4
_symmetry_space_group_name_H-M   'P 1'
_cell_length_a   7.77734000
_cell_length_b   8.50343001
_cell_length_c   18.29711557
_cell_angle_alpha   62.13196692
_cell_angle_beta   90.00000000
_cell_angle_gamma   90.00000000
_symmetry_Int_Tables_number   1
_chemical_formula_structural   Ba2Na2SrAs4
_chemical_formula_sum   'Ba8 Na8 Sr4 As16'
_cell_volume   1069.72753112
_cell_formula_units_Z   4
loop_
 _symmetry_equiv_pos_site_id
 _symmetry_equiv_pos_as_xyz
  1  'x, y, z'
loop_
 _atom_site_type_symbol
 _atom_site_label
 _atom_site_symmetry_multiplicity
 _atom_site_fract_x
 _atom_site_fract_y
 _atom_site_fract_z
 _atom_site_occupancy
  Ba  Ba0  1  0.523617  0.589605  0.098906  1
  Ba  Ba1  1  0.023617  0.410395  0.401094  1
  Ba  Ba2  1  0.477148  0.716944  0.599464  1
  Ba  Ba3  1  0.977148  0.283056  0.900536  1
  Ba  Ba4  1  0.476383  0.410395  0.901094  1
  Ba  Ba5  1  0.976383  0.589605  0.598906  1
  Ba  Ba6  1  0.522852  0.283056  0.400536  1
  Ba  Ba7  1  0.022852  0.716944  0.099464  1
  Na  Na8  1  0.855037  0.257825  0.250917  1
  Na  Na9  1  0.355037  0.742175  0.249083  1
  Na  Na10  1  0.144963  0.742175  0.749083  1
  Na  Na11  1  0.644963  0.257825  0.750917  1
  Na  Na12  1  0.679545  0.049612  0.124347  1
  Na  Na13  1  0.179545  0.950388  0.375653  1
  Na  Na14  1  0.320455  0.950388  0.875653  1
  Na  Na15  1  0.820455  0.049612  0.624347  1
  Sr  Sr16  1  0.322305  0.189968  0.628455  1
  Sr  Sr17  1  0.822305  0.810032  0.871545  1
  Sr  Sr18  1  0.677695  0.810032  0.371545  1
  Sr  Sr19  1  0.177695  0.189968  0.128455  1
  As  As20  1  0.856714  0.432334  0.035812  1
  As  As21  1  0.356714  0.567666  0.464188  1
  As  As22  1  0.141732  0.997012  0.536590  1
  As  As23  1  0.641732  0.002988  0.963410  1
  As  As24  1  0.143286  0.567666  0.964188  1
  As  As25  1  0.643286  0.432334  0.535812  1
  As  As26  1  0.858268  0.002988  0.463410  1
  As  As27  1  0.358268  0.997012  0.036590  1
  As  As28  1  0.738193  0.633355  0.251526  1
  As  As29  1  0.238193  0.366645  0.248474  1
  As  As30  1  0.261807  0.366645  0.748474  1
  As  As31  1  0.761807  0.633355  0.751526  1
  As  As32  1  0.974918  0.842541  0.249747  1
  As  As33  1  0.474918  0.157459  0.250253  1
  As  As34  1  0.025082  0.157459  0.750253  1
  As  As35  1  0.525082  0.842541  0.749747  1
