# generated using pymatgen
data_Cs3Y(IO3)6
_symmetry_space_group_name_H-M   'P 1'
_cell_length_a   7.45182658
_cell_length_b   7.44194340
_cell_length_c   11.30367747
_cell_angle_alpha   87.77369180
_cell_angle_beta   107.59686500
_cell_angle_gamma   107.38120523
_symmetry_Int_Tables_number   1
_chemical_formula_structural   Cs3Y(IO3)6
_chemical_formula_sum   'Cs3 Y1 I6 O18'
_cell_volume   569.32788066
_cell_formula_units_Z   1
loop_
 _symmetry_equiv_pos_site_id
 _symmetry_equiv_pos_as_xyz
  1  'x, y, z'
loop_
 _atom_site_type_symbol
 _atom_site_label
 _atom_site_symmetry_multiplicity
 _atom_site_fract_x
 _atom_site_fract_y
 _atom_site_fract_z
 _atom_site_occupancy
  Cs  Cs0  1  0.000000  0.000000  0.000000  1
  Cs  Cs1  1  0.834309  0.028103  0.600007  1
  Cs  Cs2  1  0.165691  0.971897  0.399993  1
  Y  Y3  1  0.500000  0.500000  0.000000  1
  I  I4  1  0.020791  0.472785  0.191337  1
  I  I5  1  0.979209  0.527215  0.808663  1
  I  I6  1  0.557364  0.952401  0.190619  1
  I  I7  1  0.442636  0.047599  0.809381  1
  I  I8  1  0.422304  0.554806  0.640943  1
  I  I9  1  0.577696  0.445194  0.359057  1
  O  O10  1  0.833586  0.536295  0.057498  1
  O  O11  1  0.166414  0.463705  0.942502  1
  O  O12  1  0.952860  0.547504  0.318423  1
  O  O13  1  0.047140  0.452496  0.681577  1
  O  O14  1  0.917013  0.216614  0.185370  1
  O  O15  1  0.082987  0.783386  0.814630  1
  O  O16  1  0.569874  0.814236  0.060286  1
  O  O17  1  0.430126  0.185764  0.939714  1
  O  O18  1  0.300890  0.845462  0.186780  1
  O  O19  1  0.699110  0.154538  0.813220  1
  O  O20  1  0.687402  0.842620  0.321964  1
  O  O21  1  0.312598  0.157380  0.678036  1
  O  O22  1  0.520148  0.593381  0.812637  1
  O  O23  1  0.479852  0.406619  0.187363  1
  O  O24  1  0.659657  0.569142  0.617387  1
  O  O25  1  0.340343  0.430858  0.382613  1
  O  O26  1  0.411153  0.793268  0.607394  1
  O  O27  1  0.588847  0.206732  0.392606  1
