# generated using pymatgen
data_Tm2Co5RuC5
_symmetry_space_group_name_H-M   'P 1'
_cell_length_a   8.37614900
_cell_length_b   8.37614900
_cell_length_c   4.05207500
_cell_angle_alpha   90.00000000
_cell_angle_beta   90.00000000
_cell_angle_gamma   90.00000000
_symmetry_Int_Tables_number   1
_chemical_formula_structural   Tm2Co5RuC5
_chemical_formula_sum   'Tm4 Co10 Ru2 C10'
_cell_volume   284.29306362
_cell_formula_units_Z   2
loop_
 _symmetry_equiv_pos_site_id
 _symmetry_equiv_pos_as_xyz
  1  'x, y, z'
loop_
 _atom_site_type_symbol
 _atom_site_label
 _atom_site_symmetry_multiplicity
 _atom_site_fract_x
 _atom_site_fract_y
 _atom_site_fract_z
 _atom_site_occupancy
  Tm  Tm0  1  0.327676  0.827676  0.500000  1
  Tm  Tm1  1  0.827676  0.672324  0.500000  1
  Tm  Tm2  1  0.172324  0.327676  0.500000  1
  Tm  Tm3  1  0.672324  0.172324  0.500000  1
  Co  Co4  1  0.714293  0.429292  0.000000  1
  Co  Co5  1  0.429292  0.285707  0.000000  1
  Co  Co6  1  0.500000  0.000000  0.000000  1
  Co  Co7  1  0.000000  0.500000  0.000000  1
  Co  Co8  1  0.785707  0.929292  0.000000  1
  Co  Co9  1  0.929292  0.214293  0.000000  1
  Co  Co10  1  0.070708  0.785707  0.000000  1
  Co  Co11  1  0.214293  0.070708  0.000000  1
  Co  Co12  1  0.570708  0.714293  0.000000  1
  Co  Co13  1  0.285707  0.570708  0.000000  1
  Ru  Ru14  1  0.000000  0.000000  0.500000  1
  Ru  Ru15  1  0.500000  0.500000  0.500000  1
  C  C16  1  0.500000  0.500000  0.000000  1
  C  C17  1  0.000000  0.000000  0.000000  1
  C  C18  1  0.876987  0.376987  0.675464  1
  C  C19  1  0.123013  0.623013  0.675464  1
  C  C20  1  0.876987  0.376987  0.324536  1
  C  C21  1  0.376987  0.123013  0.324536  1
  C  C22  1  0.623013  0.876987  0.324536  1
  C  C23  1  0.123013  0.623013  0.324536  1
  C  C24  1  0.623013  0.876987  0.675464  1
  C  C25  1  0.376987  0.123013  0.675464  1
