# generated using pymatgen
data_Dy4Er(Cd2Ni)2
_symmetry_space_group_name_H-M   'P 1'
_cell_length_a   3.58204600
_cell_length_b   7.80920700
_cell_length_c   18.07597300
_cell_angle_alpha   90.00000000
_cell_angle_beta   90.00000000
_cell_angle_gamma   90.00000000
_symmetry_Int_Tables_number   1
_chemical_formula_structural   Dy4Er(Cd2Ni)2
_chemical_formula_sum   'Dy8 Er2 Cd8 Ni4'
_cell_volume   505.63808463
_cell_formula_units_Z   2
loop_
 _symmetry_equiv_pos_site_id
 _symmetry_equiv_pos_as_xyz
  1  'x, y, z'
loop_
 _atom_site_type_symbol
 _atom_site_label
 _atom_site_symmetry_multiplicity
 _atom_site_fract_x
 _atom_site_fract_y
 _atom_site_fract_z
 _atom_site_occupancy
  Dy  Dy0  1  0.500000  0.115572  0.088130  1
  Dy  Dy1  1  0.500000  0.751057  0.720671  1
  Dy  Dy2  1  0.500000  0.251057  0.779329  1
  Dy  Dy3  1  0.500000  0.499672  0.999446  1
  Dy  Dy4  1  0.500000  0.749693  0.220630  1
  Dy  Dy5  1  0.500000  0.249693  0.279370  1
  Dy  Dy6  1  0.500000  0.999672  0.500554  1
  Dy  Dy7  1  0.500000  0.615572  0.411870  1
  Er  Er8  1  0.500000  0.384413  0.589040  1
  Er  Er9  1  0.500000  0.884413  0.910960  1
  Cd  Cd10  1  0.000000  0.790089  0.068400  1
  Cd  Cd11  1  0.000000  0.932284  0.348866  1
  Cd  Cd12  1  0.000000  0.069449  0.651386  1
  Cd  Cd13  1  0.000000  0.569449  0.848614  1
  Cd  Cd14  1  0.000000  0.708178  0.569242  1
  Cd  Cd15  1  0.000000  0.208178  0.930758  1
  Cd  Cd16  1  0.000000  0.290089  0.431600  1
  Cd  Cd17  1  0.000000  0.432284  0.151134  1
  Ni  Ni18  1  0.000000  0.969193  0.804164  1
  Ni  Ni19  1  0.000000  0.530402  0.303892  1
  Ni  Ni20  1  0.000000  0.469193  0.695836  1
  Ni  Ni21  1  0.000000  0.030402  0.196108  1
