# generated using pymatgen
data_Dy2ThNi9
_symmetry_space_group_name_H-M   'P 1'
_cell_length_a   8.64191033
_cell_length_b   8.64191015
_cell_length_c   8.64191066
_cell_angle_alpha   33.31970755
_cell_angle_beta   33.31971073
_cell_angle_gamma   33.31970600
_symmetry_Int_Tables_number   1
_chemical_formula_structural   Dy2ThNi9
_chemical_formula_sum   'Dy2 Th1 Ni9'
_cell_volume   173.39577630
_cell_formula_units_Z   1
loop_
 _symmetry_equiv_pos_site_id
 _symmetry_equiv_pos_as_xyz
  1  'x, y, z'
loop_
 _atom_site_type_symbol
 _atom_site_label
 _atom_site_symmetry_multiplicity
 _atom_site_fract_x
 _atom_site_fract_y
 _atom_site_fract_z
 _atom_site_occupancy
  Dy  Dy0  1  0.140115  0.140115  0.140115  1
  Dy  Dy1  1  0.859885  0.859885  0.859885  1
  Th  Th2  1  0.000000  0.000000  0.000000  1
  Ni  Ni3  1  0.583764  0.583764  0.082098  1
  Ni  Ni4  1  0.333300  0.333300  0.333300  1
  Ni  Ni5  1  0.917903  0.416236  0.416235  1
  Ni  Ni6  1  0.416236  0.917903  0.416235  1
  Ni  Ni7  1  0.500000  0.500000  0.500000  1
  Ni  Ni8  1  0.082097  0.583764  0.583765  1
  Ni  Ni9  1  0.583764  0.082097  0.583765  1
  Ni  Ni10  1  0.666700  0.666700  0.666700  1
  Ni  Ni11  1  0.416236  0.416236  0.917902  1
