# generated using pymatgen
data_MnFeB2O5
_symmetry_space_group_name_H-M   'P 1'
_cell_length_a   3.32386260
_cell_length_b   6.25350824
_cell_length_c   9.59339104
_cell_angle_alpha   104.90961783
_cell_angle_beta   90.56538841
_cell_angle_gamma   91.60251913
_symmetry_Int_Tables_number   1
_chemical_formula_structural   MnFeB2O5
_chemical_formula_sum   'Mn2 Fe2 B4 O10'
_cell_volume   192.58747672
_cell_formula_units_Z   2
loop_
 _symmetry_equiv_pos_site_id
 _symmetry_equiv_pos_as_xyz
  1  'x, y, z'
loop_
 _atom_site_type_symbol
 _atom_site_label
 _atom_site_symmetry_multiplicity
 _atom_site_fract_x
 _atom_site_fract_y
 _atom_site_fract_z
 _atom_site_occupancy
  Mn  Mn0  1  0.252322  0.784173  0.634774  1
  Mn  Mn1  1  0.747695  0.215601  0.365320  1
  Fe  Fe2  1  0.766434  0.635733  0.900707  1
  Fe  Fe3  1  0.233183  0.364428  0.099301  1
  B  B4  1  0.315489  0.320541  0.651675  1
  B  B5  1  0.684323  0.679387  0.348325  1
  B  B6  1  0.669354  0.123247  0.830745  1
  B  B7  1  0.330942  0.876844  0.169225  1
  O  O8  1  0.783376  0.911154  0.818504  1
  O  O9  1  0.216976  0.088944  0.181550  1
  O  O10  1  0.451521  0.142732  0.705256  1
  O  O11  1  0.548527  0.857244  0.294766  1
  O  O12  1  0.741073  0.305771  0.943963  1
  O  O13  1  0.259443  0.694440  0.055927  1
  O  O14  1  0.268882  0.524408  0.745845  1
  O  O15  1  0.730356  0.475456  0.254127  1
  O  O16  1  0.246602  0.276850  0.507130  1
  O  O17  1  0.753500  0.723044  0.492861  1
