# generated using pymatgen
data_TbEr3Tm2FeBi2
_symmetry_space_group_name_H-M   'P 1'
_cell_length_a   8.27303610
_cell_length_b   8.26176725
_cell_length_c   4.16498600
_cell_angle_alpha   90.00000000
_cell_angle_beta   90.00000000
_cell_angle_gamma   120.01292952
_symmetry_Int_Tables_number   1
_chemical_formula_structural   TbEr3Tm2FeBi2
_chemical_formula_sum   'Tb1 Er3 Tm2 Fe1 Bi2'
_cell_volume   246.50484286
_cell_formula_units_Z   1
loop_
 _symmetry_equiv_pos_site_id
 _symmetry_equiv_pos_as_xyz
  1  'x, y, z'
loop_
 _atom_site_type_symbol
 _atom_site_label
 _atom_site_symmetry_multiplicity
 _atom_site_fract_x
 _atom_site_fract_y
 _atom_site_fract_z
 _atom_site_occupancy
  Tb  Tb0  1  0.609922  0.999916  0.500000  1
  Er  Er1  1  0.999796  0.612032  0.500000  1
  Er  Er2  1  0.388603  0.388693  0.500000  1
  Er  Er3  1  0.000574  0.229687  0.000000  1
  Tm  Tm4  1  0.229662  0.999971  0.000000  1
  Tm  Tm5  1  0.771012  0.770336  0.000000  1
  Fe  Fe6  1  0.001611  0.998880  0.500000  1
  Bi  Bi7  1  0.332527  0.665934  0.000000  1
  Bi  Bi8  1  0.666291  0.334550  0.000000  1
