# generated using pymatgen
data_Li2CoB2RuRh
_symmetry_space_group_name_H-M   'P 1'
_cell_length_a   2.82215800
_cell_length_b   5.79384400
_cell_length_c   8.92418100
_cell_angle_alpha   90.00000000
_cell_angle_beta   90.00000000
_cell_angle_gamma   90.00000000
_symmetry_Int_Tables_number   1
_chemical_formula_structural   Li2CoB2RuRh
_chemical_formula_sum   'Li4 Co2 B4 Ru2 Rh2'
_cell_volume   145.92056143
_cell_formula_units_Z   2
loop_
 _symmetry_equiv_pos_site_id
 _symmetry_equiv_pos_as_xyz
  1  'x, y, z'
loop_
 _atom_site_type_symbol
 _atom_site_label
 _atom_site_symmetry_multiplicity
 _atom_site_fract_x
 _atom_site_fract_y
 _atom_site_fract_z
 _atom_site_occupancy
  Li  Li0  1  0.500000  0.332464  0.063439  1
  Li  Li1  1  0.500000  0.671970  0.935382  1
  Li  Li2  1  0.500000  0.167536  0.563439  1
  Li  Li3  1  0.500000  0.828030  0.435382  1
  Co  Co4  1  0.000000  0.497273  0.500092  1
  Co  Co5  1  0.000000  0.002727  0.000092  1
  B  B6  1  0.500000  0.066903  0.836508  1
  B  B7  1  0.500000  0.558921  0.664637  1
  B  B8  1  0.500000  0.433097  0.336508  1
  B  B9  1  0.500000  0.941079  0.164637  1
  Ru  Ru10  1  0.000000  0.334748  0.781592  1
  Ru  Ru11  1  0.000000  0.165252  0.281592  1
  Rh  Rh12  1  0.000000  0.666507  0.218349  1
  Rh  Rh13  1  0.000000  0.833493  0.718349  1
