# generated using pymatgen
data_Pr8Nd2IrOs3
_symmetry_space_group_name_H-M   'P 1'
_cell_length_a   8.96416162
_cell_length_b   8.94891004
_cell_length_c   7.48247801
_cell_angle_alpha   83.61324393
_cell_angle_beta   83.59657074
_cell_angle_gamma   43.90954597
_symmetry_Int_Tables_number   1
_chemical_formula_structural   Pr8Nd2IrOs3
_chemical_formula_sum   'Pr8 Nd2 Ir1 Os3'
_cell_volume   413.26708987
_cell_formula_units_Z   1
loop_
 _symmetry_equiv_pos_site_id
 _symmetry_equiv_pos_as_xyz
  1  'x, y, z'
loop_
 _atom_site_type_symbol
 _atom_site_label
 _atom_site_symmetry_multiplicity
 _atom_site_fract_x
 _atom_site_fract_y
 _atom_site_fract_z
 _atom_site_occupancy
  Pr  Pr0  1  0.022049  0.796132  0.913734  1
  Pr  Pr1  1  0.202235  0.980893  0.585074  1
  Pr  Pr2  1  0.982304  0.203147  0.084533  1
  Pr  Pr3  1  0.799135  0.018881  0.416347  1
  Pr  Pr4  1  0.353411  0.210042  0.816710  1
  Pr  Pr5  1  0.788949  0.646444  0.683472  1
  Pr  Pr6  1  0.645937  0.786507  0.183151  1
  Pr  Pr7  1  0.207609  0.356529  0.318478  1
  Nd  Nd8  1  0.571163  0.430560  0.747589  1
  Nd  Nd9  1  0.429563  0.570980  0.250237  1
  Ir  Ir10  1  0.599937  0.176878  0.074910  1
  Os  Os11  1  0.177222  0.602061  0.574098  1
  Os  Os12  1  0.397138  0.823596  0.926670  1
  Os  Os13  1  0.823347  0.397353  0.424997  1
