# generated using pymatgen
data_TbNi3As2
_symmetry_space_group_name_H-M   'P 1'
_cell_length_a   3.90440100
_cell_length_b   10.86782700
_cell_length_c   12.74554200
_cell_angle_alpha   90.00000000
_cell_angle_beta   90.00000000
_cell_angle_gamma   90.00000000
_symmetry_Int_Tables_number   1
_chemical_formula_structural   TbNi3As2
_chemical_formula_sum   'Tb6 Ni18 As12'
_cell_volume   540.82335780
_cell_formula_units_Z   6
loop_
 _symmetry_equiv_pos_site_id
 _symmetry_equiv_pos_as_xyz
  1  'x, y, z'
loop_
 _atom_site_type_symbol
 _atom_site_label
 _atom_site_symmetry_multiplicity
 _atom_site_fract_x
 _atom_site_fract_y
 _atom_site_fract_z
 _atom_site_occupancy
  Tb  Tb0  1  0.000000  0.500000  0.523695  1
  Tb  Tb1  1  0.500000  0.000000  0.476305  1
  Tb  Tb2  1  0.500000  0.815842  0.206405  1
  Tb  Tb3  1  0.500000  0.184158  0.206405  1
  Tb  Tb4  1  0.000000  0.684158  0.793595  1
  Tb  Tb5  1  0.000000  0.315842  0.793595  1
  Ni  Ni6  1  0.500000  0.500000  0.156626  1
  Ni  Ni7  1  0.000000  0.000000  0.843374  1
  Ni  Ni8  1  0.500000  0.500000  0.699323  1
  Ni  Ni9  1  0.000000  0.000000  0.300677  1
  Ni  Ni10  1  0.000000  0.500000  0.982235  1
  Ni  Ni11  1  0.500000  0.000000  0.017765  1
  Ni  Ni12  1  0.500000  0.333045  0.997689  1
  Ni  Ni13  1  0.500000  0.666955  0.997689  1
  Ni  Ni14  1  0.000000  0.166955  0.002311  1
  Ni  Ni15  1  0.000000  0.833045  0.002311  1
  Ni  Ni16  1  0.500000  0.303301  0.426255  1
  Ni  Ni17  1  0.500000  0.696699  0.426255  1
  Ni  Ni18  1  0.000000  0.196699  0.573745  1
  Ni  Ni19  1  0.000000  0.803301  0.573745  1
  Ni  Ni20  1  0.500000  0.880096  0.707237  1
  Ni  Ni21  1  0.500000  0.119904  0.707237  1
  Ni  Ni22  1  0.000000  0.619904  0.292763  1
  Ni  Ni23  1  0.000000  0.380096  0.292763  1
  As  As24  1  0.500000  0.500000  0.876626  1
  As  As25  1  0.000000  0.000000  0.123374  1
  As  As26  1  0.500000  0.500000  0.344944  1
  As  As27  1  0.000000  0.000000  0.655056  1
  As  As28  1  0.500000  0.314040  0.613293  1
  As  As29  1  0.500000  0.685960  0.613293  1
  As  As30  1  0.000000  0.185960  0.386707  1
  As  As31  1  0.000000  0.814040  0.386707  1
  As  As32  1  0.500000  0.847693  0.890745  1
  As  As33  1  0.500000  0.152307  0.890745  1
  As  As34  1  0.000000  0.652307  0.109255  1
  As  As35  1  0.000000  0.347693  0.109255  1
