# generated using pymatgen
data_Li3YTm2Si2As
_symmetry_space_group_name_H-M   'P 1'
_cell_length_a   7.02008220
_cell_length_b   7.02008350
_cell_length_c   4.15561600
_cell_angle_alpha   90.00000000
_cell_angle_beta   90.00000000
_cell_angle_gamma   120.72677742
_symmetry_Int_Tables_number   1
_chemical_formula_structural   Li3YTm2Si2As
_chemical_formula_sum   'Li3 Y1 Tm2 Si2 As1'
_cell_volume   176.04477892
_cell_formula_units_Z   1
loop_
 _symmetry_equiv_pos_site_id
 _symmetry_equiv_pos_as_xyz
  1  'x, y, z'
loop_
 _atom_site_type_symbol
 _atom_site_label
 _atom_site_symmetry_multiplicity
 _atom_site_fract_x
 _atom_site_fract_y
 _atom_site_fract_z
 _atom_site_occupancy
  Li  Li0  1  0.236152  0.999102  0.500000  1
  Li  Li1  1  0.765907  0.765907  0.500000  1
  Li  Li2  1  0.999102  0.236152  0.500000  1
  Y  Y3  1  0.421561  0.421561  0.000000  1
  Tm  Tm4  1  0.003455  0.581410  0.000000  1
  Tm  Tm5  1  0.581410  0.003455  0.000000  1
  Si  Si6  1  0.332732  0.669645  0.500000  1
  Si  Si7  1  0.669645  0.332732  0.500000  1
  As  As8  1  0.990037  0.990037  0.000000  1
