# generated using pymatgen
data_Dy6Si24Os7Ru
_symmetry_space_group_name_H-M   'P 1'
_cell_length_a   10.13010197
_cell_length_b   10.13010203
_cell_length_c   8.17384921
_cell_angle_alpha   89.98010943
_cell_angle_beta   89.98011188
_cell_angle_gamma   132.47760210
_symmetry_Int_Tables_number   1
_chemical_formula_structural   Dy6Si24Os7Ru
_chemical_formula_sum   'Dy6 Si24 Os7 Ru1'
_cell_volume   618.64354951
_cell_formula_units_Z   1
loop_
 _symmetry_equiv_pos_site_id
 _symmetry_equiv_pos_as_xyz
  1  'x, y, z'
loop_
 _atom_site_type_symbol
 _atom_site_label
 _atom_site_symmetry_multiplicity
 _atom_site_fract_x
 _atom_site_fract_y
 _atom_site_fract_z
 _atom_site_occupancy
  Dy  Dy0  1  0.499009  0.998560  0.249358  1
  Dy  Dy1  1  0.001440  0.500991  0.750642  1
  Dy  Dy2  1  0.501126  0.001231  0.750529  1
  Dy  Dy3  1  0.998769  0.498874  0.249471  1
  Dy  Dy4  1  0.500005  0.499995  0.500000  1
  Dy  Dy5  1  0.000036  0.999964  0.000000  1
  Si  Si6  1  0.389155  0.155062  0.003493  1
  Si  Si7  1  0.654877  0.888980  0.494587  1
  Si  Si8  1  0.111020  0.345123  0.505413  1
  Si  Si9  1  0.844938  0.610845  0.996507  1
  Si  Si10  1  0.612154  0.846604  0.995629  1
  Si  Si11  1  0.345332  0.111266  0.505172  1
  Si  Si12  1  0.888734  0.654668  0.494828  1
  Si  Si13  1  0.153396  0.387846  0.004371  1
  Si  Si14  1  0.614390  0.379154  0.227252  1
  Si  Si15  1  0.877613  0.112724  0.270300  1
  Si  Si16  1  0.887276  0.122387  0.729700  1
  Si  Si17  1  0.620846  0.385610  0.772748  1
  Si  Si18  1  0.386385  0.621608  0.772265  1
  Si  Si19  1  0.121801  0.887203  0.728701  1
  Si  Si20  1  0.705416  0.294584  0.000000  1
  Si  Si21  1  0.795417  0.204583  0.500000  1
  Si  Si22  1  0.295147  0.704853  0.000000  1
  Si  Si23  1  0.204712  0.795288  0.500000  1
  Si  Si24  1  0.167244  0.167346  0.332919  1
  Si  Si25  1  0.667903  0.667666  0.166221  1
  Si  Si26  1  0.332334  0.332097  0.833779  1
  Si  Si27  1  0.832654  0.832756  0.667081  1
  Si  Si28  1  0.378392  0.613615  0.227735  1
  Si  Si29  1  0.112797  0.878199  0.271299  1
  Os  Os30  1  0.625785  0.626165  0.872114  1
  Os  Os31  1  0.127375  0.127304  0.627525  1
  Os  Os32  1  0.872696  0.872625  0.372475  1
  Os  Os33  1  0.373835  0.374215  0.127886  1
  Os  Os34  1  0.330933  0.669067  0.500000  1
  Os  Os35  1  0.168871  0.831129  0.000000  1
  Os  Os36  1  0.669130  0.330870  0.500000  1
  Ru  Ru37  1  0.831056  0.168944  0.000000  1
