# generated using pymatgen
data_Pr2Al16MoPt8
_symmetry_space_group_name_H-M   'P 1'
_cell_length_a   11.27372054
_cell_length_b   11.27372125
_cell_length_c   11.27372152
_cell_angle_alpha   158.66821013
_cell_angle_beta   116.94382747
_cell_angle_gamma   67.38070405
_symmetry_Int_Tables_number   1
_chemical_formula_structural   Pr2Al16MoPt8
_chemical_formula_sum   'Pr2 Al16 Mo1 Pt8'
_cell_volume   461.53618587
_cell_formula_units_Z   1
loop_
 _symmetry_equiv_pos_site_id
 _symmetry_equiv_pos_as_xyz
  1  'x, y, z'
loop_
 _atom_site_type_symbol
 _atom_site_label
 _atom_site_symmetry_multiplicity
 _atom_site_fract_x
 _atom_site_fract_y
 _atom_site_fract_z
 _atom_site_occupancy
  Pr  Pr0  1  0.231544  0.232462  0.999082  1
  Pr  Pr1  1  0.766620  0.767538  0.999082  1
  Al  Al2  1  0.275194  0.392986  0.882208  1
  Al  Al3  1  0.090209  0.924982  0.165228  1
  Al  Al4  1  0.502830  0.200799  0.302031  1
  Al  Al5  1  0.240247  0.075018  0.165228  1
  Al  Al6  1  0.909686  0.416569  0.493116  1
  Al  Al7  1  0.722019  0.597579  0.124440  1
  Al  Al8  1  0.904139  0.209720  0.694420  1
  Al  Al9  1  0.484701  0.790281  0.694420  1
  Al  Al10  1  0.389504  0.000000  0.389504  1
  Al  Al11  1  0.627852  0.000000  0.627852  1
  Al  Al12  1  0.489224  0.607015  0.882208  1
  Al  Al13  1  0.101233  0.799201  0.302031  1
  Al  Al14  1  0.910424  0.088070  0.822354  1
  Al  Al15  1  0.734284  0.911931  0.822354  1
  Al  Al16  1  0.526860  0.402421  0.124440  1
  Al  Al17  1  0.076547  0.583431  0.493116  1
  Mo  Mo18  1  0.788244  0.500000  0.288244  1
  Pt  Pt19  1  0.025691  0.344024  0.681666  1
  Pt  Pt20  1  0.626908  0.124770  0.502138  1
  Pt  Pt21  1  0.256141  0.500000  0.756141  1
  Pt  Pt22  1  0.377369  0.875230  0.502138  1
  Pt  Pt23  1  0.984339  0.000000  0.984339  1
  Pt  Pt24  1  0.645202  0.334927  0.310276  1
  Pt  Pt25  1  0.337642  0.655976  0.681666  1
  Pt  Pt26  1  0.975349  0.665073  0.310276  1
