# generated using pymatgen
data_LaBP3N7
_symmetry_space_group_name_H-M   'P 1'
_cell_length_a   7.53531248
_cell_length_b   7.53531248
_cell_length_c   5.23741200
_cell_angle_alpha   77.86804775
_cell_angle_beta   77.86803997
_cell_angle_gamma   68.46195934
_symmetry_Int_Tables_number   1
_chemical_formula_structural   LaBP3N7
_chemical_formula_sum   'La2 B2 P6 N14'
_cell_volume   267.53367656
_cell_formula_units_Z   2
loop_
 _symmetry_equiv_pos_site_id
 _symmetry_equiv_pos_as_xyz
  1  'x, y, z'
loop_
 _atom_site_type_symbol
 _atom_site_label
 _atom_site_symmetry_multiplicity
 _atom_site_fract_x
 _atom_site_fract_y
 _atom_site_fract_z
 _atom_site_occupancy
  La  La0  1  0.780004  0.219996  0.250000  1
  La  La1  1  0.208874  0.791126  0.750000  1
  B  B2  1  0.297649  0.493936  0.331814  1
  B  B3  1  0.506064  0.702351  0.168186  1
  P  P4  1  0.100555  0.263596  0.702162  1
  P  P5  1  0.736404  0.899445  0.797838  1
  P  P6  1  0.912476  0.730255  0.297579  1
  P  P7  1  0.269745  0.087524  0.202421  1
  P  P8  1  0.448432  0.299215  0.802142  1
  P  P9  1  0.700785  0.551568  0.697858  1
  N  N10  1  0.261450  0.382285  0.619599  1
  N  N11  1  0.617715  0.738550  0.880401  1
  N  N12  1  0.760513  0.613248  0.387669  1
  N  N13  1  0.386752  0.239487  0.112331  1
  N  N14  1  0.885543  0.391035  0.819481  1
  N  N15  1  0.608965  0.114457  0.680519  1
  N  N16  1  0.131665  0.615220  0.200657  1
  N  N17  1  0.384780  0.868335  0.299343  1
  N  N18  1  0.906518  0.838903  0.546835  1
  N  N19  1  0.161097  0.093482  0.953165  1
  N  N20  1  0.478577  0.521423  0.250000  1
  N  N21  1  0.520765  0.479235  0.750000  1
  N  N22  1  0.836886  0.902213  0.044455  1
  N  N23  1  0.097787  0.163114  0.455545  1
