# generated using pymatgen
data_Tb5Er11Cd4(NiRu)2
_symmetry_space_group_name_H-M   'P 1'
_cell_length_a   9.55143371
_cell_length_b   9.54903276
_cell_length_c   9.62901436
_cell_angle_alpha   59.72369611
_cell_angle_beta   59.70166284
_cell_angle_gamma   59.54861895
_symmetry_Int_Tables_number   1
_chemical_formula_structural   Tb5Er11Cd4(NiRu)2
_chemical_formula_sum   'Tb5 Er11 Cd4 Ni2 Ru2'
_cell_volume   616.17548930
_cell_formula_units_Z   1
loop_
 _symmetry_equiv_pos_site_id
 _symmetry_equiv_pos_as_xyz
  1  'x, y, z'
loop_
 _atom_site_type_symbol
 _atom_site_label
 _atom_site_symmetry_multiplicity
 _atom_site_fract_x
 _atom_site_fract_y
 _atom_site_fract_z
 _atom_site_occupancy
  Tb  Tb0  1  0.558044  0.938837  0.937990  1
  Tb  Tb1  1  0.558814  0.938315  0.565141  1
  Tb  Tb2  1  0.939127  0.558006  0.937008  1
  Tb  Tb3  1  0.565121  0.564143  0.934928  1
  Tb  Tb4  1  0.940872  0.940186  0.559209  1
  Er  Er5  1  0.348599  0.349458  0.343326  1
  Er  Er6  1  0.348987  0.349125  0.958967  1
  Er  Er7  1  0.351047  0.957277  0.346027  1
  Er  Er8  1  0.956871  0.351560  0.346197  1
  Er  Er9  1  0.812327  0.185916  0.188328  1
  Er  Er10  1  0.185783  0.812184  0.813608  1
  Er  Er11  1  0.185407  0.811902  0.189201  1
  Er  Er12  1  0.812465  0.186244  0.813085  1
  Er  Er13  1  0.186843  0.187669  0.812490  1
  Er  Er14  1  0.811807  0.811269  0.188949  1
  Er  Er15  1  0.938975  0.557924  0.564990  1
  Cd  Cd16  1  0.580046  0.578951  0.581900  1
  Cd  Cd17  1  0.578978  0.579109  0.260036  1
  Cd  Cd18  1  0.579731  0.257655  0.581367  1
  Cd  Cd19  1  0.256850  0.579699  0.581287  1
  Ni  Ni20  1  0.141995  0.575424  0.141303  1
  Ni  Ni21  1  0.575118  0.142150  0.141329  1
  Ru  Ru22  1  0.143191  0.143151  0.139353  1
  Ru  Ru23  1  0.143000  0.143844  0.573981  1
