# generated using pymatgen
data_Nb3Tc2Ge3Pd
_symmetry_space_group_name_H-M   'P 1'
_cell_length_a   6.77274326
_cell_length_b   7.38735467
_cell_length_c   7.66392104
_cell_angle_alpha   118.81326047
_cell_angle_beta   116.22254799
_cell_angle_gamma   89.99999913
_symmetry_Int_Tables_number   1
_chemical_formula_structural   Nb3Tc2Ge3Pd
_chemical_formula_sum   'Nb6 Tc4 Ge6 Pd2'
_cell_volume   290.12438612
_cell_formula_units_Z   2
loop_
 _symmetry_equiv_pos_site_id
 _symmetry_equiv_pos_as_xyz
  1  'x, y, z'
loop_
 _atom_site_type_symbol
 _atom_site_label
 _atom_site_symmetry_multiplicity
 _atom_site_fract_x
 _atom_site_fract_y
 _atom_site_fract_z
 _atom_site_occupancy
  Nb  Nb0  1  0.903341  0.954317  0.408632  1
  Nb  Nb1  1  0.494708  0.045683  0.591368  1
  Nb  Nb2  1  0.495441  0.524189  0.548377  1
  Nb  Nb3  1  0.947064  0.475811  0.451623  1
  Nb  Nb4  1  0.106746  0.749439  0.998878  1
  Nb  Nb5  1  0.107867  0.250561  0.001122  1
  Tc  Tc6  1  0.245617  0.918418  0.751432  1
  Tc  Tc7  1  0.494185  0.081582  0.248568  1
  Tc  Tc8  1  0.245617  0.333014  0.751432  1
  Tc  Tc9  1  0.494185  0.666986  0.248568  1
  Ge  Ge10  1  0.166840  0.667952  0.334236  1
  Ge  Ge11  1  0.832604  0.332048  0.665764  1
  Ge  Ge12  1  0.166840  0.166283  0.334236  1
  Ge  Ge13  1  0.832604  0.833717  0.665764  1
  Ge  Ge14  1  0.470706  0.714654  0.929311  1
  Ge  Ge15  1  0.541396  0.285346  0.070689  1
  Pd  Pd16  1  0.756118  0.500000  0.000000  1
  Pd  Pd17  1  0.756118  0.000000  0.000000  1
