# generated using pymatgen
data_La16CdHg3IrRu3
_symmetry_space_group_name_H-M   'P 1'
_cell_length_a   10.04269371
_cell_length_b   10.07342697
_cell_length_c   10.07342600
_cell_angle_alpha   59.99999663
_cell_angle_beta   59.89871225
_cell_angle_gamma   59.89871348
_symmetry_Int_Tables_number   1
_chemical_formula_structural   La16CdHg3IrRu3
_chemical_formula_sum   'La16 Cd1 Hg3 Ir1 Ru3'
_cell_volume   719.48719140
_cell_formula_units_Z   1
loop_
 _symmetry_equiv_pos_site_id
 _symmetry_equiv_pos_as_xyz
  1  'x, y, z'
loop_
 _atom_site_type_symbol
 _atom_site_label
 _atom_site_symmetry_multiplicity
 _atom_site_fract_x
 _atom_site_fract_y
 _atom_site_fract_z
 _atom_site_occupancy
  La  La0  1  0.596058  0.597655  0.597655  1
  La  La1  1  0.596058  0.597655  0.208631  1
  La  La2  1  0.596058  0.208631  0.597655  1
  La  La3  1  0.206527  0.597824  0.597824  1
  La  La4  1  0.063041  0.440087  0.440087  1
  La  La5  1  0.437955  0.062115  0.062115  1
  La  La6  1  0.437955  0.062115  0.437815  1
  La  La7  1  0.063041  0.440087  0.056786  1
  La  La8  1  0.437955  0.437815  0.062115  1
  La  La9  1  0.063041  0.056786  0.440087  1
  La  La10  1  0.190188  0.809783  0.809783  1
  La  La11  1  0.808052  0.190833  0.190833  1
  La  La12  1  0.808052  0.190833  0.810281  1
  La  La13  1  0.190188  0.809783  0.190247  1
  La  La14  1  0.808052  0.810281  0.190833  1
  La  La15  1  0.190188  0.190247  0.809783  1
  Cd  Cd16  1  0.514810  0.828396  0.828396  1
  Hg  Hg17  1  0.831866  0.834597  0.834597  1
  Hg  Hg18  1  0.831866  0.834597  0.498940  1
  Hg  Hg19  1  0.831866  0.498940  0.834597  1
  Ir  Ir20  1  0.831489  0.389503  0.389503  1
  Ru  Ru21  1  0.388565  0.387486  0.387486  1
  Ru  Ru22  1  0.388565  0.387486  0.836465  1
  Ru  Ru23  1  0.388565  0.836465  0.387486  1
