# generated using pymatgen
data_Sn(RhPb)4
_symmetry_space_group_name_H-M   'P 1'
_cell_length_a   5.80068281
_cell_length_b   5.80068320
_cell_length_c   13.58978547
_cell_angle_alpha   96.12551462
_cell_angle_beta   96.12551335
_cell_angle_gamma   120.00107305
_symmetry_Int_Tables_number   1
_chemical_formula_structural   Sn(RhPb)4
_chemical_formula_sum   'Sn2 Rh8 Pb8'
_cell_volume   386.87806162
_cell_formula_units_Z   2
loop_
 _symmetry_equiv_pos_site_id
 _symmetry_equiv_pos_as_xyz
  1  'x, y, z'
loop_
 _atom_site_type_symbol
 _atom_site_label
 _atom_site_symmetry_multiplicity
 _atom_site_fract_x
 _atom_site_fract_y
 _atom_site_fract_z
 _atom_site_occupancy
  Sn  Sn0  1  0.835486  0.164514  0.000000  1
  Sn  Sn1  1  0.164514  0.835486  0.000000  1
  Rh  Rh2  1  0.578382  0.078383  0.156763  1
  Rh  Rh3  1  0.078383  0.578382  0.156763  1
  Rh  Rh4  1  0.080095  0.080095  0.160190  1
  Rh  Rh5  1  0.750001  0.250001  0.500000  1
  Rh  Rh6  1  0.250001  0.750001  0.500000  1
  Rh  Rh7  1  0.919905  0.919905  0.839810  1
  Rh  Rh8  1  0.921619  0.421619  0.843238  1
  Rh  Rh9  1  0.421619  0.921619  0.843238  1
  Pb  Pb10  1  0.586705  0.586705  0.173411  1
  Pb  Pb11  1  0.997653  0.332493  0.330147  1
  Pb  Pb12  1  0.332493  0.997653  0.330147  1
  Pb  Pb13  1  0.713918  0.713918  0.427836  1
  Pb  Pb14  1  0.286082  0.286082  0.572165  1
  Pb  Pb15  1  0.667507  0.002347  0.669853  1
  Pb  Pb16  1  0.002347  0.667507  0.669853  1
  Pb  Pb17  1  0.413295  0.413295  0.826589  1
