# generated using pymatgen
data_Na3Er2P12Ir7Rh12
_symmetry_space_group_name_H-M   'P 1'
_cell_length_a   12.61681700
_cell_length_b   12.61681635
_cell_length_c   3.95391000
_cell_angle_alpha   90.00000000
_cell_angle_beta   90.00000000
_cell_angle_gamma   120.00000432
_symmetry_Int_Tables_number   1
_chemical_formula_structural   Na3Er2P12Ir7Rh12
_chemical_formula_sum   'Na3 Er2 P12 Ir7 Rh12'
_cell_volume   545.07589661
_cell_formula_units_Z   1
loop_
 _symmetry_equiv_pos_site_id
 _symmetry_equiv_pos_as_xyz
  1  'x, y, z'
loop_
 _atom_site_type_symbol
 _atom_site_label
 _atom_site_symmetry_multiplicity
 _atom_site_fract_x
 _atom_site_fract_y
 _atom_site_fract_z
 _atom_site_occupancy
  Na  Na0  1  0.819101  0.819101  0.500000  1
  Na  Na1  1  0.180899  0.000000  0.500000  1
  Na  Na2  1  0.000000  0.180899  0.500000  1
  Er  Er3  1  0.666667  0.333333  0.000000  1
  Er  Er4  1  0.333333  0.666667  0.000000  1
  P  P5  1  0.688556  0.168109  0.500000  1
  P  P6  1  0.831891  0.520446  0.500000  1
  P  P7  1  0.479554  0.311444  0.500000  1
  P  P8  1  0.168109  0.688556  0.500000  1
  P  P9  1  0.520446  0.831891  0.500000  1
  P  P10  1  0.311444  0.479554  0.500000  1
  P  P11  1  0.637481  0.637481  0.000000  1
  P  P12  1  0.362519  0.000000  0.000000  1
  P  P13  1  0.000000  0.362519  0.000000  1
  P  P14  1  0.178581  0.178581  0.000000  1
  P  P15  1  0.821419  0.000000  0.000000  1
  P  P16  1  0.000000  0.821419  0.000000  1
  Ir  Ir17  1  0.868469  0.360766  0.500000  1
  Ir  Ir18  1  0.639234  0.507705  0.500000  1
  Ir  Ir19  1  0.492295  0.131531  0.500000  1
  Ir  Ir20  1  0.360766  0.868469  0.500000  1
  Ir  Ir21  1  0.507705  0.639234  0.500000  1
  Ir  Ir22  1  0.131531  0.492295  0.500000  1
  Ir  Ir23  1  0.000000  0.000000  0.000000  1
  Rh  Rh24  1  0.805212  0.181487  0.000000  1
  Rh  Rh25  1  0.818513  0.623725  0.000000  1
  Rh  Rh26  1  0.376275  0.194788  0.000000  1
  Rh  Rh27  1  0.181487  0.805212  0.000000  1
  Rh  Rh28  1  0.623725  0.818513  0.000000  1
  Rh  Rh29  1  0.194788  0.376275  0.000000  1
  Rh  Rh30  1  0.456863  0.456863  0.000000  1
  Rh  Rh31  1  0.543137  0.000000  0.000000  1
  Rh  Rh32  1  0.000000  0.543137  0.000000  1
  Rh  Rh33  1  0.281236  0.281236  0.500000  1
  Rh  Rh34  1  0.718764  0.000000  0.500000  1
  Rh  Rh35  1  0.000000  0.718764  0.500000  1
