# generated using pymatgen
data_Ce2Al9CuOs2
_symmetry_space_group_name_H-M   'P 1'
_cell_length_a   7.57733500
_cell_length_b   7.57733411
_cell_length_c   9.51796500
_cell_angle_alpha   90.00000000
_cell_angle_beta   90.00000000
_cell_angle_gamma   119.73145735
_symmetry_Int_Tables_number   1
_chemical_formula_structural   Ce2Al9CuOs2
_chemical_formula_sum   'Ce4 Al18 Cu2 Os4'
_cell_volume   474.54403510
_cell_formula_units_Z   2
loop_
 _symmetry_equiv_pos_site_id
 _symmetry_equiv_pos_as_xyz
  1  'x, y, z'
loop_
 _atom_site_type_symbol
 _atom_site_label
 _atom_site_symmetry_multiplicity
 _atom_site_fract_x
 _atom_site_fract_y
 _atom_site_fract_z
 _atom_site_occupancy
  Ce  Ce0  1  0.996357  0.666637  0.250000  1
  Ce  Ce1  1  0.003643  0.333363  0.750000  1
  Ce  Ce2  1  0.666637  0.996357  0.250000  1
  Ce  Ce3  1  0.333363  0.003643  0.750000  1
  Al  Al4  1  0.128182  0.128182  0.250000  1
  Al  Al5  1  0.871818  0.871818  0.750000  1
  Al  Al6  1  0.003650  0.337741  0.073768  1
  Al  Al7  1  0.996350  0.662259  0.926232  1
  Al  Al8  1  0.996350  0.662259  0.573768  1
  Al  Al9  1  0.337741  0.003650  0.426232  1
  Al  Al10  1  0.003650  0.337741  0.426232  1
  Al  Al11  1  0.662259  0.996350  0.573768  1
  Al  Al12  1  0.662259  0.996350  0.926232  1
  Al  Al13  1  0.337741  0.003650  0.073768  1
  Al  Al14  1  0.339728  0.339728  0.553826  1
  Al  Al15  1  0.660272  0.660272  0.446174  1
  Al  Al16  1  0.660272  0.660272  0.053826  1
  Al  Al17  1  0.339728  0.339728  0.946174  1
  Al  Al18  1  0.338164  0.546694  0.250000  1
  Al  Al19  1  0.661836  0.453306  0.750000  1
  Al  Al20  1  0.546694  0.338164  0.250000  1
  Al  Al21  1  0.453306  0.661836  0.750000  1
  Cu  Cu22  1  0.000000  0.000000  0.000000  1
  Cu  Cu23  1  0.000000  0.000000  0.500000  1
  Os  Os24  1  0.672333  0.327667  0.000000  1
  Os  Os25  1  0.327667  0.672333  0.000000  1
  Os  Os26  1  0.327667  0.672333  0.500000  1
  Os  Os27  1  0.672333  0.327667  0.500000  1
