# generated using pymatgen
data_Zr2NbSb(PO4)6
_symmetry_space_group_name_H-M   'P 1'
_cell_length_a   8.83908475
_cell_length_b   8.83641538
_cell_length_c   9.14875549
_cell_angle_alpha   90.08044378
_cell_angle_beta   118.75455989
_cell_angle_gamma   120.00429630
_symmetry_Int_Tables_number   1
_chemical_formula_structural   Zr2NbSb(PO4)6
_chemical_formula_sum   'Zr2 Nb1 Sb1 P6 O24'
_cell_volume   514.21335445
_cell_formula_units_Z   1
loop_
 _symmetry_equiv_pos_site_id
 _symmetry_equiv_pos_as_xyz
  1  'x, y, z'
loop_
 _atom_site_type_symbol
 _atom_site_label
 _atom_site_symmetry_multiplicity
 _atom_site_fract_x
 _atom_site_fract_y
 _atom_site_fract_z
 _atom_site_occupancy
  Zr  Zr0  1  0.213047  0.857683  0.070427  1
  Zr  Zr1  1  0.784469  0.641027  0.426206  1
  Nb  Nb2  1  0.782640  0.140227  0.923187  1
  Sb  Sb3  1  0.208160  0.355576  0.562879  1
  P  P4  1  0.999905  0.971330  0.248763  1
  P  P5  1  0.277362  0.529081  0.251250  1
  P  P6  1  0.284145  0.742656  0.745764  1
  P  P7  1  0.720946  0.247762  0.252143  1
  P  P8  1  0.706023  0.463556  0.747023  1
  P  P9  1  0.007529  0.043423  0.749281  1
  O  O10  1  0.285932  0.701991  0.222207  1
  O  O11  1  0.868342  0.002389  0.080606  1
  O  O12  1  0.861320  0.870865  0.590227  1
  O  O13  1  0.848508  0.809956  0.277654  1
  O  O14  1  0.141464  0.935376  0.228636  1
  O  O15  1  0.469343  0.541964  0.281503  1
  O  O16  1  0.100888  0.725695  0.581044  1
  O  O17  1  0.894890  0.632404  0.908880  1
  O  O18  1  0.278483  0.769479  0.907405  1
  O  O19  1  0.494176  0.912617  0.779397  1
  O  O20  1  0.716176  0.481974  0.585645  1
  O  O21  1  0.731586  0.424852  0.273152  1
  O  O22  1  0.287828  0.568860  0.726390  1
  O  O23  1  0.267871  0.514224  0.417883  1
  O  O24  1  0.522383  0.083258  0.228171  1
  O  O25  1  0.726711  0.211915  0.090027  1
  O  O26  1  0.079257  0.359719  0.088279  1
  O  O27  1  0.906940  0.263685  0.422873  1
  O  O28  1  0.504585  0.437344  0.718703  1
  O  O29  1  0.869451  0.084546  0.778962  1
  O  O30  1  0.157458  0.216200  0.722330  1
  O  O31  1  0.153839  0.149333  0.411996  1
  O  O32  1  0.147053  0.020076  0.915672  1
  O  O33  1  0.701290  0.288954  0.785431  1
