# generated using pymatgen
data_Pr5Nd11Cd4(TcPd)2
_symmetry_space_group_name_H-M   'P 1'
_cell_length_a   10.05069701
_cell_length_b   10.04595523
_cell_length_c   10.13249976
_cell_angle_alpha   59.22497527
_cell_angle_beta   59.22213703
_cell_angle_gamma   59.18229929
_symmetry_Int_Tables_number   1
_chemical_formula_structural   Pr5Nd11Cd4(TcPd)2
_chemical_formula_sum   'Pr5 Nd11 Cd4 Tc2 Pd2'
_cell_volume   710.39394619
_cell_formula_units_Z   1
loop_
 _symmetry_equiv_pos_site_id
 _symmetry_equiv_pos_as_xyz
  1  'x, y, z'
loop_
 _atom_site_type_symbol
 _atom_site_label
 _atom_site_symmetry_multiplicity
 _atom_site_fract_x
 _atom_site_fract_y
 _atom_site_fract_z
 _atom_site_occupancy
  Pr  Pr0  1  0.555254  0.938698  0.941738  1
  Pr  Pr1  1  0.556490  0.936625  0.566946  1
  Pr  Pr2  1  0.938621  0.555454  0.941073  1
  Pr  Pr3  1  0.563100  0.562524  0.935577  1
  Pr  Pr4  1  0.940814  0.940385  0.560484  1
  Nd  Nd5  1  0.347285  0.347571  0.355913  1
  Nd  Nd6  1  0.348062  0.348321  0.948379  1
  Nd  Nd7  1  0.342331  0.959286  0.347781  1
  Nd  Nd8  1  0.958937  0.342635  0.347844  1
  Nd  Nd9  1  0.814876  0.189975  0.191101  1
  Nd  Nd10  1  0.189141  0.816222  0.804135  1
  Nd  Nd11  1  0.189822  0.814712  0.191367  1
  Nd  Nd12  1  0.816051  0.189745  0.803855  1
  Nd  Nd13  1  0.190023  0.190562  0.808954  1
  Nd  Nd14  1  0.806341  0.806127  0.196851  1
  Nd  Nd15  1  0.937709  0.555150  0.566760  1
  Cd  Cd16  1  0.580154  0.579327  0.579011  1
  Cd  Cd17  1  0.579717  0.579708  0.261016  1
  Cd  Cd18  1  0.579993  0.259630  0.579415  1
  Cd  Cd19  1  0.258997  0.579980  0.579414  1
  Tc  Tc20  1  0.141518  0.141085  0.132587  1
  Tc  Tc21  1  0.143174  0.144600  0.580363  1
  Pd  Pd22  1  0.146686  0.574837  0.139954  1
  Pd  Pd23  1  0.574903  0.146842  0.139485  1
