# generated using pymatgen
data_Sm2Zr3Si4
_symmetry_space_group_name_H-M   'P 1'
_cell_length_a   7.40205400
_cell_length_b   7.19257776
_cell_length_c   7.39227561
_cell_angle_alpha   71.86728220
_cell_angle_beta   90.00000000
_cell_angle_gamma   90.00000000
_symmetry_Int_Tables_number   1
_chemical_formula_structural   Sm2Zr3Si4
_chemical_formula_sum   'Sm4 Zr6 Si8'
_cell_volume   374.01854695
_cell_formula_units_Z   2
loop_
 _symmetry_equiv_pos_site_id
 _symmetry_equiv_pos_as_xyz
  1  'x, y, z'
loop_
 _atom_site_type_symbol
 _atom_site_label
 _atom_site_symmetry_multiplicity
 _atom_site_fract_x
 _atom_site_fract_y
 _atom_site_fract_z
 _atom_site_occupancy
  Sm  Sm0  1  0.671533  0.925665  0.691701  1
  Sm  Sm1  1  0.328467  0.074335  0.308299  1
  Sm  Sm2  1  0.171533  0.574335  0.308299  1
  Sm  Sm3  1  0.828467  0.425665  0.691701  1
  Zr  Zr4  1  0.679194  0.749958  0.247003  1
  Zr  Zr5  1  0.320806  0.250042  0.752997  1
  Zr  Zr6  1  0.179194  0.750042  0.752997  1
  Zr  Zr7  1  0.820806  0.249958  0.247003  1
  Zr  Zr8  1  0.000000  0.000000  0.000000  1
  Zr  Zr9  1  0.500000  0.500000  0.000000  1
  Si  Si10  1  0.965808  0.873350  0.418061  1
  Si  Si11  1  0.034192  0.126650  0.581939  1
  Si  Si12  1  0.465808  0.626650  0.581939  1
  Si  Si13  1  0.534192  0.373350  0.418061  1
  Si  Si14  1  0.877883  0.627694  0.994060  1
  Si  Si15  1  0.122117  0.372306  0.005940  1
  Si  Si16  1  0.377883  0.872306  0.005940  1
  Si  Si17  1  0.622117  0.127694  0.994060  1
