# generated using pymatgen
data_Tb5YAl24Os7Au
_symmetry_space_group_name_H-M   'P 1'
_cell_length_a   8.88555598
_cell_length_b   8.88555773
_cell_length_c   9.58062325
_cell_angle_alpha   89.81778692
_cell_angle_beta   90.18221261
_cell_angle_gamma   119.98382224
_symmetry_Int_Tables_number   1
_chemical_formula_structural   Tb5YAl24Os7Au
_chemical_formula_sum   'Tb5 Y1 Al24 Os7 Au1'
_cell_volume   655.18137048
_cell_formula_units_Z   1
loop_
 _symmetry_equiv_pos_site_id
 _symmetry_equiv_pos_as_xyz
  1  'x, y, z'
loop_
 _atom_site_type_symbol
 _atom_site_label
 _atom_site_symmetry_multiplicity
 _atom_site_fract_x
 _atom_site_fract_y
 _atom_site_fract_z
 _atom_site_occupancy
  Tb  Tb0  1  0.190554  0.385689  0.250731  1
  Tb  Tb1  1  0.809430  0.614332  0.749263  1
  Tb  Tb2  1  0.614311  0.809446  0.250731  1
  Tb  Tb3  1  0.385668  0.190570  0.749263  1
  Tb  Tb4  1  0.194279  0.805721  0.253792  1
  Y  Y5  1  0.805604  0.194396  0.746244  1
  Al  Al6  1  0.328584  0.671416  0.020656  1
  Al  Al7  1  0.671471  0.328529  0.979334  1
  Al  Al8  1  0.666157  0.333843  0.517561  1
  Al  Al9  1  0.333881  0.666119  0.482468  1
  Al  Al10  1  0.162671  0.325984  0.574892  1
  Al  Al11  1  0.837305  0.674010  0.425102  1
  Al  Al12  1  0.674016  0.837329  0.574892  1
  Al  Al13  1  0.848517  0.677541  0.079128  1
  Al  Al14  1  0.325990  0.162695  0.425102  1
  Al  Al15  1  0.151452  0.322454  0.920875  1
  Al  Al16  1  0.163182  0.836818  0.575054  1
  Al  Al17  1  0.322459  0.151483  0.079128  1
  Al  Al18  1  0.836814  0.163186  0.424991  1
  Al  Al19  1  0.677546  0.848548  0.920875  1
  Al  Al20  1  0.836754  0.163246  0.075287  1
  Al  Al21  1  0.163233  0.836767  0.924668  1
  Al  Al22  1  0.561149  0.121417  0.249282  1
  Al  Al23  1  0.438975  0.878720  0.750702  1
  Al  Al24  1  0.878583  0.438851  0.249282  1
  Al  Al25  1  0.121280  0.561025  0.750702  1
  Al  Al26  1  0.563835  0.436165  0.255895  1
  Al  Al27  1  0.436159  0.563841  0.744122  1
  Al  Al28  1  0.999564  0.000436  0.250379  1
  Al  Al29  1  0.000454  0.999546  0.749625  1
  Os  Os30  1  0.500046  0.999997  0.999960  1
  Os  Os31  1  0.000003  0.499954  0.999960  1
  Os  Os32  1  0.500046  0.000018  0.500006  1
  Os  Os33  1  0.999982  0.499954  0.500006  1
  Os  Os34  1  0.500041  0.499959  0.500019  1
  Os  Os35  1  0.000004  0.999996  0.999942  1
  Os  Os36  1  0.999984  0.000016  0.500081  1
  Au  Au37  1  0.500016  0.499984  0.999998  1
