# generated using pymatgen
data_Ta7Nb9(CoTe4)4
_symmetry_space_group_name_H-M   'P 1'
_cell_length_a   4.82617700
_cell_length_b   11.41641003
_cell_length_c   20.14033605
_cell_angle_alpha   89.99143491
_cell_angle_beta   90.00000000
_cell_angle_gamma   90.00000000
_symmetry_Int_Tables_number   1
_chemical_formula_structural   Ta7Nb9(CoTe4)4
_chemical_formula_sum   'Ta7 Nb9 Co4 Te16'
_cell_volume   1109.68448004
_cell_formula_units_Z   1
loop_
 _symmetry_equiv_pos_site_id
 _symmetry_equiv_pos_as_xyz
  1  'x, y, z'
loop_
 _atom_site_type_symbol
 _atom_site_label
 _atom_site_symmetry_multiplicity
 _atom_site_fract_x
 _atom_site_fract_y
 _atom_site_fract_z
 _atom_site_occupancy
  Ta  Ta0  1  0.500000  0.439859  0.609364  1
  Ta  Ta1  1  0.500000  0.060300  0.109253  1
  Ta  Ta2  1  0.500000  0.939447  0.890610  1
  Ta  Ta3  1  0.500000  0.692176  0.534938  1
  Ta  Ta4  1  0.500000  0.307502  0.466038  1
  Ta  Ta5  1  0.500000  0.192748  0.965749  1
  Ta  Ta6  1  0.500000  0.807282  0.034647  1
  Nb  Nb7  1  0.500000  0.561531  0.389004  1
  Nb  Nb8  1  0.000000  0.680021  0.445281  1
  Nb  Nb9  1  0.000000  0.318660  0.553465  1
  Nb  Nb10  1  0.000000  0.181015  0.053604  1
  Nb  Nb11  1  0.000000  0.819172  0.946129  1
  Nb  Nb12  1  0.000000  0.407458  0.396831  1
  Nb  Nb13  1  0.000000  0.594855  0.602830  1
  Nb  Nb14  1  0.000000  0.905316  0.102691  1
  Nb  Nb15  1  0.000000  0.093943  0.897187  1
  Co  Co16  1  0.251206  0.499734  0.500963  1
  Co  Co17  1  0.748090  0.999911  0.999966  1
  Co  Co18  1  0.748794  0.499734  0.500963  1
  Co  Co19  1  0.251910  0.999911  0.999966  1
  Te  Te20  1  0.000000  0.832331  0.558307  1
  Te  Te21  1  0.000000  0.168064  0.440664  1
  Te  Te22  1  0.000000  0.332625  0.940758  1
  Te  Te23  1  0.000000  0.666896  0.058691  1
  Te  Te24  1  0.500000  0.337638  0.325112  1
  Te  Te25  1  0.500000  0.661316  0.676021  1
  Te  Te26  1  0.500000  0.838415  0.175530  1
  Te  Te27  1  0.500000  0.161786  0.824887  1
  Te  Te28  1  0.500000  0.809522  0.409585  1
  Te  Te29  1  0.500000  0.191036  0.591921  1
  Te  Te30  1  0.500000  0.309037  0.091519  1
  Te  Te31  1  0.500000  0.690828  0.909055  1
  Te  Te32  1  0.000000  0.605885  0.310059  1
  Te  Te33  1  0.000000  0.394596  0.688853  1
  Te  Te34  1  0.000000  0.104925  0.188680  1
  Te  Te35  1  0.000000  0.894523  0.810881  1
