# generated using pymatgen
data_Ho3Lu13(C2Cl3)4
_symmetry_space_group_name_H-M   'P 1'
_cell_length_a   3.58542900
_cell_length_b   10.22397386
_cell_length_c   19.30876060
_cell_angle_alpha   89.95317717
_cell_angle_beta   90.00000000
_cell_angle_gamma   90.00000000
_symmetry_Int_Tables_number   1
_chemical_formula_structural   Ho3Lu13(C2Cl3)4
_chemical_formula_sum   'Ho3 Lu13 C8 Cl12'
_cell_volume   707.80741866
_cell_formula_units_Z   1
loop_
 _symmetry_equiv_pos_site_id
 _symmetry_equiv_pos_as_xyz
  1  'x, y, z'
loop_
 _atom_site_type_symbol
 _atom_site_label
 _atom_site_symmetry_multiplicity
 _atom_site_fract_x
 _atom_site_fract_y
 _atom_site_fract_z
 _atom_site_occupancy
  Ho  Ho0  1  0.250000  0.137887  0.573265  1
  Ho  Ho1  1  0.250000  0.637994  0.926511  1
  Ho  Ho2  1  0.750000  0.861927  0.426644  1
  Lu  Lu3  1  0.750000  0.361863  0.075070  1
  Lu  Lu4  1  0.250000  0.637221  0.756697  1
  Lu  Lu5  1  0.250000  0.136279  0.743341  1
  Lu  Lu6  1  0.750000  0.363382  0.242963  1
  Lu  Lu7  1  0.750000  0.863116  0.256682  1
  Lu  Lu8  1  0.250000  0.099822  0.330084  1
  Lu  Lu9  1  0.250000  0.600354  0.169788  1
  Lu  Lu10  1  0.750000  0.899557  0.669914  1
  Lu  Lu11  1  0.750000  0.400058  0.829997  1
  Lu  Lu12  1  0.250000  0.126539  0.165848  1
  Lu  Lu13  1  0.250000  0.626750  0.334115  1
  Lu  Lu14  1  0.750000  0.873503  0.834063  1
  Lu  Lu15  1  0.750000  0.373366  0.665834  1
  C  C16  1  0.250000  0.864604  0.345650  1
  C  C17  1  0.250000  0.364724  0.152408  1
  C  C18  1  0.750000  0.135641  0.654071  1
  C  C19  1  0.750000  0.634974  0.845961  1
  C  C20  1  0.250000  0.387138  0.749800  1
  C  C21  1  0.250000  0.887297  0.750273  1
  C  C22  1  0.750000  0.611829  0.249889  1
  C  C23  1  0.750000  0.113714  0.249338  1
  Cl  Cl24  1  0.250000  0.371768  0.953470  1
  Cl  Cl25  1  0.250000  0.872135  0.549315  1
  Cl  Cl26  1  0.750000  0.622130  0.049686  1
  Cl  Cl27  1  0.750000  0.127901  0.450620  1
  Cl  Cl28  1  0.250000  0.892788  0.943448  1
  Cl  Cl29  1  0.250000  0.392528  0.556603  1
  Cl  Cl30  1  0.750000  0.113648  0.056195  1
  Cl  Cl31  1  0.750000  0.607351  0.443279  1
  Cl  Cl32  1  0.250000  0.361104  0.352740  1
  Cl  Cl33  1  0.250000  0.861388  0.146436  1
  Cl  Cl34  1  0.750000  0.638721  0.646626  1
  Cl  Cl35  1  0.750000  0.139000  0.853374  1
