# generated using pymatgen
data_La2Zn21Au
_symmetry_space_group_name_H-M   'P 1'
_cell_length_a   8.32170020
_cell_length_b   8.32169896
_cell_length_c   8.32169999
_cell_angle_alpha   99.84072221
_cell_angle_beta   99.84072711
_cell_angle_gamma   131.16123721
_symmetry_Int_Tables_number   1
_chemical_formula_structural   La2Zn21Au
_chemical_formula_sum   'La2 Zn21 Au1'
_cell_volume   395.04942143
_cell_formula_units_Z   1
loop_
 _symmetry_equiv_pos_site_id
 _symmetry_equiv_pos_as_xyz
  1  'x, y, z'
loop_
 _atom_site_type_symbol
 _atom_site_label
 _atom_site_symmetry_multiplicity
 _atom_site_fract_x
 _atom_site_fract_y
 _atom_site_fract_z
 _atom_site_occupancy
  La  La0  1  0.000000  0.000000  0.000000  1
  La  La1  1  0.250000  0.750000  0.500000  1
  Zn  Zn2  1  0.500000  0.500000  0.000000  1
  Zn  Zn3  1  0.124990  0.374604  0.750386  1
  Zn  Zn4  1  0.625396  0.875010  0.249614  1
  Zn  Zn5  1  0.625396  0.375782  0.750386  1
  Zn  Zn6  1  0.624218  0.374604  0.249614  1
  Zn  Zn7  1  0.181110  0.509394  0.085213  1
  Zn  Zn8  1  0.181110  0.095896  0.671714  1
  Zn  Zn9  1  0.759134  0.930113  0.584796  1
  Zn  Zn10  1  0.759134  0.174338  0.829020  1
  Zn  Zn11  1  0.424182  0.509394  0.328286  1
  Zn  Zn12  1  0.424182  0.095896  0.914787  1
  Zn  Zn13  1  0.345318  0.930113  0.170980  1
  Zn  Zn14  1  0.345318  0.174338  0.415204  1
  Zn  Zn15  1  0.069887  0.240866  0.415204  1
  Zn  Zn16  1  0.069887  0.654682  0.829020  1
  Zn  Zn17  1  0.490606  0.818890  0.914787  1
  Zn  Zn18  1  0.490606  0.575818  0.671714  1
  Zn  Zn19  1  0.825662  0.240866  0.170980  1
  Zn  Zn20  1  0.825662  0.654682  0.584796  1
  Zn  Zn21  1  0.904104  0.818890  0.328286  1
  Zn  Zn22  1  0.904104  0.575818  0.085213  1
  Au  Au23  1  0.750000  0.250000  0.500000  1
