# generated using pymatgen
data_ErBr37
_symmetry_space_group_name_H-M   'P 1'
_cell_length_a   14.20848141
_cell_length_b   15.29732181
_cell_length_c   14.42416200
_cell_angle_alpha   103.00376457
_cell_angle_beta   48.80056783
_cell_angle_gamma   81.50743146
_symmetry_Int_Tables_number   1
_chemical_formula_structural   ErBr37
_chemical_formula_sum   'Er1 Br37'
_cell_volume   2102.91272627
_cell_formula_units_Z   1
loop_
 _symmetry_equiv_pos_site_id
 _symmetry_equiv_pos_as_xyz
  1  'x, y, z'
loop_
 _atom_site_type_symbol
 _atom_site_label
 _atom_site_symmetry_multiplicity
 _atom_site_fract_x
 _atom_site_fract_y
 _atom_site_fract_z
 _atom_site_occupancy
  Er  Er0  1  0.500000  0.000000  0.000000  1
  Br  Br1  1  0.783681  0.300934  0.137380  1
  Br  Br2  1  0.216319  0.699066  0.862620  1
  Br  Br3  1  0.740728  0.083790  0.364290  1
  Br  Br4  1  0.259272  0.916210  0.635710  1
  Br  Br5  1  0.117678  0.350476  0.166575  1
  Br  Br6  1  0.882322  0.649524  0.833425  1
  Br  Br7  1  0.864432  0.527611  0.246222  1
  Br  Br8  1  0.135568  0.472389  0.753778  1
  Br  Br9  1  0.686174  0.274567  0.521820  1
  Br  Br10  1  0.313826  0.725433  0.478180  1
  Br  Br11  1  0.043210  0.140500  0.484178  1
  Br  Br12  1  0.956790  0.859500  0.515822  1
  Br  Br13  1  0.974108  0.008713  0.288183  1
  Br  Br14  1  0.025892  0.991287  0.711817  1
  Br  Br15  1  0.950448  0.336656  0.602990  1
  Br  Br16  1  0.049552  0.663344  0.397010  1
  Br  Br17  1  0.575597  0.430552  0.235370  1
  Br  Br18  1  0.424403  0.569448  0.764630  1
  Br  Br19  1  0.168127  0.481867  0.279927  1
  Br  Br20  1  0.831873  0.518133  0.720073  1
  Br  Br21  1  0.000000  0.500000  0.000000  1
  Br  Br22  1  0.571124  0.962049  0.134993  1
  Br  Br23  1  0.428876  0.037951  0.865007  1
  Br  Br24  1  0.306933  0.050245  0.305667  1
  Br  Br25  1  0.693067  0.949755  0.694333  1
  Br  Br26  1  0.527777  0.134846  0.415586  1
  Br  Br27  1  0.472223  0.865154  0.584414  1
  Br  Br28  1  0.097963  0.216316  0.063600  1
  Br  Br29  1  0.902037  0.783684  0.936400  1
  Br  Br30  1  0.664418  0.688467  0.401427  1
  Br  Br31  1  0.335582  0.311533  0.598573  1
  Br  Br32  1  0.900133  0.147489  0.921451  1
  Br  Br33  1  0.099867  0.852511  0.078549  1
  Br  Br34  1  0.470020  0.184187  0.078448  1
  Br  Br35  1  0.529980  0.815813  0.921552  1
  Br  Br36  1  0.653658  0.428492  0.648762  1
  Br  Br37  1  0.346342  0.571508  0.351238  1
