# generated using pymatgen
data_Tm5RuWC7
_symmetry_space_group_name_H-M   'P 1'
_cell_length_a   8.18637972
_cell_length_b   8.18637936
_cell_length_c   3.42046500
_cell_angle_alpha   90.00000000
_cell_angle_beta   90.00000000
_cell_angle_gamma   121.64739530
_symmetry_Int_Tables_number   1
_chemical_formula_structural   Tm5RuWC7
_chemical_formula_sum   'Tm5 Ru1 W1 C7'
_cell_volume   195.14079337
_cell_formula_units_Z   1
loop_
 _symmetry_equiv_pos_site_id
 _symmetry_equiv_pos_as_xyz
  1  'x, y, z'
loop_
 _atom_site_type_symbol
 _atom_site_label
 _atom_site_symmetry_multiplicity
 _atom_site_fract_x
 _atom_site_fract_y
 _atom_site_fract_z
 _atom_site_occupancy
  Tm  Tm0  1  0.335142  0.074774  0.500000  1
  Tm  Tm1  1  0.659858  0.919780  0.500000  1
  Tm  Tm2  1  0.080220  0.340142  0.500000  1
  Tm  Tm3  1  0.925226  0.664858  0.500000  1
  Tm  Tm4  1  0.497741  0.502259  0.000000  1
  Ru  Ru5  1  0.288700  0.711300  0.000000  1
  W  W6  1  0.713665  0.286335  0.000000  1
  C  C7  1  0.170657  0.169358  0.000000  1
  C  C8  1  0.830642  0.829343  0.000000  1
  C  C9  1  0.001063  0.998937  0.000000  1
  C  C10  1  0.372475  0.627525  0.500000  1
  C  C11  1  0.621871  0.378129  0.500000  1
  C  C12  1  0.503787  0.001045  0.000000  1
  C  C13  1  0.998955  0.496213  0.000000  1
