# generated using pymatgen
data_LiTb6Y10Mg(HgIr2)2
_symmetry_space_group_name_H-M   'P 1'
_cell_length_a   9.67966529
_cell_length_b   9.69943919
_cell_length_c   9.74247200
_cell_angle_alpha   59.75237324
_cell_angle_beta   59.86635365
_cell_angle_gamma   59.87889154
_symmetry_Int_Tables_number   1
_chemical_formula_structural   LiTb6Y10Mg(HgIr2)2
_chemical_formula_sum   'Li1 Tb6 Y10 Mg1 Hg2 Ir4'
_cell_volume   644.32660122
_cell_formula_units_Z   1
loop_
 _symmetry_equiv_pos_site_id
 _symmetry_equiv_pos_as_xyz
  1  'x, y, z'
loop_
 _atom_site_type_symbol
 _atom_site_label
 _atom_site_symmetry_multiplicity
 _atom_site_fract_x
 _atom_site_fract_y
 _atom_site_fract_z
 _atom_site_occupancy
  Li  Li0  1  0.568968  0.568073  0.578558  1
  Tb  Tb1  1  0.346690  0.349573  0.350615  1
  Tb  Tb2  1  0.350484  0.347428  0.951230  1
  Tb  Tb3  1  0.347677  0.960368  0.345612  1
  Tb  Tb4  1  0.960105  0.347416  0.348266  1
  Tb  Tb5  1  0.811914  0.189378  0.188598  1
  Tb  Tb6  1  0.187835  0.811835  0.809776  1
  Y  Y7  1  0.188650  0.812119  0.188498  1
  Y  Y8  1  0.812528  0.185983  0.810482  1
  Y  Y9  1  0.192362  0.192468  0.807574  1
  Y  Y10  1  0.813363  0.813382  0.183948  1
  Y  Y11  1  0.939265  0.563472  0.563186  1
  Y  Y12  1  0.563530  0.937987  0.933982  1
  Y  Y13  1  0.561122  0.942562  0.560948  1
  Y  Y14  1  0.940098  0.562157  0.935186  1
  Y  Y15  1  0.560350  0.560440  0.940408  1
  Y  Y16  1  0.937319  0.937099  0.562255  1
  Mg  Mg17  1  0.572724  0.573557  0.276198  1
  Hg  Hg18  1  0.588962  0.247052  0.584538  1
  Hg  Hg19  1  0.246474  0.588781  0.583347  1
  Ir  Ir20  1  0.141591  0.144638  0.140456  1
  Ir  Ir21  1  0.145703  0.142046  0.575544  1
  Ir  Ir22  1  0.146387  0.575862  0.138682  1
  Ir  Ir23  1  0.575897  0.146326  0.142117  1
