# generated using pymatgen
data_Nd3CdNi(SnPt)2
_symmetry_space_group_name_H-M   'P 1'
_cell_length_a   7.74353017
_cell_length_b   7.77559939
_cell_length_c   3.93891500
_cell_angle_alpha   90.00000000
_cell_angle_beta   90.00000000
_cell_angle_gamma   120.13708625
_symmetry_Int_Tables_number   1
_chemical_formula_structural   Nd3CdNi(SnPt)2
_chemical_formula_sum   'Nd3 Cd1 Ni1 Sn2 Pt2'
_cell_volume   205.10607838
_cell_formula_units_Z   1
loop_
 _symmetry_equiv_pos_site_id
 _symmetry_equiv_pos_as_xyz
  1  'x, y, z'
loop_
 _atom_site_type_symbol
 _atom_site_label
 _atom_site_symmetry_multiplicity
 _atom_site_fract_x
 _atom_site_fract_y
 _atom_site_fract_z
 _atom_site_occupancy
  Nd  Nd0  1  0.593202  0.589170  0.000000  1
  Nd  Nd1  1  0.406798  0.995968  0.000000  1
  Nd  Nd2  1  0.000000  0.413838  0.000000  1
  Cd  Cd3  1  0.000000  0.753897  0.500000  1
  Ni  Ni4  1  0.000000  0.012838  0.000000  1
  Sn  Sn5  1  0.241641  0.240311  0.500000  1
  Sn  Sn6  1  0.758359  0.998670  0.500000  1
  Pt  Pt7  1  0.335730  0.665520  0.500000  1
  Pt  Pt8  1  0.664270  0.329789  0.500000  1
