# generated using pymatgen
data_Ni5Mo7Pt3W5N4
_symmetry_space_group_name_H-M   'P 1'
_cell_length_a   6.75615902
_cell_length_b   6.75042925
_cell_length_c   6.74467667
_cell_angle_alpha   89.85457491
_cell_angle_beta   90.13823430
_cell_angle_gamma   89.84204490
_symmetry_Int_Tables_number   1
_chemical_formula_structural   Ni5Mo7Pt3W5N4
_chemical_formula_sum   'Ni5 Mo7 Pt3 W5 N4'
_cell_volume   307.60122964
_cell_formula_units_Z   1
loop_
 _symmetry_equiv_pos_site_id
 _symmetry_equiv_pos_as_xyz
  1  'x, y, z'
loop_
 _atom_site_type_symbol
 _atom_site_label
 _atom_site_symmetry_multiplicity
 _atom_site_fract_x
 _atom_site_fract_y
 _atom_site_fract_z
 _atom_site_occupancy
  Ni  Ni0  1  0.196746  0.183916  0.180427  1
  Ni  Ni1  1  0.318086  0.821560  0.694452  1
  Ni  Ni2  1  0.436785  0.063487  0.936403  1
  Ni  Ni3  1  0.809855  0.689286  0.310860  1
  Ni  Ni4  1  0.678489  0.304315  0.816283  1
  Mo  Mo5  1  0.195311  0.542831  0.372200  1
  Mo  Mo6  1  0.873399  0.304900  0.457514  1
  Mo  Mo7  1  0.047079  0.126216  0.805630  1
  Mo  Mo8  1  0.303694  0.452620  0.874403  1
  Mo  Mo9  1  0.129151  0.803667  0.042455  1
  Mo  Mo10  1  0.799240  0.044490  0.123741  1
  Mo  Mo11  1  0.958114  0.626131  0.694686  1
  Pt  Pt12  1  0.563066  0.564478  0.564033  1
  Pt  Pt13  1  0.064656  0.937115  0.435419  1
  Pt  Pt14  1  0.934517  0.435311  0.063250  1
  W  W15  1  0.623552  0.701071  0.953959  1
  W  W16  1  0.454245  0.876871  0.298557  1
  W  W17  1  0.697308  0.956897  0.629170  1
  W  W18  1  0.543040  0.369155  0.195881  1
  W  W19  1  0.372533  0.196245  0.549590  1
  N  N20  1  0.376382  0.624512  0.125789  1
  N  N21  1  0.874756  0.874368  0.873605  1
  N  N22  1  0.126015  0.374658  0.624709  1
  N  N23  1  0.623981  0.125899  0.376984  1
