# generated using pymatgen
data_YbNi2B2Rh
_symmetry_space_group_name_H-M   'P 1'
_cell_length_a   5.19225313
_cell_length_b   4.96627088
_cell_length_c   3.05748900
_cell_angle_alpha   90.00000000
_cell_angle_beta   90.00000000
_cell_angle_gamma   118.57041228
_symmetry_Int_Tables_number   1
_chemical_formula_structural   YbNi2B2Rh
_chemical_formula_sum   'Yb1 Ni2 B2 Rh1'
_cell_volume   69.24038282
_cell_formula_units_Z   1
loop_
 _symmetry_equiv_pos_site_id
 _symmetry_equiv_pos_as_xyz
  1  'x, y, z'
loop_
 _atom_site_type_symbol
 _atom_site_label
 _atom_site_symmetry_multiplicity
 _atom_site_fract_x
 _atom_site_fract_y
 _atom_site_fract_z
 _atom_site_occupancy
  Yb  Yb0  1  0.000000  0.000000  0.500000  1
  Ni  Ni1  1  0.500000  0.500000  0.000000  1
  Ni  Ni2  1  0.500000  0.000000  0.000000  1
  B  B3  1  0.647750  0.323875  0.500000  1
  B  B4  1  0.352250  0.676125  0.500000  1
  Rh  Rh5  1  0.000000  0.500000  0.000000  1
