# generated using pymatgen
data_SmPa5Ni6(SnBi)4
_symmetry_space_group_name_H-M   'P 1'
_cell_length_a   8.27058559
_cell_length_b   8.25862760
_cell_length_c   8.26892167
_cell_angle_alpha   109.45815559
_cell_angle_beta   109.53126450
_cell_angle_gamma   109.54156273
_symmetry_Int_Tables_number   1
_chemical_formula_structural   SmPa5Ni6(SnBi)4
_chemical_formula_sum   'Sm1 Pa5 Ni6 Sn4 Bi4'
_cell_volume   434.15070932
_cell_formula_units_Z   1
loop_
 _symmetry_equiv_pos_site_id
 _symmetry_equiv_pos_as_xyz
  1  'x, y, z'
loop_
 _atom_site_type_symbol
 _atom_site_label
 _atom_site_symmetry_multiplicity
 _atom_site_fract_x
 _atom_site_fract_y
 _atom_site_fract_z
 _atom_site_occupancy
  Sm  Sm0  1  0.752860  0.376086  0.624247  1
  Pa  Pa1  1  0.126767  0.884160  0.247136  1
  Pa  Pa2  1  0.368225  0.612593  0.745344  1
  Pa  Pa3  1  0.888303  0.249584  0.129089  1
  Pa  Pa4  1  0.620048  0.744883  0.374825  1
  Pa  Pa5  1  0.243426  0.130711  0.881077  1
  Ni  Ni6  1  0.607894  0.373755  0.234544  1
  Ni  Ni7  1  0.892672  0.119919  0.759590  1
  Ni  Ni8  1  0.358066  0.244701  0.621324  1
  Ni  Ni9  1  0.129651  0.764492  0.886956  1
  Ni  Ni10  1  0.248535  0.618040  0.368445  1
  Ni  Ni11  1  0.761666  0.881706  0.125592  1
  Sn  Sn12  1  0.337545  0.336031  0.338831  1
  Sn  Sn13  1  0.164134  0.502527  0.998098  1
  Sn  Sn14  1  0.995102  0.163066  0.499399  1
  Sn  Sn15  1  0.827669  0.828232  0.829176  1
  Bi  Bi16  1  0.505202  0.000477  0.167670  1
  Bi  Bi17  1  0.670375  0.500546  0.997573  1
  Bi  Bi18  1  0.502042  0.000465  0.670497  1
  Bi  Bi19  1  0.999817  0.668027  0.500591  1
