# generated using pymatgen
data_HoZn7Ag4Au
_symmetry_space_group_name_H-M   'P 1'
_cell_length_a   7.04382959
_cell_length_b   7.04382091
_cell_length_c   7.04382898
_cell_angle_alpha   97.63233007
_cell_angle_beta   97.68960590
_cell_angle_gamma   137.17039809
_symmetry_Int_Tables_number   1
_chemical_formula_structural   HoZn7Ag4Au
_chemical_formula_sum   'Ho1 Zn7 Ag4 Au1'
_cell_volume   221.18289244
_cell_formula_units_Z   1
loop_
 _symmetry_equiv_pos_site_id
 _symmetry_equiv_pos_as_xyz
  1  'x, y, z'
loop_
 _atom_site_type_symbol
 _atom_site_label
 _atom_site_symmetry_multiplicity
 _atom_site_fract_x
 _atom_site_fract_y
 _atom_site_fract_z
 _atom_site_occupancy
  Ho  Ho0  1  0.000001  0.995312  0.995312  1
  Zn  Zn1  1  0.996942  0.997341  0.495994  1
  Zn  Zn2  1  0.498657  0.499055  0.495997  1
  Zn  Zn3  1  0.501347  0.997341  0.000399  1
  Zn  Zn4  1  0.003059  0.499055  0.000399  1
  Zn  Zn5  1  0.500001  0.713109  0.213109  1
  Zn  Zn6  1  0.717023  0.502399  0.219426  1
  Zn  Zn7  1  0.282973  0.502399  0.785376  1
  Ag  Ag8  1  0.000006  0.342309  0.342303  1
  Ag  Ag9  1  0.999999  0.647013  0.647014  1
  Ag  Ag10  1  0.654845  0.999192  0.654038  1
  Ag  Ag11  1  0.345154  0.999192  0.344348  1
  Au  Au12  1  0.499995  0.306282  0.806287  1
