# generated using pymatgen
data_Sm2Th(SnIr)3
_symmetry_space_group_name_H-M   'P 1'
_cell_length_a   7.59385500
_cell_length_b   7.52183208
_cell_length_c   4.10074200
_cell_angle_alpha   90.00000000
_cell_angle_beta   90.00000000
_cell_angle_gamma   120.31725765
_symmetry_Int_Tables_number   1
_chemical_formula_structural   Sm2Th(SnIr)3
_chemical_formula_sum   'Sm2 Th1 Sn3 Ir3'
_cell_volume   202.20026513
_cell_formula_units_Z   1
loop_
 _symmetry_equiv_pos_site_id
 _symmetry_equiv_pos_as_xyz
  1  'x, y, z'
loop_
 _atom_site_type_symbol
 _atom_site_label
 _atom_site_symmetry_multiplicity
 _atom_site_fract_x
 _atom_site_fract_y
 _atom_site_fract_z
 _atom_site_occupancy
  Sm  Sm0  1  0.000025  0.591613  0.000000  1
  Sm  Sm1  1  0.408413  0.408387  0.000000  1
  Th  Th2  1  0.585610  0.000000  0.000000  1
  Sn  Sn3  1  0.244059  0.000000  0.500000  1
  Sn  Sn4  1  0.009510  0.262227  0.500000  1
  Sn  Sn5  1  0.747284  0.737773  0.500000  1
  Ir  Ir6  1  0.348466  0.683672  0.500000  1
  Ir  Ir7  1  0.664794  0.316328  0.500000  1
  Ir  Ir8  1  0.991839  0.000000  0.000000  1
