# generated using pymatgen
data_Pr4LuIn3Br
_symmetry_space_group_name_H-M   'P 1'
_cell_length_a   9.55647400
_cell_length_b   9.55647428
_cell_length_c   6.80633900
_cell_angle_alpha   90.00000000
_cell_angle_beta   90.00000000
_cell_angle_gamma   120.00000596
_symmetry_Int_Tables_number   1
_chemical_formula_structural   Pr4LuIn3Br
_chemical_formula_sum   'Pr8 Lu2 In6 Br2'
_cell_volume   538.31881522
_cell_formula_units_Z   2
loop_
 _symmetry_equiv_pos_site_id
 _symmetry_equiv_pos_as_xyz
  1  'x, y, z'
loop_
 _atom_site_type_symbol
 _atom_site_label
 _atom_site_symmetry_multiplicity
 _atom_site_fract_x
 _atom_site_fract_y
 _atom_site_fract_z
 _atom_site_occupancy
  Pr  Pr0  1  0.732343  0.732343  0.253919  1
  Pr  Pr1  1  0.000000  0.732343  0.746081  1
  Pr  Pr2  1  0.732343  0.000000  0.746081  1
  Pr  Pr3  1  0.267657  0.267657  0.746081  1
  Pr  Pr4  1  0.000000  0.267657  0.253919  1
  Pr  Pr5  1  0.267657  0.000000  0.253919  1
  Pr  Pr6  1  0.333333  0.666667  0.000000  1
  Pr  Pr7  1  0.666667  0.333333  0.000000  1
  Lu  Lu8  1  0.333333  0.666667  0.500000  1
  Lu  Lu9  1  0.666667  0.333333  0.500000  1
  In  In10  1  0.393841  0.000000  0.743994  1
  In  In11  1  0.000000  0.606159  0.256006  1
  In  In12  1  0.606159  0.000000  0.256006  1
  In  In13  1  0.000000  0.393841  0.743994  1
  In  In14  1  0.393841  0.393841  0.256006  1
  In  In15  1  0.606159  0.606159  0.743994  1
  Br  Br16  1  0.000000  0.000000  0.500000  1
  Br  Br17  1  0.000000  0.000000  0.000000  1
