# generated using pymatgen
data_Dy9LuCd3Ru
_symmetry_space_group_name_H-M   'P 1'
_cell_length_a   9.56944400
_cell_length_b   9.56944434
_cell_length_c   9.82713300
_cell_angle_alpha   90.00000000
_cell_angle_beta   90.00000000
_cell_angle_gamma   119.99999881
_symmetry_Int_Tables_number   1
_chemical_formula_structural   Dy9LuCd3Ru
_chemical_formula_sum   'Dy18 Lu2 Cd6 Ru2'
_cell_volume   779.34705184
_cell_formula_units_Z   2
loop_
 _symmetry_equiv_pos_site_id
 _symmetry_equiv_pos_as_xyz
  1  'x, y, z'
loop_
 _atom_site_type_symbol
 _atom_site_label
 _atom_site_symmetry_multiplicity
 _atom_site_fract_x
 _atom_site_fract_y
 _atom_site_fract_z
 _atom_site_occupancy
  Dy  Dy0  1  0.209593  0.790407  0.440060  1
  Dy  Dy1  1  0.209593  0.419188  0.440060  1
  Dy  Dy2  1  0.580812  0.790407  0.440060  1
  Dy  Dy3  1  0.790407  0.209593  0.559940  1
  Dy  Dy4  1  0.790407  0.580812  0.559940  1
  Dy  Dy5  1  0.419188  0.209593  0.559940  1
  Dy  Dy6  1  0.790407  0.209593  0.940060  1
  Dy  Dy7  1  0.790407  0.580812  0.940060  1
  Dy  Dy8  1  0.419188  0.209593  0.940060  1
  Dy  Dy9  1  0.209593  0.790407  0.059940  1
  Dy  Dy10  1  0.209593  0.419188  0.059940  1
  Dy  Dy11  1  0.580812  0.790407  0.059940  1
  Dy  Dy12  1  0.541141  0.458859  0.250000  1
  Dy  Dy13  1  0.541141  0.082281  0.250000  1
  Dy  Dy14  1  0.917719  0.458859  0.250000  1
  Dy  Dy15  1  0.458859  0.541141  0.750000  1
  Dy  Dy16  1  0.458859  0.917719  0.750000  1
  Dy  Dy17  1  0.082281  0.541141  0.750000  1
  Lu  Lu18  1  0.000000  0.000000  0.500000  1
  Lu  Lu19  1  0.000000  0.000000  0.000000  1
  Cd  Cd20  1  0.886153  0.113847  0.250000  1
  Cd  Cd21  1  0.886153  0.772306  0.250000  1
  Cd  Cd22  1  0.227694  0.113847  0.250000  1
  Cd  Cd23  1  0.113847  0.886153  0.750000  1
  Cd  Cd24  1  0.113847  0.227694  0.750000  1
  Cd  Cd25  1  0.772306  0.886153  0.750000  1
  Ru  Ru26  1  0.333333  0.666667  0.250000  1
  Ru  Ru27  1  0.666667  0.333333  0.750000  1
