# generated using pymatgen
data_Y6ErTm13(Tl3Ru)2
_symmetry_space_group_name_H-M   'P 1'
_cell_length_a   9.71544556
_cell_length_b   9.71544497
_cell_length_c   9.65585713
_cell_angle_alpha   89.97531078
_cell_angle_beta   90.02468831
_cell_angle_gamma   119.98844153
_symmetry_Int_Tables_number   1
_chemical_formula_structural   Y6ErTm13(Tl3Ru)2
_chemical_formula_sum   'Y6 Er1 Tm13 Tl6 Ru2'
_cell_volume   789.40050344
_cell_formula_units_Z   1
loop_
 _symmetry_equiv_pos_site_id
 _symmetry_equiv_pos_as_xyz
  1  'x, y, z'
loop_
 _atom_site_type_symbol
 _atom_site_label
 _atom_site_symmetry_multiplicity
 _atom_site_fract_x
 _atom_site_fract_y
 _atom_site_fract_z
 _atom_site_occupancy
  Y  Y0  1  0.537988  0.462012  0.250045  1
  Y  Y1  1  0.538189  0.076236  0.249821  1
  Y  Y2  1  0.923764  0.461811  0.249821  1
  Y  Y3  1  0.461961  0.538039  0.749947  1
  Y  Y4  1  0.462174  0.924126  0.750162  1
  Y  Y5  1  0.075874  0.537826  0.750162  1
  Er  Er6  1  0.210881  0.789119  0.437889  1
  Tm  Tm7  1  0.999827  0.000173  0.500041  1
  Tm  Tm8  1  0.999945  0.000055  0.000160  1
  Tm  Tm9  1  0.211096  0.421724  0.437817  1
  Tm  Tm10  1  0.578276  0.788904  0.437817  1
  Tm  Tm11  1  0.788974  0.211026  0.562112  1
  Tm  Tm12  1  0.788785  0.578050  0.562260  1
  Tm  Tm13  1  0.421950  0.211215  0.562260  1
  Tm  Tm14  1  0.789063  0.210937  0.937875  1
  Tm  Tm15  1  0.789150  0.577949  0.937866  1
  Tm  Tm16  1  0.422051  0.210850  0.937866  1
  Tm  Tm17  1  0.211036  0.788964  0.061830  1
  Tm  Tm18  1  0.210883  0.421963  0.062051  1
  Tm  Tm19  1  0.578037  0.789117  0.062051  1
  Tl  Tl20  1  0.882487  0.117513  0.249697  1
  Tl  Tl21  1  0.882697  0.765083  0.250096  1
  Tl  Tl22  1  0.234917  0.117303  0.250096  1
  Tl  Tl23  1  0.117248  0.882752  0.750266  1
  Tl  Tl24  1  0.117406  0.234819  0.750159  1
  Tl  Tl25  1  0.765181  0.882594  0.750159  1
  Ru  Ru26  1  0.333561  0.666439  0.249779  1
  Ru  Ru27  1  0.666596  0.333404  0.749898  1
