# generated using pymatgen
data_Tm12Ni5Sb
_symmetry_space_group_name_H-M   'P 1'
_cell_length_a   8.23438199
_cell_length_b   8.23438224
_cell_length_c   8.23438088
_cell_angle_alpha   109.34438013
_cell_angle_beta   111.62018861
_cell_angle_gamma   107.47577306
_symmetry_Int_Tables_number   1
_chemical_formula_structural   Tm12Ni5Sb
_chemical_formula_sum   'Tm12 Ni5 Sb1'
_cell_volume   429.23950485
_cell_formula_units_Z   1
loop_
 _symmetry_equiv_pos_site_id
 _symmetry_equiv_pos_as_xyz
  1  'x, y, z'
loop_
 _atom_site_type_symbol
 _atom_site_label
 _atom_site_symmetry_multiplicity
 _atom_site_fract_x
 _atom_site_fract_y
 _atom_site_fract_z
 _atom_site_occupancy
  Tm  Tm0  1  0.292652  0.179568  0.472220  1
  Tm  Tm1  1  0.707348  0.820432  0.527780  1
  Tm  Tm2  1  0.292652  0.820432  0.113085  1
  Tm  Tm3  1  0.707348  0.179568  0.886915  1
  Tm  Tm4  1  0.628417  0.322021  0.306397  1
  Tm  Tm5  1  0.371583  0.677979  0.693603  1
  Tm  Tm6  1  0.015624  0.322021  0.693603  1
  Tm  Tm7  1  0.984376  0.677979  0.306397  1
  Tm  Tm8  1  0.210079  0.403262  0.193184  1
  Tm  Tm9  1  0.789921  0.596738  0.806816  1
  Tm  Tm10  1  0.210079  0.016895  0.806816  1
  Tm  Tm11  1  0.789921  0.983105  0.193184  1
  Ni  Ni12  1  0.000000  0.364462  0.364462  1
  Ni  Ni13  1  0.000000  0.635538  0.635538  1
  Ni  Ni14  1  0.375856  0.875856  0.500000  1
  Ni  Ni15  1  0.624144  0.124144  0.500000  1
  Ni  Ni16  1  0.000000  0.000000  0.000000  1
  Sb  Sb17  1  0.500000  0.500000  0.000000  1
