# generated using pymatgen
data_Np8Si15Pd
_symmetry_space_group_name_H-M   'P 1'
_cell_length_a   7.98424900
_cell_length_b   7.98424921
_cell_length_c   8.04665600
_cell_angle_alpha   90.00000000
_cell_angle_beta   90.00000000
_cell_angle_gamma   119.99999497
_symmetry_Int_Tables_number   1
_chemical_formula_structural   Np8Si15Pd
_chemical_formula_sum   'Np8 Si15 Pd1'
_cell_volume   444.23650719
_cell_formula_units_Z   1
loop_
 _symmetry_equiv_pos_site_id
 _symmetry_equiv_pos_as_xyz
  1  'x, y, z'
loop_
 _atom_site_type_symbol
 _atom_site_label
 _atom_site_symmetry_multiplicity
 _atom_site_fract_x
 _atom_site_fract_y
 _atom_site_fract_z
 _atom_site_occupancy
  Np  Np0  1  0.497423  0.502577  0.754387  1
  Np  Np1  1  0.497524  0.502476  0.245488  1
  Np  Np2  1  0.005153  0.502577  0.754387  1
  Np  Np3  1  0.004952  0.502476  0.245488  1
  Np  Np4  1  0.497423  0.994847  0.754387  1
  Np  Np5  1  0.497524  0.995048  0.245488  1
  Np  Np6  1  0.000000  0.000000  0.753982  1
  Np  Np7  1  0.000000  0.000000  0.245879  1
  Si  Si8  1  0.666667  0.333333  0.999711  1
  Si  Si9  1  0.333333  0.666667  0.000632  1
  Si  Si10  1  0.333333  0.666667  0.499909  1
  Si  Si11  1  0.834303  0.165697  0.999372  1
  Si  Si12  1  0.166206  0.833794  0.999404  1
  Si  Si13  1  0.331394  0.165697  0.999372  1
  Si  Si14  1  0.166090  0.833910  0.500566  1
  Si  Si15  1  0.667588  0.833794  0.999404  1
  Si  Si16  1  0.834997  0.165003  0.500784  1
  Si  Si17  1  0.834303  0.668606  0.999372  1
  Si  Si18  1  0.667821  0.833910  0.500566  1
  Si  Si19  1  0.166206  0.332412  0.999404  1
  Si  Si20  1  0.330004  0.165003  0.500784  1
  Si  Si21  1  0.166090  0.332179  0.500566  1
  Si  Si22  1  0.834997  0.669996  0.500784  1
  Pd  Pd23  1  0.666667  0.333333  0.499882  1
