# generated using pymatgen
data_Ce8Si15Pt
_symmetry_space_group_name_H-M   'P 1'
_cell_length_a   8.24768609
_cell_length_b   8.24879584
_cell_length_c   8.19796300
_cell_angle_alpha   90.00390363
_cell_angle_beta   89.99164984
_cell_angle_gamma   120.02749102
_symmetry_Int_Tables_number   1
_chemical_formula_structural   Ce8Si15Pt
_chemical_formula_sum   'Ce8 Si15 Pt1'
_cell_volume   482.87962930
_cell_formula_units_Z   1
loop_
 _symmetry_equiv_pos_site_id
 _symmetry_equiv_pos_as_xyz
  1  'x, y, z'
loop_
 _atom_site_type_symbol
 _atom_site_label
 _atom_site_symmetry_multiplicity
 _atom_site_fract_x
 _atom_site_fract_y
 _atom_site_fract_z
 _atom_site_occupancy
  Ce  Ce0  1  0.000100  0.000017  0.251953  1
  Ce  Ce1  1  0.999977  0.999965  0.748173  1
  Ce  Ce2  1  0.502532  0.497542  0.253982  1
  Ce  Ce3  1  0.502449  0.004584  0.253635  1
  Ce  Ce4  1  0.995362  0.497639  0.253769  1
  Ce  Ce5  1  0.501155  0.498770  0.746502  1
  Ce  Ce6  1  0.501418  0.002873  0.746054  1
  Ce  Ce7  1  0.996915  0.498466  0.745918  1
  Si  Si8  1  0.165863  0.834220  0.498887  1
  Si  Si9  1  0.165711  0.331545  0.499136  1
  Si  Si10  1  0.668523  0.834412  0.499221  1
  Si  Si11  1  0.832229  0.167786  0.500642  1
  Si  Si12  1  0.832317  0.664530  0.501087  1
  Si  Si13  1  0.335488  0.167614  0.501108  1
  Si  Si14  1  0.832934  0.167039  0.000472  1
  Si  Si15  1  0.832881  0.665812  0.000695  1
  Si  Si16  1  0.334152  0.167037  0.000676  1
  Si  Si17  1  0.165242  0.834774  0.998740  1
  Si  Si18  1  0.165080  0.330337  0.999057  1
  Si  Si19  1  0.669644  0.834966  0.999068  1
  Si  Si20  1  0.333283  0.666834  0.499509  1
  Si  Si21  1  0.666703  0.333240  0.500507  1
  Si  Si22  1  0.666774  0.333192  0.998595  1
  Pt  Pt23  1  0.333267  0.666805  0.002611  1
