# generated using pymatgen
data_TmZn7Ga3Cu2
_symmetry_space_group_name_H-M   'P 1'
_cell_length_a   6.73799355
_cell_length_b   6.72901366
_cell_length_c   6.72901296
_cell_angle_alpha   98.76856574
_cell_angle_beta   98.35978293
_cell_angle_gamma   134.51033015
_symmetry_Int_Tables_number   1
_chemical_formula_structural   TmZn7Ga3Cu2
_chemical_formula_sum   'Tm1 Zn7 Ga3 Cu2'
_cell_volume   200.78185501
_cell_formula_units_Z   1
loop_
 _symmetry_equiv_pos_site_id
 _symmetry_equiv_pos_as_xyz
  1  'x, y, z'
loop_
 _atom_site_type_symbol
 _atom_site_label
 _atom_site_symmetry_multiplicity
 _atom_site_fract_x
 _atom_site_fract_y
 _atom_site_fract_z
 _atom_site_occupancy
  Tm  Tm0  1  0.998625  0.999604  0.999021  1
  Zn  Zn1  1  0.003616  0.999764  0.496345  1
  Zn  Zn2  1  0.003616  0.507271  0.003852  1
  Zn  Zn3  1  0.366419  0.016247  0.350171  1
  Zn  Zn4  1  0.499572  0.280366  0.780038  1
  Zn  Zn5  1  0.499572  0.719534  0.219206  1
  Zn  Zn6  1  0.693345  0.487777  0.205568  1
  Zn  Zn7  1  0.299209  0.505493  0.793716  1
  Ga  Ga8  1  0.998403  0.350433  0.351071  1
  Ga  Ga9  1  0.998403  0.647332  0.647969  1
  Ga  Ga10  1  0.637476  0.985566  0.651911  1
  Cu  Cu11  1  0.500872  0.500120  0.500379  1
  Cu  Cu12  1  0.500872  0.000493  0.000753  1
