# generated using pymatgen
data_Eu4Si3GePd3Pt
_symmetry_space_group_name_H-M   'P 1'
_cell_length_a   6.49555134
_cell_length_b   6.49555177
_cell_length_c   6.49555208
_cell_angle_alpha   90.02567117
_cell_angle_beta   90.02566921
_cell_angle_gamma   89.97432474
_symmetry_Int_Tables_number   1
_chemical_formula_structural   Eu4Si3GePd3Pt
_chemical_formula_sum   'Eu4 Si3 Ge1 Pd3 Pt1'
_cell_volume   274.06148561
_cell_formula_units_Z   1
loop_
 _symmetry_equiv_pos_site_id
 _symmetry_equiv_pos_as_xyz
  1  'x, y, z'
loop_
 _atom_site_type_symbol
 _atom_site_label
 _atom_site_symmetry_multiplicity
 _atom_site_fract_x
 _atom_site_fract_y
 _atom_site_fract_z
 _atom_site_occupancy
  Eu  Eu0  1  0.378672  0.878672  0.621328  1
  Eu  Eu1  1  0.879916  0.621934  0.376373  1
  Eu  Eu2  1  0.623627  0.379916  0.878066  1
  Eu  Eu3  1  0.121934  0.123627  0.120084  1
  Si  Si4  1  0.170486  0.330424  0.674498  1
  Si  Si5  1  0.325502  0.670486  0.169576  1
  Si  Si6  1  0.830424  0.825502  0.829514  1
  Ge  Ge7  1  0.675781  0.175781  0.324219  1
  Pd  Pd8  1  0.581448  0.907042  0.078344  1
  Pd  Pd9  1  0.921656  0.081448  0.592958  1
  Pd  Pd10  1  0.407042  0.421656  0.418552  1
  Pt  Pt11  1  0.083512  0.583512  0.916488  1
