# generated using pymatgen
data_LaDy(Ni4B)2
_symmetry_space_group_name_H-M   'P 1'
_cell_length_a   5.00642100
_cell_length_b   5.00699081
_cell_length_c   7.00333300
_cell_angle_alpha   90.00000000
_cell_angle_beta   90.00000000
_cell_angle_gamma   119.99622892
_symmetry_Int_Tables_number   1
_chemical_formula_structural   LaDy(Ni4B)2
_chemical_formula_sum   'La1 Dy1 Ni8 B2'
_cell_volume   152.03937375
_cell_formula_units_Z   1
loop_
 _symmetry_equiv_pos_site_id
 _symmetry_equiv_pos_as_xyz
  1  'x, y, z'
loop_
 _atom_site_type_symbol
 _atom_site_label
 _atom_site_symmetry_multiplicity
 _atom_site_fract_x
 _atom_site_fract_y
 _atom_site_fract_z
 _atom_site_occupancy
  La  La0  1  0.500000  0.000000  0.000000  1
  Dy  Dy1  1  0.500000  0.000000  0.500000  1
  Ni  Ni2  1  0.833344  0.666689  0.000000  1
  Ni  Ni3  1  0.166656  0.333311  0.000000  1
  Ni  Ni4  1  0.000000  0.000000  0.704409  1
  Ni  Ni5  1  0.500000  0.500000  0.704495  1
  Ni  Ni6  1  0.000000  0.500000  0.704495  1
  Ni  Ni7  1  0.000000  0.000000  0.295591  1
  Ni  Ni8  1  0.500000  0.500000  0.295505  1
  Ni  Ni9  1  0.000000  0.500000  0.295505  1
  B  B10  1  0.833309  0.666617  0.500000  1
  B  B11  1  0.166691  0.333383  0.500000  1
