# generated using pymatgen
data_Dy7Y(CdIr)2
_symmetry_space_group_name_H-M   'P 1'
_cell_length_a   9.64386550
_cell_length_b   9.64386462
_cell_length_c   9.64108500
_cell_angle_alpha   60.00953744
_cell_angle_beta   60.00954045
_cell_angle_gamma   59.98092363
_symmetry_Int_Tables_number   1
_chemical_formula_structural   Dy7Y(CdIr)2
_chemical_formula_sum   'Dy14 Y2 Cd4 Ir4'
_cell_volume   634.03480174
_cell_formula_units_Z   2
loop_
 _symmetry_equiv_pos_site_id
 _symmetry_equiv_pos_as_xyz
  1  'x, y, z'
loop_
 _atom_site_type_symbol
 _atom_site_label
 _atom_site_symmetry_multiplicity
 _atom_site_fract_x
 _atom_site_fract_y
 _atom_site_fract_z
 _atom_site_occupancy
  Dy  Dy0  1  0.349013  0.349013  0.349361  1
  Dy  Dy1  1  0.349013  0.349013  0.952612  1
  Dy  Dy2  1  0.349361  0.952612  0.349013  1
  Dy  Dy3  1  0.952612  0.349361  0.349013  1
  Dy  Dy4  1  0.810518  0.189482  0.189482  1
  Dy  Dy5  1  0.189482  0.810518  0.810518  1
  Dy  Dy6  1  0.189482  0.810518  0.189482  1
  Dy  Dy7  1  0.810518  0.189482  0.810518  1
  Dy  Dy8  1  0.189508  0.189508  0.810492  1
  Dy  Dy9  1  0.810492  0.810492  0.189508  1
  Dy  Dy10  1  0.938158  0.561842  0.561842  1
  Dy  Dy11  1  0.561842  0.938158  0.938158  1
  Dy  Dy12  1  0.561842  0.938158  0.561842  1
  Dy  Dy13  1  0.938158  0.561842  0.938158  1
  Y  Y14  1  0.562390  0.562390  0.937610  1
  Y  Y15  1  0.937610  0.937610  0.562390  1
  Cd  Cd16  1  0.580937  0.580937  0.580995  1
  Cd  Cd17  1  0.580937  0.580937  0.257132  1
  Cd  Cd18  1  0.580995  0.257132  0.580937  1
  Cd  Cd19  1  0.257132  0.580995  0.580937  1
  Ir  Ir20  1  0.141911  0.141911  0.141716  1
  Ir  Ir21  1  0.141911  0.141911  0.574462  1
  Ir  Ir22  1  0.141716  0.574462  0.141911  1
  Ir  Ir23  1  0.574462  0.141716  0.141911  1
