# generated using pymatgen
data_Dy3RhPb3Au
_symmetry_space_group_name_H-M   'P 1'
_cell_length_a   7.95025000
_cell_length_b   7.95025083
_cell_length_c   3.67602600
_cell_angle_alpha   90.00000000
_cell_angle_beta   90.00000000
_cell_angle_gamma   119.99998823
_symmetry_Int_Tables_number   1
_chemical_formula_structural   Dy3RhPb3Au
_chemical_formula_sum   'Dy3 Rh1 Pb3 Au1'
_cell_volume   201.21987453
_cell_formula_units_Z   1
loop_
 _symmetry_equiv_pos_site_id
 _symmetry_equiv_pos_as_xyz
  1  'x, y, z'
loop_
 _atom_site_type_symbol
 _atom_site_label
 _atom_site_symmetry_multiplicity
 _atom_site_fract_x
 _atom_site_fract_y
 _atom_site_fract_z
 _atom_site_occupancy
  Dy  Dy0  1  0.582145  0.982188  0.500001  1
  Dy  Dy1  1  0.400045  0.417856  0.500001  1
  Dy  Dy2  1  0.017812  0.599955  0.500001  1
  Rh  Rh3  1  0.333333  0.666667  0.000000  1
  Pb  Pb4  1  0.245161  0.999884  0.000000  1
  Pb  Pb5  1  0.000116  0.245276  0.000000  1
  Pb  Pb6  1  0.754723  0.754839  0.000000  1
  Au  Au7  1  0.666667  0.333334  0.000000  1
