# generated using pymatgen
data_Nd2Gd2Se3O4
_symmetry_space_group_name_H-M   'P 1'
_cell_length_a   6.72254855
_cell_length_b   6.72254886
_cell_length_c   8.43810600
_cell_angle_alpha   90.00000000
_cell_angle_beta   90.00000000
_cell_angle_gamma   145.55710675
_symmetry_Int_Tables_number   1
_chemical_formula_structural   Nd2Gd2Se3O4
_chemical_formula_sum   'Nd2 Gd2 Se3 O4'
_cell_volume   215.68027461
_cell_formula_units_Z   1
loop_
 _symmetry_equiv_pos_site_id
 _symmetry_equiv_pos_as_xyz
  1  'x, y, z'
loop_
 _atom_site_type_symbol
 _atom_site_label
 _atom_site_symmetry_multiplicity
 _atom_site_fract_x
 _atom_site_fract_y
 _atom_site_fract_z
 _atom_site_occupancy
  Nd  Nd0  1  0.316560  0.683440  0.238184  1
  Nd  Nd1  1  0.316560  0.683440  0.761816  1
  Gd  Gd2  1  0.996649  0.003351  0.000000  1
  Gd  Gd3  1  0.982214  0.017786  0.500000  1
  Se  Se4  1  0.642473  0.357527  0.350246  1
  Se  Se5  1  0.682228  0.317772  0.000000  1
  Se  Se6  1  0.642473  0.357527  0.649754  1
  O  O7  1  0.915160  0.084840  0.755256  1
  O  O8  1  0.413448  0.586552  0.000000  1
  O  O9  1  0.387257  0.612743  0.500000  1
  O  O10  1  0.915160  0.084840  0.244744  1
