# generated using pymatgen
data_Hf7Ti4Si16Mo9
_symmetry_space_group_name_H-M   'P 1'
_cell_length_a   6.71220249
_cell_length_b   6.71397000
_cell_length_c   12.40985585
_cell_angle_alpha   90.08483578
_cell_angle_beta   89.97914582
_cell_angle_gamma   89.71161007
_symmetry_Int_Tables_number   1
_chemical_formula_structural   Hf7Ti4Si16Mo9
_chemical_formula_sum   'Hf7 Ti4 Si16 Mo9'
_cell_volume   559.24894802
_cell_formula_units_Z   1
loop_
 _symmetry_equiv_pos_site_id
 _symmetry_equiv_pos_as_xyz
  1  'x, y, z'
loop_
 _atom_site_type_symbol
 _atom_site_label
 _atom_site_symmetry_multiplicity
 _atom_site_fract_x
 _atom_site_fract_y
 _atom_site_fract_z
 _atom_site_occupancy
  Hf  Hf0  1  0.005664  0.335359  0.218731  1
  Hf  Hf1  1  0.161665  0.501682  0.467537  1
  Hf  Hf2  1  0.838359  0.495943  0.968300  1
  Hf  Hf3  1  0.501848  0.162193  0.531532  1
  Hf  Hf4  1  0.496080  0.838389  0.032324  1
  Hf  Hf5  1  0.997511  0.663434  0.719169  1
  Hf  Hf6  1  0.336488  0.006842  0.782099  1
  Ti  Ti7  1  0.660497  0.992005  0.281327  1
  Ti  Ti8  1  0.333707  0.666123  0.248142  1
  Ti  Ti9  1  0.665421  0.333071  0.751921  1
  Ti  Ti10  1  0.832212  0.833118  0.499407  1
  Si  Si11  1  0.039215  0.293428  0.815496  1
  Si  Si12  1  0.214224  0.532634  0.060980  1
  Si  Si13  1  0.797111  0.458664  0.564174  1
  Si  Si14  1  0.533298  0.214493  0.940054  1
  Si  Si15  1  0.461239  0.799906  0.432969  1
  Si  Si16  1  0.960036  0.705036  0.314111  1
  Si  Si17  1  0.299013  0.039506  0.185697  1
  Si  Si18  1  0.702449  0.961964  0.685566  1
  Si  Si19  1  0.291411  0.370593  0.676327  1
  Si  Si20  1  0.124880  0.798706  0.928871  1
  Si  Si21  1  0.863551  0.204056  0.423948  1
  Si  Si22  1  0.797122  0.123246  0.073509  1
  Si  Si23  1  0.208005  0.869033  0.572175  1
  Si  Si24  1  0.707725  0.633610  0.179133  1
  Si  Si25  1  0.374430  0.289228  0.323617  1
  Si  Si26  1  0.629075  0.707500  0.821936  1
  Mo  Mo27  1  0.996980  0.157112  0.621519  1
  Mo  Mo28  1  0.336080  0.508842  0.865920  1
  Mo  Mo29  1  0.658098  0.506309  0.375089  1
  Mo  Mo30  1  0.510770  0.338135  0.135141  1
  Mo  Mo31  1  0.504876  0.658439  0.624125  1
  Mo  Mo32  1  0.005214  0.830528  0.125429  1
  Mo  Mo33  1  0.156481  0.998389  0.377485  1
  Mo  Mo34  1  0.829574  0.003179  0.875710  1
  Mo  Mo35  1  0.169692  0.169306  0.000532  1
