# generated using pymatgen
data_Er(ThPt4)3
_symmetry_space_group_name_H-M   'P 1'
_cell_length_a   5.93688400
_cell_length_b   5.93688319
_cell_length_c   9.75871000
_cell_angle_alpha   90.00000000
_cell_angle_beta   90.00000000
_cell_angle_gamma   119.99999340
_symmetry_Int_Tables_number   1
_chemical_formula_structural   Er(ThPt4)3
_chemical_formula_sum   'Er1 Th3 Pt12'
_cell_volume   297.87917340
_cell_formula_units_Z   1
loop_
 _symmetry_equiv_pos_site_id
 _symmetry_equiv_pos_as_xyz
  1  'x, y, z'
loop_
 _atom_site_type_symbol
 _atom_site_label
 _atom_site_symmetry_multiplicity
 _atom_site_fract_x
 _atom_site_fract_y
 _atom_site_fract_z
 _atom_site_occupancy
  Er  Er0  1  0.333333  0.666667  0.250000  1
  Th  Th1  1  0.000000  0.000000  0.495622  1
  Th  Th2  1  0.000000  0.000000  0.004378  1
  Th  Th3  1  0.666667  0.333333  0.750000  1
  Pt  Pt4  1  0.499213  0.500787  0.498057  1
  Pt  Pt5  1  0.499213  0.998425  0.498057  1
  Pt  Pt6  1  0.001575  0.500787  0.498057  1
  Pt  Pt7  1  0.499213  0.500787  0.001943  1
  Pt  Pt8  1  0.499213  0.998425  0.001943  1
  Pt  Pt9  1  0.001575  0.500787  0.001943  1
  Pt  Pt10  1  0.824666  0.649331  0.250000  1
  Pt  Pt11  1  0.350669  0.175334  0.250000  1
  Pt  Pt12  1  0.824666  0.175334  0.250000  1
  Pt  Pt13  1  0.174356  0.348712  0.750000  1
  Pt  Pt14  1  0.651288  0.825644  0.750000  1
  Pt  Pt15  1  0.174356  0.825644  0.750000  1
