# generated using pymatgen
data_La2Y3Tm3(CdNi)2
_symmetry_space_group_name_H-M   'P 1'
_cell_length_a   9.60766478
_cell_length_b   9.60766506
_cell_length_c   9.60766500
_cell_angle_alpha   60.00000365
_cell_angle_beta   60.00000270
_cell_angle_gamma   60.00000275
_symmetry_Int_Tables_number   1
_chemical_formula_structural   La2Y3Tm3(CdNi)2
_chemical_formula_sum   'La4 Y6 Tm6 Cd4 Ni4'
_cell_volume   627.10256927
_cell_formula_units_Z   2
loop_
 _symmetry_equiv_pos_site_id
 _symmetry_equiv_pos_as_xyz
  1  'x, y, z'
loop_
 _atom_site_type_symbol
 _atom_site_label
 _atom_site_symmetry_multiplicity
 _atom_site_fract_x
 _atom_site_fract_y
 _atom_site_fract_z
 _atom_site_occupancy
  La  La0  1  0.600718  0.600718  0.600718  1
  La  La1  1  0.600718  0.600718  0.197845  1
  La  La2  1  0.600718  0.197845  0.600718  1
  La  La3  1  0.197845  0.600718  0.600718  1
  Y  Y4  1  0.184752  0.815248  0.815248  1
  Y  Y5  1  0.815248  0.184752  0.184752  1
  Y  Y6  1  0.815248  0.184752  0.815248  1
  Y  Y7  1  0.184752  0.815248  0.184752  1
  Y  Y8  1  0.815248  0.815248  0.184752  1
  Y  Y9  1  0.184752  0.184752  0.815248  1
  Tm  Tm10  1  0.065650  0.434350  0.434350  1
  Tm  Tm11  1  0.434350  0.065650  0.065650  1
  Tm  Tm12  1  0.434350  0.065650  0.434350  1
  Tm  Tm13  1  0.065650  0.434350  0.065650  1
  Tm  Tm14  1  0.434350  0.434350  0.065650  1
  Tm  Tm15  1  0.065650  0.065650  0.434350  1
  Cd  Cd16  1  0.832294  0.832294  0.832294  1
  Cd  Cd17  1  0.832294  0.832294  0.503116  1
  Cd  Cd18  1  0.832294  0.503116  0.832294  1
  Cd  Cd19  1  0.503116  0.832294  0.832294  1
  Ni  Ni20  1  0.389865  0.389865  0.389865  1
  Ni  Ni21  1  0.389865  0.389865  0.830407  1
  Ni  Ni22  1  0.389865  0.830407  0.389865  1
  Ni  Ni23  1  0.830407  0.389865  0.389865  1
