# generated using pymatgen
data_Pr10Nd2ZnCo4Sn
_symmetry_space_group_name_H-M   'P 1'
_cell_length_a   8.69225811
_cell_length_b   8.68623095
_cell_length_c   8.69225817
_cell_angle_alpha   112.73544694
_cell_angle_beta   108.51329658
_cell_angle_gamma   107.24584054
_symmetry_Int_Tables_number   1
_chemical_formula_structural   Pr10Nd2ZnCo4Sn
_chemical_formula_sum   'Pr10 Nd2 Zn1 Co4 Sn1'
_cell_volume   503.74543523
_cell_formula_units_Z   1
loop_
 _symmetry_equiv_pos_site_id
 _symmetry_equiv_pos_as_xyz
  1  'x, y, z'
loop_
 _atom_site_type_symbol
 _atom_site_label
 _atom_site_symmetry_multiplicity
 _atom_site_fract_x
 _atom_site_fract_y
 _atom_site_fract_z
 _atom_site_occupancy
  Pr  Pr0  1  0.424989  0.226393  0.197692  1
  Pr  Pr1  1  0.575011  0.773607  0.802308  1
  Pr  Pr2  1  0.028700  0.226393  0.801405  1
  Pr  Pr3  1  0.971300  0.773607  0.198595  1
  Pr  Pr4  1  0.179370  0.285757  0.465869  1
  Pr  Pr5  1  0.820630  0.714243  0.534131  1
  Pr  Pr6  1  0.180114  0.714243  0.893615  1
  Pr  Pr7  1  0.819886  0.285757  0.106385  1
  Pr  Pr8  1  0.324401  0.638727  0.314326  1
  Pr  Pr9  1  0.675599  0.361273  0.685674  1
  Nd  Nd10  1  0.324010  0.009948  0.685938  1
  Nd  Nd11  1  0.675990  0.990052  0.314062  1
  Zn  Zn12  1  0.000000  0.000000  0.000000  1
  Co  Co13  1  0.346677  0.000000  0.346677  1
  Co  Co14  1  0.653323  0.000000  0.653323  1
  Co  Co15  1  0.111081  0.611482  0.500401  1
  Co  Co16  1  0.888919  0.388518  0.499599  1
  Sn  Sn17  1  0.500000  0.500000  0.000000  1
