# generated using pymatgen
data_ErTm3ZnCo
_symmetry_space_group_name_H-M   'P 1'
_cell_length_a   9.22190835
_cell_length_b   9.22190866
_cell_length_c   9.22190900
_cell_angle_alpha   60.00000238
_cell_angle_beta   60.00000124
_cell_angle_gamma   59.99999990
_symmetry_Int_Tables_number   1
_chemical_formula_structural   ErTm3ZnCo
_chemical_formula_sum   'Er4 Tm12 Zn4 Co4'
_cell_volume   554.55862507
_cell_formula_units_Z   4
loop_
 _symmetry_equiv_pos_site_id
 _symmetry_equiv_pos_as_xyz
  1  'x, y, z'
loop_
 _atom_site_type_symbol
 _atom_site_label
 _atom_site_symmetry_multiplicity
 _atom_site_fract_x
 _atom_site_fract_y
 _atom_site_fract_z
 _atom_site_occupancy
  Er  Er0  1  0.350430  0.350430  0.350430  1
  Er  Er1  1  0.350430  0.350430  0.948712  1
  Er  Er2  1  0.350430  0.948712  0.350430  1
  Er  Er3  1  0.948712  0.350430  0.350430  1
  Tm  Tm4  1  0.809946  0.190054  0.190054  1
  Tm  Tm5  1  0.190054  0.809946  0.809946  1
  Tm  Tm6  1  0.190054  0.809946  0.190054  1
  Tm  Tm7  1  0.809946  0.190054  0.809946  1
  Tm  Tm8  1  0.190054  0.190054  0.809946  1
  Tm  Tm9  1  0.809946  0.809946  0.190054  1
  Tm  Tm10  1  0.937474  0.562526  0.562526  1
  Tm  Tm11  1  0.562526  0.937474  0.937474  1
  Tm  Tm12  1  0.562526  0.937474  0.562526  1
  Tm  Tm13  1  0.937474  0.562526  0.937474  1
  Tm  Tm14  1  0.562526  0.562526  0.937474  1
  Tm  Tm15  1  0.937474  0.937474  0.562526  1
  Zn  Zn16  1  0.577531  0.577531  0.577531  1
  Zn  Zn17  1  0.577531  0.577531  0.267408  1
  Zn  Zn18  1  0.577531  0.267408  0.577531  1
  Zn  Zn19  1  0.267408  0.577531  0.577531  1
  Co  Co20  1  0.141892  0.141892  0.141892  1
  Co  Co21  1  0.141892  0.141892  0.574327  1
  Co  Co22  1  0.141892  0.574327  0.141892  1
  Co  Co23  1  0.574327  0.141892  0.141892  1
