# generated using pymatgen
data_PrSmY4OsI10
_symmetry_space_group_name_H-M   'P 1'
_cell_length_a   7.82297263
_cell_length_b   9.87565812
_cell_length_c   9.83977320
_cell_angle_alpha   106.63610493
_cell_angle_beta   96.08086927
_cell_angle_gamma   104.89059698
_symmetry_Int_Tables_number   1
_chemical_formula_structural   PrSmY4OsI10
_chemical_formula_sum   'Pr1 Sm1 Y4 Os1 I10'
_cell_volume   690.55873630
_cell_formula_units_Z   1
loop_
 _symmetry_equiv_pos_site_id
 _symmetry_equiv_pos_as_xyz
  1  'x, y, z'
loop_
 _atom_site_type_symbol
 _atom_site_label
 _atom_site_symmetry_multiplicity
 _atom_site_fract_x
 _atom_site_fract_y
 _atom_site_fract_z
 _atom_site_occupancy
  Pr  Pr0  1  0.885305  0.956576  0.232693  1
  Sm  Sm1  1  0.112789  0.042516  0.769647  1
  Y  Y2  1  0.969896  0.289135  0.085838  1
  Y  Y3  1  0.030968  0.711023  0.912410  1
  Y  Y4  1  0.352126  0.126601  0.166501  1
  Y  Y5  1  0.648858  0.874029  0.832425  1
  Os  Os6  1  0.999974  0.999787  0.999526  1
  I  I7  1  0.346942  0.447138  0.269751  1
  I  I8  1  0.652948  0.552941  0.730381  1
  I  I9  1  0.263761  0.087899  0.456468  1
  I  I10  1  0.742778  0.914423  0.548152  1
  I  I11  1  0.085566  0.372737  0.822744  1
  I  I12  1  0.915402  0.622302  0.175411  1
  I  I13  1  0.450562  0.817406  0.089121  1
  I  I14  1  0.543639  0.180417  0.908272  1
  I  I15  1  0.775870  0.260639  0.342252  1
  I  I16  1  0.222616  0.744433  0.658408  1
