# generated using pymatgen
data_La5Pr3(HgRu)2
_symmetry_space_group_name_H-M   'P 1'
_cell_length_a   10.02858169
_cell_length_b   10.02858150
_cell_length_c   10.02858300
_cell_angle_alpha   60.00000493
_cell_angle_beta   60.00000559
_cell_angle_gamma   60.00000497
_symmetry_Int_Tables_number   1
_chemical_formula_structural   La5Pr3(HgRu)2
_chemical_formula_sum   'La10 Pr6 Hg4 Ru4'
_cell_volume   713.18738218
_cell_formula_units_Z   2
loop_
 _symmetry_equiv_pos_site_id
 _symmetry_equiv_pos_as_xyz
  1  'x, y, z'
loop_
 _atom_site_type_symbol
 _atom_site_label
 _atom_site_symmetry_multiplicity
 _atom_site_fract_x
 _atom_site_fract_y
 _atom_site_fract_z
 _atom_site_occupancy
  La  La0  1  0.346643  0.346643  0.346643  1
  La  La1  1  0.346643  0.346643  0.960068  1
  La  La2  1  0.346643  0.960068  0.346643  1
  La  La3  1  0.960068  0.346643  0.346643  1
  La  La4  1  0.810032  0.189968  0.189968  1
  La  La5  1  0.189968  0.810032  0.810032  1
  La  La6  1  0.189968  0.810032  0.189968  1
  La  La7  1  0.810032  0.189968  0.810032  1
  La  La8  1  0.189968  0.189968  0.810032  1
  La  La9  1  0.810032  0.810032  0.189968  1
  Pr  Pr10  1  0.937597  0.562403  0.562403  1
  Pr  Pr11  1  0.562403  0.937597  0.937597  1
  Pr  Pr12  1  0.562403  0.937597  0.562403  1
  Pr  Pr13  1  0.937597  0.562403  0.937597  1
  Pr  Pr14  1  0.562403  0.562403  0.937597  1
  Pr  Pr15  1  0.937597  0.937597  0.562403  1
  Hg  Hg16  1  0.582956  0.582956  0.582956  1
  Hg  Hg17  1  0.582956  0.582956  0.251130  1
  Hg  Hg18  1  0.582956  0.251130  0.582956  1
  Hg  Hg19  1  0.251130  0.582956  0.582956  1
  Ru  Ru20  1  0.136671  0.136671  0.136671  1
  Ru  Ru21  1  0.136671  0.136671  0.589987  1
  Ru  Ru22  1  0.136671  0.589987  0.136671  1
  Ru  Ru23  1  0.589987  0.136671  0.136671  1
