# generated using pymatgen
data_U2SiIr3
_symmetry_space_group_name_H-M   'P 1'
_cell_length_a   5.53624900
_cell_length_b   5.53624901
_cell_length_c   7.75531700
_cell_angle_alpha   90.00000000
_cell_angle_beta   90.00000000
_cell_angle_gamma   120.00000591
_symmetry_Int_Tables_number   1
_chemical_formula_structural   U2SiIr3
_chemical_formula_sum   'U4 Si2 Ir6'
_cell_volume   205.85498615
_cell_formula_units_Z   2
loop_
 _symmetry_equiv_pos_site_id
 _symmetry_equiv_pos_as_xyz
  1  'x, y, z'
loop_
 _atom_site_type_symbol
 _atom_site_label
 _atom_site_symmetry_multiplicity
 _atom_site_fract_x
 _atom_site_fract_y
 _atom_site_fract_z
 _atom_site_occupancy
  U  U0  1  0.333333  0.666667  0.425722  1
  U  U1  1  0.666667  0.333333  0.574278  1
  U  U2  1  0.666667  0.333333  0.925722  1
  U  U3  1  0.333333  0.666667  0.074278  1
  Si  Si4  1  0.000000  0.000000  0.500000  1
  Si  Si5  1  0.000000  0.000000  0.000000  1
  Ir  Ir6  1  0.831878  0.168122  0.250000  1
  Ir  Ir7  1  0.831878  0.663756  0.250000  1
  Ir  Ir8  1  0.336244  0.168122  0.250000  1
  Ir  Ir9  1  0.168122  0.831878  0.750000  1
  Ir  Ir10  1  0.168122  0.336244  0.750000  1
  Ir  Ir11  1  0.663756  0.831878  0.750000  1
