# generated using pymatgen
data_Ac2Ir3Rh
_symmetry_space_group_name_H-M   'P 1'
_cell_length_a   5.59237784
_cell_length_b   5.54099738
_cell_length_c   5.54099800
_cell_angle_alpha   59.99999630
_cell_angle_beta   60.30345672
_cell_angle_gamma   60.30345143
_symmetry_Int_Tables_number   1
_chemical_formula_structural   Ac2Ir3Rh
_chemical_formula_sum   'Ac2 Ir3 Rh1'
_cell_volume   121.96473081
_cell_formula_units_Z   1
loop_
 _symmetry_equiv_pos_site_id
 _symmetry_equiv_pos_as_xyz
  1  'x, y, z'
loop_
 _atom_site_type_symbol
 _atom_site_label
 _atom_site_symmetry_multiplicity
 _atom_site_fract_x
 _atom_site_fract_y
 _atom_site_fract_z
 _atom_site_occupancy
  Ac  Ac0  1  0.252382  0.249206  0.249206  1
  Ac  Ac1  1  0.997618  0.000794  0.000794  1
  Ir  Ir2  1  0.625000  0.625000  0.125000  1
  Ir  Ir3  1  0.625000  0.625000  0.625000  1
  Ir  Ir4  1  0.625000  0.125000  0.625000  1
  Rh  Rh5  1  0.125000  0.625000  0.625000  1
