# generated using pymatgen
data_CsPSO6
_symmetry_space_group_name_H-M   'P 1'
_cell_length_a   4.82735700
_cell_length_b   11.21616500
_cell_length_c   12.04392100
_cell_angle_alpha   90.00000000
_cell_angle_beta   90.00000000
_cell_angle_gamma   90.00000000
_symmetry_Int_Tables_number   1
_chemical_formula_structural   CsPSO6
_chemical_formula_sum   'Cs4 P4 S4 O24'
_cell_volume   652.11126914
_cell_formula_units_Z   4
loop_
 _symmetry_equiv_pos_site_id
 _symmetry_equiv_pos_as_xyz
  1  'x, y, z'
loop_
 _atom_site_type_symbol
 _atom_site_label
 _atom_site_symmetry_multiplicity
 _atom_site_fract_x
 _atom_site_fract_y
 _atom_site_fract_z
 _atom_site_occupancy
  Cs  Cs0  1  0.014417  0.625453  0.873042  1
  Cs  Cs1  1  0.485583  0.374547  0.373042  1
  Cs  Cs2  1  0.514417  0.874547  0.126958  1
  Cs  Cs3  1  0.985583  0.125453  0.626958  1
  P  P4  1  0.494177  0.822806  0.541865  1
  P  P5  1  0.994177  0.677194  0.458135  1
  P  P6  1  0.505823  0.322806  0.958135  1
  P  P7  1  0.005823  0.177194  0.041865  1
  S  S8  1  0.428452  0.391385  0.725287  1
  S  S9  1  0.071548  0.608615  0.225287  1
  S  S10  1  0.928452  0.108615  0.274713  1
  S  S11  1  0.571548  0.891385  0.774713  1
  O  O12  1  0.085276  0.194097  0.167636  1
  O  O13  1  0.914724  0.694097  0.332364  1
  O  O14  1  0.864030  0.878441  0.750090  1
  O  O15  1  0.587182  0.940700  0.503938  1
  O  O16  1  0.957414  0.490554  0.240862  1
  O  O17  1  0.912818  0.059300  0.003938  1
  O  O18  1  0.786121  0.283058  0.019801  1
  O  O19  1  0.527303  0.324362  0.629996  1
  O  O20  1  0.135970  0.378441  0.749910  1
  O  O21  1  0.713879  0.716942  0.519801  1
  O  O22  1  0.213879  0.783058  0.480199  1
  O  O23  1  0.286121  0.216942  0.980199  1
  O  O24  1  0.364030  0.621559  0.249910  1
  O  O25  1  0.027303  0.175638  0.370004  1
  O  O26  1  0.635970  0.121559  0.250090  1
  O  O27  1  0.972697  0.675638  0.129996  1
  O  O28  1  0.042586  0.990554  0.259138  1
  O  O29  1  0.472697  0.824362  0.870004  1
  O  O30  1  0.414724  0.805903  0.667636  1
  O  O31  1  0.585276  0.305903  0.832364  1
  O  O32  1  0.412818  0.440700  0.996062  1
  O  O33  1  0.542586  0.509446  0.740862  1
  O  O34  1  0.087182  0.559300  0.496062  1
  O  O35  1  0.457414  0.009446  0.759138  1
