# generated using pymatgen
data_Hf(RuI4)3
_symmetry_space_group_name_H-M   'P 1'
_cell_length_a   6.39921561
_cell_length_b   7.68906221
_cell_length_c   13.40236700
_cell_angle_alpha   90.00000000
_cell_angle_beta   90.00000000
_cell_angle_gamma   89.55958852
_symmetry_Int_Tables_number   1
_chemical_formula_structural   Hf(RuI4)3
_chemical_formula_sum   'Hf1 Ru3 I12'
_cell_volume   659.43014069
_cell_formula_units_Z   1
loop_
 _symmetry_equiv_pos_site_id
 _symmetry_equiv_pos_as_xyz
  1  'x, y, z'
loop_
 _atom_site_type_symbol
 _atom_site_label
 _atom_site_symmetry_multiplicity
 _atom_site_fract_x
 _atom_site_fract_y
 _atom_site_fract_z
 _atom_site_occupancy
  Hf  Hf0  1  0.726033  0.247545  0.000000  1
  Ru  Ru1  1  0.221084  0.752102  0.500000  1
  Ru  Ru2  1  0.778787  0.752407  0.500000  1
  Ru  Ru3  1  0.267025  0.248043  0.000000  1
  I  I4  1  0.000732  0.606033  0.645446  1
  I  I5  1  0.997477  0.044753  0.500000  1
  I  I6  1  0.017473  0.103992  0.856599  1
  I  I7  1  0.017473  0.103992  0.143401  1
  I  I8  1  0.498673  0.888930  0.364558  1
  I  I9  1  0.485482  0.399774  0.152549  1
  I  I10  1  0.502310  0.479312  0.500000  1
  I  I11  1  0.498673  0.888930  0.635442  1
  I  I12  1  0.485482  0.399774  0.847451  1
  I  I13  1  0.489284  0.942208  0.000000  1
  I  I14  1  0.013283  0.536173  0.000000  1
  I  I15  1  0.000732  0.606033  0.354554  1
