# generated using pymatgen
data_ThSc7(CdNi)2
_symmetry_space_group_name_H-M   'P 1'
_cell_length_a   9.06683462
_cell_length_b   9.06683409
_cell_length_c   9.06819100
_cell_angle_alpha   59.99505292
_cell_angle_beta   59.99505486
_cell_angle_gamma   60.26840902
_symmetry_Int_Tables_number   1
_chemical_formula_structural   ThSc7(CdNi)2
_chemical_formula_sum   'Th2 Sc14 Cd4 Ni4'
_cell_volume   528.15044300
_cell_formula_units_Z   2
loop_
 _symmetry_equiv_pos_site_id
 _symmetry_equiv_pos_as_xyz
  1  'x, y, z'
loop_
 _atom_site_type_symbol
 _atom_site_label
 _atom_site_symmetry_multiplicity
 _atom_site_fract_x
 _atom_site_fract_y
 _atom_site_fract_z
 _atom_site_occupancy
  Th  Th0  1  0.344228  0.344228  0.354952  1
  Th  Th1  1  0.344228  0.344228  0.956590  1
  Sc  Sc2  1  0.353797  0.941486  0.352358  1
  Sc  Sc3  1  0.941486  0.353797  0.352358  1
  Sc  Sc4  1  0.815296  0.189208  0.184539  1
  Sc  Sc5  1  0.189208  0.815296  0.810955  1
  Sc  Sc6  1  0.189208  0.815296  0.184539  1
  Sc  Sc7  1  0.815296  0.189208  0.810955  1
  Sc  Sc8  1  0.182713  0.182713  0.817287  1
  Sc  Sc9  1  0.812821  0.812821  0.187179  1
  Sc  Sc10  1  0.933284  0.567345  0.566973  1
  Sc  Sc11  1  0.567345  0.933284  0.932398  1
  Sc  Sc12  1  0.567345  0.933284  0.566973  1
  Sc  Sc13  1  0.933284  0.567345  0.932398  1
  Sc  Sc14  1  0.566481  0.566481  0.933519  1
  Sc  Sc15  1  0.939468  0.939468  0.560532  1
  Cd  Cd16  1  0.587981  0.587981  0.578363  1
  Cd  Cd17  1  0.587981  0.587981  0.245676  1
  Cd  Cd18  1  0.592964  0.245018  0.581009  1
  Cd  Cd19  1  0.245018  0.592964  0.581009  1
  Ni  Ni20  1  0.136576  0.136576  0.153110  1
  Ni  Ni21  1  0.136576  0.136576  0.573737  1
  Ni  Ni22  1  0.137600  0.579814  0.141292  1
  Ni  Ni23  1  0.579814  0.137600  0.141292  1
