# generated using pymatgen
data_Dy20Si12Cl
_symmetry_space_group_name_H-M   'P 1'
_cell_length_a   6.37374504
_cell_length_b   8.46706424
_cell_length_c   14.75233600
_cell_angle_alpha   90.00000677
_cell_angle_beta   90.00000000
_cell_angle_gamma   89.99291560
_symmetry_Int_Tables_number   1
_chemical_formula_structural   Dy20Si12Cl
_chemical_formula_sum   'Dy20 Si12 Cl1'
_cell_volume   796.13796427
_cell_formula_units_Z   1
loop_
 _symmetry_equiv_pos_site_id
 _symmetry_equiv_pos_as_xyz
  1  'x, y, z'
loop_
 _atom_site_type_symbol
 _atom_site_label
 _atom_site_symmetry_multiplicity
 _atom_site_fract_x
 _atom_site_fract_y
 _atom_site_fract_z
 _atom_site_occupancy
  Dy  Dy0  1  0.500000  0.000002  0.331828  1
  Dy  Dy1  1  0.499998  0.499999  0.832200  1
  Dy  Dy2  1  0.499998  0.499999  0.167800  1
  Dy  Dy3  1  0.500000  0.000002  0.668172  1
  Dy  Dy4  1  0.999998  0.500002  0.170514  1
  Dy  Dy5  1  0.999999  0.999999  0.662431  1
  Dy  Dy6  1  0.999999  0.999999  0.337569  1
  Dy  Dy7  1  0.999998  0.500002  0.829486  1
  Dy  Dy8  1  0.764050  0.256602  0.000000  1
  Dy  Dy9  1  0.746493  0.742683  0.500000  1
  Dy  Dy10  1  0.749800  0.376826  0.380037  1
  Dy  Dy11  1  0.766111  0.871812  0.872769  1
  Dy  Dy12  1  0.766111  0.871812  0.127231  1
  Dy  Dy13  1  0.749800  0.376826  0.619963  1
  Dy  Dy14  1  0.235947  0.743397  0.000000  1
  Dy  Dy15  1  0.253510  0.257323  0.500000  1
  Dy  Dy16  1  0.233890  0.128184  0.127228  1
  Dy  Dy17  1  0.250202  0.623178  0.619963  1
  Dy  Dy18  1  0.250202  0.623178  0.380037  1
  Dy  Dy19  1  0.233890  0.128184  0.872772  1
  Si  Si20  1  0.755613  0.607464  0.000000  1
  Si  Si21  1  0.743813  0.104949  0.500000  1
  Si  Si22  1  0.755564  0.196531  0.197841  1
  Si  Si23  1  0.750693  0.696625  0.696076  1
  Si  Si24  1  0.750693  0.696625  0.303924  1
  Si  Si25  1  0.755564  0.196531  0.802159  1
  Si  Si26  1  0.244383  0.392532  0.000000  1
  Si  Si27  1  0.256193  0.895061  0.500000  1
  Si  Si28  1  0.249300  0.303377  0.303925  1
  Si  Si29  1  0.244436  0.803468  0.802159  1
  Si  Si30  1  0.244436  0.803468  0.197841  1
  Si  Si31  1  0.249300  0.303377  0.696075  1
  Cl  Cl32  1  0.500021  0.999987  0.000000  1
