# generated using pymatgen
data_Dy3Ho2Hf2P12Ir17
_symmetry_space_group_name_H-M   'P 1'
_cell_length_a   12.65258800
_cell_length_b   12.88805887
_cell_length_c   3.97683300
_cell_angle_alpha   90.00000000
_cell_angle_beta   90.00000000
_cell_angle_gamma   119.39743599
_symmetry_Int_Tables_number   1
_chemical_formula_structural   Dy3Ho2Hf2P12Ir17
_chemical_formula_sum   'Dy3 Ho2 Hf2 P12 Ir17'
_cell_volume   564.98892343
_cell_formula_units_Z   1
loop_
 _symmetry_equiv_pos_site_id
 _symmetry_equiv_pos_as_xyz
  1  'x, y, z'
loop_
 _atom_site_type_symbol
 _atom_site_label
 _atom_site_symmetry_multiplicity
 _atom_site_fract_x
 _atom_site_fract_y
 _atom_site_fract_z
 _atom_site_occupancy
  Dy  Dy0  1  0.000073  0.815401  0.000000  1
  Dy  Dy1  1  0.184672  0.184599  0.000000  1
  Dy  Dy2  1  0.813001  0.000000  0.000000  1
  Ho  Ho3  1  0.330254  0.661532  0.500000  1
  Ho  Ho4  1  0.668723  0.338468  0.500000  1
  Hf  Hf5  1  0.997534  0.446946  0.500000  1
  Hf  Hf6  1  0.550588  0.553054  0.500000  1
  P  P7  1  0.005393  0.651031  0.500000  1
  P  P8  1  0.354362  0.348969  0.500000  1
  P  P9  1  0.645367  0.000000  0.500000  1
  P  P10  1  0.514724  0.685944  0.000000  1
  P  P11  1  0.309739  0.824872  0.000000  1
  P  P12  1  0.164862  0.481243  0.000000  1
  P  P13  1  0.484867  0.175128  0.000000  1
  P  P14  1  0.683618  0.518757  0.000000  1
  P  P15  1  0.828780  0.314056  0.000000  1
  P  P16  1  0.999464  0.173944  0.500000  1
  P  P17  1  0.825520  0.826056  0.500000  1
  P  P18  1  0.181520  0.000000  0.500000  1
  Ir  Ir19  1  0.504835  0.864295  0.000000  1
  Ir  Ir20  1  0.127491  0.642681  0.000000  1
  Ir  Ir21  1  0.356003  0.496077  0.000000  1
  Ir  Ir22  1  0.484811  0.357319  0.000000  1
  Ir  Ir23  1  0.859928  0.503923  0.000000  1
  Ir  Ir24  1  0.640542  0.135705  0.000000  1
  Ir  Ir25  1  0.464949  0.000000  0.500000  1
  Ir  Ir26  1  0.997018  0.279593  0.000000  1
  Ir  Ir27  1  0.717425  0.720407  0.000000  1
  Ir  Ir28  1  0.289846  0.000000  0.000000  1
  Ir  Ir29  1  0.623751  0.807382  0.500000  1
  Ir  Ir30  1  0.203927  0.825285  0.500000  1
  Ir  Ir31  1  0.177476  0.367161  0.500000  1
  Ir  Ir32  1  0.378642  0.174715  0.500000  1
  Ir  Ir33  1  0.810315  0.632839  0.500000  1
  Ir  Ir34  1  0.816369  0.192618  0.500000  1
  Ir  Ir35  1  0.003611  0.000000  0.500000  1
