# generated using pymatgen
data_NdY2Rh9
_symmetry_space_group_name_H-M   'P 1'
_cell_length_a   5.31194730
_cell_length_b   5.31037273
_cell_length_c   17.53937600
_cell_angle_alpha   90.00000000
_cell_angle_beta   90.00000000
_cell_angle_gamma   120.04836533
_symmetry_Int_Tables_number   1
_chemical_formula_structural   NdY2Rh9
_chemical_formula_sum   'Nd2 Y4 Rh18'
_cell_volume   428.26409803
_cell_formula_units_Z   2
loop_
 _symmetry_equiv_pos_site_id
 _symmetry_equiv_pos_as_xyz
  1  'x, y, z'
loop_
 _atom_site_type_symbol
 _atom_site_label
 _atom_site_symmetry_multiplicity
 _atom_site_fract_x
 _atom_site_fract_y
 _atom_site_fract_z
 _atom_site_occupancy
  Nd  Nd0  1  0.666662  0.333340  0.250000  1
  Nd  Nd1  1  0.333338  0.666661  0.750000  1
  Y  Y2  1  0.666663  0.333355  0.041790  1
  Y  Y3  1  0.666663  0.333355  0.458210  1
  Y  Y4  1  0.333338  0.666646  0.541790  1
  Y  Y5  1  0.333338  0.666646  0.958210  1
  Rh  Rh6  1  0.000000  0.000000  0.000000  1
  Rh  Rh7  1  0.167217  0.334451  0.125504  1
  Rh  Rh8  1  0.167209  0.832810  0.125532  1
  Rh  Rh9  1  0.665564  0.832798  0.125521  1
  Rh  Rh10  1  0.000055  0.999922  0.250000  1
  Rh  Rh11  1  0.333281  0.666735  0.250000  1
  Rh  Rh12  1  0.167209  0.832810  0.374467  1
  Rh  Rh13  1  0.665564  0.832798  0.374478  1
  Rh  Rh14  1  0.167217  0.334451  0.374495  1
  Rh  Rh15  1  0.000000  0.000000  0.500000  1
  Rh  Rh16  1  0.832784  0.665549  0.625504  1
  Rh  Rh17  1  0.334437  0.167203  0.625521  1
  Rh  Rh18  1  0.832792  0.167191  0.625532  1
  Rh  Rh19  1  0.999945  0.000078  0.750000  1
  Rh  Rh20  1  0.666720  0.333265  0.750000  1
  Rh  Rh21  1  0.334437  0.167203  0.874478  1
  Rh  Rh22  1  0.832792  0.167191  0.874467  1
  Rh  Rh23  1  0.832784  0.665549  0.874496  1
