# generated using pymatgen
data_K20Hf3ZrAs12
_symmetry_space_group_name_H-M   'P 1'
_cell_length_a   8.49396224
_cell_length_b   9.21041777
_cell_length_c   17.85437713
_cell_angle_alpha   59.77162598
_cell_angle_beta   90.08330792
_cell_angle_gamma   90.04192804
_symmetry_Int_Tables_number   1
_chemical_formula_structural   K20Hf3ZrAs12
_chemical_formula_sum   'K20 Hf3 Zr1 As12'
_cell_volume   1206.87003915
_cell_formula_units_Z   1
loop_
 _symmetry_equiv_pos_site_id
 _symmetry_equiv_pos_as_xyz
  1  'x, y, z'
loop_
 _atom_site_type_symbol
 _atom_site_label
 _atom_site_symmetry_multiplicity
 _atom_site_fract_x
 _atom_site_fract_y
 _atom_site_fract_z
 _atom_site_occupancy
  K  K0  1  0.165619  0.841459  0.740079  1
  K  K1  1  0.666454  0.157742  0.760464  1
  K  K2  1  0.834151  0.158385  0.260145  1
  K  K3  1  0.334093  0.841870  0.239604  1
  K  K4  1  0.168426  0.162041  0.418942  1
  K  K5  1  0.668558  0.838309  0.080825  1
  K  K6  1  0.831418  0.838699  0.580828  1
  K  K7  1  0.331352  0.161375  0.919451  1
  K  K8  1  0.006122  0.085991  0.091629  1
  K  K9  1  0.506036  0.914134  0.408281  1
  K  K10  1  0.994141  0.913950  0.908367  1
  K  K11  1  0.493918  0.085976  0.591577  1
  K  K12  1  0.519072  0.261630  0.077944  1
  K  K13  1  0.018765  0.738857  0.421625  1
  K  K14  1  0.480689  0.738559  0.922005  1
  K  K15  1  0.980795  0.260602  0.577998  1
  K  K16  1  0.985051  0.548749  0.257722  1
  K  K17  1  0.484684  0.451348  0.242201  1
  K  K18  1  0.014481  0.451212  0.742541  1
  K  K19  1  0.515326  0.548779  0.758058  1
  Hf  Hf20  1  0.867322  0.507572  0.918843  1
  Hf  Hf21  1  0.633230  0.507643  0.418387  1
  Hf  Hf22  1  0.132619  0.492344  0.081206  1
  Zr  Zr23  1  0.366913  0.492621  0.581588  1
  As  As24  1  0.321104  0.486537  0.434263  1
  As  As25  1  0.820168  0.513674  0.064695  1
  As  As26  1  0.681567  0.513718  0.564137  1
  As  As27  1  0.179773  0.486198  0.935315  1
  As  As28  1  0.217643  0.211956  0.218791  1
  As  As29  1  0.717744  0.788205  0.280990  1
  As  As30  1  0.782219  0.787872  0.781201  1
  As  As31  1  0.281674  0.209804  0.720286  1
  As  As32  1  0.253550  0.756887  0.078129  1
  As  As33  1  0.753542  0.242744  0.421812  1
  As  As34  1  0.746360  0.243032  0.921893  1
  As  As35  1  0.245420  0.759526  0.578179  1
