# generated using pymatgen
data_Y6V2Co16(SiP3)3
_symmetry_space_group_name_H-M   'P 1'
_cell_length_a   3.71167500
_cell_length_b   10.58576500
_cell_length_c   12.26399600
_cell_angle_alpha   90.00000000
_cell_angle_beta   90.00000000
_cell_angle_gamma   90.00000000
_symmetry_Int_Tables_number   1
_chemical_formula_structural   Y6V2Co16(SiP3)3
_chemical_formula_sum   'Y6 V2 Co16 Si3 P9'
_cell_volume   481.86367721
_cell_formula_units_Z   1
loop_
 _symmetry_equiv_pos_site_id
 _symmetry_equiv_pos_as_xyz
  1  'x, y, z'
loop_
 _atom_site_type_symbol
 _atom_site_label
 _atom_site_symmetry_multiplicity
 _atom_site_fract_x
 _atom_site_fract_y
 _atom_site_fract_z
 _atom_site_occupancy
  Y  Y0  1  0.000000  0.500000  0.525257  1
  Y  Y1  1  0.500000  0.000000  0.478386  1
  Y  Y2  1  0.500000  0.818045  0.206500  1
  Y  Y3  1  0.500000  0.181955  0.206500  1
  Y  Y4  1  0.000000  0.682328  0.794190  1
  Y  Y5  1  0.000000  0.317672  0.794190  1
  V  V6  1  0.500000  0.500000  0.147189  1
  V  V7  1  0.000000  0.000000  0.846762  1
  Co  Co8  1  0.500000  0.500000  0.697540  1
  Co  Co9  1  0.000000  0.000000  0.302951  1
  Co  Co10  1  0.000000  0.500000  0.990705  1
  Co  Co11  1  0.500000  0.000000  0.008871  1
  Co  Co12  1  0.500000  0.330038  0.995424  1
  Co  Co13  1  0.500000  0.669962  0.995424  1
  Co  Co14  1  0.000000  0.169435  0.003376  1
  Co  Co15  1  0.000000  0.830565  0.003376  1
  Co  Co16  1  0.500000  0.293143  0.432973  1
  Co  Co17  1  0.500000  0.706857  0.432973  1
  Co  Co18  1  0.000000  0.203084  0.569545  1
  Co  Co19  1  0.000000  0.796916  0.569545  1
  Co  Co20  1  0.500000  0.879613  0.707486  1
  Co  Co21  1  0.500000  0.120387  0.707486  1
  Co  Co22  1  0.000000  0.622508  0.291783  1
  Co  Co23  1  0.000000  0.377492  0.291783  1
  Si  Si24  1  0.500000  0.500000  0.883383  1
  Si  Si25  1  0.000000  0.000000  0.116487  1
  Si  Si26  1  0.500000  0.500000  0.346106  1
  P  P27  1  0.000000  0.000000  0.654472  1
  P  P28  1  0.500000  0.308483  0.615812  1
  P  P29  1  0.500000  0.691517  0.615812  1
  P  P30  1  0.000000  0.191129  0.384714  1
  P  P31  1  0.000000  0.808871  0.384714  1
  P  P32  1  0.500000  0.846003  0.891989  1
  P  P33  1  0.500000  0.153997  0.891989  1
  P  P34  1  0.000000  0.655598  0.107151  1
  P  P35  1  0.000000  0.344402  0.107151  1
