# generated using pymatgen
data_Tm12ZnInCo4
_symmetry_space_group_name_H-M   'P 1'
_cell_length_a   8.18042173
_cell_length_b   8.18042150
_cell_length_c   8.18042190
_cell_angle_alpha   112.13881837
_cell_angle_beta   109.95580379
_cell_angle_gamma   106.37082434
_symmetry_Int_Tables_number   1
_chemical_formula_structural   Tm12ZnInCo4
_chemical_formula_sum   'Tm12 Zn1 In1 Co4'
_cell_volume   420.32945582
_cell_formula_units_Z   1
loop_
 _symmetry_equiv_pos_site_id
 _symmetry_equiv_pos_as_xyz
  1  'x, y, z'
loop_
 _atom_site_type_symbol
 _atom_site_label
 _atom_site_symmetry_multiplicity
 _atom_site_fract_x
 _atom_site_fract_y
 _atom_site_fract_z
 _atom_site_occupancy
  Tm  Tm0  1  0.429985  0.230254  0.199731  1
  Tm  Tm1  1  0.570015  0.769746  0.800269  1
  Tm  Tm2  1  0.030523  0.230254  0.800269  1
  Tm  Tm3  1  0.969477  0.769746  0.199731  1
  Tm  Tm4  1  0.182766  0.283702  0.466467  1
  Tm  Tm5  1  0.817234  0.716298  0.533533  1
  Tm  Tm6  1  0.182766  0.716298  0.899063  1
  Tm  Tm7  1  0.817234  0.283702  0.100937  1
  Tm  Tm8  1  0.323468  0.633220  0.309750  1
  Tm  Tm9  1  0.676532  0.366780  0.690250  1
  Tm  Tm10  1  0.323468  0.013717  0.690250  1
  Tm  Tm11  1  0.676532  0.986283  0.309750  1
  Zn  Zn12  1  0.000000  0.000000  0.000000  1
  In  In13  1  0.500000  0.500000  0.000000  1
  Co  Co14  1  0.347663  0.000000  0.347663  1
  Co  Co15  1  0.652337  0.000000  0.652337  1
  Co  Co16  1  0.115178  0.615178  0.500000  1
  Co  Co17  1  0.884822  0.384822  0.500000  1
