# generated using pymatgen
data_TaAg4Ru3F28
_symmetry_space_group_name_H-M   'P 1'
_cell_length_a   5.69160508
_cell_length_b   8.64964831
_cell_length_c   12.91300255
_cell_angle_alpha   68.56838122
_cell_angle_beta   90.01574293
_cell_angle_gamma   89.99698197
_symmetry_Int_Tables_number   1
_chemical_formula_structural   TaAg4Ru3F28
_chemical_formula_sum   'Ta1 Ag4 Ru3 F28'
_cell_volume   591.75527649
_cell_formula_units_Z   1
loop_
 _symmetry_equiv_pos_site_id
 _symmetry_equiv_pos_as_xyz
  1  'x, y, z'
loop_
 _atom_site_type_symbol
 _atom_site_label
 _atom_site_symmetry_multiplicity
 _atom_site_fract_x
 _atom_site_fract_y
 _atom_site_fract_z
 _atom_site_occupancy
  Ta  Ta0  1  0.208853  0.293582  0.439920  1
  Ag  Ag1  1  0.289408  0.859699  0.710499  1
  Ag  Ag2  1  0.789468  0.136891  0.790163  1
  Ag  Ag3  1  0.710938  0.137825  0.285370  1
  Ag  Ag4  1  0.211425  0.859382  0.208167  1
  Ru  Ru5  1  0.709688  0.712133  0.063244  1
  Ru  Ru6  1  0.790496  0.712172  0.564983  1
  Ru  Ru7  1  0.290201  0.287520  0.935980  1
  F  F8  1  0.577041  0.979779  0.741153  1
  F  F9  1  0.079756  0.017150  0.758287  1
  F  F10  1  0.422946  0.017333  0.255921  1
  F  F11  1  0.922106  0.981756  0.237348  1
  F  F12  1  0.382969  0.323484  0.554540  1
  F  F13  1  0.883341  0.686497  0.948492  1
  F  F14  1  0.616318  0.685152  0.450686  1
  F  F15  1  0.115458  0.313788  0.050392  1
  F  F16  1  0.463980  0.259192  0.813599  1
  F  F17  1  0.964457  0.740766  0.687637  1
  F  F18  1  0.539638  0.739528  0.186966  1
  F  F19  1  0.024307  0.257933  0.318113  1
  F  F20  1  0.003119  0.299571  0.850339  1
  F  F21  1  0.502210  0.699628  0.650495  1
  F  F22  1  0.998397  0.697404  0.148367  1
  F  F23  1  0.491055  0.290416  0.349007  1
  F  F24  1  0.250805  0.053203  0.001747  1
  F  F25  1  0.752552  0.945972  0.497918  1
  F  F26  1  0.748979  0.946335  0.997915  1
  F  F27  1  0.255777  0.056266  0.506169  1
  F  F28  1  0.321745  0.518693  0.864080  1
  F  F29  1  0.823108  0.481198  0.636903  1
  F  F30  1  0.676348  0.481033  0.134562  1
  F  F31  1  0.192783  0.526421  0.358264  1
  F  F32  1  0.571156  0.273216  0.013359  1
  F  F33  1  0.071010  0.725091  0.487927  1
  F  F34  1  0.427757  0.726950  0.986893  1
  F  F35  1  0.920408  0.277038  0.514597  1
