# generated using pymatgen
data_Y3Lu5B24OsW3
_symmetry_space_group_name_H-M   'P 1'
_cell_length_a   3.58113300
_cell_length_b   9.20767943
_cell_length_c   11.61339101
_cell_angle_alpha   89.92043929
_cell_angle_beta   90.00000000
_cell_angle_gamma   90.00000000
_symmetry_Int_Tables_number   1
_chemical_formula_structural   Y3Lu5B24OsW3
_chemical_formula_sum   'Y3 Lu5 B24 Os1 W3'
_cell_volume   382.93871111
_cell_formula_units_Z   1
loop_
 _symmetry_equiv_pos_site_id
 _symmetry_equiv_pos_as_xyz
  1  'x, y, z'
loop_
 _atom_site_type_symbol
 _atom_site_label
 _atom_site_symmetry_multiplicity
 _atom_site_fract_x
 _atom_site_fract_y
 _atom_site_fract_z
 _atom_site_occupancy
  Y  Y0  1  0.000000  0.320345  0.413775  1
  Y  Y1  1  0.000000  0.678818  0.586006  1
  Y  Y2  1  0.000000  0.820900  0.084985  1
  Lu  Lu3  1  0.000000  0.178710  0.913792  1
  Lu  Lu4  1  0.000000  0.944364  0.372647  1
  Lu  Lu5  1  0.000000  0.054646  0.629953  1
  Lu  Lu6  1  0.000000  0.445176  0.126340  1
  Lu  Lu7  1  0.000000  0.558281  0.871542  1
  B  B8  1  0.500000  0.551044  0.434688  1
  B  B9  1  0.500000  0.447481  0.566432  1
  B  B10  1  0.500000  0.051602  0.062419  1
  B  B11  1  0.500000  0.946091  0.931534  1
  B  B12  1  0.500000  0.753353  0.421431  1
  B  B13  1  0.500000  0.246073  0.580356  1
  B  B14  1  0.500000  0.253795  0.076392  1
  B  B15  1  0.500000  0.750757  0.917528  1
  B  B16  1  0.500000  0.795748  0.264682  1
  B  B17  1  0.500000  0.203116  0.738686  1
  B  B18  1  0.500000  0.295041  0.234475  1
  B  B19  1  0.500000  0.709092  0.765860  1
  B  B20  1  0.500000  0.630693  0.182157  1
  B  B21  1  0.500000  0.369107  0.819402  1
  B  B22  1  0.500000  0.129659  0.316477  1
  B  B23  1  0.500000  0.870200  0.686319  1
  B  B24  1  0.500000  0.978374  0.213033  1
  B  B25  1  0.500000  0.017313  0.788375  1
  B  B26  1  0.500000  0.478207  0.285460  1
  B  B27  1  0.500000  0.522246  0.714330  1
  B  B28  1  0.500000  0.600713  0.026237  1
  B  B29  1  0.500000  0.401150  0.971798  1
  B  B30  1  0.500000  0.098188  0.473566  1
  B  B31  1  0.500000  0.900706  0.529135  1
  Os  Os32  1  0.000000  0.861515  0.820333  1
  W  W33  1  0.000000  0.639232  0.319901  1
  W  W34  1  0.000000  0.359367  0.682156  1
  W  W35  1  0.000000  0.138896  0.177798  1
