# generated using pymatgen
data_TiMn28
_symmetry_space_group_name_H-M   'P 1'
_cell_length_a   7.51308212
_cell_length_b   7.51308205
_cell_length_c   7.51308200
_cell_angle_alpha   109.47121510
_cell_angle_beta   109.47121493
_cell_angle_gamma   109.47122651
_symmetry_Int_Tables_number   1
_chemical_formula_structural   TiMn28
_chemical_formula_sum   'Ti1 Mn28'
_cell_volume   326.46192310
_cell_formula_units_Z   1
loop_
 _symmetry_equiv_pos_site_id
 _symmetry_equiv_pos_as_xyz
  1  'x, y, z'
loop_
 _atom_site_type_symbol
 _atom_site_label
 _atom_site_symmetry_multiplicity
 _atom_site_fract_x
 _atom_site_fract_y
 _atom_site_fract_z
 _atom_site_occupancy
  Ti  Ti0  1  0.000000  0.000000  0.000000  1
  Mn  Mn1  1  0.629244  0.000000  0.000000  1
  Mn  Mn2  1  0.000000  0.629244  0.000000  1
  Mn  Mn3  1  0.000000  0.000000  0.629244  1
  Mn  Mn4  1  0.370756  0.370756  0.370756  1
  Mn  Mn5  1  0.391434  0.678532  0.000000  1
  Mn  Mn6  1  0.712902  0.321468  0.321468  1
  Mn  Mn7  1  0.391434  0.000000  0.678532  1
  Mn  Mn8  1  0.678532  0.391434  0.000000  1
  Mn  Mn9  1  0.000000  0.391434  0.678532  1
  Mn  Mn10  1  0.321468  0.712902  0.321468  1
  Mn  Mn11  1  0.321468  0.321468  0.712902  1
  Mn  Mn12  1  0.000000  0.678532  0.391434  1
  Mn  Mn13  1  0.678532  0.000000  0.391434  1
  Mn  Mn14  1  0.608566  0.608566  0.287098  1
  Mn  Mn15  1  0.287098  0.608566  0.608566  1
  Mn  Mn16  1  0.608566  0.287098  0.608566  1
  Mn  Mn17  1  0.373445  0.195518  0.000000  1
  Mn  Mn18  1  0.177927  0.804482  0.804482  1
  Mn  Mn19  1  0.373445  0.000000  0.195518  1
  Mn  Mn20  1  0.195518  0.373445  0.000000  1
  Mn  Mn21  1  0.000000  0.373445  0.195518  1
  Mn  Mn22  1  0.804482  0.177927  0.804482  1
  Mn  Mn23  1  0.804482  0.804482  0.177927  1
  Mn  Mn24  1  0.000000  0.195518  0.373445  1
  Mn  Mn25  1  0.195518  0.000000  0.373445  1
  Mn  Mn26  1  0.626555  0.626555  0.822073  1
  Mn  Mn27  1  0.822073  0.626555  0.626555  1
  Mn  Mn28  1  0.626555  0.822073  0.626555  1
