# generated using pymatgen
data_Hf18Ta2Re6GeAs
_symmetry_space_group_name_H-M   'P 1'
_cell_length_a   8.70258800
_cell_length_b   8.70258775
_cell_length_c   8.63407400
_cell_angle_alpha   90.00000000
_cell_angle_beta   90.00000000
_cell_angle_gamma   120.00000094
_symmetry_Int_Tables_number   1
_chemical_formula_structural   Hf18Ta2Re6GeAs
_chemical_formula_sum   'Hf18 Ta2 Re6 Ge1 As1'
_cell_volume   566.29565415
_cell_formula_units_Z   1
loop_
 _symmetry_equiv_pos_site_id
 _symmetry_equiv_pos_as_xyz
  1  'x, y, z'
loop_
 _atom_site_type_symbol
 _atom_site_label
 _atom_site_symmetry_multiplicity
 _atom_site_fract_x
 _atom_site_fract_y
 _atom_site_fract_z
 _atom_site_occupancy
  Hf  Hf0  1  0.195342  0.804658  0.454088  1
  Hf  Hf1  1  0.195342  0.390683  0.454088  1
  Hf  Hf2  1  0.609317  0.804658  0.454088  1
  Hf  Hf3  1  0.804609  0.195391  0.546195  1
  Hf  Hf4  1  0.804609  0.609219  0.546195  1
  Hf  Hf5  1  0.390781  0.195391  0.546195  1
  Hf  Hf6  1  0.804609  0.195391  0.953805  1
  Hf  Hf7  1  0.804609  0.609219  0.953805  1
  Hf  Hf8  1  0.390781  0.195391  0.953805  1
  Hf  Hf9  1  0.195342  0.804658  0.045912  1
  Hf  Hf10  1  0.195342  0.390683  0.045912  1
  Hf  Hf11  1  0.609317  0.804658  0.045912  1
  Hf  Hf12  1  0.541131  0.458869  0.250000  1
  Hf  Hf13  1  0.541131  0.082261  0.250000  1
  Hf  Hf14  1  0.917739  0.458869  0.250000  1
  Hf  Hf15  1  0.459691  0.540309  0.750000  1
  Hf  Hf16  1  0.459691  0.919383  0.750000  1
  Hf  Hf17  1  0.080617  0.540309  0.750000  1
  Ta  Ta18  1  0.000000  0.000000  0.500038  1
  Ta  Ta19  1  0.000000  0.000000  0.999962  1
  Re  Re20  1  0.887868  0.112132  0.250000  1
  Re  Re21  1  0.887868  0.775739  0.250000  1
  Re  Re22  1  0.224261  0.112132  0.250000  1
  Re  Re23  1  0.112114  0.887886  0.750000  1
  Re  Re24  1  0.112114  0.224225  0.750000  1
  Re  Re25  1  0.775775  0.887886  0.750000  1
  Ge  Ge26  1  0.666667  0.333333  0.750000  1
  As  As27  1  0.333333  0.666667  0.250000  1
