# generated using pymatgen
data_Y2Er2Al4Pt3Rh
_symmetry_space_group_name_H-M   'P 1'
_cell_length_a   4.41138100
_cell_length_b   6.81191980
_cell_length_c   7.79906471
_cell_angle_alpha   90.43921490
_cell_angle_beta   90.00000000
_cell_angle_gamma   90.00000000
_symmetry_Int_Tables_number   1
_chemical_formula_structural   Y2Er2Al4Pt3Rh
_chemical_formula_sum   'Y2 Er2 Al4 Pt3 Rh1'
_cell_volume   234.35480282
_cell_formula_units_Z   1
loop_
 _symmetry_equiv_pos_site_id
 _symmetry_equiv_pos_as_xyz
  1  'x, y, z'
loop_
 _atom_site_type_symbol
 _atom_site_label
 _atom_site_symmetry_multiplicity
 _atom_site_fract_x
 _atom_site_fract_y
 _atom_site_fract_z
 _atom_site_occupancy
  Y  Y0  1  0.250000  0.468093  0.180217  1
  Y  Y1  1  0.750000  0.531795  0.818047  1
  Er  Er2  1  0.750000  0.029129  0.679020  1
  Er  Er3  1  0.250000  0.966171  0.323250  1
  Al  Al4  1  0.250000  0.855904  0.938400  1
  Al  Al5  1  0.750000  0.142619  0.061066  1
  Al  Al6  1  0.750000  0.643116  0.439616  1
  Al  Al7  1  0.250000  0.361767  0.562065  1
  Pt  Pt8  1  0.750000  0.267146  0.381219  1
  Pt  Pt9  1  0.750000  0.772021  0.122590  1
  Pt  Pt10  1  0.250000  0.225296  0.877837  1
  Rh  Rh11  1  0.250000  0.736939  0.616673  1
