# generated using pymatgen
data_Li8Ac7LuSi7As
_symmetry_space_group_name_H-M   'P 1'
_cell_length_a   9.21629900
_cell_length_b   9.21629783
_cell_length_c   7.89523500
_cell_angle_alpha   90.00000000
_cell_angle_beta   90.00000000
_cell_angle_gamma   120.00000061
_symmetry_Int_Tables_number   1
_chemical_formula_structural   Li8Ac7LuSi7As
_chemical_formula_sum   'Li8 Ac7 Lu1 Si7 As1'
_cell_volume   580.77611454
_cell_formula_units_Z   1
loop_
 _symmetry_equiv_pos_site_id
 _symmetry_equiv_pos_as_xyz
  1  'x, y, z'
loop_
 _atom_site_type_symbol
 _atom_site_label
 _atom_site_symmetry_multiplicity
 _atom_site_fract_x
 _atom_site_fract_y
 _atom_site_fract_z
 _atom_site_occupancy
  Li  Li0  1  0.164243  0.328488  0.269358  1
  Li  Li1  1  0.164243  0.835757  0.269358  1
  Li  Li2  1  0.671512  0.835757  0.269358  1
  Li  Li3  1  0.838842  0.677683  0.802691  1
  Li  Li4  1  0.838842  0.161158  0.802691  1
  Li  Li5  1  0.322317  0.161158  0.802691  1
  Li  Li6  1  0.333333  0.666667  0.682479  1
  Li  Li7  1  0.666667  0.333333  0.169467  1
  Ac  Ac8  1  0.509867  0.019733  0.495385  1
  Ac  Ac9  1  0.509867  0.490133  0.495385  1
  Ac  Ac10  1  0.980267  0.490133  0.495385  1
  Ac  Ac11  1  0.486357  0.972715  0.997735  1
  Ac  Ac12  1  0.486357  0.513643  0.997735  1
  Ac  Ac13  1  0.027285  0.513643  0.997735  1
  Ac  Ac14  1  0.000000  0.000000  0.506453  1
  Lu  Lu15  1  0.000000  0.000000  0.016813  1
  Si  Si16  1  0.164768  0.329534  0.732165  1
  Si  Si17  1  0.164768  0.835232  0.732165  1
  Si  Si18  1  0.670466  0.835232  0.732165  1
  Si  Si19  1  0.838226  0.676453  0.212136  1
  Si  Si20  1  0.838226  0.161774  0.212136  1
  Si  Si21  1  0.323547  0.161774  0.212136  1
  Si  Si22  1  0.333333  0.666667  0.271536  1
  As  As23  1  0.666667  0.333333  0.766832  1
