# generated using pymatgen
data_Nd6Al24Ir5Ru2Au
_symmetry_space_group_name_H-M   'P 1'
_cell_length_a   8.93726566
_cell_length_b   8.93726710
_cell_length_c   9.61052046
_cell_angle_alpha   90.12487172
_cell_angle_beta   89.87512864
_cell_angle_gamma   119.88170957
_symmetry_Int_Tables_number   1
_chemical_formula_structural   Nd6Al24Ir5Ru2Au
_chemical_formula_sum   'Nd6 Al24 Ir5 Ru2 Au1'
_cell_volume   665.58266385
_cell_formula_units_Z   1
loop_
 _symmetry_equiv_pos_site_id
 _symmetry_equiv_pos_as_xyz
  1  'x, y, z'
loop_
 _atom_site_type_symbol
 _atom_site_label
 _atom_site_symmetry_multiplicity
 _atom_site_fract_x
 _atom_site_fract_y
 _atom_site_fract_z
 _atom_site_occupancy
  Nd  Nd0  1  0.189321  0.378994  0.248941  1
  Nd  Nd1  1  0.810679  0.621006  0.751059  1
  Nd  Nd2  1  0.621006  0.810679  0.248941  1
  Nd  Nd3  1  0.378994  0.189321  0.751059  1
  Nd  Nd4  1  0.189873  0.810127  0.253674  1
  Nd  Nd5  1  0.810127  0.189873  0.746326  1
  Al  Al6  1  0.328908  0.671092  0.026618  1
  Al  Al7  1  0.671092  0.328908  0.973382  1
  Al  Al8  1  0.666553  0.333447  0.524790  1
  Al  Al9  1  0.333447  0.666553  0.475210  1
  Al  Al10  1  0.163125  0.326484  0.571467  1
  Al  Al11  1  0.836875  0.673516  0.428533  1
  Al  Al12  1  0.673516  0.836875  0.571467  1
  Al  Al13  1  0.847351  0.677214  0.077372  1
  Al  Al14  1  0.326484  0.163125  0.428533  1
  Al  Al15  1  0.152649  0.322786  0.922628  1
  Al  Al16  1  0.163309  0.836691  0.574648  1
  Al  Al17  1  0.322786  0.152649  0.077372  1
  Al  Al18  1  0.836691  0.163309  0.425352  1
  Al  Al19  1  0.677214  0.847351  0.922628  1
  Al  Al20  1  0.836713  0.163287  0.075460  1
  Al  Al21  1  0.163287  0.836713  0.924540  1
  Al  Al22  1  0.563481  0.126088  0.250333  1
  Al  Al23  1  0.436519  0.873912  0.749667  1
  Al  Al24  1  0.873912  0.436519  0.250333  1
  Al  Al25  1  0.126088  0.563481  0.749667  1
  Al  Al26  1  0.566088  0.433912  0.256681  1
  Al  Al27  1  0.433912  0.566088  0.743319  1
  Al  Al28  1  0.999357  0.000643  0.250632  1
  Al  Al29  1  0.000643  0.999357  0.749368  1
  Ir  Ir30  1  0.500000  0.000000  0.000000  1
  Ir  Ir31  1  0.000000  0.500000  0.000000  1
  Ir  Ir32  1  0.500000  0.000000  0.500000  1
  Ir  Ir33  1  0.000000  0.500000  0.500000  1
  Ir  Ir34  1  0.500000  0.500000  0.500000  1
  Ru  Ru35  1  0.000000  0.000000  0.000000  1
  Ru  Ru36  1  0.000000  0.000000  0.500000  1
  Au  Au37  1  0.500000  0.500000  0.000000  1
