# generated using pymatgen
data_Dy23YRu14
_symmetry_space_group_name_H-M   'P 1'
_cell_length_a   11.32474210
_cell_length_b   8.37179314
_cell_length_c   11.23961054
_cell_angle_alpha   56.52974482
_cell_angle_beta   89.99536119
_cell_angle_gamma   90.00289333
_symmetry_Int_Tables_number   1
_chemical_formula_structural   Dy23YRu14
_chemical_formula_sum   'Dy23 Y1 Ru14'
_cell_volume   888.90183674
_cell_formula_units_Z   1
loop_
 _symmetry_equiv_pos_site_id
 _symmetry_equiv_pos_as_xyz
  1  'x, y, z'
loop_
 _atom_site_type_symbol
 _atom_site_label
 _atom_site_symmetry_multiplicity
 _atom_site_fract_x
 _atom_site_fract_y
 _atom_site_fract_z
 _atom_site_occupancy
  Dy  Dy0  1  0.205726  0.755944  0.969399  1
  Dy  Dy1  1  0.845967  0.507796  0.654729  1
  Dy  Dy2  1  0.345734  0.492386  0.845228  1
  Dy  Dy3  1  0.154391  0.492162  0.345311  1
  Dy  Dy4  1  0.654152  0.507697  0.154536  1
  Dy  Dy5  1  0.006674  0.854521  0.360362  1
  Dy  Dy6  1  0.506672  0.145867  0.139446  1
  Dy  Dy7  1  0.993337  0.146053  0.639547  1
  Dy  Dy8  1  0.493368  0.853994  0.860598  1
  Dy  Dy9  1  0.794343  0.244053  0.030512  1
  Dy  Dy10  1  0.294198  0.756044  0.469493  1
  Dy  Dy11  1  0.931279  0.777777  0.089264  1
  Dy  Dy12  1  0.431009  0.222135  0.410567  1
  Dy  Dy13  1  0.068688  0.222127  0.910707  1
  Dy  Dy14  1  0.568749  0.777866  0.589241  1
  Dy  Dy15  1  0.301441  0.240981  0.675925  1
  Dy  Dy16  1  0.801598  0.759005  0.824015  1
  Dy  Dy17  1  0.698652  0.758908  0.324030  1
  Dy  Dy18  1  0.198504  0.241094  0.175921  1
  Dy  Dy19  1  0.924714  0.281083  0.293080  1
  Dy  Dy20  1  0.424883  0.718723  0.207221  1
  Dy  Dy21  1  0.075178  0.718810  0.707210  1
  Dy  Dy22  1  0.575077  0.281182  0.793055  1
  Y  Y23  1  0.705341  0.243213  0.531479  1
  Ru  Ru24  1  0.499471  0.500497  0.500076  1
  Ru  Ru25  1  0.000027  0.499949  0.000051  1
  Ru  Ru26  1  0.645960  0.924489  0.034004  1
  Ru  Ru27  1  0.145850  0.075319  0.466174  1
  Ru  Ru28  1  0.353842  0.075217  0.966257  1
  Ru  Ru29  1  0.854223  0.924272  0.533809  1
  Ru  Ru30  1  0.398023  0.483704  0.103083  1
  Ru  Ru31  1  0.899141  0.517586  0.396535  1
  Ru  Ru32  1  0.601853  0.516396  0.896941  1
  Ru  Ru33  1  0.101961  0.483754  0.603015  1
  Ru  Ru34  1  0.819497  0.097423  0.851502  1
  Ru  Ru35  1  0.319586  0.902590  0.648466  1
  Ru  Ru36  1  0.180386  0.902517  0.148549  1
  Ru  Ru37  1  0.680508  0.096866  0.350661  1
