# generated using pymatgen
data_Hf4Ta2Al6Au
_symmetry_space_group_name_H-M   'P 1'
_cell_length_a   10.00984678
_cell_length_b   10.00984637
_cell_length_c   10.00984600
_cell_angle_alpha   30.46717140
_cell_angle_beta   30.46718667
_cell_angle_gamma   30.46717681
_symmetry_Int_Tables_number   1
_chemical_formula_structural   Hf4Ta2Al6Au
_chemical_formula_sum   'Hf4 Ta2 Al6 Au1'
_cell_volume   228.56226281
_cell_formula_units_Z   1
loop_
 _symmetry_equiv_pos_site_id
 _symmetry_equiv_pos_as_xyz
  1  'x, y, z'
loop_
 _atom_site_type_symbol
 _atom_site_label
 _atom_site_symmetry_multiplicity
 _atom_site_fract_x
 _atom_site_fract_y
 _atom_site_fract_z
 _atom_site_occupancy
  Hf  Hf0  1  0.835169  0.835169  0.835169  1
  Hf  Hf1  1  0.164831  0.164831  0.164831  1
  Hf  Hf2  1  0.647207  0.647207  0.647207  1
  Hf  Hf3  1  0.352793  0.352793  0.352793  1
  Ta  Ta4  1  0.544810  0.544810  0.544810  1
  Ta  Ta5  1  0.455190  0.455190  0.455190  1
  Al  Al6  1  0.907093  0.414303  0.907093  1
  Al  Al7  1  0.907093  0.907093  0.414303  1
  Al  Al8  1  0.414303  0.907093  0.907093  1
  Al  Al9  1  0.092907  0.585697  0.092907  1
  Al  Al10  1  0.092907  0.092907  0.585697  1
  Al  Al11  1  0.585697  0.092907  0.092907  1
  Au  Au12  1  0.000000  0.000000  0.000000  1
