# generated using pymatgen
data_Ta3Cu2SnC
_symmetry_space_group_name_H-M   'P 1'
_cell_length_a   8.39881904
_cell_length_b   8.39913079
_cell_length_c   8.39854900
_cell_angle_alpha   60.00201698
_cell_angle_beta   60.00070907
_cell_angle_gamma   59.99424987
_symmetry_Int_Tables_number   1
_chemical_formula_structural   Ta3Cu2SnC
_chemical_formula_sum   'Ta12 Cu8 Sn4 C4'
_cell_volume   418.92077703
_cell_formula_units_Z   4
loop_
 _symmetry_equiv_pos_site_id
 _symmetry_equiv_pos_as_xyz
  1  'x, y, z'
loop_
 _atom_site_type_symbol
 _atom_site_label
 _atom_site_symmetry_multiplicity
 _atom_site_fract_x
 _atom_site_fract_y
 _atom_site_fract_z
 _atom_site_occupancy
  Ta  Ta0  1  0.427829  0.072110  0.072224  1
  Ta  Ta1  1  0.072286  0.427840  0.427750  1
  Ta  Ta2  1  0.072284  0.427841  0.072126  1
  Ta  Ta3  1  0.071645  0.071803  0.428277  1
  Ta  Ta4  1  0.427827  0.072112  0.427838  1
  Ta  Ta5  1  0.428473  0.428227  0.071652  1
  Ta  Ta6  1  0.177716  0.822159  0.177874  1
  Ta  Ta7  1  0.822173  0.177888  0.822162  1
  Ta  Ta8  1  0.822171  0.177890  0.177776  1
  Ta  Ta9  1  0.178355  0.178197  0.821723  1
  Ta  Ta10  1  0.177714  0.822160  0.822250  1
  Ta  Ta11  1  0.821527  0.821773  0.178348  1
  Cu  Cu12  1  0.835869  0.836289  0.836651  1
  Cu  Cu13  1  0.835864  0.836290  0.491212  1
  Cu  Cu14  1  0.491462  0.836502  0.836020  1
  Cu  Cu15  1  0.836285  0.491171  0.836274  1
  Cu  Cu16  1  0.414131  0.413711  0.413349  1
  Cu  Cu17  1  0.414136  0.413710  0.758788  1
  Cu  Cu18  1  0.413715  0.758829  0.413726  1
  Cu  Cu19  1  0.758538  0.413498  0.413980  1
  Sn  Sn20  1  0.625000  0.625000  0.625000  1
  Sn  Sn21  1  0.625000  0.625000  0.125000  1
  Sn  Sn22  1  0.125000  0.625000  0.625000  1
  Sn  Sn23  1  0.625000  0.125000  0.625000  1
  C  C24  1  0.125000  0.125000  0.125000  1
  C  C25  1  0.125000  0.125000  0.625000  1
  C  C26  1  0.625000  0.125000  0.125000  1
  C  C27  1  0.125000  0.625000  0.125000  1
