# generated using pymatgen
data_Sm4Dy3Er(B6Os)4
_symmetry_space_group_name_H-M   'P 1'
_cell_length_a   3.68621800
_cell_length_b   9.20474011
_cell_length_c   11.60932813
_cell_angle_alpha   90.01744502
_cell_angle_beta   90.00000000
_cell_angle_gamma   90.00000000
_symmetry_Int_Tables_number   1
_chemical_formula_structural   Sm4Dy3Er(B6Os)4
_chemical_formula_sum   'Sm4 Dy3 Er1 B24 Os4'
_cell_volume   393.91236421
_cell_formula_units_Z   1
loop_
 _symmetry_equiv_pos_site_id
 _symmetry_equiv_pos_as_xyz
  1  'x, y, z'
loop_
 _atom_site_type_symbol
 _atom_site_label
 _atom_site_symmetry_multiplicity
 _atom_site_fract_x
 _atom_site_fract_y
 _atom_site_fract_z
 _atom_site_occupancy
  Sm  Sm0  1  0.000000  0.322577  0.414206  1
  Sm  Sm1  1  0.000000  0.677520  0.585977  1
  Sm  Sm2  1  0.000000  0.822262  0.085675  1
  Sm  Sm3  1  0.000000  0.177732  0.914060  1
  Dy  Dy4  1  0.000000  0.944017  0.372505  1
  Dy  Dy5  1  0.000000  0.056036  0.627741  1
  Dy  Dy6  1  0.000000  0.444096  0.127124  1
  Er  Er7  1  0.000000  0.556084  0.872341  1
  B  B8  1  0.500000  0.555112  0.431642  1
  B  B9  1  0.500000  0.445069  0.568625  1
  B  B10  1  0.500000  0.055016  0.068252  1
  B  B11  1  0.500000  0.944461  0.931614  1
  B  B12  1  0.500000  0.748496  0.418295  1
  B  B13  1  0.500000  0.251686  0.581876  1
  B  B14  1  0.500000  0.248632  0.081579  1
  B  B15  1  0.500000  0.750586  0.918280  1
  B  B16  1  0.500000  0.790347  0.266615  1
  B  B17  1  0.500000  0.209984  0.733521  1
  B  B18  1  0.500000  0.290466  0.233222  1
  B  B19  1  0.500000  0.708877  0.766865  1
  B  B20  1  0.500000  0.631151  0.185310  1
  B  B21  1  0.500000  0.369445  0.814874  1
  B  B22  1  0.500000  0.131326  0.314511  1
  B  B23  1  0.500000  0.868494  0.685619  1
  B  B24  1  0.500000  0.984850  0.213418  1
  B  B25  1  0.500000  0.014898  0.786680  1
  B  B26  1  0.500000  0.484762  0.286449  1
  B  B27  1  0.500000  0.515675  0.713980  1
  B  B28  1  0.500000  0.604652  0.028112  1
  B  B29  1  0.500000  0.395924  0.970617  1
  B  B30  1  0.500000  0.105478  0.471089  1
  B  B31  1  0.500000  0.894536  0.529109  1
  Os  Os32  1  0.000000  0.638200  0.320346  1
  Os  Os33  1  0.000000  0.362268  0.679956  1
  Os  Os34  1  0.000000  0.138351  0.179371  1
  Os  Os35  1  0.000000  0.860934  0.820540  1
