# generated using pymatgen
data_Li8Dy3Ho5Sn5Bi3
_symmetry_space_group_name_H-M   'P 1'
_cell_length_a   9.47148209
_cell_length_b   9.47307910
_cell_length_c   7.21325006
_cell_angle_alpha   90.00308471
_cell_angle_beta   89.99663752
_cell_angle_gamma   119.99403083
_symmetry_Int_Tables_number   1
_chemical_formula_structural   Li8Dy3Ho5Sn5Bi3
_chemical_formula_sum   'Li8 Dy3 Ho5 Sn5 Bi3'
_cell_volume   560.52739722
_cell_formula_units_Z   1
loop_
 _symmetry_equiv_pos_site_id
 _symmetry_equiv_pos_as_xyz
  1  'x, y, z'
loop_
 _atom_site_type_symbol
 _atom_site_label
 _atom_site_symmetry_multiplicity
 _atom_site_fract_x
 _atom_site_fract_y
 _atom_site_fract_z
 _atom_site_occupancy
  Li  Li0  1  0.167081  0.334042  0.279244  1
  Li  Li1  1  0.167110  0.832943  0.279612  1
  Li  Li2  1  0.665925  0.832934  0.279350  1
  Li  Li3  1  0.831649  0.663259  0.787173  1
  Li  Li4  1  0.831632  0.168360  0.787804  1
  Li  Li5  1  0.336782  0.168452  0.787347  1
  Li  Li6  1  0.333301  0.666559  0.672934  1
  Li  Li7  1  0.666478  0.333437  0.179886  1
  Dy  Dy8  1  0.514308  0.028310  0.488985  1
  Dy  Dy9  1  0.513964  0.485951  0.488758  1
  Dy  Dy10  1  0.971779  0.485727  0.488910  1
  Ho  Ho11  1  0.491335  0.982657  0.999832  1
  Ho  Ho12  1  0.491195  0.508820  0.999755  1
  Ho  Ho13  1  0.017395  0.508701  0.999837  1
  Ho  Ho14  1  0.999981  0.000006  0.492892  1
  Ho  Ho15  1  0.000050  0.999970  0.008790  1
  Sn  Sn16  1  0.833480  0.666848  0.233004  1
  Sn  Sn17  1  0.833486  0.166505  0.232984  1
  Sn  Sn18  1  0.333127  0.166479  0.233037  1
  Sn  Sn19  1  0.333288  0.666654  0.258474  1
  Sn  Sn20  1  0.666686  0.333380  0.760422  1
  Bi  Bi21  1  0.166498  0.333204  0.734293  1
  Bi  Bi22  1  0.166805  0.833353  0.734344  1
  Bi  Bi23  1  0.666663  0.833449  0.734307  1
