# generated using pymatgen
data_Sc4Zn2ReRu5
_symmetry_space_group_name_H-M   'P 1'
_cell_length_a   5.18334300
_cell_length_b   5.11178202
_cell_length_c   8.60307000
_cell_angle_alpha   90.00000000
_cell_angle_beta   90.00000000
_cell_angle_gamma   118.78170110
_symmetry_Int_Tables_number   1
_chemical_formula_structural   Sc4Zn2ReRu5
_chemical_formula_sum   'Sc4 Zn2 Re1 Ru5'
_cell_volume   199.78739171
_cell_formula_units_Z   1
loop_
 _symmetry_equiv_pos_site_id
 _symmetry_equiv_pos_as_xyz
  1  'x, y, z'
loop_
 _atom_site_type_symbol
 _atom_site_label
 _atom_site_symmetry_multiplicity
 _atom_site_fract_x
 _atom_site_fract_y
 _atom_site_fract_z
 _atom_site_occupancy
  Sc  Sc0  1  0.328636  0.665268  0.431710  1
  Sc  Sc1  1  0.657583  0.327896  0.557738  1
  Sc  Sc2  1  0.657583  0.327896  0.942262  1
  Sc  Sc3  1  0.328636  0.665268  0.068290  1
  Zn  Zn4  1  0.185899  0.349278  0.750000  1
  Zn  Zn5  1  0.186082  0.838043  0.750000  1
  Re  Re6  1  0.836431  0.166041  0.250000  1
  Ru  Ru7  1  0.349968  0.166504  0.250000  1
  Ru  Ru8  1  0.834679  0.654567  0.250000  1
  Ru  Ru9  1  0.678446  0.837673  0.750000  1
  Ru  Ru10  1  0.978029  0.000785  0.998316  1
  Ru  Ru11  1  0.978029  0.000785  0.501684  1
