# generated using pymatgen
data_BaAl8SiAu4
_symmetry_space_group_name_H-M   'P 1'
_cell_length_a   6.19992035
_cell_length_b   6.19992049
_cell_length_c   15.06025085
_cell_angle_alpha   101.87850787
_cell_angle_beta   101.87850921
_cell_angle_gamma   90.00000522
_symmetry_Int_Tables_number   1
_chemical_formula_structural   BaAl8SiAu4
_chemical_formula_sum   'Ba2 Al16 Si2 Au8'
_cell_volume   553.83090254
_cell_formula_units_Z   2
loop_
 _symmetry_equiv_pos_site_id
 _symmetry_equiv_pos_as_xyz
  1  'x, y, z'
loop_
 _atom_site_type_symbol
 _atom_site_label
 _atom_site_symmetry_multiplicity
 _atom_site_fract_x
 _atom_site_fract_y
 _atom_site_fract_z
 _atom_site_occupancy
  Ba  Ba0  1  0.750001  0.250000  0.500000  1
  Ba  Ba1  1  0.250000  0.750001  0.500000  1
  Al  Al2  1  0.299124  0.299124  0.103148  1
  Al  Al3  1  0.804024  0.299124  0.103148  1
  Al  Al4  1  0.299124  0.804024  0.103148  1
  Al  Al5  1  0.804024  0.804024  0.103148  1
  Al  Al6  1  0.399910  0.399910  0.306577  1
  Al  Al7  1  0.906666  0.399910  0.306577  1
  Al  Al8  1  0.399910  0.906666  0.306577  1
  Al  Al9  1  0.906666  0.906666  0.306577  1
  Al  Al10  1  0.093333  0.093333  0.693423  1
  Al  Al11  1  0.600090  0.093333  0.693423  1
  Al  Al12  1  0.093333  0.600090  0.693423  1
  Al  Al13  1  0.600090  0.600090  0.693423  1
  Al  Al14  1  0.195977  0.195977  0.896852  1
  Al  Al15  1  0.700875  0.195977  0.896852  1
  Al  Al16  1  0.195977  0.700875  0.896852  1
  Al  Al17  1  0.700875  0.700875  0.896852  1
  Si  Si18  1  0.204587  0.204587  0.409176  1
  Si  Si19  1  0.795413  0.795413  0.590825  1
  Au  Au20  1  0.000000  0.000000  0.000000  1
  Au  Au21  1  0.500001  0.500001  0.000000  1
  Au  Au22  1  0.602645  0.102645  0.205291  1
  Au  Au23  1  0.102645  0.602645  0.205291  1
  Au  Au24  1  0.701816  0.701816  0.403631  1
  Au  Au25  1  0.298185  0.298185  0.596369  1
  Au  Au26  1  0.897356  0.397355  0.794708  1
  Au  Au27  1  0.397355  0.897356  0.794708  1
