# generated using pymatgen
data_Tb4ZnRu6W
_symmetry_space_group_name_H-M   'P 1'
_cell_length_a   5.22814444
_cell_length_b   5.22814488
_cell_length_c   8.98873500
_cell_angle_alpha   90.00000000
_cell_angle_beta   90.00000000
_cell_angle_gamma   116.18176276
_symmetry_Int_Tables_number   1
_chemical_formula_structural   Tb4ZnRu6W
_chemical_formula_sum   'Tb4 Zn1 Ru6 W1'
_cell_volume   220.48511726
_cell_formula_units_Z   1
loop_
 _symmetry_equiv_pos_site_id
 _symmetry_equiv_pos_as_xyz
  1  'x, y, z'
loop_
 _atom_site_type_symbol
 _atom_site_label
 _atom_site_symmetry_multiplicity
 _atom_site_fract_x
 _atom_site_fract_y
 _atom_site_fract_z
 _atom_site_occupancy
  Tb  Tb0  1  0.325380  0.674620  0.436442  1
  Tb  Tb1  1  0.667067  0.332933  0.567441  1
  Tb  Tb2  1  0.667067  0.332933  0.932559  1
  Tb  Tb3  1  0.325380  0.674620  0.063558  1
  Zn  Zn4  1  0.167750  0.832250  0.750000  1
  Ru  Ru5  1  0.987730  0.012270  0.501386  1
  Ru  Ru6  1  0.987730  0.012270  0.998614  1
  Ru  Ru7  1  0.825153  0.641977  0.250000  1
  Ru  Ru8  1  0.358023  0.174847  0.250000  1
  Ru  Ru9  1  0.182980  0.341508  0.750000  1
  Ru  Ru10  1  0.658492  0.817020  0.750000  1
  W  W11  1  0.847247  0.152753  0.250000  1
