# generated using pymatgen
data_La4MgIn3
_symmetry_space_group_name_H-M   'P 1'
_cell_length_a   6.16818160
_cell_length_b   9.45057401
_cell_length_c   9.45057344
_cell_angle_alpha   83.91277779
_cell_angle_beta   70.96758367
_cell_angle_gamma   70.96759005
_symmetry_Int_Tables_number   1
_chemical_formula_structural   La4MgIn3
_chemical_formula_sum   'La8 Mg2 In6'
_cell_volume   492.31634761
_cell_formula_units_Z   2
loop_
 _symmetry_equiv_pos_site_id
 _symmetry_equiv_pos_as_xyz
  1  'x, y, z'
loop_
 _atom_site_type_symbol
 _atom_site_label
 _atom_site_symmetry_multiplicity
 _atom_site_fract_x
 _atom_site_fract_y
 _atom_site_fract_z
 _atom_site_occupancy
  La  La0  1  0.724714  0.862652  0.687912  1
  La  La1  1  0.275286  0.137348  0.312088  1
  La  La2  1  0.775286  0.312088  0.137348  1
  La  La3  1  0.224714  0.687912  0.862652  1
  La  La4  1  0.587362  0.687919  0.137354  1
  La  La5  1  0.412638  0.312081  0.862646  1
  La  La6  1  0.087362  0.137354  0.687919  1
  La  La7  1  0.912638  0.862646  0.312081  1
  Mg  Mg8  1  0.750000  0.499998  0.500002  1
  Mg  Mg9  1  0.250000  0.500002  0.499998  1
  In  In10  1  0.154207  0.499971  0.191366  1
  In  In11  1  0.845793  0.500029  0.808634  1
  In  In12  1  0.345793  0.808634  0.500029  1
  In  In13  1  0.654207  0.191366  0.499971  1
  In  In14  1  0.250000  0.000001  0.999999  1
  In  In15  1  0.750000  0.999999  0.000001  1
