# generated using pymatgen
data_Dy3HoLu4(ReC2)4
_symmetry_space_group_name_H-M   'P 1'
_cell_length_a   5.04726000
_cell_length_b   6.55615845
_cell_length_c   9.74252466
_cell_angle_alpha   90.04229130
_cell_angle_beta   90.00000000
_cell_angle_gamma   90.00000000
_symmetry_Int_Tables_number   1
_chemical_formula_structural   Dy3HoLu4(ReC2)4
_chemical_formula_sum   'Dy3 Ho1 Lu4 Re4 C8'
_cell_volume   322.38625227
_cell_formula_units_Z   1
loop_
 _symmetry_equiv_pos_site_id
 _symmetry_equiv_pos_as_xyz
  1  'x, y, z'
loop_
 _atom_site_type_symbol
 _atom_site_label
 _atom_site_symmetry_multiplicity
 _atom_site_fract_x
 _atom_site_fract_y
 _atom_site_fract_z
 _atom_site_occupancy
  Dy  Dy0  1  0.250000  0.964804  0.285567  1
  Dy  Dy1  1  0.750000  0.535095  0.785563  1
  Dy  Dy2  1  0.750000  0.035210  0.714327  1
  Ho  Ho3  1  0.250000  0.464768  0.214781  1
  Lu  Lu4  1  0.250000  0.826386  0.941785  1
  Lu  Lu5  1  0.250000  0.326126  0.558250  1
  Lu  Lu6  1  0.750000  0.173917  0.058416  1
  Lu  Lu7  1  0.750000  0.673657  0.441599  1
  Re  Re8  1  0.250000  0.280394  0.868020  1
  Re  Re9  1  0.250000  0.779937  0.631969  1
  Re  Re10  1  0.750000  0.719668  0.132075  1
  Re  Re11  1  0.750000  0.219789  0.367789  1
  C  C12  1  0.250000  0.049216  0.739562  1
  C  C13  1  0.250000  0.549255  0.760359  1
  C  C14  1  0.750000  0.950522  0.260437  1
  C  C15  1  0.750000  0.450597  0.239432  1
  C  C16  1  0.250000  0.669420  0.448425  1
  C  C17  1  0.250000  0.170874  0.051596  1
  C  C18  1  0.750000  0.330239  0.551277  1
  C  C19  1  0.750000  0.830124  0.948772  1
