# generated using pymatgen
data_Lu4Hf4Ir3Rh
_symmetry_space_group_name_H-M   'P 1'
_cell_length_a   4.53109300
_cell_length_b   7.03007975
_cell_length_c   8.27976300
_cell_angle_alpha   89.95955925
_cell_angle_beta   90.00000000
_cell_angle_gamma   90.00000000
_symmetry_Int_Tables_number   1
_chemical_formula_structural   Lu4Hf4Ir3Rh
_chemical_formula_sum   'Lu4 Hf4 Ir3 Rh1'
_cell_volume   263.74305076
_cell_formula_units_Z   1
loop_
 _symmetry_equiv_pos_site_id
 _symmetry_equiv_pos_as_xyz
  1  'x, y, z'
loop_
 _atom_site_type_symbol
 _atom_site_label
 _atom_site_symmetry_multiplicity
 _atom_site_fract_x
 _atom_site_fract_y
 _atom_site_fract_z
 _atom_site_occupancy
  Lu  Lu0  1  0.250000  0.983919  0.324560  1
  Lu  Lu1  1  0.250000  0.484363  0.175470  1
  Lu  Lu2  1  0.750000  0.014051  0.674705  1
  Lu  Lu3  1  0.750000  0.519683  0.822852  1
  Hf  Hf4  1  0.250000  0.356920  0.570862  1
  Hf  Hf5  1  0.250000  0.858935  0.928261  1
  Hf  Hf6  1  0.750000  0.641557  0.427136  1
  Hf  Hf7  1  0.750000  0.142237  0.074346  1
  Ir  Ir8  1  0.250000  0.733522  0.595387  1
  Ir  Ir9  1  0.750000  0.765902  0.093612  1
  Ir  Ir10  1  0.750000  0.264599  0.405470  1
  Rh  Rh11  1  0.250000  0.234310  0.907338  1
