# generated using pymatgen
data_Dy2HoMg3RuAu2
_symmetry_space_group_name_H-M   'P 1'
_cell_length_a   7.56685835
_cell_length_b   7.56154545
_cell_length_c   4.04241800
_cell_angle_alpha   90.00000000
_cell_angle_beta   90.00000000
_cell_angle_gamma   119.98847837
_symmetry_Int_Tables_number   1
_chemical_formula_structural   Dy2HoMg3RuAu2
_chemical_formula_sum   'Dy2 Ho1 Mg3 Ru1 Au2'
_cell_volume   200.33112568
_cell_formula_units_Z   1
loop_
 _symmetry_equiv_pos_site_id
 _symmetry_equiv_pos_as_xyz
  1  'x, y, z'
loop_
 _atom_site_type_symbol
 _atom_site_label
 _atom_site_symmetry_multiplicity
 _atom_site_fract_x
 _atom_site_fract_y
 _atom_site_fract_z
 _atom_site_occupancy
  Dy  Dy0  1  0.027535  0.601621  0.000000  1
  Dy  Dy1  1  0.398608  0.425856  0.000000  1
  Ho  Ho2  1  0.574459  0.972561  0.000000  1
  Mg  Mg3  1  0.254520  0.000049  0.500000  1
  Mg  Mg4  1  0.999728  0.254122  0.500000  1
  Mg  Mg5  1  0.745708  0.745906  0.500000  1
  Ru  Ru6  1  0.334035  0.667775  0.500000  1
  Au  Au7  1  0.666129  0.332173  0.500000  1
  Au  Au8  1  0.999279  0.999936  0.000000  1
