# generated using pymatgen
data_Sc2Co5Mo2(P2Rh)3
_symmetry_space_group_name_H-M   'P 1'
_cell_length_a   3.73116900
_cell_length_b   10.52200300
_cell_length_c   12.04048000
_cell_angle_alpha   90.00000000
_cell_angle_beta   90.00000000
_cell_angle_gamma   90.00000000
_symmetry_Int_Tables_number   1
_chemical_formula_structural   Sc2Co5Mo2(P2Rh)3
_chemical_formula_sum   'Sc4 Co10 Mo4 P12 Rh6'
_cell_volume   472.70167629
_cell_formula_units_Z   2
loop_
 _symmetry_equiv_pos_site_id
 _symmetry_equiv_pos_as_xyz
  1  'x, y, z'
loop_
 _atom_site_type_symbol
 _atom_site_label
 _atom_site_symmetry_multiplicity
 _atom_site_fract_x
 _atom_site_fract_y
 _atom_site_fract_z
 _atom_site_occupancy
  Sc  Sc0  1  0.250000  0.586291  0.711113  1
  Sc  Sc1  1  0.250000  0.913709  0.211113  1
  Sc  Sc2  1  0.750000  0.421408  0.289984  1
  Sc  Sc3  1  0.750000  0.078592  0.789984  1
  Co  Co4  1  0.750000  0.775925  0.820400  1
  Co  Co5  1  0.750000  0.724075  0.320400  1
  Co  Co6  1  0.250000  0.881721  0.697816  1
  Co  Co7  1  0.250000  0.618279  0.197816  1
  Co  Co8  1  0.750000  0.106937  0.302347  1
  Co  Co9  1  0.750000  0.393063  0.802347  1
  Co  Co10  1  0.250000  0.466582  0.933250  1
  Co  Co11  1  0.250000  0.033418  0.433250  1
  Co  Co12  1  0.750000  0.536721  0.066230  1
  Co  Co13  1  0.750000  0.963279  0.566230  1
  Mo  Mo14  1  0.250000  0.706934  0.984515  1
  Mo  Mo15  1  0.250000  0.793066  0.484515  1
  Mo  Mo16  1  0.750000  0.293474  0.012112  1
  Mo  Mo17  1  0.750000  0.206526  0.512112  1
  P  P18  1  0.250000  0.430589  0.114937  1
  P  P19  1  0.250000  0.069411  0.614937  1
  P  P20  1  0.750000  0.580664  0.883398  1
  P  P21  1  0.750000  0.919336  0.383398  1
  P  P22  1  0.250000  0.270946  0.869261  1
  P  P23  1  0.250000  0.229054  0.369261  1
  P  P24  1  0.750000  0.729469  0.138843  1
  P  P25  1  0.750000  0.770531  0.638843  1
  P  P26  1  0.250000  0.602535  0.379913  1
  P  P27  1  0.250000  0.897465  0.879913  1
  P  P28  1  0.750000  0.404433  0.616256  1
  P  P29  1  0.750000  0.095567  0.116256  1
  Rh  Rh30  1  0.250000  0.408528  0.478799  1
  Rh  Rh31  1  0.250000  0.091472  0.978799  1
  Rh  Rh32  1  0.750000  0.597463  0.519155  1
  Rh  Rh33  1  0.750000  0.902537  0.019155  1
  Rh  Rh34  1  0.250000  0.226582  0.181674  1
  Rh  Rh35  1  0.250000  0.273419  0.681674  1
