# generated using pymatgen
data_Dy7LuMg2(SiB4)4
_symmetry_space_group_name_H-M   'P 1'
_cell_length_a   7.16127402
_cell_length_b   7.16127402
_cell_length_c   7.82854800
_cell_angle_alpha   90.00125353
_cell_angle_beta   90.00125353
_cell_angle_gamma   89.99126314
_symmetry_Int_Tables_number   1
_chemical_formula_structural   Dy7LuMg2(SiB4)4
_chemical_formula_sum   'Dy7 Lu1 Mg2 Si4 B16'
_cell_volume   401.47804215
_cell_formula_units_Z   1
loop_
 _symmetry_equiv_pos_site_id
 _symmetry_equiv_pos_as_xyz
  1  'x, y, z'
loop_
 _atom_site_type_symbol
 _atom_site_label
 _atom_site_symmetry_multiplicity
 _atom_site_fract_x
 _atom_site_fract_y
 _atom_site_fract_z
 _atom_site_occupancy
  Dy  Dy0  1  0.316940  0.816940  0.766367  1
  Dy  Dy1  1  0.316983  0.816983  0.233637  1
  Dy  Dy2  1  0.816717  0.683228  0.233371  1
  Dy  Dy3  1  0.816608  0.683118  0.766346  1
  Dy  Dy4  1  0.683330  0.183330  0.766669  1
  Dy  Dy5  1  0.183118  0.316608  0.766346  1
  Dy  Dy6  1  0.183228  0.316717  0.233371  1
  Lu  Lu7  1  0.682966  0.182966  0.229543  1
  Mg  Mg8  1  0.999269  0.000423  0.499277  1
  Mg  Mg9  1  0.500423  0.499269  0.499277  1
  Si  Si10  1  0.114614  0.614614  0.499657  1
  Si  Si11  1  0.883047  0.383047  0.497747  1
  Si  Si12  1  0.386353  0.116468  0.498352  1
  Si  Si13  1  0.616468  0.886353  0.498352  1
  B  B14  1  0.173141  0.040180  0.000734  1
  B  B15  1  0.826125  0.960824  0.000815  1
  B  B16  1  0.959519  0.173842  0.000566  1
  B  B17  1  0.326847  0.539555  0.000613  1
  B  B18  1  0.039555  0.826847  0.000613  1
  B  B19  1  0.673842  0.459519  0.000566  1
  B  B20  1  0.540180  0.673141  0.000734  1
  B  B21  1  0.460824  0.326125  0.000815  1
  B  B22  1  0.089473  0.589473  0.000459  1
  B  B23  1  0.910550  0.410550  0.000207  1
  B  B24  1  0.410836  0.089448  0.001274  1
  B  B25  1  0.589448  0.910836  0.001274  1
  B  B26  1  0.998750  0.000667  0.163601  1
  B  B27  1  0.999916  0.000264  0.837908  1
  B  B28  1  0.500264  0.499916  0.837908  1
  B  B29  1  0.500667  0.498750  0.163601  1
