# generated using pymatgen
data_La3Pr5(InIr)2
_symmetry_space_group_name_H-M   'P 1'
_cell_length_a   10.04584353
_cell_length_b   10.12299688
_cell_length_c   10.07786871
_cell_angle_alpha   59.64313531
_cell_angle_beta   60.40185156
_cell_angle_gamma   60.54622803
_symmetry_Int_Tables_number   1
_chemical_formula_structural   La3Pr5(InIr)2
_chemical_formula_sum   'La6 Pr10 In4 Ir4'
_cell_volume   727.81559086
_cell_formula_units_Z   2
loop_
 _symmetry_equiv_pos_site_id
 _symmetry_equiv_pos_as_xyz
  1  'x, y, z'
loop_
 _atom_site_type_symbol
 _atom_site_label
 _atom_site_symmetry_multiplicity
 _atom_site_fract_x
 _atom_site_fract_y
 _atom_site_fract_z
 _atom_site_occupancy
  La  La0  1  0.345463  0.348815  0.348418  1
  La  La1  1  0.348812  0.345461  0.957305  1
  La  La2  1  0.349196  0.956367  0.345760  1
  La  La3  1  0.956372  0.349185  0.348680  1
  La  La4  1  0.811276  0.188242  0.188785  1
  La  La5  1  0.188235  0.811275  0.811698  1
  Pr  Pr6  1  0.192286  0.807158  0.192923  1
  Pr  Pr7  1  0.807157  0.192290  0.807634  1
  Pr  Pr8  1  0.192242  0.192243  0.807758  1
  Pr  Pr9  1  0.807120  0.807120  0.192880  1
  Pr  Pr10  1  0.937616  0.562811  0.563228  1
  Pr  Pr11  1  0.562816  0.937612  0.936342  1
  Pr  Pr12  1  0.560481  0.940538  0.560348  1
  Pr  Pr13  1  0.940533  0.560485  0.938632  1
  Pr  Pr14  1  0.560466  0.560470  0.939530  1
  Pr  Pr15  1  0.939606  0.939607  0.560396  1
  In  In16  1  0.581811  0.579748  0.580175  1
  In  In17  1  0.579747  0.581813  0.258266  1
  In  In18  1  0.579984  0.257845  0.581815  1
  In  In19  1  0.257846  0.579983  0.580356  1
  Ir  Ir20  1  0.135883  0.144384  0.143945  1
  Ir  Ir21  1  0.144386  0.135884  0.575787  1
  Ir  Ir22  1  0.144552  0.576111  0.135183  1
  Ir  Ir23  1  0.576110  0.144550  0.144155  1
