# generated using pymatgen
data_Tb4TaReOs6
_symmetry_space_group_name_H-M   'P 1'
_cell_length_a   5.27595065
_cell_length_b   5.27594995
_cell_length_c   9.03230000
_cell_angle_alpha   90.00000000
_cell_angle_beta   90.00000000
_cell_angle_gamma   116.28377636
_symmetry_Int_Tables_number   1
_chemical_formula_structural   Tb4TaReOs6
_chemical_formula_sum   'Tb4 Ta1 Re1 Os6'
_cell_volume   225.42611207
_cell_formula_units_Z   1
loop_
 _symmetry_equiv_pos_site_id
 _symmetry_equiv_pos_as_xyz
  1  'x, y, z'
loop_
 _atom_site_type_symbol
 _atom_site_label
 _atom_site_symmetry_multiplicity
 _atom_site_fract_x
 _atom_site_fract_y
 _atom_site_fract_z
 _atom_site_occupancy
  Tb  Tb0  1  0.329393  0.670607  0.438975  1
  Tb  Tb1  1  0.667394  0.332606  0.567216  1
  Tb  Tb2  1  0.667394  0.332606  0.932784  1
  Tb  Tb3  1  0.329393  0.670607  0.061025  1
  Ta  Ta4  1  0.839097  0.160903  0.250000  1
  Re  Re5  1  0.167359  0.832641  0.750000  1
  Os  Os6  1  0.001879  0.998121  0.505049  1
  Os  Os7  1  0.001879  0.998121  0.994951  1
  Os  Os8  1  0.823243  0.650817  0.250000  1
  Os  Os9  1  0.349183  0.176757  0.250000  1
  Os  Os10  1  0.172160  0.348371  0.750000  1
  Os  Os11  1  0.651629  0.827840  0.750000  1
