# generated using pymatgen
data_Ho2Lu6Mn(B8Rh)3
_symmetry_space_group_name_H-M   'P 1'
_cell_length_a   3.58329000
_cell_length_b   9.04449544
_cell_length_c   11.40038911
_cell_angle_alpha   90.12055509
_cell_angle_beta   90.00000000
_cell_angle_gamma   90.00000000
_symmetry_Int_Tables_number   1
_chemical_formula_structural   Ho2Lu6Mn(B8Rh)3
_chemical_formula_sum   'Ho2 Lu6 Mn1 B24 Rh3'
_cell_volume   369.47496360
_cell_formula_units_Z   1
loop_
 _symmetry_equiv_pos_site_id
 _symmetry_equiv_pos_as_xyz
  1  'x, y, z'
loop_
 _atom_site_type_symbol
 _atom_site_label
 _atom_site_symmetry_multiplicity
 _atom_site_fract_x
 _atom_site_fract_y
 _atom_site_fract_z
 _atom_site_occupancy
  Ho  Ho0  1  0.500000  0.317370  0.409466  1
  Ho  Ho1  1  0.500000  0.678699  0.585863  1
  Lu  Lu2  1  0.500000  0.178270  0.918810  1
  Lu  Lu3  1  0.500000  0.826380  0.087445  1
  Lu  Lu4  1  0.500000  0.439388  0.126120  1
  Lu  Lu5  1  0.500000  0.555963  0.874256  1
  Lu  Lu6  1  0.500000  0.056290  0.627099  1
  Lu  Lu7  1  0.500000  0.947382  0.370554  1
  Mn  Mn8  1  0.500000  0.138170  0.179403  1
  B  B9  1  0.000000  0.105469  0.471218  1
  B  B10  1  0.000000  0.894575  0.528849  1
  B  B11  1  0.000000  0.392300  0.970545  1
  B  B12  1  0.000000  0.608201  0.029544  1
  B  B13  1  0.000000  0.130832  0.313360  1
  B  B14  1  0.000000  0.868696  0.683391  1
  B  B15  1  0.000000  0.367965  0.817746  1
  B  B16  1  0.000000  0.631616  0.182852  1
  B  B17  1  0.000000  0.054405  0.067683  1
  B  B18  1  0.000000  0.947740  0.935346  1
  B  B19  1  0.000000  0.445898  0.565229  1
  B  B20  1  0.000000  0.553153  0.433441  1
  B  B21  1  0.000000  0.481178  0.285987  1
  B  B22  1  0.000000  0.518520  0.713531  1
  B  B23  1  0.000000  0.019727  0.787981  1
  B  B24  1  0.000000  0.984327  0.211909  1
  B  B25  1  0.000000  0.247103  0.081609  1
  B  B26  1  0.000000  0.750356  0.922016  1
  B  B27  1  0.000000  0.249235  0.579222  1
  B  B28  1  0.000000  0.751020  0.419593  1
  B  B29  1  0.000000  0.290442  0.233339  1
  B  B30  1  0.000000  0.706629  0.764640  1
  B  B31  1  0.000000  0.206634  0.737002  1
  B  B32  1  0.000000  0.794092  0.264121  1
  Rh  Rh33  1  0.500000  0.861629  0.821822  1
  Rh  Rh34  1  0.500000  0.360855  0.679496  1
  Rh  Rh35  1  0.500000  0.639493  0.319511  1
