# generated using pymatgen
data_Rb2LiCoF6
_symmetry_space_group_name_H-M   'P 1'
_cell_length_a   10.15575624
_cell_length_b   10.15575636
_cell_length_c   10.15575500
_cell_angle_alpha   33.52723333
_cell_angle_beta   33.52723239
_cell_angle_gamma   33.52723338
_symmetry_Int_Tables_number   1
_chemical_formula_structural   Rb2LiCoF6
_chemical_formula_sum   'Rb4 Li2 Co2 F12'
_cell_volume   284.61686496
_cell_formula_units_Z   2
loop_
 _symmetry_equiv_pos_site_id
 _symmetry_equiv_pos_as_xyz
  1  'x, y, z'
loop_
 _atom_site_type_symbol
 _atom_site_label
 _atom_site_symmetry_multiplicity
 _atom_site_fract_x
 _atom_site_fract_y
 _atom_site_fract_z
 _atom_site_occupancy
  Rb  Rb0  1  0.716039  0.716039  0.716039  1
  Rb  Rb1  1  0.283961  0.283961  0.283961  1
  Rb  Rb2  1  0.872593  0.872593  0.872593  1
  Rb  Rb3  1  0.127407  0.127407  0.127407  1
  Li  Li4  1  0.594286  0.594286  0.594286  1
  Li  Li5  1  0.405714  0.405714  0.405714  1
  Co  Co6  1  0.500000  0.500000  0.500000  1
  Co  Co7  1  0.000000  0.000000  0.000000  1
  F  F8  1  0.190829  0.190829  0.730615  1
  F  F9  1  0.730615  0.190829  0.190829  1
  F  F10  1  0.190829  0.730615  0.190829  1
  F  F11  1  0.809171  0.269385  0.809171  1
  F  F12  1  0.168946  0.605607  0.605607  1
  F  F13  1  0.605607  0.605607  0.168946  1
  F  F14  1  0.605607  0.168946  0.605607  1
  F  F15  1  0.394393  0.831054  0.394393  1
  F  F16  1  0.831054  0.394393  0.394393  1
  F  F17  1  0.394393  0.394393  0.831054  1
  F  F18  1  0.269385  0.809171  0.809171  1
  F  F19  1  0.809171  0.809171  0.269385  1
