# generated using pymatgen
data_Y3Pa(Al3Co)6
_symmetry_space_group_name_H-M   'P 1'
_cell_length_a   7.43646508
_cell_length_b   7.43526112
_cell_length_c   9.32603300
_cell_angle_alpha   90.00000000
_cell_angle_beta   90.00000000
_cell_angle_gamma   119.26610904
_symmetry_Int_Tables_number   1
_chemical_formula_structural   Y3Pa(Al3Co)6
_chemical_formula_sum   'Y3 Pa1 Al18 Co6'
_cell_volume   449.83657075
_cell_formula_units_Z   1
loop_
 _symmetry_equiv_pos_site_id
 _symmetry_equiv_pos_as_xyz
  1  'x, y, z'
loop_
 _atom_site_type_symbol
 _atom_site_label
 _atom_site_symmetry_multiplicity
 _atom_site_fract_x
 _atom_site_fract_y
 _atom_site_fract_z
 _atom_site_occupancy
  Y  Y0  1  0.006483  0.327975  0.750000  1
  Y  Y1  1  0.673331  0.993092  0.250000  1
  Y  Y2  1  0.327841  0.006427  0.750000  1
  Pa  Pa3  1  0.994524  0.672888  0.250000  1
  Al  Al4  1  0.128548  0.128030  0.250000  1
  Al  Al5  1  0.875793  0.876805  0.750000  1
  Al  Al6  1  0.331765  0.331791  0.543914  1
  Al  Al7  1  0.664895  0.667366  0.041389  1
  Al  Al8  1  0.331765  0.331791  0.956086  1
  Al  Al9  1  0.664895  0.667366  0.458611  1
  Al  Al10  1  0.340047  0.552158  0.250000  1
  Al  Al11  1  0.659677  0.444921  0.750000  1
  Al  Al12  1  0.551061  0.340218  0.250000  1
  Al  Al13  1  0.445377  0.660672  0.750000  1
  Al  Al14  1  0.997980  0.332401  0.071119  1
  Al  Al15  1  0.001396  0.664561  0.574489  1
  Al  Al16  1  0.338573  0.001084  0.428956  1
  Al  Al17  1  0.665322  0.002940  0.927984  1
  Al  Al18  1  0.001396  0.664561  0.925511  1
  Al  Al19  1  0.997980  0.332401  0.428881  1
  Al  Al20  1  0.665322  0.002940  0.572016  1
  Al  Al21  1  0.338573  0.001084  0.071044  1
  Co  Co22  1  0.999296  0.995513  0.004246  1
  Co  Co23  1  0.999296  0.995513  0.495754  1
  Co  Co24  1  0.673753  0.331929  0.002731  1
  Co  Co25  1  0.325677  0.670823  0.497223  1
  Co  Co26  1  0.325677  0.670823  0.002777  1
  Co  Co27  1  0.673753  0.331929  0.497269  1
