# generated using pymatgen
data_Ca(PPd3)2
_symmetry_space_group_name_H-M   'P 1'
_cell_length_a   8.53269300
_cell_length_b   8.53269300
_cell_length_c   8.53269300
_cell_angle_alpha   90.00000000
_cell_angle_beta   90.00000000
_cell_angle_gamma   90.00000000
_symmetry_Int_Tables_number   1
_chemical_formula_structural   Ca(PPd3)2
_chemical_formula_sum   'Ca4 P8 Pd24'
_cell_volume   621.23849792
_cell_formula_units_Z   4
loop_
 _symmetry_equiv_pos_site_id
 _symmetry_equiv_pos_as_xyz
  1  'x, y, z'
loop_
 _atom_site_type_symbol
 _atom_site_label
 _atom_site_symmetry_multiplicity
 _atom_site_fract_x
 _atom_site_fract_y
 _atom_site_fract_z
 _atom_site_occupancy
  Ca  Ca0  1  0.500000  0.500000  0.000000  1
  Ca  Ca1  1  0.500000  0.000000  0.500000  1
  Ca  Ca2  1  0.000000  0.500000  0.500000  1
  Ca  Ca3  1  0.000000  0.000000  0.000000  1
  P  P4  1  0.807961  0.307961  0.192039  1
  P  P5  1  0.192039  0.807961  0.307961  1
  P  P6  1  0.692039  0.692039  0.692039  1
  P  P7  1  0.307961  0.192039  0.807961  1
  P  P8  1  0.192039  0.692039  0.807961  1
  P  P9  1  0.807961  0.192039  0.692039  1
  P  P10  1  0.307961  0.307961  0.307961  1
  P  P11  1  0.692039  0.807961  0.192039  1
  Pd  Pd12  1  0.421772  0.850975  0.167028  1
  Pd  Pd13  1  0.578228  0.350975  0.332972  1
  Pd  Pd14  1  0.078228  0.149025  0.667028  1
  Pd  Pd15  1  0.921772  0.649025  0.832972  1
  Pd  Pd16  1  0.167028  0.421772  0.850975  1
  Pd  Pd17  1  0.332972  0.578228  0.350975  1
  Pd  Pd18  1  0.667028  0.078228  0.149025  1
  Pd  Pd19  1  0.832972  0.921772  0.649025  1
  Pd  Pd20  1  0.850975  0.167028  0.421772  1
  Pd  Pd21  1  0.350975  0.332972  0.578228  1
  Pd  Pd22  1  0.149025  0.667028  0.078228  1
  Pd  Pd23  1  0.649025  0.832972  0.921772  1
  Pd  Pd24  1  0.578228  0.149025  0.832972  1
  Pd  Pd25  1  0.421772  0.649025  0.667028  1
  Pd  Pd26  1  0.921772  0.850975  0.332972  1
  Pd  Pd27  1  0.078228  0.350975  0.167028  1
  Pd  Pd28  1  0.832972  0.578228  0.149025  1
  Pd  Pd29  1  0.667028  0.421772  0.649025  1
  Pd  Pd30  1  0.332972  0.921772  0.850975  1
  Pd  Pd31  1  0.167028  0.078228  0.350975  1
  Pd  Pd32  1  0.149025  0.832972  0.578228  1
  Pd  Pd33  1  0.649025  0.667028  0.421772  1
  Pd  Pd34  1  0.850975  0.332972  0.921772  1
  Pd  Pd35  1  0.350975  0.167028  0.078228  1
