# generated using pymatgen
data_PrDy3(OsO4)4
_symmetry_space_group_name_H-M   'P 1'
_cell_length_a   5.41765565
_cell_length_b   7.49271597
_cell_length_c   7.70121266
_cell_angle_alpha   79.60324045
_cell_angle_beta   93.63860432
_cell_angle_gamma   90.83600795
_symmetry_Int_Tables_number   1
_chemical_formula_structural   PrDy3(OsO4)4
_chemical_formula_sum   'Pr1 Dy3 Os4 O16'
_cell_volume   306.86097367
_cell_formula_units_Z   1
loop_
 _symmetry_equiv_pos_site_id
 _symmetry_equiv_pos_as_xyz
  1  'x, y, z'
loop_
 _atom_site_type_symbol
 _atom_site_label
 _atom_site_symmetry_multiplicity
 _atom_site_fract_x
 _atom_site_fract_y
 _atom_site_fract_z
 _atom_site_occupancy
  Pr  Pr0  1  0.741621  0.892513  0.371062  1
  Dy  Dy1  1  0.265641  0.111323  0.620752  1
  Dy  Dy2  1  0.811012  0.397650  0.330786  1
  Dy  Dy3  1  0.197734  0.602198  0.675957  1
  Os  Os4  1  0.755427  0.293905  0.835869  1
  Os  Os5  1  0.244343  0.703153  0.162613  1
  Os  Os6  1  0.285533  0.203116  0.163657  1
  Os  Os7  1  0.715166  0.799450  0.835338  1
  O  O8  1  0.934584  0.790664  0.039928  1
  O  O9  1  0.058063  0.209696  0.964910  1
  O  O10  1  0.362969  0.948984  0.172257  1
  O  O11  1  0.618715  0.051215  0.825695  1
  O  O12  1  0.152052  0.447553  0.166930  1
  O  O13  1  0.839450  0.554665  0.820957  1
  O  O14  1  0.596299  0.294921  0.060955  1
  O  O15  1  0.404609  0.703091  0.938812  1
  O  O16  1  0.948220  0.322000  0.615559  1
  O  O17  1  0.061280  0.664765  0.390146  1
  O  O18  1  0.506100  0.185454  0.388823  1
  O  O19  1  0.488839  0.822875  0.611854  1
  O  O20  1  0.547315  0.622624  0.293215  1
  O  O21  1  0.449248  0.368314  0.702034  1
  O  O22  1  0.033473  0.129192  0.341428  1
  O  O23  1  0.982307  0.880682  0.670464  1
