# generated using pymatgen
data_TbDy(CoC2)2
_symmetry_space_group_name_H-M   'P 1'
_cell_length_a   3.67763888
_cell_length_b   3.68574065
_cell_length_c   7.32425367
_cell_angle_alpha   82.41887452
_cell_angle_beta   82.42133669
_cell_angle_gamma   90.06762418
_symmetry_Int_Tables_number   1
_chemical_formula_structural   TbDy(CoC2)2
_chemical_formula_sum   'Tb1 Dy1 Co2 C4'
_cell_volume   97.53408068
_cell_formula_units_Z   1
loop_
 _symmetry_equiv_pos_site_id
 _symmetry_equiv_pos_as_xyz
  1  'x, y, z'
loop_
 _atom_site_type_symbol
 _atom_site_label
 _atom_site_symmetry_multiplicity
 _atom_site_fract_x
 _atom_site_fract_y
 _atom_site_fract_z
 _atom_site_occupancy
  Tb  Tb0  1  0.068239  0.931420  0.999743  1
  Dy  Dy1  1  0.931609  0.067713  0.500179  1
  Co  Co2  1  0.374179  0.511363  0.693376  1
  Co  Co3  1  0.511027  0.374232  0.194326  1
  C  C4  1  0.443167  0.592186  0.428795  1
  C  C5  1  0.591962  0.442805  0.928731  1
  C  C6  1  0.489922  0.857386  0.274713  1
  C  C7  1  0.856895  0.489894  0.773935  1
