# generated using pymatgen
data_MgSc3Co2As6Ir3Ru2
_symmetry_space_group_name_H-M   'P 1'
_cell_length_a   6.98751375
_cell_length_b   6.98843378
_cell_length_c   7.00482455
_cell_angle_alpha   109.69433432
_cell_angle_beta   108.78740133
_cell_angle_gamma   109.55538576
_symmetry_Int_Tables_number   1
_chemical_formula_structural   MgSc3Co2As6Ir3Ru2
_chemical_formula_sum   'Mg1 Sc3 Co2 As6 Ir3 Ru2'
_cell_volume   264.51854246
_cell_formula_units_Z   1
loop_
 _symmetry_equiv_pos_site_id
 _symmetry_equiv_pos_as_xyz
  1  'x, y, z'
loop_
 _atom_site_type_symbol
 _atom_site_label
 _atom_site_symmetry_multiplicity
 _atom_site_fract_x
 _atom_site_fract_y
 _atom_site_fract_z
 _atom_site_occupancy
  Mg  Mg0  1  0.499471  0.504901  0.498771  1
  Sc  Sc1  1  0.998487  0.996034  0.498368  1
  Sc  Sc2  1  0.497793  0.994965  0.998218  1
  Sc  Sc3  1  0.005595  0.504809  0.005253  1
  Co  Co4  1  0.748786  0.252125  0.502952  1
  Co  Co5  1  0.503913  0.252092  0.750032  1
  As  As6  1  0.680357  0.674874  0.985727  1
  As  As7  1  0.311335  0.305411  0.989488  1
  As  As8  1  0.992373  0.675081  0.686999  1
  As  As9  1  0.995744  0.305573  0.317412  1
  As  As10  1  0.691437  0.018839  0.691427  1
  As  As11  1  0.327391  0.019947  0.327405  1
  Ir  Ir12  1  0.504634  0.756106  0.251422  1
  Ir  Ir13  1  0.745842  0.491522  0.246551  1
  Ir  Ir14  1  0.251010  0.756073  0.504434  1
  Ru  Ru15  1  0.999047  0.998923  0.998967  1
  Ru  Ru16  1  0.246789  0.492725  0.746571  1
