# generated using pymatgen
data_Ca9Gd3(SiIr)8
_symmetry_space_group_name_H-M   'P 1'
_cell_length_a   5.61978757
_cell_length_b   7.71424644
_cell_length_c   13.37069300
_cell_angle_alpha   89.99531339
_cell_angle_beta   90.02579427
_cell_angle_gamma   89.56984043
_symmetry_Int_Tables_number   1
_chemical_formula_structural   Ca9Gd3(SiIr)8
_chemical_formula_sum   'Ca9 Gd3 Si8 Ir8'
_cell_volume   579.63558494
_cell_formula_units_Z   1
loop_
 _symmetry_equiv_pos_site_id
 _symmetry_equiv_pos_as_xyz
  1  'x, y, z'
loop_
 _atom_site_type_symbol
 _atom_site_label
 _atom_site_symmetry_multiplicity
 _atom_site_fract_x
 _atom_site_fract_y
 _atom_site_fract_z
 _atom_site_occupancy
  Ca  Ca0  1  0.633432  0.239176  0.250869  1
  Ca  Ca1  1  0.368754  0.756387  0.749880  1
  Ca  Ca2  1  0.356470  0.730510  0.251600  1
  Ca  Ca3  1  0.642244  0.270119  0.749612  1
  Ca  Ca4  1  0.128826  0.390239  0.102142  1
  Ca  Ca5  1  0.870425  0.608016  0.897429  1
  Ca  Ca6  1  0.872544  0.612271  0.599965  1
  Ca  Ca7  1  0.859129  0.889504  0.397012  1
  Ca  Ca8  1  0.129810  0.390700  0.398019  1
  Gd  Gd9  1  0.142195  0.110089  0.601113  1
  Gd  Gd10  1  0.146970  0.111429  0.897703  1
  Gd  Gd11  1  0.855927  0.887098  0.100736  1
  Si  Si12  1  0.153276  0.080247  0.250387  1
  Si  Si13  1  0.847918  0.919644  0.750405  1
  Si  Si14  1  0.837718  0.588940  0.250076  1
  Si  Si15  1  0.159509  0.405316  0.749670  1
  Si  Si16  1  0.596094  0.251712  0.003632  1
  Si  Si17  1  0.402437  0.749046  0.995880  1
  Si  Si18  1  0.410512  0.751110  0.502441  1
  Si  Si19  1  0.591096  0.252014  0.497874  1
  Ir  Ir20  1  0.356157  0.022303  0.090902  1
  Ir  Ir21  1  0.648106  0.977622  0.910269  1
  Ir  Ir22  1  0.641934  0.979823  0.591911  1
  Ir  Ir23  1  0.635361  0.527780  0.409733  1
  Ir  Ir24  1  0.354409  0.026368  0.410870  1
  Ir  Ir25  1  0.360543  0.471773  0.589523  1
  Ir  Ir26  1  0.361171  0.468371  0.910821  1
  Ir  Ir27  1  0.637035  0.532393  0.089529  1
