# generated using pymatgen
data_Y3HgIr3RhO14
_symmetry_space_group_name_H-M   'P 1'
_cell_length_a   7.19884398
_cell_length_b   7.34809708
_cell_length_c   7.34809700
_cell_angle_alpha   59.99999586
_cell_angle_beta   59.31175301
_cell_angle_gamma   59.31175331
_symmetry_Int_Tables_number   1
_chemical_formula_structural   Y3HgIr3RhO14
_chemical_formula_sum   'Y3 Hg1 Ir3 Rh1 O14'
_cell_volume   271.95709941
_cell_formula_units_Z   1
loop_
 _symmetry_equiv_pos_site_id
 _symmetry_equiv_pos_as_xyz
  1  'x, y, z'
loop_
 _atom_site_type_symbol
 _atom_site_label
 _atom_site_symmetry_multiplicity
 _atom_site_fract_x
 _atom_site_fract_y
 _atom_site_fract_z
 _atom_site_occupancy
  Y  Y0  1  0.125000  0.625000  0.125000  1
  Y  Y1  1  0.125000  0.125000  0.625000  1
  Y  Y2  1  0.125000  0.125000  0.125000  1
  Hg  Hg3  1  0.625000  0.125000  0.125000  1
  Ir  Ir4  1  0.625000  0.125000  0.625000  1
  Ir  Ir5  1  0.625000  0.625000  0.125000  1
  Ir  Ir6  1  0.625000  0.625000  0.625000  1
  Rh  Rh7  1  0.125000  0.625000  0.625000  1
  O  O8  1  0.708692  0.693123  0.299093  1
  O  O9  1  0.286500  0.287252  0.713124  1
  O  O10  1  0.708692  0.299093  0.693123  1
  O  O11  1  0.286500  0.713124  0.287252  1
  O  O12  1  0.286500  0.713124  0.713124  1
  O  O13  1  0.708692  0.299093  0.299093  1
  O  O14  1  0.541308  0.556877  0.950907  1
  O  O15  1  0.963500  0.962748  0.536876  1
  O  O16  1  0.541308  0.950907  0.556877  1
  O  O17  1  0.963500  0.536876  0.962748  1
  O  O18  1  0.963500  0.536876  0.536876  1
  O  O19  1  0.541308  0.950907  0.950907  1
  O  O20  1  0.247943  0.250685  0.250685  1
  O  O21  1  0.002057  0.999315  0.999315  1
