# generated using pymatgen
data_Tb3ScO6
_symmetry_space_group_name_H-M   'P 1'
_cell_length_a   6.63914215
_cell_length_b   6.63914124
_cell_length_c   6.63914176
_cell_angle_alpha   92.03758037
_cell_angle_beta   92.03757328
_cell_angle_gamma   92.03758228
_symmetry_Int_Tables_number   1
_chemical_formula_structural   Tb3ScO6
_chemical_formula_sum   'Tb6 Sc2 O12'
_cell_volume   292.07281241
_cell_formula_units_Z   2
loop_
 _symmetry_equiv_pos_site_id
 _symmetry_equiv_pos_as_xyz
  1  'x, y, z'
loop_
 _atom_site_type_symbol
 _atom_site_label
 _atom_site_symmetry_multiplicity
 _atom_site_fract_x
 _atom_site_fract_y
 _atom_site_fract_z
 _atom_site_occupancy
  Tb  Tb0  1  0.746978  0.931715  0.439333  1
  Tb  Tb1  1  0.931715  0.439333  0.746978  1
  Tb  Tb2  1  0.439333  0.746978  0.931715  1
  Tb  Tb3  1  0.253022  0.068285  0.560667  1
  Tb  Tb4  1  0.068285  0.560667  0.253022  1
  Tb  Tb5  1  0.560667  0.253022  0.068285  1
  Sc  Sc6  1  0.500000  0.500000  0.500000  1
  Sc  Sc7  1  0.000000  0.000000  0.000000  1
  O  O8  1  0.592795  0.463428  0.805440  1
  O  O9  1  0.463428  0.805440  0.592795  1
  O  O10  1  0.805440  0.592795  0.463428  1
  O  O11  1  0.407205  0.536572  0.194560  1
  O  O12  1  0.536572  0.194560  0.407205  1
  O  O13  1  0.194560  0.407205  0.536572  1
  O  O14  1  0.069175  0.914087  0.305405  1
  O  O15  1  0.914087  0.305405  0.069175  1
  O  O16  1  0.694595  0.930825  0.085913  1
  O  O17  1  0.085913  0.694595  0.930825  1
  O  O18  1  0.930825  0.085913  0.694595  1
  O  O19  1  0.305405  0.069175  0.914087  1
