# generated using pymatgen
data_Pr3Lu2P12Ir11Ru8
_symmetry_space_group_name_H-M   'P 1'
_cell_length_a   12.68578965
_cell_length_b   12.65424214
_cell_length_c   3.99674800
_cell_angle_alpha   90.00000000
_cell_angle_beta   90.00000000
_cell_angle_gamma   120.02606571
_symmetry_Int_Tables_number   1
_chemical_formula_structural   Pr3Lu2P12Ir11Ru8
_chemical_formula_sum   'Pr3 Lu2 P12 Ir11 Ru8'
_cell_volume   555.49085620
_cell_formula_units_Z   1
loop_
 _symmetry_equiv_pos_site_id
 _symmetry_equiv_pos_as_xyz
  1  'x, y, z'
loop_
 _atom_site_type_symbol
 _atom_site_label
 _atom_site_symmetry_multiplicity
 _atom_site_fract_x
 _atom_site_fract_y
 _atom_site_fract_z
 _atom_site_occupancy
  Pr  Pr0  1  0.812286  0.000685  0.500000  1
  Pr  Pr1  1  0.185372  0.186836  0.500000  1
  Pr  Pr2  1  0.999051  0.813081  0.500000  1
  Lu  Lu3  1  0.667179  0.331334  0.000000  1
  Lu  Lu4  1  0.334488  0.669024  0.000000  1
  P  P5  1  0.630739  0.998654  0.000000  1
  P  P6  1  0.366193  0.366543  0.000000  1
  P  P7  1  0.000545  0.633216  0.000000  1
  P  P8  1  0.689977  0.516292  0.500000  1
  P  P9  1  0.827799  0.306666  0.500000  1
  P  P10  1  0.315790  0.831598  0.500000  1
  P  P11  1  0.517432  0.692546  0.500000  1
  P  P12  1  0.182210  0.000079  0.000000  1
  P  P13  1  0.815662  0.815963  0.000000  1
  P  P14  1  0.997180  0.184378  0.000000  1
  P  P15  1  0.481351  0.169951  0.500000  1
  P  P16  1  0.172994  0.483646  0.500000  1
  Ir  Ir17  1  0.619072  0.799057  0.000000  1
  Ir  Ir18  1  0.183876  0.382225  0.000000  1
  Ir  Ir19  1  0.379587  0.182170  0.000000  1
  Ir  Ir20  1  0.196808  0.818148  0.000000  1
  Ir  Ir21  1  0.801290  0.617911  0.000000  1
  Ir  Ir22  1  0.869424  0.504648  0.500000  1
  Ir  Ir23  1  0.494400  0.361825  0.500000  1
  Ir  Ir24  1  0.635832  0.130680  0.500000  1
  Ir  Ir25  1  0.133481  0.639382  0.500000  1
  Ir  Ir26  1  0.364275  0.494564  0.500000  1
  Ir  Ir27  1  0.998931  0.000075  0.000000  1
  Ru  Ru28  1  0.509186  0.871223  0.500000  1
  Ru  Ru29  1  0.708656  0.707337  0.500000  1
  Ru  Ru30  1  0.002412  0.292366  0.500000  1
  Ru  Ru31  1  0.450028  0.999299  0.000000  1
  Ru  Ru32  1  0.547552  0.545277  0.000000  1
  Ru  Ru33  1  0.002038  0.454082  0.000000  1
  Ru  Ru34  1  0.817745  0.199358  0.000000  1
  Ru  Ru35  1  0.289164  0.999882  0.500000  1
