# generated using pymatgen
data_K6Ba6ScInSb8
_symmetry_space_group_name_H-M   'P 1'
_cell_length_a   11.24378500
_cell_length_b   11.24378573
_cell_length_c   8.52839900
_cell_angle_alpha   90.00000000
_cell_angle_beta   90.00000000
_cell_angle_gamma   120.00000079
_symmetry_Int_Tables_number   1
_chemical_formula_structural   K6Ba6ScInSb8
_chemical_formula_sum   'K6 Ba6 Sc1 In1 Sb8'
_cell_volume   933.73412717
_cell_formula_units_Z   1
loop_
 _symmetry_equiv_pos_site_id
 _symmetry_equiv_pos_as_xyz
  1  'x, y, z'
loop_
 _atom_site_type_symbol
 _atom_site_label
 _atom_site_symmetry_multiplicity
 _atom_site_fract_x
 _atom_site_fract_y
 _atom_site_fract_z
 _atom_site_occupancy
  K  K0  1  0.860622  0.139378  0.553731  1
  K  K1  1  0.278755  0.139378  0.553731  1
  K  K2  1  0.860622  0.721245  0.553731  1
  K  K3  1  0.134375  0.865625  0.054894  1
  K  K4  1  0.731252  0.865625  0.054894  1
  K  K5  1  0.134375  0.268748  0.054894  1
  Ba  Ba6  1  0.473801  0.526199  0.732297  1
  Ba  Ba7  1  0.052398  0.526199  0.732297  1
  Ba  Ba8  1  0.473801  0.947602  0.732297  1
  Ba  Ba9  1  0.522342  0.477658  0.231437  1
  Ba  Ba10  1  0.955316  0.477658  0.231437  1
  Ba  Ba11  1  0.522342  0.044684  0.231437  1
  Sc  Sc12  1  0.666667  0.333333  0.845168  1
  In  In13  1  0.333333  0.666667  0.356669  1
  Sb  Sb14  1  0.805085  0.194915  0.954638  1
  Sb  Sb15  1  0.389829  0.194915  0.954638  1
  Sb  Sb16  1  0.805085  0.610171  0.954638  1
  Sb  Sb17  1  0.191716  0.808284  0.458553  1
  Sb  Sb18  1  0.616566  0.808284  0.458553  1
  Sb  Sb19  1  0.191716  0.383434  0.458553  1
  Sb  Sb20  1  0.666667  0.333333  0.503459  1
  Sb  Sb21  1  0.333333  0.666667  0.008777  1
