# generated using pymatgen
data_Gd5SbI18
_symmetry_space_group_name_H-M   'P 1'
_cell_length_a   7.80851611
_cell_length_b   7.80951172
_cell_length_c   24.72625500
_cell_angle_alpha   90.01891393
_cell_angle_beta   89.99054183
_cell_angle_gamma   120.00421484
_symmetry_Int_Tables_number   1
_chemical_formula_structural   Gd5SbI18
_chemical_formula_sum   'Gd5 Sb1 I18'
_cell_volume   1305.75860480
_cell_formula_units_Z   1
loop_
 _symmetry_equiv_pos_site_id
 _symmetry_equiv_pos_as_xyz
  1  'x, y, z'
loop_
 _atom_site_type_symbol
 _atom_site_label
 _atom_site_symmetry_multiplicity
 _atom_site_fract_x
 _atom_site_fract_y
 _atom_site_fract_z
 _atom_site_occupancy
  Gd  Gd0  1  0.554772  0.777385  0.000000  1
  Gd  Gd1  1  0.222461  0.445047  0.333469  1
  Gd  Gd2  1  0.889080  0.778257  0.333417  1
  Gd  Gd3  1  0.889081  0.110823  0.666582  1
  Gd  Gd4  1  0.222459  0.777413  0.666530  1
  Sb  Sb5  1  0.222066  0.111033  0.000000  1
  I  I6  1  0.526107  0.441775  0.071772  1
  I  I7  1  0.890584  0.084757  0.071856  1
  I  I8  1  0.248138  0.805873  0.071719  1
  I  I9  1  0.193205  0.748992  0.260727  1
  I  I10  1  0.918168  0.111590  0.260883  1
  I  I11  1  0.556064  0.474270  0.260698  1
  I  I12  1  0.918268  0.474408  0.405779  1
  I  I13  1  0.193540  0.111737  0.405659  1
  I  I14  1  0.555970  0.749253  0.405772  1
  I  I15  1  0.555970  0.806718  0.594228  1
  I  I16  1  0.193539  0.081804  0.594341  1
  I  I17  1  0.918268  0.443858  0.594221  1
  I  I18  1  0.556064  0.081795  0.739302  1
  I  I19  1  0.918168  0.806578  0.739117  1
  I  I20  1  0.193204  0.444212  0.739273  1
  I  I21  1  0.248139  0.442266  0.928281  1
  I  I22  1  0.890583  0.805829  0.928144  1
  I  I23  1  0.526106  0.084332  0.928228  1
