# generated using pymatgen
data_Dy5ErLu10(Ga3Co)2
_symmetry_space_group_name_H-M   'P 1'
_cell_length_a   9.81841900
_cell_length_b   9.82629323
_cell_length_c   6.91097901
_cell_angle_alpha   90.01200597
_cell_angle_beta   90.00000000
_cell_angle_gamma   119.97349871
_symmetry_Int_Tables_number   1
_chemical_formula_structural   Dy5ErLu10(Ga3Co)2
_chemical_formula_sum   'Dy5 Er1 Lu10 Ga6 Co2'
_cell_volume   577.58697145
_cell_formula_units_Z   1
loop_
 _symmetry_equiv_pos_site_id
 _symmetry_equiv_pos_as_xyz
  1  'x, y, z'
loop_
 _atom_site_type_symbol
 _atom_site_label
 _atom_site_symmetry_multiplicity
 _atom_site_fract_x
 _atom_site_fract_y
 _atom_site_fract_z
 _atom_site_occupancy
  Dy  Dy0  1  0.535517  0.464522  0.708343  1
  Dy  Dy1  1  0.929006  0.464522  0.708343  1
  Dy  Dy2  1  0.535794  0.071588  0.708711  1
  Dy  Dy3  1  0.000024  0.000050  0.231698  1
  Dy  Dy4  1  0.999934  0.999868  0.731757  1
  Er  Er5  1  0.463502  0.927006  0.208372  1
  Lu  Lu6  1  0.173681  0.825014  0.511573  1
  Lu  Lu7  1  0.651333  0.825014  0.511573  1
  Lu  Lu8  1  0.174464  0.348928  0.510458  1
  Lu  Lu9  1  0.826799  0.175016  0.014090  1
  Lu  Lu10  1  0.348217  0.175016  0.014090  1
  Lu  Lu11  1  0.825600  0.651201  0.014979  1
  Lu  Lu12  1  0.332804  0.665609  0.826881  1
  Lu  Lu13  1  0.667150  0.334299  0.325549  1
  Lu  Lu14  1  0.462688  0.537006  0.207670  1
  Lu  Lu15  1  0.074317  0.537006  0.207670  1
  Ga  Ga16  1  0.163463  0.835823  0.957186  1
  Ga  Ga17  1  0.672360  0.835823  0.957186  1
  Ga  Ga18  1  0.164360  0.328720  0.958048  1
  Ga  Ga19  1  0.836396  0.163269  0.456334  1
  Ga  Ga20  1  0.326874  0.163269  0.456334  1
  Ga  Ga21  1  0.836486  0.672973  0.455413  1
  Co  Co22  1  0.332565  0.665133  0.445382  1
  Co  Co23  1  0.666664  0.333325  0.947194  1
