# generated using pymatgen
data_LuSc4Ga2Bi
_symmetry_space_group_name_H-M   'P 1'
_cell_length_a   8.30868297
_cell_length_b   8.32708801
_cell_length_c   6.11588900
_cell_angle_alpha   90.00000000
_cell_angle_beta   90.00000000
_cell_angle_gamma   120.07330198
_symmetry_Int_Tables_number   1
_chemical_formula_structural   LuSc4Ga2Bi
_chemical_formula_sum   'Lu2 Sc8 Ga4 Bi2'
_cell_volume   366.17973668
_cell_formula_units_Z   2
loop_
 _symmetry_equiv_pos_site_id
 _symmetry_equiv_pos_as_xyz
  1  'x, y, z'
loop_
 _atom_site_type_symbol
 _atom_site_label
 _atom_site_symmetry_multiplicity
 _atom_site_fract_x
 _atom_site_fract_y
 _atom_site_fract_z
 _atom_site_occupancy
  Lu  Lu0  1  0.228231  0.999674  0.250000  1
  Lu  Lu1  1  0.228231  0.228557  0.750000  1
  Sc  Sc2  1  0.308810  0.654405  0.000000  1
  Sc  Sc3  1  0.674022  0.337011  0.500000  1
  Sc  Sc4  1  0.674022  0.337011  0.000000  1
  Sc  Sc5  1  0.308810  0.654405  0.500000  1
  Sc  Sc6  1  0.016462  0.764054  0.750000  1
  Sc  Sc7  1  0.016462  0.252408  0.250000  1
  Sc  Sc8  1  0.767695  0.749637  0.250000  1
  Sc  Sc9  1  0.767695  0.018057  0.750000  1
  Ga  Ga10  1  0.994856  0.399464  0.750000  1
  Ga  Ga11  1  0.994856  0.595392  0.250000  1
  Ga  Ga12  1  0.402438  0.401091  0.250000  1
  Ga  Ga13  1  0.402438  0.001348  0.750000  1
  Bi  Bi14  1  0.607486  0.993504  0.250000  1
  Bi  Bi15  1  0.607486  0.613982  0.750000  1
