# generated using pymatgen
data_Lu8Re11Si16Rh
_symmetry_space_group_name_H-M   'P 1'
_cell_length_a   6.73150835
_cell_length_b   6.73150786
_cell_length_c   12.65606080
_cell_angle_alpha   90.07432235
_cell_angle_beta   89.92568161
_cell_angle_gamma   90.73796966
_symmetry_Int_Tables_number   1
_chemical_formula_structural   Lu8Re11Si16Rh
_chemical_formula_sum   'Lu8 Re11 Si16 Rh1'
_cell_volume   573.43811036
_cell_formula_units_Z   1
loop_
 _symmetry_equiv_pos_site_id
 _symmetry_equiv_pos_as_xyz
  1  'x, y, z'
loop_
 _atom_site_type_symbol
 _atom_site_label
 _atom_site_symmetry_multiplicity
 _atom_site_fract_x
 _atom_site_fract_y
 _atom_site_fract_z
 _atom_site_occupancy
  Lu  Lu0  1  0.004940  0.657195  0.029290  1
  Lu  Lu1  1  0.996722  0.337953  0.531610  1
  Lu  Lu2  1  0.337953  0.996722  0.468390  1
  Lu  Lu3  1  0.162977  0.488754  0.781682  1
  Lu  Lu4  1  0.836679  0.508921  0.279946  1
  Lu  Lu5  1  0.488754  0.162977  0.218318  1
  Lu  Lu6  1  0.508921  0.836679  0.720054  1
  Lu  Lu7  1  0.657195  0.004940  0.970710  1
  Re  Re8  1  0.162454  0.837122  0.249088  1
  Re  Re9  1  0.331555  0.331555  0.000000  1
  Re  Re10  1  0.030449  0.806263  0.632641  1
  Re  Re11  1  0.970016  0.195106  0.134753  1
  Re  Re12  1  0.806263  0.030449  0.367359  1
  Re  Re13  1  0.318398  0.488162  0.380315  1
  Re  Re14  1  0.684336  0.513199  0.879953  1
  Re  Re15  1  0.488162  0.318398  0.619685  1
  Re  Re16  1  0.513199  0.684336  0.120047  1
  Re  Re17  1  0.195106  0.970016  0.865247  1
  Re  Re18  1  0.837122  0.162454  0.750912  1
  Si  Si19  1  0.024241  0.731378  0.437947  1
  Si  Si20  1  0.613432  0.306921  0.435031  1
  Si  Si21  1  0.385355  0.691324  0.934564  1
  Si  Si22  1  0.198609  0.115334  0.681089  1
  Si  Si23  1  0.306921  0.613432  0.564969  1
  Si  Si24  1  0.691324  0.385355  0.065436  1
  Si  Si25  1  0.802245  0.884355  0.181915  1
  Si  Si26  1  0.115334  0.198609  0.318911  1
  Si  Si27  1  0.981057  0.262359  0.939074  1
  Si  Si28  1  0.731378  0.024241  0.562053  1
  Si  Si29  1  0.218563  0.478570  0.188427  1
  Si  Si30  1  0.782085  0.519306  0.690456  1
  Si  Si31  1  0.478570  0.218563  0.811573  1
  Si  Si32  1  0.519306  0.782085  0.309544  1
  Si  Si33  1  0.262359  0.981057  0.060926  1
  Si  Si34  1  0.884355  0.802245  0.818085  1
  Rh  Rh35  1  0.673667  0.673667  0.500000  1
