# generated using pymatgen
data_Zr6Ti4Al12Os4Pd3
_symmetry_space_group_name_H-M   'P 1'
_cell_length_a   8.80312806
_cell_length_b   8.84960817
_cell_length_c   8.80312818
_cell_angle_alpha   59.82519825
_cell_angle_beta   60.34962230
_cell_angle_gamma   59.82519529
_symmetry_Int_Tables_number   1
_chemical_formula_structural   Zr6Ti4Al12Os4Pd3
_chemical_formula_sum   'Zr6 Ti4 Al12 Os4 Pd3'
_cell_volume   484.90738536
_cell_formula_units_Z   1
loop_
 _symmetry_equiv_pos_site_id
 _symmetry_equiv_pos_as_xyz
  1  'x, y, z'
loop_
 _atom_site_type_symbol
 _atom_site_label
 _atom_site_symmetry_multiplicity
 _atom_site_fract_x
 _atom_site_fract_y
 _atom_site_fract_z
 _atom_site_occupancy
  Zr  Zr0  1  0.697567  0.697567  0.302433  1
  Zr  Zr1  1  0.322582  0.677418  0.322582  1
  Zr  Zr2  1  0.697567  0.302433  0.302433  1
  Zr  Zr3  1  0.302433  0.302433  0.697567  1
  Zr  Zr4  1  0.677418  0.322582  0.677418  1
  Zr  Zr5  1  0.302433  0.697567  0.697567  1
  Ti  Ti6  1  0.890352  0.873275  0.363100  1
  Ti  Ti7  1  0.873275  0.363100  0.873275  1
  Ti  Ti8  1  0.363100  0.873275  0.890352  1
  Ti  Ti9  1  0.873275  0.890352  0.873275  1
  Al  Al10  1  0.114771  0.123566  0.638097  1
  Al  Al11  1  0.123566  0.638097  0.123566  1
  Al  Al12  1  0.638097  0.123566  0.114771  1
  Al  Al13  1  0.123566  0.114771  0.123566  1
  Al  Al14  1  0.665979  0.661334  0.011352  1
  Al  Al15  1  0.661334  0.011352  0.661334  1
  Al  Al16  1  0.011352  0.661334  0.665979  1
  Al  Al17  1  0.661334  0.665979  0.661334  1
  Al  Al18  1  0.338209  0.335585  0.990622  1
  Al  Al19  1  0.335585  0.990622  0.335585  1
  Al  Al20  1  0.990622  0.335585  0.338209  1
  Al  Al21  1  0.335585  0.338209  0.335585  1
  Os  Os22  1  0.996764  0.996764  0.503236  1
  Os  Os23  1  0.996764  0.503236  0.503236  1
  Os  Os24  1  0.503236  0.503236  0.996764  1
  Os  Os25  1  0.503236  0.996764  0.996764  1
  Pd  Pd26  1  0.000000  0.000000  0.000000  1
  Pd  Pd27  1  0.499360  0.000640  0.499360  1
  Pd  Pd28  1  0.000640  0.499360  0.000640  1
