# generated using pymatgen
data_Pr6EuTcI12
_symmetry_space_group_name_H-M   'P 1'
_cell_length_a   10.17699074
_cell_length_b   10.17698981
_cell_length_c   10.17698992
_cell_angle_alpha   106.78915928
_cell_angle_beta   106.78915869
_cell_angle_gamma   106.78915075
_symmetry_Int_Tables_number   1
_chemical_formula_structural   Pr6EuTcI12
_chemical_formula_sum   'Pr6 Eu1 Tc1 I12'
_cell_volume   882.81673693
_cell_formula_units_Z   1
loop_
 _symmetry_equiv_pos_site_id
 _symmetry_equiv_pos_as_xyz
  1  'x, y, z'
loop_
 _atom_site_type_symbol
 _atom_site_label
 _atom_site_symmetry_multiplicity
 _atom_site_fract_x
 _atom_site_fract_y
 _atom_site_fract_z
 _atom_site_occupancy
  Pr  Pr0  1  0.801163  0.525650  0.597517  1
  Pr  Pr1  1  0.525650  0.597517  0.801163  1
  Pr  Pr2  1  0.198837  0.474350  0.402483  1
  Pr  Pr3  1  0.474350  0.402483  0.198837  1
  Pr  Pr4  1  0.597517  0.801163  0.525650  1
  Pr  Pr5  1  0.402483  0.198837  0.474350  1
  Eu  Eu6  1  0.000000  0.000000  0.000000  1
  Tc  Tc7  1  0.500000  0.500000  0.500000  1
  I  I8  1  0.724375  0.184450  0.573819  1
  I  I9  1  0.955896  0.877647  0.650439  1
  I  I10  1  0.573819  0.724375  0.184450  1
  I  I11  1  0.122353  0.349561  0.044104  1
  I  I12  1  0.650439  0.955896  0.877647  1
  I  I13  1  0.877647  0.650439  0.955896  1
  I  I14  1  0.044104  0.122353  0.349561  1
  I  I15  1  0.815550  0.426181  0.275625  1
  I  I16  1  0.349561  0.044104  0.122353  1
  I  I17  1  0.275625  0.815550  0.426181  1
  I  I18  1  0.184450  0.573819  0.724375  1
  I  I19  1  0.426181  0.275625  0.815550  1
