# generated using pymatgen
data_CaLu2(GaNi2)3
_symmetry_space_group_name_H-M   'P 1'
_cell_length_a   5.18523000
_cell_length_b   5.18522958
_cell_length_c   15.69502400
_cell_angle_alpha   90.00000000
_cell_angle_beta   90.00000000
_cell_angle_gamma   119.99998990
_symmetry_Int_Tables_number   1
_chemical_formula_structural   CaLu2(GaNi2)3
_chemical_formula_sum   'Ca2 Lu4 Ga6 Ni12'
_cell_volume   365.45059657
_cell_formula_units_Z   2
loop_
 _symmetry_equiv_pos_site_id
 _symmetry_equiv_pos_as_xyz
  1  'x, y, z'
loop_
 _atom_site_type_symbol
 _atom_site_label
 _atom_site_symmetry_multiplicity
 _atom_site_fract_x
 _atom_site_fract_y
 _atom_site_fract_z
 _atom_site_occupancy
  Ca  Ca0  1  0.333333  0.666667  0.750000  1
  Ca  Ca1  1  0.666667  0.333333  0.250000  1
  Lu  Lu2  1  0.333333  0.666667  0.543023  1
  Lu  Lu3  1  0.666667  0.333333  0.456977  1
  Lu  Lu4  1  0.666667  0.333333  0.043023  1
  Lu  Lu5  1  0.333333  0.666667  0.956977  1
  Ga  Ga6  1  0.000000  0.000000  0.250000  1
  Ga  Ga7  1  0.000000  0.000000  0.750000  1
  Ga  Ga8  1  0.333333  0.666667  0.250000  1
  Ga  Ga9  1  0.666667  0.333333  0.750000  1
  Ga  Ga10  1  0.000000  0.000000  0.000000  1
  Ga  Ga11  1  0.000000  0.000000  0.500000  1
  Ni  Ni12  1  0.169094  0.338186  0.123988  1
  Ni  Ni13  1  0.830906  0.661814  0.876012  1
  Ni  Ni14  1  0.661814  0.830906  0.123988  1
  Ni  Ni15  1  0.830906  0.661814  0.623988  1
  Ni  Ni16  1  0.338186  0.169094  0.876012  1
  Ni  Ni17  1  0.169094  0.338186  0.376012  1
  Ni  Ni18  1  0.169094  0.830906  0.123988  1
  Ni  Ni19  1  0.338186  0.169094  0.623988  1
  Ni  Ni20  1  0.830906  0.169094  0.876012  1
  Ni  Ni21  1  0.661814  0.830906  0.376012  1
  Ni  Ni22  1  0.830906  0.169094  0.623988  1
  Ni  Ni23  1  0.169094  0.830906  0.376012  1
