# generated using pymatgen
data_YbPr3Ga15(SiIr2)3
_symmetry_space_group_name_H-M   'P 1'
_cell_length_a   7.60471515
_cell_length_b   7.55087411
_cell_length_c   9.61767948
_cell_angle_alpha   89.92566502
_cell_angle_beta   89.95326952
_cell_angle_gamma   119.77691522
_symmetry_Int_Tables_number   1
_chemical_formula_structural   YbPr3Ga15(SiIr2)3
_chemical_formula_sum   'Yb1 Pr3 Ga15 Si3 Ir6'
_cell_volume   479.34921700
_cell_formula_units_Z   1
loop_
 _symmetry_equiv_pos_site_id
 _symmetry_equiv_pos_as_xyz
  1  'x, y, z'
loop_
 _atom_site_type_symbol
 _atom_site_label
 _atom_site_symmetry_multiplicity
 _atom_site_fract_x
 _atom_site_fract_y
 _atom_site_fract_z
 _atom_site_occupancy
  Yb  Yb0  1  0.323364  0.993507  0.749917  1
  Pr  Pr1  1  0.997097  0.667445  0.248341  1
  Pr  Pr2  1  0.004168  0.338016  0.749748  1
  Pr  Pr3  1  0.671454  0.001676  0.247888  1
  Ga  Ga4  1  0.132843  0.130084  0.250842  1
  Ga  Ga5  1  0.872579  0.867278  0.751136  1
  Ga  Ga6  1  0.340181  0.007247  0.426951  1
  Ga  Ga7  1  0.003379  0.328658  0.424409  1
  Ga  Ga8  1  0.661626  0.999503  0.580898  1
  Ga  Ga9  1  0.657265  0.996057  0.916833  1
  Ga  Ga10  1  0.338872  0.005985  0.074252  1
  Ga  Ga11  1  0.335138  0.327725  0.568073  1
  Ga  Ga12  1  0.659184  0.666337  0.437859  1
  Ga  Ga13  1  0.658831  0.665476  0.064939  1
  Ga  Ga14  1  0.339179  0.328835  0.930690  1
  Ga  Ga15  1  0.335955  0.543536  0.251249  1
  Ga  Ga16  1  0.658925  0.454282  0.751225  1
  Ga  Ga17  1  0.545933  0.340705  0.250751  1
  Ga  Ga18  1  0.454990  0.663624  0.750639  1
  Si  Si19  1  0.003448  0.329746  0.069702  1
  Si  Si20  1  0.999587  0.673013  0.929811  1
  Si  Si21  1  0.001273  0.668653  0.566832  1
  Ir  Ir22  1  0.695945  0.343743  0.000946  1
  Ir  Ir23  1  0.305872  0.656679  0.998842  1
  Ir  Ir24  1  0.317727  0.669621  0.503092  1
  Ir  Ir25  1  0.685692  0.343672  0.502111  1
  Ir  Ir26  1  0.999664  0.001277  0.999888  1
  Ir  Ir27  1  0.999830  0.987619  0.502134  1
