# generated using pymatgen
data_AcTb4Bi3O14
_symmetry_space_group_name_H-M   'P 1'
_cell_length_a   6.63123588
_cell_length_b   6.67628366
_cell_length_c   7.80298100
_cell_angle_alpha   106.84140068
_cell_angle_beta   89.63051286
_cell_angle_gamma   98.63480371
_symmetry_Int_Tables_number   1
_chemical_formula_structural   AcTb4Bi3O14
_chemical_formula_sum   'Ac1 Tb4 Bi3 O14'
_cell_volume   326.63899158
_cell_formula_units_Z   1
loop_
 _symmetry_equiv_pos_site_id
 _symmetry_equiv_pos_as_xyz
  1  'x, y, z'
loop_
 _atom_site_type_symbol
 _atom_site_label
 _atom_site_symmetry_multiplicity
 _atom_site_fract_x
 _atom_site_fract_y
 _atom_site_fract_z
 _atom_site_occupancy
  Ac  Ac0  1  0.758709  0.487854  0.620305  1
  Tb  Tb1  1  0.459727  0.007356  0.252287  1
  Tb  Tb2  1  0.532657  0.997597  0.750578  1
  Tb  Tb3  1  0.271343  0.534194  0.887537  1
  Tb  Tb4  1  0.736060  0.458710  0.111205  1
  Bi  Bi5  1  0.997323  0.997623  0.498173  1
  Bi  Bi6  1  0.999813  0.000588  0.000669  1
  Bi  Bi7  1  0.281705  0.533476  0.381808  1
  O  O8  1  0.450548  0.654332  0.166271  1
  O  O9  1  0.545240  0.348541  0.846573  1
  O  O10  1  0.299494  0.922539  0.953565  1
  O  O11  1  0.699236  0.073133  0.049868  1
  O  O12  1  0.298189  0.927354  0.511387  1
  O  O13  1  0.698146  0.069957  0.486099  1
  O  O14  1  0.543553  0.360150  0.330142  1
  O  O15  1  0.444448  0.641594  0.658693  1
  O  O16  1  0.928839  0.666738  0.955546  1
  O  O17  1  0.065794  0.328948  0.033517  1
  O  O18  1  0.085312  0.324448  0.634661  1
  O  O19  1  0.911205  0.668053  0.371496  1
  O  O20  1  0.873506  0.912877  0.728604  1
  O  O21  1  0.119148  0.083944  0.271015  1
