# generated using pymatgen
data_Pr6Tm7Th3CdIn3Ir4
_symmetry_space_group_name_H-M   'P 1'
_cell_length_a   9.80818592
_cell_length_b   9.78400228
_cell_length_c   9.78400400
_cell_angle_alpha   60.00000093
_cell_angle_beta   60.08153081
_cell_angle_gamma   60.08152632
_symmetry_Int_Tables_number   1
_chemical_formula_structural   Pr6Tm7Th3CdIn3Ir4
_chemical_formula_sum   'Pr6 Tm7 Th3 Cd1 In3 Ir4'
_cell_volume   664.72336790
_cell_formula_units_Z   1
loop_
 _symmetry_equiv_pos_site_id
 _symmetry_equiv_pos_as_xyz
  1  'x, y, z'
loop_
 _atom_site_type_symbol
 _atom_site_label
 _atom_site_symmetry_multiplicity
 _atom_site_fract_x
 _atom_site_fract_y
 _atom_site_fract_z
 _atom_site_occupancy
  Pr  Pr0  1  0.939323  0.560704  0.560704  1
  Pr  Pr1  1  0.561503  0.939231  0.939231  1
  Pr  Pr2  1  0.561503  0.939231  0.560034  1
  Pr  Pr3  1  0.939323  0.560704  0.939269  1
  Pr  Pr4  1  0.561503  0.560034  0.939231  1
  Pr  Pr5  1  0.939323  0.939269  0.560704  1
  Tm  Tm6  1  0.953495  0.348835  0.348835  1
  Tm  Tm7  1  0.815128  0.185916  0.185916  1
  Tm  Tm8  1  0.184495  0.816406  0.816406  1
  Tm  Tm9  1  0.184495  0.816406  0.182696  1
  Tm  Tm10  1  0.815128  0.185916  0.813039  1
  Tm  Tm11  1  0.184495  0.182696  0.816406  1
  Tm  Tm12  1  0.815128  0.813039  0.185916  1
  Th  Th13  1  0.346287  0.348990  0.348990  1
  Th  Th14  1  0.346287  0.348990  0.955729  1
  Th  Th15  1  0.346287  0.955729  0.348990  1
  Cd  Cd16  1  0.259527  0.580158  0.580158  1
  In  In17  1  0.582363  0.579524  0.579524  1
  In  In18  1  0.582363  0.579524  0.258590  1
  In  In19  1  0.582363  0.258590  0.579524  1
  Ir  Ir20  1  0.142380  0.141759  0.141759  1
  Ir  Ir21  1  0.142380  0.141759  0.574101  1
  Ir  Ir22  1  0.142380  0.574101  0.141759  1
  Ir  Ir23  1  0.572540  0.142487  0.142487  1
