# generated using pymatgen
data_MnNi3Bi4(TeO6)4
_symmetry_space_group_name_H-M   'P 1'
_cell_length_a   5.22704403
_cell_length_b   9.06782001
_cell_length_c   9.94313931
_cell_angle_alpha   89.99998641
_cell_angle_beta   90.05923754
_cell_angle_gamma   90.00081399
_symmetry_Int_Tables_number   1
_chemical_formula_structural   MnNi3Bi4(TeO6)4
_chemical_formula_sum   'Mn1 Ni3 Bi4 Te4 O24'
_cell_volume   471.28361529
_cell_formula_units_Z   1
loop_
 _symmetry_equiv_pos_site_id
 _symmetry_equiv_pos_as_xyz
  1  'x, y, z'
loop_
 _atom_site_type_symbol
 _atom_site_label
 _atom_site_symmetry_multiplicity
 _atom_site_fract_x
 _atom_site_fract_y
 _atom_site_fract_z
 _atom_site_occupancy
  Mn  Mn0  1  0.499980  0.834649  0.750001  1
  Ni  Ni1  1  0.499955  0.166526  0.249999  1
  Ni  Ni2  1  0.000066  0.332741  0.750000  1
  Ni  Ni3  1  0.999958  0.666910  0.250009  1
  Bi  Bi4  1  0.006988  0.004492  0.492046  1
  Bi  Bi5  1  0.494150  0.495200  0.493646  1
  Bi  Bi6  1  0.992995  0.004486  0.007959  1
  Bi  Bi7  1  0.505832  0.495204  0.006351  1
  Te  Te8  1  0.500062  0.167321  0.749995  1
  Te  Te9  1  0.000019  0.665861  0.750000  1
  Te  Te10  1  0.999968  0.334718  0.249999  1
  Te  Te11  1  0.499969  0.832498  0.250003  1
  O  O12  1  0.627463  0.996790  0.643084  1
  O  O13  1  0.130893  0.509024  0.638536  1
  O  O14  1  0.674067  0.311171  0.638055  1
  O  O15  1  0.187930  0.816275  0.644134  1
  O  O16  1  0.192238  0.177119  0.640226  1
  O  O17  1  0.685907  0.689997  0.642054  1
  O  O18  1  0.171314  0.185825  0.140297  1
  O  O19  1  0.674953  0.683644  0.140331  1
  O  O20  1  0.137775  0.494843  0.140489  1
  O  O21  1  0.634352  0.992942  0.139059  1
  O  O22  1  0.691415  0.321420  0.138976  1
  O  O23  1  0.189574  0.820652  0.140995  1
  O  O24  1  0.862164  0.494846  0.359502  1
  O  O25  1  0.365588  0.992940  0.360933  1
  O  O26  1  0.828605  0.185828  0.359706  1
  O  O27  1  0.324979  0.683637  0.359676  1
  O  O28  1  0.308504  0.321417  0.361031  1
  O  O29  1  0.810356  0.820661  0.359016  1
  O  O30  1  0.326060  0.311164  0.861944  1
  O  O31  1  0.812105  0.816272  0.855858  1
  O  O32  1  0.372625  0.996793  0.856911  1
  O  O33  1  0.869176  0.509017  0.861474  1
  O  O34  1  0.807885  0.177112  0.859766  1
  O  O35  1  0.314131  0.690004  0.857940  1
