# generated using pymatgen
data_FeCu6BrO8
_symmetry_space_group_name_H-M   'P 1'
_cell_length_a   6.44286272
_cell_length_b   6.44286244
_cell_length_c   6.44286300
_cell_angle_alpha   60.00000226
_cell_angle_beta   60.00000371
_cell_angle_gamma   59.99999510
_symmetry_Int_Tables_number   1
_chemical_formula_structural   FeCu6BrO8
_chemical_formula_sum   'Fe1 Cu6 Br1 O8'
_cell_volume   189.11311113
_cell_formula_units_Z   1
loop_
 _symmetry_equiv_pos_site_id
 _symmetry_equiv_pos_as_xyz
  1  'x, y, z'
loop_
 _atom_site_type_symbol
 _atom_site_label
 _atom_site_symmetry_multiplicity
 _atom_site_fract_x
 _atom_site_fract_y
 _atom_site_fract_z
 _atom_site_occupancy
  Fe  Fe0  1  0.000000  0.000000  0.000000  1
  Cu  Cu1  1  0.000000  0.000000  0.500000  1
  Cu  Cu2  1  0.500000  0.000000  0.000000  1
  Cu  Cu3  1  0.000000  0.500000  0.000000  1
  Cu  Cu4  1  0.500000  0.500000  0.000000  1
  Cu  Cu5  1  0.000000  0.500000  0.500000  1
  Cu  Cu6  1  0.500000  0.000000  0.500000  1
  Br  Br7  1  0.500000  0.500000  0.500000  1
  O  O8  1  0.138791  0.138791  0.583625  1
  O  O9  1  0.138791  0.583625  0.138791  1
  O  O10  1  0.583625  0.138791  0.138791  1
  O  O11  1  0.861209  0.416375  0.861209  1
  O  O12  1  0.138791  0.138791  0.138791  1
  O  O13  1  0.861209  0.861209  0.861209  1
  O  O14  1  0.861209  0.861209  0.416375  1
  O  O15  1  0.416375  0.861209  0.861209  1
