# generated using pymatgen
data_Dy12Si12TcRh3
_symmetry_space_group_name_H-M   'P 1'
_cell_length_a   4.21857600
_cell_length_b   10.73004979
_cell_length_c   12.38388016
_cell_angle_alpha   90.07576266
_cell_angle_beta   90.00000000
_cell_angle_gamma   90.00000000
_symmetry_Int_Tables_number   1
_chemical_formula_structural   Dy12Si12TcRh3
_chemical_formula_sum   'Dy12 Si12 Tc1 Rh3'
_cell_volume   560.56241504
_cell_formula_units_Z   1
loop_
 _symmetry_equiv_pos_site_id
 _symmetry_equiv_pos_as_xyz
  1  'x, y, z'
loop_
 _atom_site_type_symbol
 _atom_site_label
 _atom_site_symmetry_multiplicity
 _atom_site_fract_x
 _atom_site_fract_y
 _atom_site_fract_z
 _atom_site_occupancy
  Dy  Dy0  1  0.250000  0.878675  0.020408  1
  Dy  Dy1  1  0.250000  0.620206  0.521364  1
  Dy  Dy2  1  0.750000  0.119274  0.979867  1
  Dy  Dy3  1  0.750000  0.378912  0.480232  1
  Dy  Dy4  1  0.250000  0.921819  0.603958  1
  Dy  Dy5  1  0.250000  0.579500  0.105619  1
  Dy  Dy6  1  0.750000  0.079121  0.394644  1
  Dy  Dy7  1  0.750000  0.421122  0.895587  1
  Dy  Dy8  1  0.250000  0.665170  0.799363  1
  Dy  Dy9  1  0.250000  0.838891  0.300420  1
  Dy  Dy10  1  0.750000  0.339684  0.198376  1
  Dy  Dy11  1  0.750000  0.159453  0.699629  1
  Si  Si12  1  0.250000  0.012938  0.822806  1
  Si  Si13  1  0.250000  0.485777  0.322619  1
  Si  Si14  1  0.750000  0.986290  0.177929  1
  Si  Si15  1  0.750000  0.511477  0.679698  1
  Si  Si16  1  0.250000  0.248231  0.841738  1
  Si  Si17  1  0.250000  0.251879  0.341287  1
  Si  Si18  1  0.750000  0.752189  0.158098  1
  Si  Si19  1  0.750000  0.750732  0.656845  1
  Si  Si20  1  0.250000  0.201242  0.541935  1
  Si  Si21  1  0.250000  0.298105  0.041761  1
  Si  Si22  1  0.750000  0.800656  0.458018  1
  Si  Si23  1  0.750000  0.698219  0.958435  1
  Tc  Tc24  1  0.250000  0.392013  0.680786  1
  Rh  Rh25  1  0.250000  0.108859  0.181797  1
  Rh  Rh26  1  0.750000  0.610029  0.318302  1
  Rh  Rh27  1  0.750000  0.889537  0.818476  1
