# generated using pymatgen
data_Dy2Be2GaIr5
_symmetry_space_group_name_H-M   'P 1'
_cell_length_a   9.63795300
_cell_length_b   9.63795300
_cell_length_c   3.24268700
_cell_angle_alpha   90.00000000
_cell_angle_beta   90.00000000
_cell_angle_gamma   90.00000000
_symmetry_Int_Tables_number   1
_chemical_formula_structural   Dy2Be2GaIr5
_chemical_formula_sum   'Dy4 Be4 Ga2 Ir10'
_cell_volume   301.21364302
_cell_formula_units_Z   2
loop_
 _symmetry_equiv_pos_site_id
 _symmetry_equiv_pos_as_xyz
  1  'x, y, z'
loop_
 _atom_site_type_symbol
 _atom_site_label
 _atom_site_symmetry_multiplicity
 _atom_site_fract_x
 _atom_site_fract_y
 _atom_site_fract_z
 _atom_site_occupancy
  Dy  Dy0  1  0.676814  0.176814  0.000000  1
  Dy  Dy1  1  0.323186  0.823186  0.000000  1
  Dy  Dy2  1  0.176814  0.323186  0.000000  1
  Dy  Dy3  1  0.823186  0.676814  0.000000  1
  Be  Be4  1  0.122498  0.622498  0.000000  1
  Be  Be5  1  0.877502  0.377502  0.000000  1
  Be  Be6  1  0.622498  0.877502  0.000000  1
  Be  Be7  1  0.377502  0.122498  0.000000  1
  Ga  Ga8  1  0.000000  0.000000  0.000000  1
  Ga  Ga9  1  0.500000  0.500000  0.000000  1
  Ir  Ir10  1  0.212568  0.065823  0.500000  1
  Ir  Ir11  1  0.787432  0.934177  0.500000  1
  Ir  Ir12  1  0.065823  0.787432  0.500000  1
  Ir  Ir13  1  0.712568  0.434177  0.500000  1
  Ir  Ir14  1  0.934177  0.212568  0.500000  1
  Ir  Ir15  1  0.287432  0.565823  0.500000  1
  Ir  Ir16  1  0.565823  0.712568  0.500000  1
  Ir  Ir17  1  0.434177  0.287432  0.500000  1
  Ir  Ir18  1  0.500000  0.000000  0.500000  1
  Ir  Ir19  1  0.000000  0.500000  0.500000  1
