# generated using pymatgen
data_Tm8Lu12(SiSb3)3
_symmetry_space_group_name_H-M   'P 1'
_cell_length_a   7.87770357
_cell_length_b   8.96411800
_cell_length_c   11.67013702
_cell_angle_alpha   90.00000000
_cell_angle_beta   89.91231700
_cell_angle_gamma   90.00000000
_symmetry_Int_Tables_number   1
_chemical_formula_structural   Tm8Lu12(SiSb3)3
_chemical_formula_sum   'Tm8 Lu12 Si3 Sb9'
_cell_volume   824.10518437
_cell_formula_units_Z   1
loop_
 _symmetry_equiv_pos_site_id
 _symmetry_equiv_pos_as_xyz
  1  'x, y, z'
loop_
 _atom_site_type_symbol
 _atom_site_label
 _atom_site_symmetry_multiplicity
 _atom_site_fract_x
 _atom_site_fract_y
 _atom_site_fract_z
 _atom_site_occupancy
  Tm  Tm0  1  0.165934  0.750000  0.213693  1
  Tm  Tm1  1  0.677516  0.250000  0.271984  1
  Tm  Tm2  1  0.835547  0.250000  0.786185  1
  Tm  Tm3  1  0.334591  0.750000  0.716270  1
  Tm  Tm4  1  0.641012  0.750000  0.293406  1
  Tm  Tm5  1  0.141911  0.250000  0.207327  1
  Tm  Tm6  1  0.343531  0.250000  0.714012  1
  Tm  Tm7  1  0.857932  0.750000  0.794871  1
  Lu  Lu8  1  0.815698  0.946188  0.063692  1
  Lu  Lu9  1  0.310742  0.044164  0.431445  1
  Lu  Lu10  1  0.180676  0.446973  0.938763  1
  Lu  Lu11  1  0.686965  0.565377  0.565676  1
  Lu  Lu12  1  0.180676  0.053027  0.938763  1
  Lu  Lu13  1  0.686965  0.934623  0.565676  1
  Lu  Lu14  1  0.815698  0.553812  0.063692  1
  Lu  Lu15  1  0.310742  0.455836  0.431445  1
  Lu  Lu16  1  0.535735  0.250000  0.996251  1
  Lu  Lu17  1  0.040872  0.750000  0.501922  1
  Lu  Lu18  1  0.461062  0.750000  0.001507  1
  Lu  Lu19  1  0.974964  0.250000  0.497419  1
  Si  Si20  1  0.908810  0.250000  0.024818  1
  Si  Si21  1  0.416306  0.750000  0.480534  1
  Si  Si22  1  0.087962  0.750000  0.977907  1
  Sb  Sb23  1  0.932633  0.988265  0.326656  1
  Sb  Sb24  1  0.432913  0.010838  0.172762  1
  Sb  Sb25  1  0.066455  0.491493  0.674081  1
  Sb  Sb26  1  0.566882  0.509902  0.826068  1
  Sb  Sb27  1  0.066455  0.008507  0.674081  1
  Sb  Sb28  1  0.566882  0.990098  0.826068  1
  Sb  Sb29  1  0.932633  0.511735  0.326656  1
  Sb  Sb30  1  0.432913  0.489162  0.172762  1
  Sb  Sb31  1  0.590386  0.250000  0.523608  1
