# generated using pymatgen
data_TbEr2RuBr3
_symmetry_space_group_name_H-M   'P 1'
_cell_length_a   4.07497600
_cell_length_b   8.55294171
_cell_length_c   11.84468403
_cell_angle_alpha   92.97841809
_cell_angle_beta   90.00000000
_cell_angle_gamma   90.00000000
_symmetry_Int_Tables_number   1
_chemical_formula_structural   TbEr2RuBr3
_chemical_formula_sum   'Tb2 Er4 Ru2 Br6'
_cell_volume   412.26550320
_cell_formula_units_Z   2
loop_
 _symmetry_equiv_pos_site_id
 _symmetry_equiv_pos_as_xyz
  1  'x, y, z'
loop_
 _atom_site_type_symbol
 _atom_site_label
 _atom_site_symmetry_multiplicity
 _atom_site_fract_x
 _atom_site_fract_y
 _atom_site_fract_z
 _atom_site_occupancy
  Tb  Tb0  1  0.750000  0.275874  0.606542  1
  Tb  Tb1  1  0.250000  0.724126  0.393458  1
  Er  Er2  1  0.750000  0.865486  0.634970  1
  Er  Er3  1  0.250000  0.134514  0.365030  1
  Er  Er4  1  0.750000  0.893558  0.174024  1
  Er  Er5  1  0.250000  0.106442  0.825976  1
  Ru  Ru6  1  0.750000  0.941635  0.403447  1
  Ru  Ru7  1  0.250000  0.058365  0.596553  1
  Br  Br8  1  0.750000  0.425926  0.368670  1
  Br  Br9  1  0.250000  0.574074  0.631330  1
  Br  Br10  1  0.750000  0.876758  0.896375  1
  Br  Br11  1  0.250000  0.123242  0.103625  1
  Br  Br12  1  0.750000  0.341480  0.863953  1
  Br  Br13  1  0.250000  0.658520  0.136047  1
