# generated using pymatgen
data_La3Nd(SO4)6
_symmetry_space_group_name_H-M   'P 1'
_cell_length_a   6.82986474
_cell_length_b   7.07552206
_cell_length_c   11.46587627
_cell_angle_alpha   106.51312797
_cell_angle_beta   107.76340515
_cell_angle_gamma   89.93476643
_symmetry_Int_Tables_number   1
_chemical_formula_structural   La3Nd(SO4)6
_chemical_formula_sum   'La3 Nd1 S6 O24'
_cell_volume   503.67941208
_cell_formula_units_Z   1
loop_
 _symmetry_equiv_pos_site_id
 _symmetry_equiv_pos_as_xyz
  1  'x, y, z'
loop_
 _atom_site_type_symbol
 _atom_site_label
 _atom_site_symmetry_multiplicity
 _atom_site_fract_x
 _atom_site_fract_y
 _atom_site_fract_z
 _atom_site_occupancy
  La  La0  1  0.781518  0.128719  0.263429  1
  La  La1  1  0.480178  0.628597  0.262634  1
  La  La2  1  0.518318  0.372203  0.736160  1
  Nd  Nd3  1  0.219934  0.869988  0.735815  1
  S  S4  1  0.665817  0.245956  0.998629  1
  S  S5  1  0.329218  0.752236  0.997373  1
  S  S6  1  0.999426  0.677348  0.369169  1
  S  S7  1  0.368317  0.176150  0.366043  1
  S  S8  1  0.003317  0.323461  0.634988  1
  S  S9  1  0.633918  0.824630  0.634344  1
  O  O10  1  0.232801  0.611257  0.041802  1
  O  O11  1  0.808670  0.106882  0.044883  1
  O  O12  1  0.592628  0.351518  0.109648  1
  O  O13  1  0.512792  0.857792  0.110576  1
  O  O14  1  0.148782  0.624065  0.298266  1
  O  O15  1  0.147304  0.120455  0.293767  1
  O  O16  1  0.460573  0.296772  0.302326  1
  O  O17  1  0.842421  0.798446  0.305360  1
  O  O18  1  0.483691  0.996156  0.357362  1
  O  O19  1  0.874512  0.496557  0.358188  1
  O  O20  1  0.899322  0.210986  0.500594  1
  O  O21  1  0.600802  0.708886  0.500454  1
  O  O22  1  0.398101  0.291242  0.499452  1
  O  O23  1  0.103661  0.790582  0.503410  1
  O  O24  1  0.129312  0.504156  0.646016  1
  O  O25  1  0.521993  0.006753  0.643667  1
  O  O26  1  0.159241  0.200467  0.698069  1
  O  O27  1  0.537478  0.706947  0.698297  1
  O  O28  1  0.855984  0.875044  0.705582  1
  O  O29  1  0.854310  0.378099  0.705874  1
  O  O30  1  0.481163  0.139758  0.886791  1
  O  O31  1  0.405698  0.648970  0.887587  1
  O  O32  1  0.187897  0.891606  0.949706  1
  O  O33  1  0.760904  0.387320  0.953743  1
