# generated using pymatgen
data_Nd4Ga5Ir4Pt5
_symmetry_space_group_name_H-M   'P 1'
_cell_length_a   12.62951008
_cell_length_b   12.62673843
_cell_length_c   12.62673804
_cell_angle_alpha   25.67563630
_cell_angle_beta   25.80597759
_cell_angle_gamma   25.80597224
_symmetry_Int_Tables_number   1
_chemical_formula_structural   Nd4Ga5Ir4Pt5
_chemical_formula_sum   'Nd4 Ga5 Ir4 Pt5'
_cell_volume   334.97023371
_cell_formula_units_Z   1
loop_
 _symmetry_equiv_pos_site_id
 _symmetry_equiv_pos_as_xyz
  1  'x, y, z'
loop_
 _atom_site_type_symbol
 _atom_site_label
 _atom_site_symmetry_multiplicity
 _atom_site_fract_x
 _atom_site_fract_y
 _atom_site_fract_z
 _atom_site_occupancy
  Nd  Nd0  1  0.953667  0.954085  0.954085  1
  Nd  Nd1  1  0.047095  0.047013  0.047013  1
  Nd  Nd2  1  0.857006  0.850915  0.850915  1
  Nd  Nd3  1  0.146651  0.145532  0.145532  1
  Ga  Ga4  1  0.491162  0.503309  0.503309  1
  Ga  Ga5  1  0.724876  0.719033  0.719033  1
  Ga  Ga6  1  0.279403  0.278953  0.278953  1
  Ga  Ga7  1  0.611188  0.613179  0.613179  1
  Ga  Ga8  1  0.382306  0.391114  0.391114  1
  Ir  Ir9  1  0.499465  0.500123  0.001398  1
  Ir  Ir10  1  0.999286  0.500060  0.500060  1
  Ir  Ir11  1  0.499465  0.001398  0.500123  1
  Ir  Ir12  1  0.107010  0.611244  0.611244  1
  Pt  Pt13  1  0.390119  0.892797  0.386720  1
  Pt  Pt14  1  0.390119  0.386720  0.892797  1
  Pt  Pt15  1  0.891804  0.388584  0.388584  1
  Pt  Pt16  1  0.614688  0.105312  0.610626  1
  Pt  Pt17  1  0.614688  0.610626  0.105312  1
