# generated using pymatgen
data_Nb12Al4Zn3Cu5C4
_symmetry_space_group_name_H-M   'P 1'
_cell_length_a   8.30308673
_cell_length_b   8.30186258
_cell_length_c   8.30308706
_cell_angle_alpha   59.99228497
_cell_angle_beta   60.01223479
_cell_angle_gamma   59.99228838
_symmetry_Int_Tables_number   1
_chemical_formula_structural   Nb12Al4Zn3Cu5C4
_chemical_formula_sum   'Nb12 Al4 Zn3 Cu5 C4'
_cell_volume   404.69626587
_cell_formula_units_Z   1
loop_
 _symmetry_equiv_pos_site_id
 _symmetry_equiv_pos_as_xyz
  1  'x, y, z'
loop_
 _atom_site_type_symbol
 _atom_site_label
 _atom_site_symmetry_multiplicity
 _atom_site_fract_x
 _atom_site_fract_y
 _atom_site_fract_z
 _atom_site_occupancy
  Nb  Nb0  1  0.818534  0.183086  0.818534  1
  Nb  Nb1  1  0.069135  0.431917  0.432368  1
  Nb  Nb2  1  0.431931  0.066513  0.069713  1
  Nb  Nb3  1  0.068146  0.431620  0.068146  1
  Nb  Nb4  1  0.432368  0.431917  0.069135  1
  Nb  Nb5  1  0.069713  0.066513  0.431931  1
  Nb  Nb6  1  0.817910  0.818303  0.183343  1
  Nb  Nb7  1  0.183343  0.818303  0.817910  1
  Nb  Nb8  1  0.818023  0.182363  0.181655  1
  Nb  Nb9  1  0.181655  0.182363  0.818023  1
  Nb  Nb10  1  0.431876  0.067608  0.431876  1
  Nb  Nb11  1  0.182270  0.817899  0.182270  1
  Al  Al12  1  0.626042  0.633503  0.626042  1
  Al  Al13  1  0.125492  0.624797  0.616593  1
  Al  Al14  1  0.621007  0.120282  0.621007  1
  Al  Al15  1  0.616593  0.624797  0.125492  1
  Zn  Zn16  1  0.418456  0.419044  0.745078  1
  Zn  Zn17  1  0.745078  0.419044  0.418456  1
  Zn  Zn18  1  0.832113  0.830328  0.832113  1
  Cu  Cu19  1  0.419271  0.417809  0.419271  1
  Cu  Cu20  1  0.504596  0.831938  0.833313  1
  Cu  Cu21  1  0.832055  0.506769  0.832055  1
  Cu  Cu22  1  0.833313  0.831938  0.504596  1
  Cu  Cu23  1  0.420210  0.741856  0.420210  1
  C  C24  1  0.125183  0.124414  0.125183  1
  C  C25  1  0.624644  0.125120  0.125637  1
  C  C26  1  0.125406  0.624838  0.125406  1
  C  C27  1  0.125637  0.125120  0.624644  1
