# generated using pymatgen
data_DyHo5(Tm2In3)2
_symmetry_space_group_name_H-M   'P 1'
_cell_length_a   9.09532358
_cell_length_b   9.09532241
_cell_length_c   9.09922270
_cell_angle_alpha   96.43636268
_cell_angle_beta   96.43593277
_cell_angle_gamma   140.86964605
_symmetry_Int_Tables_number   1
_chemical_formula_structural   DyHo5(Tm2In3)2
_chemical_formula_sum   'Dy1 Ho5 Tm4 In6'
_cell_volume   447.63543367
_cell_formula_units_Z   1
loop_
 _symmetry_equiv_pos_site_id
 _symmetry_equiv_pos_as_xyz
  1  'x, y, z'
loop_
 _atom_site_type_symbol
 _atom_site_label
 _atom_site_symmetry_multiplicity
 _atom_site_fract_x
 _atom_site_fract_y
 _atom_site_fract_z
 _atom_site_occupancy
  Dy  Dy0  1  0.081769  0.781817  0.863585  1
  Ho  Ho1  1  0.717684  0.418759  0.136443  1
  Ho  Ho2  1  0.282573  0.580963  0.863536  1
  Ho  Ho3  1  0.581670  0.717770  0.299440  1
  Ho  Ho4  1  0.217561  0.081690  0.299250  1
  Ho  Ho5  1  0.917933  0.217739  0.135672  1
  Tm  Tm6  1  0.750091  0.249838  0.499956  1
  Tm  Tm7  1  0.250117  0.749864  0.499956  1
  Tm  Tm8  1  0.782539  0.918704  0.701244  1
  Tm  Tm9  1  0.418051  0.282824  0.700876  1
  In  In10  1  0.838104  0.661723  0.499829  1
  In  In11  1  0.339085  0.838533  0.177618  1
  In  In12  1  0.749733  0.750177  0.999813  1
  In  In13  1  0.661600  0.161317  0.822918  1
  In  In14  1  0.161853  0.338201  0.500054  1
  In  In15  1  0.249636  0.250080  0.999813  1
