# generated using pymatgen
data_ErNp7Se12
_symmetry_space_group_name_H-M   'P 1'
_cell_length_a   10.89941977
_cell_length_b   4.07135400
_cell_length_c   11.17086952
_cell_angle_alpha   90.00000000
_cell_angle_beta   90.26339915
_cell_angle_gamma   90.00000000
_symmetry_Int_Tables_number   1
_chemical_formula_structural   ErNp7Se12
_chemical_formula_sum   'Er1 Np7 Se12'
_cell_volume   495.70652383
_cell_formula_units_Z   1
loop_
 _symmetry_equiv_pos_site_id
 _symmetry_equiv_pos_as_xyz
  1  'x, y, z'
loop_
 _atom_site_type_symbol
 _atom_site_label
 _atom_site_symmetry_multiplicity
 _atom_site_fract_x
 _atom_site_fract_y
 _atom_site_fract_z
 _atom_site_occupancy
  Er  Er0  1  0.314125  0.000000  0.990314  1
  Np  Np1  1  0.686968  0.499999  0.009788  1
  Np  Np2  1  0.006791  0.499999  0.192067  1
  Np  Np3  1  0.502679  0.000000  0.307624  1
  Np  Np4  1  0.184545  0.000000  0.491719  1
  Np  Np5  1  0.816917  0.499999  0.509028  1
  Np  Np6  1  0.499346  0.499999  0.688640  1
  Np  Np7  1  0.994742  0.000000  0.808959  1
  Se  Se8  1  0.873042  0.000000  0.050781  1
  Se  Se9  1  0.443439  0.499999  0.119509  1
  Se  Se10  1  0.200751  0.000000  0.227763  1
  Se  Se11  1  0.698670  0.499999  0.271433  1
  Se  Se12  1  0.942673  0.000000  0.375864  1
  Se  Se13  1  0.368846  0.499999  0.448683  1
  Se  Se14  1  0.629752  0.000000  0.547893  1
  Se  Se15  1  0.058862  0.499999  0.624158  1
  Se  Se16  1  0.298181  0.000000  0.730046  1
  Se  Se17  1  0.795697  0.499999  0.770969  1
  Se  Se18  1  0.552559  0.000000  0.879575  1
  Se  Se19  1  0.131414  0.499999  0.955177  1
