# generated using pymatgen
data_DyEr2Sc2Sn3
_symmetry_space_group_name_H-M   'P 1'
_cell_length_a   8.76713301
_cell_length_b   8.75684592
_cell_length_c   6.25976900
_cell_angle_alpha   90.00000000
_cell_angle_beta   90.00000000
_cell_angle_gamma   119.96119373
_symmetry_Int_Tables_number   1
_chemical_formula_structural   DyEr2Sc2Sn3
_chemical_formula_sum   'Dy2 Er4 Sc4 Sn6'
_cell_volume   416.35514446
_cell_formula_units_Z   2
loop_
 _symmetry_equiv_pos_site_id
 _symmetry_equiv_pos_as_xyz
  1  'x, y, z'
loop_
 _atom_site_type_symbol
 _atom_site_label
 _atom_site_symmetry_multiplicity
 _atom_site_fract_x
 _atom_site_fract_y
 _atom_site_fract_z
 _atom_site_occupancy
  Dy  Dy0  1  0.000000  0.761429  0.750000  1
  Dy  Dy1  1  0.000000  0.238571  0.250000  1
  Er  Er2  1  0.760920  0.761024  0.250000  1
  Er  Er3  1  0.760920  0.999896  0.750000  1
  Er  Er4  1  0.239080  0.238976  0.750000  1
  Er  Er5  1  0.239080  0.000104  0.250000  1
  Sc  Sc6  1  0.333349  0.666675  0.500000  1
  Sc  Sc7  1  0.666651  0.333325  0.000000  1
  Sc  Sc8  1  0.666651  0.333325  0.500000  1
  Sc  Sc9  1  0.333349  0.666675  0.000000  1
  Sn  Sn10  1  0.399854  0.000280  0.750000  1
  Sn  Sn11  1  0.399854  0.399574  0.250000  1
  Sn  Sn12  1  0.000000  0.600833  0.250000  1
  Sn  Sn13  1  0.000000  0.399167  0.750000  1
  Sn  Sn14  1  0.600146  0.600426  0.750000  1
  Sn  Sn15  1  0.600146  0.999720  0.250000  1
