# generated using pymatgen
data_Yb2Dy2LuRu2
_symmetry_space_group_name_H-M   'P 1'
_cell_length_a   6.38836898
_cell_length_b   7.22181026
_cell_length_c   8.48649626
_cell_angle_alpha   97.18048045
_cell_angle_beta   112.10990612
_cell_angle_gamma   89.99999313
_symmetry_Int_Tables_number   1
_chemical_formula_structural   Yb2Dy2LuRu2
_chemical_formula_sum   'Yb4 Dy4 Lu2 Ru4'
_cell_volume   359.42129830
_cell_formula_units_Z   2
loop_
 _symmetry_equiv_pos_site_id
 _symmetry_equiv_pos_as_xyz
  1  'x, y, z'
loop_
 _atom_site_type_symbol
 _atom_site_label
 _atom_site_symmetry_multiplicity
 _atom_site_fract_x
 _atom_site_fract_y
 _atom_site_fract_z
 _atom_site_occupancy
  Yb  Yb0  1  0.523155  0.079817  0.817247  1
  Yb  Yb1  1  0.476845  0.920183  0.182753  1
  Yb  Yb2  1  0.705908  0.420183  0.182753  1
  Yb  Yb3  1  0.294092  0.579817  0.817247  1
  Dy  Dy4  1  0.302082  0.315179  0.431919  1
  Dy  Dy5  1  0.697918  0.684821  0.568081  1
  Dy  Dy6  1  0.870164  0.184821  0.568081  1
  Dy  Dy7  1  0.129836  0.815179  0.431919  1
  Lu  Lu8  1  0.068207  0.250000  0.000000  1
  Lu  Lu9  1  0.931793  0.750000  0.000000  1
  Ru  Ru10  1  0.312225  0.573798  0.227569  1
  Ru  Ru11  1  0.687775  0.426202  0.772431  1
  Ru  Ru12  1  0.084657  0.926202  0.772431  1
  Ru  Ru13  1  0.915343  0.073798  0.227569  1
