# generated using pymatgen
data_Tb2Dy3HoGaCo2
_symmetry_space_group_name_H-M   'P 1'
_cell_length_a   8.29154438
_cell_length_b   8.29154503
_cell_length_c   8.29154500
_cell_angle_alpha   107.18438603
_cell_angle_beta   109.10865313
_cell_angle_gamma   112.15984371
_symmetry_Int_Tables_number   1
_chemical_formula_structural   Tb2Dy3HoGaCo2
_chemical_formula_sum   'Tb4 Dy6 Ho2 Ga2 Co4'
_cell_volume   437.97193498
_cell_formula_units_Z   2
loop_
 _symmetry_equiv_pos_site_id
 _symmetry_equiv_pos_as_xyz
  1  'x, y, z'
loop_
 _atom_site_type_symbol
 _atom_site_label
 _atom_site_symmetry_multiplicity
 _atom_site_fract_x
 _atom_site_fract_y
 _atom_site_fract_z
 _atom_site_occupancy
  Tb  Tb0  1  0.698231  0.261930  0.960079  1
  Tb  Tb1  1  0.301850  0.738152  0.039921  1
  Tb  Tb2  1  0.698231  0.738152  0.436303  1
  Tb  Tb3  1  0.301850  0.261930  0.563697  1
  Dy  Dy4  1  0.811517  0.139082  0.327566  1
  Dy  Dy5  1  0.811517  0.483951  0.672434  1
  Dy  Dy6  1  0.188413  0.861843  0.673429  1
  Dy  Dy7  1  0.188413  0.514984  0.326571  1
  Dy  Dy8  1  0.601807  0.780986  0.820821  1
  Dy  Dy9  1  0.960165  0.780986  0.179179  1
  Ho  Ho10  1  0.040838  0.219566  0.821271  1
  Ho  Ho11  1  0.398296  0.219566  0.178729  1
  Ga  Ga12  1  0.498557  0.498557  0.000000  1
  Ga  Ga13  1  0.499720  0.999720  0.500000  1
  Co  Co14  1  0.836827  0.499251  0.337577  1
  Co  Co15  1  0.161674  0.499251  0.662423  1
  Co  Co16  1  0.001046  0.115587  0.114541  1
  Co  Co17  1  0.001046  0.886505  0.885459  1
