# generated using pymatgen
data_Sr8Al(Cd5Au4)3
_symmetry_space_group_name_H-M   'P 1'
_cell_length_a   15.32812800
_cell_length_b   15.32812916
_cell_length_c   4.51729500
_cell_angle_alpha   90.00000000
_cell_angle_beta   90.00000000
_cell_angle_gamma   120.00000182
_symmetry_Int_Tables_number   1
_chemical_formula_structural   Sr8Al(Cd5Au4)3
_chemical_formula_sum   'Sr8 Al1 Cd15 Au12'
_cell_volume   919.15202056
_cell_formula_units_Z   1
loop_
 _symmetry_equiv_pos_site_id
 _symmetry_equiv_pos_as_xyz
  1  'x, y, z'
loop_
 _atom_site_type_symbol
 _atom_site_label
 _atom_site_symmetry_multiplicity
 _atom_site_fract_x
 _atom_site_fract_y
 _atom_site_fract_z
 _atom_site_occupancy
  Sr  Sr0  1  0.450378  0.000000  0.000000  1
  Sr  Sr1  1  0.000000  0.450378  0.000000  1
  Sr  Sr2  1  0.549622  0.549622  0.000000  1
  Sr  Sr3  1  0.333333  0.666667  0.000000  1
  Sr  Sr4  1  0.666667  0.333333  0.000000  1
  Sr  Sr5  1  0.823837  0.000000  0.500000  1
  Sr  Sr6  1  0.000000  0.823837  0.500000  1
  Sr  Sr7  1  0.176163  0.176163  0.500000  1
  Al  Al8  1  0.000000  0.000000  0.000000  1
  Cd  Cd9  1  0.176749  0.373707  0.000000  1
  Cd  Cd10  1  0.626293  0.803042  0.000000  1
  Cd  Cd11  1  0.373707  0.176749  0.000000  1
  Cd  Cd12  1  0.196958  0.823251  0.000000  1
  Cd  Cd13  1  0.803042  0.626293  0.000000  1
  Cd  Cd14  1  0.823251  0.196958  0.000000  1
  Cd  Cd15  1  0.275604  0.000000  0.500000  1
  Cd  Cd16  1  0.000000  0.275604  0.500000  1
  Cd  Cd17  1  0.724396  0.724396  0.500000  1
  Cd  Cd18  1  0.346294  0.471149  0.500000  1
  Cd  Cd19  1  0.528851  0.875146  0.500000  1
  Cd  Cd20  1  0.471149  0.346294  0.500000  1
  Cd  Cd21  1  0.124854  0.653706  0.500000  1
  Cd  Cd22  1  0.875146  0.528851  0.500000  1
  Cd  Cd23  1  0.653706  0.124854  0.500000  1
  Au  Au24  1  0.169481  0.493239  0.500000  1
  Au  Au25  1  0.506761  0.676242  0.500000  1
  Au  Au26  1  0.493239  0.169481  0.500000  1
  Au  Au27  1  0.323758  0.830519  0.500000  1
  Au  Au28  1  0.676242  0.506761  0.500000  1
  Au  Au29  1  0.830519  0.323758  0.500000  1
  Au  Au30  1  0.162747  0.000000  0.000000  1
  Au  Au31  1  0.000000  0.162747  0.000000  1
  Au  Au32  1  0.837253  0.837253  0.000000  1
  Au  Au33  1  0.656403  0.000000  0.000000  1
  Au  Au34  1  0.000000  0.656403  0.000000  1
  Au  Au35  1  0.343597  0.343597  0.000000  1
