# generated using pymatgen
data_Ho5Bi2Rh
_symmetry_space_group_name_H-M   'P 1'
_cell_length_a   7.96609800
_cell_length_b   8.96608800
_cell_length_c   12.46534400
_cell_angle_alpha   90.00000000
_cell_angle_beta   90.00000000
_cell_angle_gamma   90.00000000
_symmetry_Int_Tables_number   1
_chemical_formula_structural   Ho5Bi2Rh
_chemical_formula_sum   'Ho20 Bi8 Rh4'
_cell_volume   890.33390042
_cell_formula_units_Z   4
loop_
 _symmetry_equiv_pos_site_id
 _symmetry_equiv_pos_as_xyz
  1  'x, y, z'
loop_
 _atom_site_type_symbol
 _atom_site_label
 _atom_site_symmetry_multiplicity
 _atom_site_fract_x
 _atom_site_fract_y
 _atom_site_fract_z
 _atom_site_occupancy
  Ho  Ho0  1  0.839827  0.750000  0.794278  1
  Ho  Ho1  1  0.160173  0.250000  0.205722  1
  Ho  Ho2  1  0.339827  0.250000  0.705722  1
  Ho  Ho3  1  0.660173  0.750000  0.294278  1
  Ho  Ho4  1  0.374699  0.750000  0.690107  1
  Ho  Ho5  1  0.625301  0.250000  0.309893  1
  Ho  Ho6  1  0.874699  0.250000  0.809893  1
  Ho  Ho7  1  0.125301  0.750000  0.190107  1
  Ho  Ho8  1  0.953220  0.750000  0.501716  1
  Ho  Ho9  1  0.046780  0.250000  0.498284  1
  Ho  Ho10  1  0.453220  0.250000  0.998284  1
  Ho  Ho11  1  0.546780  0.750000  0.001716  1
  Ho  Ho12  1  0.677420  0.041992  0.566393  1
  Ho  Ho13  1  0.322580  0.958008  0.433607  1
  Ho  Ho14  1  0.177420  0.958008  0.933607  1
  Ho  Ho15  1  0.322580  0.541992  0.433607  1
  Ho  Ho16  1  0.822580  0.041992  0.066393  1
  Ho  Ho17  1  0.677420  0.458008  0.566393  1
  Ho  Ho18  1  0.822580  0.458008  0.066393  1
  Ho  Ho19  1  0.177420  0.541992  0.933607  1
  Bi  Bi20  1  0.566771  0.492217  0.825812  1
  Bi  Bi21  1  0.433229  0.507783  0.174188  1
  Bi  Bi22  1  0.066771  0.507783  0.674188  1
  Bi  Bi23  1  0.433229  0.992217  0.174188  1
  Bi  Bi24  1  0.933229  0.492217  0.325812  1
  Bi  Bi25  1  0.566771  0.007783  0.825812  1
  Bi  Bi26  1  0.933229  0.007783  0.325812  1
  Bi  Bi27  1  0.066771  0.992217  0.674188  1
  Rh  Rh28  1  0.571700  0.750000  0.509007  1
  Rh  Rh29  1  0.428300  0.250000  0.490993  1
  Rh  Rh30  1  0.071700  0.250000  0.990993  1
  Rh  Rh31  1  0.928300  0.750000  0.009007  1
