# generated using pymatgen
data_Rb6Na4ZrSnSb6
_symmetry_space_group_name_H-M   'P 1'
_cell_length_a   11.57334957
_cell_length_b   11.57334998
_cell_length_c   17.05820400
_cell_angle_alpha   90.00000000
_cell_angle_beta   90.00000000
_cell_angle_gamma   142.77300593
_symmetry_Int_Tables_number   1
_chemical_formula_structural   Rb6Na4ZrSnSb6
_chemical_formula_sum   'Rb12 Na8 Zr2 Sn2 Sb12'
_cell_volume   1382.25573990
_cell_formula_units_Z   2
loop_
 _symmetry_equiv_pos_site_id
 _symmetry_equiv_pos_as_xyz
  1  'x, y, z'
loop_
 _atom_site_type_symbol
 _atom_site_label
 _atom_site_symmetry_multiplicity
 _atom_site_fract_x
 _atom_site_fract_y
 _atom_site_fract_z
 _atom_site_occupancy
  Rb  Rb0  1  0.606820  0.945445  0.827971  1
  Rb  Rb1  1  0.269718  0.272488  0.321845  1
  Rb  Rb2  1  0.230282  0.227512  0.821845  1
  Rb  Rb3  1  0.727512  0.730282  0.678155  1
  Rb  Rb4  1  0.445445  0.106820  0.672029  1
  Rb  Rb5  1  0.893180  0.554555  0.327971  1
  Rb  Rb6  1  0.054555  0.393180  0.172029  1
  Rb  Rb7  1  0.403007  0.068546  0.172950  1
  Rb  Rb8  1  0.568546  0.903007  0.327050  1
  Rb  Rb9  1  0.096993  0.431454  0.672950  1
  Rb  Rb10  1  0.931454  0.596993  0.827050  1
  Rb  Rb11  1  0.772488  0.769718  0.178155  1
  Na  Na12  1  0.082351  0.917649  0.000000  1
  Na  Na13  1  0.581979  0.418021  0.500000  1
  Na  Na14  1  0.918021  0.081979  0.000000  1
  Na  Na15  1  0.754283  0.245717  0.000000  1
  Na  Na16  1  0.745717  0.254283  0.500000  1
  Na  Na17  1  0.245330  0.754670  0.000000  1
  Na  Na18  1  0.254670  0.745330  0.500000  1
  Na  Na19  1  0.417649  0.582351  0.500000  1
  Zr  Zr20  1  0.083169  0.916831  0.500000  1
  Zr  Zr21  1  0.416831  0.583169  0.000000  1
  Sn  Sn22  1  0.914665  0.085335  0.500000  1
  Sn  Sn23  1  0.585335  0.414665  0.000000  1
  Sb  Sb24  1  0.065114  0.382942  0.396610  1
  Sb  Sb25  1  0.882942  0.565114  0.103390  1
  Sb  Sb26  1  0.434886  0.117058  0.896610  1
  Sb  Sb27  1  0.617058  0.934886  0.603390  1
  Sb  Sb28  1  0.941852  0.627449  0.600060  1
  Sb  Sb29  1  0.127449  0.441852  0.899940  1
  Sb  Sb30  1  0.558148  0.872551  0.100060  1
  Sb  Sb31  1  0.372551  0.058148  0.399940  1
  Sb  Sb32  1  0.214136  0.212062  0.596281  1
  Sb  Sb33  1  0.712062  0.714136  0.903719  1
  Sb  Sb34  1  0.285864  0.287938  0.096281  1
  Sb  Sb35  1  0.787938  0.785864  0.403719  1
