# generated using pymatgen
data_Ti8Co7Si14Pd
_symmetry_space_group_name_H-M   'P 1'
_cell_length_a   9.23436701
_cell_length_b   9.25051774
_cell_length_c   9.20729612
_cell_angle_alpha   94.25709514
_cell_angle_beta   94.16236963
_cell_angle_gamma   148.62069012
_symmetry_Int_Tables_number   1
_chemical_formula_structural   Ti8Co7Si14Pd
_chemical_formula_sum   'Ti8 Co7 Si14 Pd1'
_cell_volume   394.16043547
_cell_formula_units_Z   1
loop_
 _symmetry_equiv_pos_site_id
 _symmetry_equiv_pos_as_xyz
  1  'x, y, z'
loop_
 _atom_site_type_symbol
 _atom_site_label
 _atom_site_symmetry_multiplicity
 _atom_site_fract_x
 _atom_site_fract_y
 _atom_site_fract_z
 _atom_site_occupancy
  Ti  Ti0  1  0.135608  0.135604  0.271219  1
  Ti  Ti1  1  0.865074  0.865070  0.730141  1
  Ti  Ti2  1  0.865511  0.133578  0.001503  1
  Ti  Ti3  1  0.135991  0.867929  0.001506  1
  Ti  Ti4  1  0.501255  0.690989  0.193258  1
  Ti  Ti5  1  0.496669  0.307259  0.808368  1
  Ti  Ti6  1  0.311698  0.501102  0.808363  1
  Ti  Ti7  1  0.692005  0.502267  0.193254  1
  Co  Co8  1  0.103837  0.603840  0.207680  1
  Co  Co9  1  0.102296  0.899772  0.501693  1
  Co  Co10  1  0.399398  0.601921  0.501693  1
  Co  Co11  1  0.596495  0.399722  0.495296  1
  Co  Co12  1  0.898801  0.095572  0.495295  1
  Co  Co13  1  0.898469  0.398472  0.796956  1
  Co  Co14  1  0.598736  0.098738  0.197475  1
  Si  Si15  1  0.293941  0.293930  0.587903  1
  Si  Si16  1  0.705731  0.705716  0.411416  1
  Si  Si17  1  0.726533  0.319673  0.006363  1
  Si  Si18  1  0.279821  0.686699  0.006362  1
  Si  Si19  1  0.998434  0.290932  0.292228  1
  Si  Si20  1  0.979812  0.695147  0.706017  1
  Si  Si21  1  0.726214  0.010886  0.706021  1
  Si  Si22  1  0.293784  0.001292  0.292228  1
  Si  Si23  1  0.501553  0.906081  0.406695  1
  Si  Si24  1  0.518673  0.117395  0.586131  1
  Si  Si25  1  0.067448  0.468735  0.586132  1
  Si  Si26  1  0.905140  0.500626  0.406693  1
  Si  Si27  1  0.749635  0.749851  0.000910  1
  Si  Si28  1  0.251285  0.251050  0.000911  1
  Pd  Pd29  1  0.400153  0.900154  0.800290  1
