# generated using pymatgen
data_Tb3NdCdPt
_symmetry_space_group_name_H-M   'P 1'
_cell_length_a   9.82162993
_cell_length_b   9.79407136
_cell_length_c   9.79407188
_cell_angle_alpha   60.18624332
_cell_angle_beta   59.90687854
_cell_angle_gamma   59.90687907
_symmetry_Int_Tables_number   1
_chemical_formula_structural   Tb3NdCdPt
_chemical_formula_sum   'Tb12 Nd4 Cd4 Pt4'
_cell_volume   666.17483985
_cell_formula_units_Z   4
loop_
 _symmetry_equiv_pos_site_id
 _symmetry_equiv_pos_as_xyz
  1  'x, y, z'
loop_
 _atom_site_type_symbol
 _atom_site_label
 _atom_site_symmetry_multiplicity
 _atom_site_fract_x
 _atom_site_fract_y
 _atom_site_fract_z
 _atom_site_occupancy
  Tb  Tb0  1  0.350281  0.351009  0.351009  1
  Tb  Tb1  1  0.351009  0.350281  0.947700  1
  Tb  Tb2  1  0.351009  0.947700  0.350281  1
  Tb  Tb3  1  0.947700  0.351009  0.351009  1
  Tb  Tb4  1  0.810173  0.189827  0.189827  1
  Tb  Tb5  1  0.189827  0.810173  0.810173  1
  Tb  Tb6  1  0.190081  0.809919  0.190081  1
  Tb  Tb7  1  0.809919  0.190081  0.809919  1
  Tb  Tb8  1  0.190081  0.190081  0.809919  1
  Tb  Tb9  1  0.809919  0.809919  0.190081  1
  Tb  Tb10  1  0.940260  0.559740  0.559740  1
  Tb  Tb11  1  0.559740  0.940260  0.940260  1
  Nd  Nd12  1  0.564219  0.935781  0.564219  1
  Nd  Nd13  1  0.935781  0.564219  0.935781  1
  Nd  Nd14  1  0.564219  0.564219  0.935781  1
  Nd  Nd15  1  0.935781  0.935781  0.564219  1
  Cd  Cd16  1  0.582445  0.579433  0.579433  1
  Cd  Cd17  1  0.579433  0.582445  0.258690  1
  Cd  Cd18  1  0.579433  0.258690  0.582445  1
  Cd  Cd19  1  0.258690  0.579433  0.579433  1
  Pt  Pt20  1  0.144459  0.141876  0.141876  1
  Pt  Pt21  1  0.141876  0.144459  0.571790  1
  Pt  Pt22  1  0.141876  0.571790  0.144459  1
  Pt  Pt23  1  0.571790  0.141876  0.141876  1
