# generated using pymatgen
data_Tb8InAgIrPt
_symmetry_space_group_name_H-M   'P 1'
_cell_length_a   9.64785381
_cell_length_b   9.66672493
_cell_length_c   9.61570113
_cell_angle_alpha   60.11345158
_cell_angle_beta   60.13314129
_cell_angle_gamma   60.42184947
_symmetry_Int_Tables_number   1
_chemical_formula_structural   Tb8InAgIrPt
_chemical_formula_sum   'Tb16 In2 Ag2 Ir2 Pt2'
_cell_volume   637.31409309
_cell_formula_units_Z   2
loop_
 _symmetry_equiv_pos_site_id
 _symmetry_equiv_pos_as_xyz
  1  'x, y, z'
loop_
 _atom_site_type_symbol
 _atom_site_label
 _atom_site_symmetry_multiplicity
 _atom_site_fract_x
 _atom_site_fract_y
 _atom_site_fract_z
 _atom_site_occupancy
  Tb  Tb0  1  0.106220  0.690345  0.103598  1
  Tb  Tb1  1  0.942143  0.943138  0.558371  1
  Tb  Tb2  1  0.944714  0.555508  0.939337  1
  Tb  Tb3  1  0.316209  0.685014  0.309941  1
  Tb  Tb4  1  0.938705  0.558084  0.562781  1
  Tb  Tb5  1  0.315050  0.312685  0.683231  1
  Tb  Tb6  1  0.101263  0.099549  0.096726  1
  Tb  Tb7  1  0.560130  0.559954  0.938066  1
  Tb  Tb8  1  0.101815  0.102571  0.697921  1
  Tb  Tb9  1  0.693030  0.312470  0.683031  1
  Tb  Tb10  1  0.691804  0.683823  0.310266  1
  Tb  Tb11  1  0.691546  0.312702  0.309396  1
  Tb  Tb12  1  0.314007  0.688510  0.687274  1
  Tb  Tb13  1  0.555300  0.940723  0.562294  1
  Tb  Tb14  1  0.691660  0.107106  0.102007  1
  Tb  Tb15  1  0.553497  0.943220  0.942376  1
  In  In16  1  0.327884  0.007404  0.333567  1
  In  In17  1  0.328438  0.332933  0.006729  1
  Ag  Ag18  1  0.332030  0.333873  0.333725  1
  Ag  Ag19  1  0.999047  0.333938  0.334421  1
  Ir  Ir20  1  0.322909  0.890456  0.892722  1
  Ir  Ir21  1  0.888974  0.323572  0.894011  1
  Pt  Pt22  1  0.892019  0.891847  0.896409  1
  Pt  Pt23  1  0.891607  0.890573  0.321797  1
