# generated using pymatgen
data_Dy11Tm(LuPt2)8
_symmetry_space_group_name_H-M   'P 1'
_cell_length_a   7.45363203
_cell_length_b   7.53067237
_cell_length_c   14.62910600
_cell_angle_alpha   89.98577244
_cell_angle_beta   90.00519639
_cell_angle_gamma   89.98915943
_symmetry_Int_Tables_number   1
_chemical_formula_structural   Dy11Tm(LuPt2)8
_chemical_formula_sum   'Dy11 Tm1 Lu8 Pt16'
_cell_volume   821.14426864
_cell_formula_units_Z   1
loop_
 _symmetry_equiv_pos_site_id
 _symmetry_equiv_pos_as_xyz
  1  'x, y, z'
loop_
 _atom_site_type_symbol
 _atom_site_label
 _atom_site_symmetry_multiplicity
 _atom_site_fract_x
 _atom_site_fract_y
 _atom_site_fract_z
 _atom_site_occupancy
  Dy  Dy0  1  0.843868  0.332691  0.122270  1
  Dy  Dy1  1  0.156304  0.667276  0.621846  1
  Dy  Dy2  1  0.656140  0.832700  0.877908  1
  Dy  Dy3  1  0.997807  0.820466  0.406000  1
  Dy  Dy4  1  0.497407  0.680036  0.094132  1
  Dy  Dy5  1  0.502309  0.319811  0.593530  1
  Dy  Dy6  1  0.002547  0.179948  0.906076  1
  Dy  Dy7  1  0.001234  0.178423  0.593099  1
  Dy  Dy8  1  0.501112  0.321511  0.906820  1
  Dy  Dy9  1  0.498577  0.678582  0.406795  1
  Dy  Dy10  1  0.998755  0.821473  0.093295  1
  Tm  Tm11  1  0.343930  0.167139  0.377604  1
  Lu  Lu12  1  0.680667  0.990023  0.250251  1
  Lu  Lu13  1  0.181245  0.509994  0.250313  1
  Lu  Lu14  1  0.818974  0.489667  0.749961  1
  Lu  Lu15  1  0.318986  0.010324  0.749873  1
  Lu  Lu16  1  0.656482  0.832390  0.623089  1
  Lu  Lu17  1  0.156661  0.667834  0.876741  1
  Lu  Lu18  1  0.843399  0.332190  0.376862  1
  Lu  Lu19  1  0.343328  0.167727  0.123363  1
  Pt  Pt20  1  0.817392  0.643486  0.250994  1
  Pt  Pt21  1  0.318065  0.857005  0.249821  1
  Pt  Pt22  1  0.682078  0.143927  0.749029  1
  Pt  Pt23  1  0.182228  0.356253  0.750848  1
  Pt  Pt24  1  0.545006  0.384558  0.250979  1
  Pt  Pt25  1  0.046768  0.114882  0.250651  1
  Pt  Pt26  1  0.954439  0.885798  0.749734  1
  Pt  Pt27  1  0.454407  0.614170  0.749992  1
  Pt  Pt28  1  0.813472  0.533644  0.541176  1
  Pt  Pt29  1  0.313239  0.966614  0.958714  1
  Pt  Pt30  1  0.685017  0.034036  0.458329  1
  Pt  Pt31  1  0.186886  0.466553  0.041233  1
  Pt  Pt32  1  0.179426  0.465733  0.455518  1
  Pt  Pt33  1  0.678077  0.032003  0.044227  1
  Pt  Pt34  1  0.321732  0.969244  0.543128  1
  Pt  Pt35  1  0.822038  0.531891  0.955800  1
