# generated using pymatgen
data_Nd2BeGa12Ni13
_symmetry_space_group_name_H-M   'P 1'
_cell_length_a   8.21496723
_cell_length_b   8.21496851
_cell_length_c   8.26839258
_cell_angle_alpha   123.84880160
_cell_angle_beta   117.85054713
_cell_angle_gamma   88.23326383
_symmetry_Int_Tables_number   1
_chemical_formula_structural   Nd2BeGa12Ni13
_chemical_formula_sum   'Nd2 Be1 Ga12 Ni13'
_cell_volume   389.24009184
_cell_formula_units_Z   1
loop_
 _symmetry_equiv_pos_site_id
 _symmetry_equiv_pos_as_xyz
  1  'x, y, z'
loop_
 _atom_site_type_symbol
 _atom_site_label
 _atom_site_symmetry_multiplicity
 _atom_site_fract_x
 _atom_site_fract_y
 _atom_site_fract_z
 _atom_site_occupancy
  Nd  Nd0  1  0.250565  0.750565  0.500000  1
  Nd  Nd1  1  0.749435  0.249435  0.500000  1
  Be  Be2  1  0.500000  0.500000  0.000000  1
  Ga  Ga3  1  0.553695  0.537886  0.357564  1
  Ga  Ga4  1  0.446305  0.462114  0.642436  1
  Ga  Ga5  1  0.180323  0.196131  0.642436  1
  Ga  Ga6  1  0.319500  0.964624  0.014349  1
  Ga  Ga7  1  0.819677  0.803869  0.357564  1
  Ga  Ga8  1  0.680500  0.035376  0.985651  1
  Ga  Ga9  1  0.950274  0.305151  0.985651  1
  Ga  Ga10  1  0.049726  0.694849  0.014349  1
  Ga  Ga11  1  0.050626  0.318993  0.369620  1
  Ga  Ga12  1  0.949374  0.681007  0.630380  1
  Ga  Ga13  1  0.552479  0.181413  0.733891  1
  Ga  Ga14  1  0.447521  0.818587  0.266109  1
  Ni  Ni15  1  0.278580  0.304074  0.233560  1
  Ni  Ni16  1  0.721420  0.695926  0.766440  1
  Ni  Ni17  1  0.070515  0.045020  0.766440  1
  Ni  Ni18  1  0.429371  0.205637  0.973124  1
  Ni  Ni19  1  0.929485  0.954980  0.233560  1
  Ni  Ni20  1  0.570629  0.794363  0.026876  1
  Ni  Ni21  1  0.232512  0.456246  0.026876  1
  Ni  Ni22  1  0.767488  0.543754  0.973124  1
  Ni  Ni23  1  0.000000  0.000000  0.000000  1
  Ni  Ni24  1  0.281152  0.076297  0.357449  1
  Ni  Ni25  1  0.718848  0.923703  0.642551  1
  Ni  Ni26  1  0.772582  0.427799  0.200381  1
  Ni  Ni27  1  0.227418  0.572201  0.799619  1
