# generated using pymatgen
data_La10MgGa2HgRu6
_symmetry_space_group_name_H-M   'P 1'
_cell_length_a   8.72853483
_cell_length_b   8.73127389
_cell_length_c   8.61414787
_cell_angle_alpha   109.43100883
_cell_angle_beta   109.12163892
_cell_angle_gamma   109.69464537
_symmetry_Int_Tables_number   1
_chemical_formula_structural   La10MgGa2HgRu6
_chemical_formula_sum   'La10 Mg1 Ga2 Hg1 Ru6'
_cell_volume   506.39537780
_cell_formula_units_Z   1
loop_
 _symmetry_equiv_pos_site_id
 _symmetry_equiv_pos_as_xyz
  1  'x, y, z'
loop_
 _atom_site_type_symbol
 _atom_site_label
 _atom_site_symmetry_multiplicity
 _atom_site_fract_x
 _atom_site_fract_y
 _atom_site_fract_z
 _atom_site_occupancy
  La  La0  1  0.242720  0.686229  0.435480  1
  La  La1  1  0.748374  0.807213  0.067928  1
  La  La2  1  0.433441  0.245915  0.690137  1
  La  La3  1  0.697139  0.443859  0.247510  1
  La  La4  1  0.061413  0.745351  0.810387  1
  La  La5  1  0.816470  0.069529  0.750354  1
  La  La6  1  0.207397  0.208442  0.205438  1
  La  La7  1  0.501175  0.004014  0.292877  1
  La  La8  1  0.283698  0.500164  0.000400  1
  La  La9  1  0.002643  0.283723  0.499203  1
  Mg  Mg10  1  0.584251  0.585936  0.584535  1
  Ga  Ga11  1  0.912941  0.503356  0.999282  1
  Ga  Ga12  1  0.997970  0.911235  0.500058  1
  Hg  Hg13  1  0.503609  0.998211  0.913448  1
  Ru  Ru14  1  0.235200  0.125978  0.866840  1
  Ru  Ru15  1  0.756804  0.375246  0.630623  1
  Ru  Ru16  1  0.898550  0.268540  0.131917  1
  Ru  Ru17  1  0.119360  0.866871  0.249999  1
  Ru  Ru18  1  0.636157  0.767946  0.376252  1
  Ru  Ru19  1  0.360689  0.602246  0.747333  1
