# generated using pymatgen
data_ErCuTeO6
_symmetry_space_group_name_H-M   'P 1'
_cell_length_a   5.13220700
_cell_length_b   5.13227396
_cell_length_c   9.75283600
_cell_angle_alpha   89.99994855
_cell_angle_beta   89.99993300
_cell_angle_gamma   120.00042713
_symmetry_Int_Tables_number   1
_chemical_formula_structural   ErCuTeO6
_chemical_formula_sum   'Er2 Cu2 Te2 O12'
_cell_volume   222.47113963
_cell_formula_units_Z   2
loop_
 _symmetry_equiv_pos_site_id
 _symmetry_equiv_pos_as_xyz
  1  'x, y, z'
loop_
 _atom_site_type_symbol
 _atom_site_label
 _atom_site_symmetry_multiplicity
 _atom_site_fract_x
 _atom_site_fract_y
 _atom_site_fract_z
 _atom_site_occupancy
  Er  Er0  1  0.999976  0.000016  0.000074  1
  Er  Er1  1  0.999997  0.000002  0.499930  1
  Cu  Cu2  1  0.333337  0.666668  0.250000  1
  Cu  Cu3  1  0.666664  0.333332  0.750000  1
  Te  Te4  1  0.666671  0.333328  0.250000  1
  Te  Te5  1  0.333333  0.666658  0.750003  1
  O  O6  1  0.645719  0.635640  0.137739  1
  O  O7  1  0.989936  0.354274  0.137739  1
  O  O8  1  0.364353  0.010065  0.137741  1
  O  O9  1  0.364342  0.354276  0.362256  1
  O  O10  1  0.989939  0.635658  0.362259  1
  O  O11  1  0.645716  0.010072  0.362259  1
  O  O12  1  0.354292  0.989960  0.637743  1
  O  O13  1  0.010036  0.364325  0.637742  1
  O  O14  1  0.635681  0.645713  0.637749  1
  O  O15  1  0.010039  0.645715  0.862260  1
  O  O16  1  0.635671  0.989964  0.862251  1
  O  O17  1  0.354292  0.364336  0.862252  1
