# generated using pymatgen
data_Pr2HoTm3Ta2O14
_symmetry_space_group_name_H-M   'P 1'
_cell_length_a   6.48458686
_cell_length_b   6.47993114
_cell_length_c   7.58968103
_cell_angle_alpha   90.01007045
_cell_angle_beta   89.99971122
_cell_angle_gamma   109.11076472
_symmetry_Int_Tables_number   1
_chemical_formula_structural   Pr2HoTm3Ta2O14
_chemical_formula_sum   'Pr2 Ho1 Tm3 Ta2 O14'
_cell_volume   301.33965416
_cell_formula_units_Z   1
loop_
 _symmetry_equiv_pos_site_id
 _symmetry_equiv_pos_as_xyz
  1  'x, y, z'
loop_
 _atom_site_type_symbol
 _atom_site_label
 _atom_site_symmetry_multiplicity
 _atom_site_fract_x
 _atom_site_fract_y
 _atom_site_fract_z
 _atom_site_occupancy
  Pr  Pr0  1  0.511192  0.511109  0.500479  1
  Pr  Pr1  1  0.490107  0.490647  0.999554  1
  Ho  Ho2  1  0.466616  0.999061  0.253909  1
  Tm  Tm3  1  0.001638  0.531754  0.246208  1
  Tm  Tm4  1  0.998592  0.467800  0.746282  1
  Tm  Tm5  1  0.532869  0.001474  0.753910  1
  Ta  Ta6  1  0.001338  0.001250  0.500555  1
  Ta  Ta7  1  0.998802  0.998682  0.999535  1
  O  O8  1  0.934176  0.067160  0.750021  1
  O  O9  1  0.065053  0.933618  0.249995  1
  O  O10  1  0.353102  0.644011  0.250128  1
  O  O11  1  0.647166  0.353361  0.749929  1
  O  O12  1  0.359549  0.640062  0.749967  1
  O  O13  1  0.641696  0.363351  0.249705  1
  O  O14  1  0.323555  0.071946  0.969115  1
  O  O15  1  0.675451  0.927031  0.473118  1
  O  O16  1  0.316676  0.063108  0.540243  1
  O  O17  1  0.682107  0.935454  0.036194  1
  O  O18  1  0.061826  0.316714  0.460988  1
  O  O19  1  0.938201  0.682767  0.961048  1
  O  O20  1  0.929413  0.675770  0.529522  1
  O  O21  1  0.070875  0.323870  0.029594  1
