# generated using pymatgen
data_Nb12Os3Rh
_symmetry_space_group_name_H-M   'P 1'
_cell_length_a   5.18450200
_cell_length_b   5.18475000
_cell_length_c   10.37215800
_cell_angle_alpha   90.00000000
_cell_angle_beta   90.00000000
_cell_angle_gamma   90.00000000
_symmetry_Int_Tables_number   1
_chemical_formula_structural   Nb12Os3Rh
_chemical_formula_sum   'Nb12 Os3 Rh1'
_cell_volume   278.80720353
_cell_formula_units_Z   1
loop_
 _symmetry_equiv_pos_site_id
 _symmetry_equiv_pos_as_xyz
  1  'x, y, z'
loop_
 _atom_site_type_symbol
 _atom_site_label
 _atom_site_symmetry_multiplicity
 _atom_site_fract_x
 _atom_site_fract_y
 _atom_site_fract_z
 _atom_site_occupancy
  Nb  Nb0  1  0.500000  0.000000  0.375602  1
  Nb  Nb1  1  0.500000  0.000000  0.873810  1
  Nb  Nb2  1  0.749862  0.500000  0.000000  1
  Nb  Nb3  1  0.748585  0.500000  0.500000  1
  Nb  Nb4  1  0.000000  0.749563  0.248311  1
  Nb  Nb5  1  0.000000  0.749563  0.751689  1
  Nb  Nb6  1  0.500000  0.000000  0.126190  1
  Nb  Nb7  1  0.500000  0.000000  0.624398  1
  Nb  Nb8  1  0.250138  0.500000  0.000000  1
  Nb  Nb9  1  0.251415  0.500000  0.500000  1
  Nb  Nb10  1  0.000000  0.250437  0.248311  1
  Nb  Nb11  1  0.000000  0.250437  0.751689  1
  Os  Os12  1  0.500000  0.500000  0.250499  1
  Os  Os13  1  0.500000  0.500000  0.749501  1
  Os  Os14  1  0.000000  0.000000  0.000000  1
  Rh  Rh15  1  0.000000  0.000000  0.500000  1
