# generated using pymatgen
data_Lu5Sc5(Si5Ir2)4
_symmetry_space_group_name_H-M   'P 1'
_cell_length_a   12.46023800
_cell_length_b   12.46023800
_cell_length_c   4.14252500
_cell_angle_alpha   90.00000000
_cell_angle_beta   90.00000000
_cell_angle_gamma   90.00000000
_symmetry_Int_Tables_number   1
_chemical_formula_structural   Lu5Sc5(Si5Ir2)4
_chemical_formula_sum   'Lu5 Sc5 Si20 Ir8'
_cell_volume   643.15820367
_cell_formula_units_Z   1
loop_
 _symmetry_equiv_pos_site_id
 _symmetry_equiv_pos_as_xyz
  1  'x, y, z'
loop_
 _atom_site_type_symbol
 _atom_site_label
 _atom_site_symmetry_multiplicity
 _atom_site_fract_x
 _atom_site_fract_y
 _atom_site_fract_z
 _atom_site_occupancy
  Lu  Lu0  1  0.000000  0.000000  0.000000  1
  Lu  Lu1  1  0.883938  0.384985  0.500000  1
  Lu  Lu2  1  0.116062  0.615015  0.500000  1
  Lu  Lu3  1  0.384985  0.116062  0.500000  1
  Lu  Lu4  1  0.615015  0.883938  0.500000  1
  Sc  Sc5  1  0.500000  0.500000  0.000000  1
  Sc  Sc6  1  0.672862  0.174423  0.500000  1
  Sc  Sc7  1  0.327138  0.825577  0.500000  1
  Sc  Sc8  1  0.174423  0.327138  0.500000  1
  Sc  Sc9  1  0.825577  0.672862  0.500000  1
  Si  Si10  1  0.566100  0.067499  0.000000  1
  Si  Si11  1  0.433900  0.932501  0.000000  1
  Si  Si12  1  0.067499  0.433900  0.000000  1
  Si  Si13  1  0.932501  0.566100  0.000000  1
  Si  Si14  1  0.666107  0.699168  0.000000  1
  Si  Si15  1  0.333893  0.300832  0.000000  1
  Si  Si16  1  0.166517  0.800376  0.000000  1
  Si  Si17  1  0.833483  0.199624  0.000000  1
  Si  Si18  1  0.300832  0.666107  0.000000  1
  Si  Si19  1  0.699168  0.333893  0.000000  1
  Si  Si20  1  0.199624  0.166517  0.000000  1
  Si  Si21  1  0.800376  0.833483  0.000000  1
  Si  Si22  1  0.650804  0.507084  0.500000  1
  Si  Si23  1  0.349196  0.492916  0.500000  1
  Si  Si24  1  0.155331  0.993444  0.500000  1
  Si  Si25  1  0.844669  0.006556  0.500000  1
  Si  Si26  1  0.492916  0.650804  0.500000  1
  Si  Si27  1  0.507084  0.349196  0.500000  1
  Si  Si28  1  0.006556  0.155331  0.500000  1
  Si  Si29  1  0.993444  0.844669  0.500000  1
  Ir  Ir30  1  0.744928  0.519016  0.000000  1
  Ir  Ir31  1  0.255072  0.480984  0.000000  1
  Ir  Ir32  1  0.247188  0.980937  0.000000  1
  Ir  Ir33  1  0.752812  0.019063  0.000000  1
  Ir  Ir34  1  0.480984  0.744928  0.000000  1
  Ir  Ir35  1  0.519016  0.255072  0.000000  1
  Ir  Ir36  1  0.019063  0.247188  0.000000  1
  Ir  Ir37  1  0.980937  0.752812  0.000000  1
