# generated using pymatgen
data_Tb10Si5Bi
_symmetry_space_group_name_H-M   'P 1'
_cell_length_a   8.58831800
_cell_length_b   8.63566734
_cell_length_c   6.42044600
_cell_angle_alpha   90.00000000
_cell_angle_beta   90.00000000
_cell_angle_gamma   119.81878906
_symmetry_Int_Tables_number   1
_chemical_formula_structural   Tb10Si5Bi
_chemical_formula_sum   'Tb10 Si5 Bi1'
_cell_volume   413.13308888
_cell_formula_units_Z   1
loop_
 _symmetry_equiv_pos_site_id
 _symmetry_equiv_pos_as_xyz
  1  'x, y, z'
loop_
 _atom_site_type_symbol
 _atom_site_label
 _atom_site_symmetry_multiplicity
 _atom_site_fract_x
 _atom_site_fract_y
 _atom_site_fract_z
 _atom_site_occupancy
  Tb  Tb0  1  0.984854  0.744324  0.750000  1
  Tb  Tb1  1  0.998204  0.243696  0.250000  1
  Tb  Tb2  1  0.754508  0.756304  0.250000  1
  Tb  Tb3  1  0.767360  0.000000  0.750000  1
  Tb  Tb4  1  0.240530  0.255676  0.750000  1
  Tb  Tb5  1  0.240736  0.000000  0.250000  1
  Tb  Tb6  1  0.330802  0.653984  0.494867  1
  Tb  Tb7  1  0.676819  0.346016  0.005133  1
  Tb  Tb8  1  0.676819  0.346016  0.494867  1
  Tb  Tb9  1  0.330802  0.653984  0.005133  1
  Si  Si10  1  0.392787  0.390348  0.250000  1
  Si  Si11  1  0.002440  0.609652  0.250000  1
  Si  Si12  1  0.998641  0.394027  0.750000  1
  Si  Si13  1  0.604614  0.605973  0.750000  1
  Si  Si14  1  0.607456  0.000000  0.250000  1
  Bi  Bi15  1  0.392627  0.000000  0.750000  1
