# generated using pymatgen
data_Y4MnGa12
_symmetry_space_group_name_H-M   'P 1'
_cell_length_a   7.46501334
_cell_length_b   7.46501350
_cell_length_c   7.46501300
_cell_angle_alpha   109.47122198
_cell_angle_beta   109.47122241
_cell_angle_gamma   109.47121843
_symmetry_Int_Tables_number   1
_chemical_formula_structural   Y4MnGa12
_chemical_formula_sum   'Y4 Mn1 Ga12'
_cell_volume   320.23578347
_cell_formula_units_Z   1
loop_
 _symmetry_equiv_pos_site_id
 _symmetry_equiv_pos_as_xyz
  1  'x, y, z'
loop_
 _atom_site_type_symbol
 _atom_site_label
 _atom_site_symmetry_multiplicity
 _atom_site_fract_x
 _atom_site_fract_y
 _atom_site_fract_z
 _atom_site_occupancy
  Y  Y0  1  0.500001  0.000000  0.000000  1
  Y  Y1  1  0.000000  0.500001  0.000000  1
  Y  Y2  1  0.000000  0.000000  0.500001  1
  Y  Y3  1  0.500001  0.500001  0.500001  1
  Mn  Mn4  1  0.000000  0.000000  0.000000  1
  Ga  Ga5  1  0.750000  0.500000  0.250000  1
  Ga  Ga6  1  0.500000  0.750000  0.250000  1
  Ga  Ga7  1  0.750000  0.250000  0.500000  1
  Ga  Ga8  1  0.250000  0.750000  0.500000  1
  Ga  Ga9  1  0.500000  0.250000  0.750000  1
  Ga  Ga10  1  0.250000  0.500000  0.750000  1
  Ga  Ga11  1  0.285937  0.285937  0.000000  1
  Ga  Ga12  1  0.714064  0.714064  0.000000  1
  Ga  Ga13  1  0.285937  0.000000  0.285937  1
  Ga  Ga14  1  0.000000  0.285937  0.285937  1
  Ga  Ga15  1  0.714064  0.000000  0.714064  1
  Ga  Ga16  1  0.000000  0.714064  0.714064  1
