# generated using pymatgen
data_Tm3Sc(Si5Os3)2
_symmetry_space_group_name_H-M   'P 1'
_cell_length_a   8.08436523
_cell_length_b   8.09478363
_cell_length_c   5.74379532
_cell_angle_alpha   70.79785878
_cell_angle_beta   70.52090241
_cell_angle_gamma   94.23590241
_symmetry_Int_Tables_number   1
_chemical_formula_structural   Tm3Sc(Si5Os3)2
_chemical_formula_sum   'Tm3 Sc1 Si10 Os6'
_cell_volume   327.46273801
_cell_formula_units_Z   1
loop_
 _symmetry_equiv_pos_site_id
 _symmetry_equiv_pos_as_xyz
  1  'x, y, z'
loop_
 _atom_site_type_symbol
 _atom_site_label
 _atom_site_symmetry_multiplicity
 _atom_site_fract_x
 _atom_site_fract_y
 _atom_site_fract_z
 _atom_site_occupancy
  Tm  Tm0  1  0.870548  0.601478  0.750914  1
  Tm  Tm1  1  0.400136  0.131122  0.746000  1
  Tm  Tm2  1  0.131520  0.397439  0.248091  1
  Sc  Sc3  1  0.597363  0.869443  0.253508  1
  Si  Si4  1  0.069223  0.261667  0.833906  1
  Si  Si5  1  0.736684  0.930635  0.669011  1
  Si  Si6  1  0.924902  0.740803  0.167067  1
  Si  Si7  1  0.263671  0.067551  0.331636  1
  Si  Si8  1  0.207140  0.795829  0.745369  1
  Si  Si9  1  0.791196  0.202040  0.255219  1
  Si  Si10  1  0.514303  0.488487  0.748999  1
  Si  Si11  1  0.488740  0.515197  0.249386  1
  Si  Si12  1  0.775325  0.222175  0.750572  1
  Si  Si13  1  0.227593  0.776578  0.251159  1
  Os  Os14  1  0.256124  0.543584  0.632302  1
  Os  Os15  1  0.454684  0.745033  0.868828  1
  Os  Os16  1  0.746143  0.455859  0.368511  1
  Os  Os17  1  0.545834  0.255730  0.128879  1
  Os  Os18  1  0.001921  0.997527  0.750309  1
  Os  Os19  1  0.996949  0.001822  0.250334  1
