# generated using pymatgen
data_NpMoF12
_symmetry_space_group_name_H-M   'P 1'
_cell_length_a   5.37037200
_cell_length_b   9.28299500
_cell_length_c   10.38263200
_cell_angle_alpha   90.00000000
_cell_angle_beta   90.00000000
_cell_angle_gamma   90.00000000
_symmetry_Int_Tables_number   1
_chemical_formula_structural   NpMoF12
_chemical_formula_sum   'Np2 Mo2 F24'
_cell_volume   517.60676954
_cell_formula_units_Z   2
loop_
 _symmetry_equiv_pos_site_id
 _symmetry_equiv_pos_as_xyz
  1  'x, y, z'
loop_
 _atom_site_type_symbol
 _atom_site_label
 _atom_site_symmetry_multiplicity
 _atom_site_fract_x
 _atom_site_fract_y
 _atom_site_fract_z
 _atom_site_occupancy
  Np  Np0  1  0.068366  0.250000  0.866132  1
  Np  Np1  1  0.568366  0.750000  0.633868  1
  Mo  Mo2  1  0.931958  0.750000  0.133933  1
  Mo  Mo3  1  0.431958  0.250000  0.366067  1
  F  F4  1  0.192009  0.750000  0.014635  1
  F  F5  1  0.392153  0.903032  0.735479  1
  F  F6  1  0.095473  0.607503  0.228459  1
  F  F7  1  0.288476  0.750000  0.505672  1
  F  F8  1  0.672914  0.750000  0.254206  1
  F  F9  1  0.892153  0.403032  0.764521  1
  F  F10  1  0.172914  0.250000  0.245794  1
  F  F11  1  0.392153  0.596968  0.735479  1
  F  F12  1  0.846729  0.750000  0.763186  1
  F  F13  1  0.267205  0.108155  0.461000  1
  F  F14  1  0.595473  0.392497  0.271541  1
  F  F15  1  0.744942  0.902428  0.531837  1
  F  F16  1  0.346729  0.250000  0.736814  1
  F  F17  1  0.095473  0.892497  0.228459  1
  F  F18  1  0.267205  0.391845  0.461000  1
  F  F19  1  0.244942  0.097572  0.968163  1
  F  F20  1  0.692009  0.250000  0.485365  1
  F  F21  1  0.788476  0.250000  0.994328  1
  F  F22  1  0.892153  0.096968  0.764521  1
  F  F23  1  0.244942  0.402428  0.968163  1
  F  F24  1  0.767205  0.608155  0.039000  1
  F  F25  1  0.767205  0.891845  0.039000  1
  F  F26  1  0.744942  0.597572  0.531837  1
  F  F27  1  0.595473  0.107503  0.271541  1
