# generated using pymatgen
data_TmLuCo12Ge2P5
_symmetry_space_group_name_H-M   'P 1'
_cell_length_a   9.10055717
_cell_length_b   9.13722738
_cell_length_c   3.57158700
_cell_angle_alpha   90.00000000
_cell_angle_beta   90.00000000
_cell_angle_gamma   120.38528214
_symmetry_Int_Tables_number   1
_chemical_formula_structural   TmLuCo12Ge2P5
_chemical_formula_sum   'Tm1 Lu1 Co12 Ge2 P5'
_cell_volume   256.19760596
_cell_formula_units_Z   1
loop_
 _symmetry_equiv_pos_site_id
 _symmetry_equiv_pos_as_xyz
  1  'x, y, z'
loop_
 _atom_site_type_symbol
 _atom_site_label
 _atom_site_symmetry_multiplicity
 _atom_site_fract_x
 _atom_site_fract_y
 _atom_site_fract_z
 _atom_site_occupancy
  Tm  Tm0  1  0.005776  0.000039  0.500000  1
  Lu  Lu1  1  0.668101  0.333776  0.000000  1
  Co  Co2  1  0.772119  0.714501  0.000000  1
  Co  Co3  1  0.270748  0.046228  0.000000  1
  Co  Co4  1  0.963715  0.238620  0.000000  1
  Co  Co5  1  0.715146  0.114658  0.500000  1
  Co  Co6  1  0.895123  0.609365  0.500000  1
  Co  Co7  1  0.387301  0.281724  0.500000  1
  Co  Co8  1  0.484475  0.955418  0.000000  1
  Co  Co9  1  0.049538  0.543871  0.000000  1
  Co  Co10  1  0.460203  0.502985  0.000000  1
  Co  Co11  1  0.568476  0.761332  0.500000  1
  Co  Co12  1  0.219625  0.810072  0.500000  1
  Co  Co13  1  0.198536  0.420007  0.500000  1
  Ge  Ge14  1  0.337170  0.667794  0.000000  1
  Ge  Ge15  1  0.738560  0.954419  0.000000  1
  P  P16  1  0.445932  0.074199  0.500000  1
  P  P17  1  0.932071  0.377006  0.500000  1
  P  P18  1  0.625441  0.551512  0.500000  1
  P  P19  1  0.042554  0.780502  0.000000  1
  P  P20  1  0.219395  0.261970  0.000000  1
