# generated using pymatgen
data_YHo9(IrPb3)2
_symmetry_space_group_name_H-M   'P 1'
_cell_length_a   9.19188200
_cell_length_b   9.19188259
_cell_length_c   6.84062300
_cell_angle_alpha   90.00000000
_cell_angle_beta   90.00000000
_cell_angle_gamma   119.99999788
_symmetry_Int_Tables_number   1
_chemical_formula_structural   YHo9(IrPb3)2
_chemical_formula_sum   'Y1 Ho9 Ir2 Pb6'
_cell_volume   500.53587020
_cell_formula_units_Z   1
loop_
 _symmetry_equiv_pos_site_id
 _symmetry_equiv_pos_as_xyz
  1  'x, y, z'
loop_
 _atom_site_type_symbol
 _atom_site_label
 _atom_site_symmetry_multiplicity
 _atom_site_fract_x
 _atom_site_fract_y
 _atom_site_fract_z
 _atom_site_occupancy
  Y  Y0  1  0.333333  0.666667  0.500000  1
  Ho  Ho1  1  0.999972  0.764462  0.750019  1
  Ho  Ho2  1  0.764491  0.764462  0.249981  1
  Ho  Ho3  1  0.764491  0.000028  0.750019  1
  Ho  Ho4  1  0.235538  0.000028  0.249981  1
  Ho  Ho5  1  0.666667  0.333333  0.500000  1
  Ho  Ho6  1  0.235538  0.235509  0.750019  1
  Ho  Ho7  1  0.333333  0.666667  0.000000  1
  Ho  Ho8  1  0.999972  0.235509  0.249981  1
  Ho  Ho9  1  0.666667  0.333333  0.000000  1
  Ir  Ir10  1  0.000000  0.000000  0.000000  1
  Ir  Ir11  1  0.000000  0.000000  0.500000  1
  Pb  Pb12  1  0.405481  0.405208  0.249860  1
  Pb  Pb13  1  0.594792  0.594519  0.750140  1
  Pb  Pb14  1  0.594792  0.000273  0.249860  1
  Pb  Pb15  1  0.405481  0.000273  0.750140  1
  Pb  Pb16  1  0.999727  0.594519  0.249860  1
  Pb  Pb17  1  0.999727  0.405208  0.750140  1
