# generated using pymatgen
data_Dy3Lu3Tc2
_symmetry_space_group_name_H-M   'P 1'
_cell_length_a   6.18111081
_cell_length_b   7.44380200
_cell_length_c   8.96708315
_cell_angle_alpha   90.00000000
_cell_angle_beta   90.39180809
_cell_angle_gamma   90.00000000
_symmetry_Int_Tables_number   1
_chemical_formula_structural   Dy3Lu3Tc2
_chemical_formula_sum   'Dy6 Lu6 Tc4'
_cell_volume   412.57450218
_cell_formula_units_Z   2
loop_
 _symmetry_equiv_pos_site_id
 _symmetry_equiv_pos_as_xyz
  1  'x, y, z'
loop_
 _atom_site_type_symbol
 _atom_site_label
 _atom_site_symmetry_multiplicity
 _atom_site_fract_x
 _atom_site_fract_y
 _atom_site_fract_z
 _atom_site_occupancy
  Dy  Dy0  1  0.347544  0.677109  0.062969  1
  Dy  Dy1  1  0.152456  0.177109  0.437031  1
  Dy  Dy2  1  0.874245  0.540489  0.250842  1
  Dy  Dy3  1  0.625755  0.040489  0.249158  1
  Dy  Dy4  1  0.122821  0.460013  0.750099  1
  Dy  Dy5  1  0.377179  0.960013  0.749901  1
  Lu  Lu6  1  0.654113  0.325660  0.562780  1
  Lu  Lu7  1  0.845887  0.825660  0.937220  1
  Lu  Lu8  1  0.651392  0.323875  0.936200  1
  Lu  Lu9  1  0.848608  0.823875  0.563800  1
  Lu  Lu10  1  0.348267  0.673470  0.438473  1
  Lu  Lu11  1  0.151733  0.173470  0.061527  1
  Tc  Tc12  1  0.044266  0.882322  0.251628  1
  Tc  Tc13  1  0.455734  0.382322  0.248372  1
  Tc  Tc14  1  0.950753  0.117065  0.753301  1
  Tc  Tc15  1  0.549247  0.617065  0.746699  1
