# generated using pymatgen
data_Nb6TlBiS12
_symmetry_space_group_name_H-M   'P 1'
_cell_length_a   5.81209900
_cell_length_b   5.81209928
_cell_length_c   15.04949000
_cell_angle_alpha   90.00000000
_cell_angle_beta   90.00000000
_cell_angle_gamma   119.99999269
_symmetry_Int_Tables_number   1
_chemical_formula_structural   Nb6TlBiS12
_chemical_formula_sum   'Nb6 Tl1 Bi1 S12'
_cell_volume   440.26937190
_cell_formula_units_Z   1
loop_
 _symmetry_equiv_pos_site_id
 _symmetry_equiv_pos_as_xyz
  1  'x, y, z'
loop_
 _atom_site_type_symbol
 _atom_site_label
 _atom_site_symmetry_multiplicity
 _atom_site_fract_x
 _atom_site_fract_y
 _atom_site_fract_z
 _atom_site_occupancy
  Nb  Nb0  1  0.000000  0.000000  0.762262  1
  Nb  Nb1  1  0.000000  0.000000  0.237738  1
  Nb  Nb2  1  0.333333  0.666667  0.237892  1
  Nb  Nb3  1  0.666667  0.333333  0.762108  1
  Nb  Nb4  1  0.666667  0.333333  0.237892  1
  Nb  Nb5  1  0.333333  0.666667  0.762108  1
  Tl  Tl6  1  0.000000  0.000000  0.500000  1
  Bi  Bi7  1  0.000000  0.000000  0.000000  1
  S  S8  1  0.338950  0.000000  0.133207  1
  S  S9  1  0.000000  0.338950  0.133207  1
  S  S10  1  0.661050  0.661050  0.133207  1
  S  S11  1  0.335695  0.335695  0.659042  1
  S  S12  1  0.664305  0.664305  0.340958  1
  S  S13  1  0.664305  0.000000  0.659042  1
  S  S14  1  0.000000  0.664305  0.659042  1
  S  S15  1  0.000000  0.661050  0.866793  1
  S  S16  1  0.338950  0.338950  0.866793  1
  S  S17  1  0.000000  0.335695  0.340958  1
  S  S18  1  0.335695  0.000000  0.340958  1
  S  S19  1  0.661050  0.000000  0.866793  1
