# generated using pymatgen
data_Er10Ga3NiBi2
_symmetry_space_group_name_H-M   'P 1'
_cell_length_a   8.48802607
_cell_length_b   8.48802602
_cell_length_c   8.68339299
_cell_angle_alpha   124.31063083
_cell_angle_beta   124.31063034
_cell_angle_gamma   81.18138739
_symmetry_Int_Tables_number   1
_chemical_formula_structural   Er10Ga3NiBi2
_chemical_formula_sum   'Er10 Ga3 Ni1 Bi2'
_cell_volume   414.25035997
_cell_formula_units_Z   1
loop_
 _symmetry_equiv_pos_site_id
 _symmetry_equiv_pos_as_xyz
  1  'x, y, z'
loop_
 _atom_site_type_symbol
 _atom_site_label
 _atom_site_symmetry_multiplicity
 _atom_site_fract_x
 _atom_site_fract_y
 _atom_site_fract_z
 _atom_site_occupancy
  Er  Er0  1  0.994027  0.997573  0.991600  1
  Er  Er1  1  0.502427  0.505973  0.008400  1
  Er  Er2  1  0.778019  0.295996  0.794169  1
  Er  Er3  1  0.204004  0.721981  0.205831  1
  Er  Er4  1  0.483849  0.001826  0.205831  1
  Er  Er5  1  0.304174  0.458413  0.500000  1
  Er  Er6  1  0.041587  0.195826  0.500000  1
  Er  Er7  1  0.498174  0.016151  0.794169  1
  Er  Er8  1  0.707997  0.515039  0.500000  1
  Er  Er9  1  0.984961  0.792003  0.500000  1
  Ga  Ga10  1  0.148204  0.645654  0.793860  1
  Ga  Ga11  1  0.854346  0.351796  0.206140  1
  Ga  Ga12  1  0.635026  0.864974  0.500000  1
  Ni  Ni13  1  0.375222  0.124778  0.500000  1
  Bi  Bi14  1  0.243991  0.256009  0.000000  1
  Bi  Bi15  1  0.743991  0.756009  0.000000  1
