# generated using pymatgen
data_La2PrRhI3
_symmetry_space_group_name_H-M   'P 1'
_cell_length_a   4.42711900
_cell_length_b   9.53354386
_cell_length_c   12.59250345
_cell_angle_alpha   87.21450041
_cell_angle_beta   90.00000000
_cell_angle_gamma   90.00000000
_symmetry_Int_Tables_number   1
_chemical_formula_structural   La2PrRhI3
_chemical_formula_sum   'La4 Pr2 Rh2 I6'
_cell_volume   530.85291569
_cell_formula_units_Z   2
loop_
 _symmetry_equiv_pos_site_id
 _symmetry_equiv_pos_as_xyz
  1  'x, y, z'
loop_
 _atom_site_type_symbol
 _atom_site_label
 _atom_site_symmetry_multiplicity
 _atom_site_fract_x
 _atom_site_fract_y
 _atom_site_fract_z
 _atom_site_occupancy
  La  La0  1  0.750000  0.689629  0.117750  1
  La  La1  1  0.250000  0.310371  0.882250  1
  La  La2  1  0.250000  0.886234  0.335048  1
  La  La3  1  0.750000  0.113766  0.664952  1
  Pr  Pr4  1  0.250000  0.905580  0.896318  1
  Pr  Pr5  1  0.750000  0.094420  0.103682  1
  Rh  Rh6  1  0.250000  0.885751  0.123101  1
  Rh  Rh7  1  0.750000  0.114249  0.876899  1
  I  I8  1  0.250000  0.864838  0.619068  1
  I  I9  1  0.750000  0.135162  0.380932  1
  I  I10  1  0.750000  0.633771  0.378368  1
  I  I11  1  0.250000  0.366229  0.621632  1
  I  I12  1  0.250000  0.392360  0.137597  1
  I  I13  1  0.750000  0.607640  0.862403  1
