# generated using pymatgen
data_Cs2Pr10S2Br17
_symmetry_space_group_name_H-M   'P 1'
_cell_length_a   9.44427345
_cell_length_b   11.08022925
_cell_length_c   11.08037327
_cell_angle_alpha   106.73261899
_cell_angle_beta   94.60009054
_cell_angle_gamma   94.60143435
_symmetry_Int_Tables_number   1
_chemical_formula_structural   Cs2Pr10S2Br17
_chemical_formula_sum   'Cs2 Pr10 S2 Br17'
_cell_volume   1100.32908563
_cell_formula_units_Z   1
loop_
 _symmetry_equiv_pos_site_id
 _symmetry_equiv_pos_as_xyz
  1  'x, y, z'
loop_
 _atom_site_type_symbol
 _atom_site_label
 _atom_site_symmetry_multiplicity
 _atom_site_fract_x
 _atom_site_fract_y
 _atom_site_fract_z
 _atom_site_occupancy
  Cs  Cs0  1  0.999358  0.819834  0.179252  1
  Cs  Cs1  1  0.999349  0.179246  0.819839  1
  Pr  Pr2  1  0.441307  0.160637  0.160632  1
  Pr  Pr3  1  0.573840  0.503572  0.197894  1
  Pr  Pr4  1  0.828324  0.286689  0.286698  1
  Pr  Pr5  1  0.310095  0.433678  0.433685  1
  Pr  Pr6  1  0.426252  0.802400  0.496466  1
  Pr  Pr7  1  0.573809  0.197882  0.503560  1
  Pr  Pr8  1  0.690061  0.566676  0.566671  1
  Pr  Pr9  1  0.171886  0.713245  0.713252  1
  Pr  Pr10  1  0.426254  0.496466  0.802401  1
  Pr  Pr11  1  0.558767  0.839431  0.839418  1
  S  S12  1  0.571158  0.360902  0.360904  1
  S  S13  1  0.429070  0.639285  0.639288  1
  Br  Br14  1  0.583895  0.691583  0.028480  1
  Br  Br15  1  0.717396  0.064650  0.064642  1
  Br  Br16  1  0.858732  0.451796  0.117449  1
  Br  Br17  1  0.136588  0.214188  0.214175  1
  Br  Br18  1  0.286213  0.600635  0.258524  1
  Br  Br19  1  0.416388  0.971658  0.308625  1
  Br  Br20  1  0.713848  0.741663  0.399513  1
  Br  Br21  1  0.858701  0.117427  0.451789  1
  Br  Br22  1  0.999990  0.499877  0.499903  1
  Br  Br23  1  0.140976  0.882151  0.547821  1
  Br  Br24  1  0.286199  0.258518  0.600643  1
  Br  Br25  1  0.583873  0.028492  0.691580  1
  Br  Br26  1  0.713842  0.399508  0.741648  1
  Br  Br27  1  0.863662  0.786035  0.785975  1
  Br  Br28  1  0.140980  0.547820  0.882165  1
  Br  Br29  1  0.282769  0.935419  0.935440  1
  Br  Br30  1  0.416421  0.308638  0.971669  1
