# generated using pymatgen
data_PrDyTmGa8Ag3
_symmetry_space_group_name_H-M   'P 1'
_cell_length_a   4.36078334
_cell_length_b   8.41325158
_cell_length_c   8.41325051
_cell_angle_alpha   69.13738470
_cell_angle_beta   74.97966781
_cell_angle_gamma   74.97967410
_symmetry_Int_Tables_number   1
_chemical_formula_structural   PrDyTmGa8Ag3
_chemical_formula_sum   'Pr1 Dy1 Tm1 Ga8 Ag3'
_cell_volume   273.77367735
_cell_formula_units_Z   1
loop_
 _symmetry_equiv_pos_site_id
 _symmetry_equiv_pos_as_xyz
  1  'x, y, z'
loop_
 _atom_site_type_symbol
 _atom_site_label
 _atom_site_symmetry_multiplicity
 _atom_site_fract_x
 _atom_site_fract_y
 _atom_site_fract_z
 _atom_site_occupancy
  Pr  Pr0  1  0.500165  0.499835  0.499835  1
  Dy  Dy1  1  0.199661  0.800339  0.800339  1
  Tm  Tm2  1  0.800670  0.199330  0.199330  1
  Ga  Ga3  1  0.644073  0.073136  0.638717  1
  Ga  Ga4  1  0.355775  0.927710  0.360741  1
  Ga  Ga5  1  0.644073  0.638717  0.073136  1
  Ga  Ga6  1  0.355775  0.360741  0.927710  1
  Ga  Ga7  1  0.838703  0.793949  0.528644  1
  Ga  Ga8  1  0.161791  0.205804  0.470616  1
  Ga  Ga9  1  0.838703  0.528644  0.793949  1
  Ga  Ga10  1  0.161791  0.470616  0.205804  1
  Ag  Ag11  1  0.499631  0.000369  0.000369  1
  Ag  Ag12  1  0.999594  0.806044  0.194767  1
  Ag  Ag13  1  0.999594  0.194767  0.806044  1
