# generated using pymatgen
data_Ca3Y2Sc(Si3Ru)8
_symmetry_space_group_name_H-M   'P 1'
_cell_length_a   10.13409928
_cell_length_b   10.13428422
_cell_length_c   8.13951002
_cell_angle_alpha   89.93936976
_cell_angle_beta   90.07745653
_cell_angle_gamma   132.62063917
_symmetry_Int_Tables_number   1
_chemical_formula_structural   Ca3Y2Sc(Si3Ru)8
_chemical_formula_sum   'Ca3 Y2 Sc1 Si24 Ru8'
_cell_volume   615.13053114
_cell_formula_units_Z   1
loop_
 _symmetry_equiv_pos_site_id
 _symmetry_equiv_pos_as_xyz
  1  'x, y, z'
loop_
 _atom_site_type_symbol
 _atom_site_label
 _atom_site_symmetry_multiplicity
 _atom_site_fract_x
 _atom_site_fract_y
 _atom_site_fract_z
 _atom_site_occupancy
  Ca  Ca0  1  0.000677  0.500806  0.249954  1
  Ca  Ca1  1  0.499318  0.999474  0.750077  1
  Ca  Ca2  1  0.998608  0.498493  0.750060  1
  Y  Y3  1  0.499698  0.499731  0.500376  1
  Y  Y4  1  0.500539  0.000437  0.249992  1
  Sc  Sc5  1  0.999820  0.999797  0.999698  1
  Si  Si6  1  0.292509  0.705495  0.998829  1
  Si  Si7  1  0.794440  0.206929  0.500744  1
  Si  Si8  1  0.707325  0.293992  0.999409  1
  Si  Si9  1  0.205081  0.792937  0.501353  1
  Si  Si10  1  0.833461  0.834474  0.331801  1
  Si  Si11  1  0.163883  0.166447  0.668386  1
  Si  Si12  1  0.669273  0.666871  0.834427  1
  Si  Si13  1  0.331600  0.330618  0.165423  1
  Si  Si14  1  0.621839  0.388342  0.226538  1
  Si  Si15  1  0.611834  0.377603  0.772620  1
  Si  Si16  1  0.109581  0.877435  0.729605  1
  Si  Si17  1  0.122933  0.891857  0.271205  1
  Si  Si18  1  0.377246  0.611676  0.772622  1
  Si  Si19  1  0.389923  0.623276  0.226482  1
  Si  Si20  1  0.890332  0.121590  0.271308  1
  Si  Si21  1  0.877954  0.109908  0.729620  1
  Si  Si22  1  0.845509  0.613006  0.004099  1
  Si  Si23  1  0.387592  0.156240  0.995991  1
  Si  Si24  1  0.889718  0.655531  0.504771  1
  Si  Si25  1  0.343559  0.109825  0.493776  1
  Si  Si26  1  0.154828  0.386846  0.995241  1
  Si  Si27  1  0.612818  0.844270  0.005930  1
  Si  Si28  1  0.110170  0.344758  0.495763  1
  Si  Si29  1  0.657035  0.890597  0.504093  1
  Ru  Ru30  1  0.169343  0.834542  0.001859  1
  Ru  Ru31  1  0.666886  0.330426  0.498299  1
  Ru  Ru32  1  0.831771  0.165766  0.001588  1
  Ru  Ru33  1  0.333484  0.670688  0.498028  1
  Ru  Ru34  1  0.627441  0.627294  0.126105  1
  Ru  Ru35  1  0.372017  0.372620  0.873492  1
  Ru  Ru36  1  0.873767  0.873158  0.627491  1
  Ru  Ru37  1  0.126188  0.126246  0.372943  1
