# generated using pymatgen
data_DyLu2Mn(Co4P3)2
_symmetry_space_group_name_H-M   'P 1'
_cell_length_a   3.69021700
_cell_length_b   10.52605100
_cell_length_c   12.10872600
_cell_angle_alpha   90.00000000
_cell_angle_beta   90.00000000
_cell_angle_gamma   90.00000000
_symmetry_Int_Tables_number   1
_chemical_formula_structural   DyLu2Mn(Co4P3)2
_chemical_formula_sum   'Dy2 Lu4 Mn2 Co16 P12'
_cell_volume   470.34423697
_cell_formula_units_Z   2
loop_
 _symmetry_equiv_pos_site_id
 _symmetry_equiv_pos_as_xyz
  1  'x, y, z'
loop_
 _atom_site_type_symbol
 _atom_site_label
 _atom_site_symmetry_multiplicity
 _atom_site_fract_x
 _atom_site_fract_y
 _atom_site_fract_z
 _atom_site_occupancy
  Dy  Dy0  1  0.000000  0.500000  0.523693  1
  Dy  Dy1  1  0.500000  0.000000  0.476307  1
  Lu  Lu2  1  0.500000  0.818954  0.204746  1
  Lu  Lu3  1  0.500000  0.181046  0.204746  1
  Lu  Lu4  1  0.000000  0.681046  0.795254  1
  Lu  Lu5  1  0.000000  0.318954  0.795254  1
  Mn  Mn6  1  0.500000  0.500000  0.158786  1
  Mn  Mn7  1  0.000000  0.000000  0.841214  1
  Co  Co8  1  0.500000  0.500000  0.704184  1
  Co  Co9  1  0.000000  0.000000  0.295816  1
  Co  Co10  1  0.000000  0.500000  0.986566  1
  Co  Co11  1  0.500000  0.000000  0.013434  1
  Co  Co12  1  0.500000  0.332730  0.993742  1
  Co  Co13  1  0.500000  0.667270  0.993742  1
  Co  Co14  1  0.000000  0.167270  0.006258  1
  Co  Co15  1  0.000000  0.832730  0.006258  1
  Co  Co16  1  0.500000  0.296124  0.429972  1
  Co  Co17  1  0.500000  0.703876  0.429972  1
  Co  Co18  1  0.000000  0.203876  0.570028  1
  Co  Co19  1  0.000000  0.796124  0.570028  1
  Co  Co20  1  0.500000  0.878325  0.709651  1
  Co  Co21  1  0.500000  0.121675  0.709651  1
  Co  Co22  1  0.000000  0.621675  0.290349  1
  Co  Co23  1  0.000000  0.378325  0.290349  1
  P  P24  1  0.500000  0.500000  0.882561  1
  P  P25  1  0.000000  0.000000  0.117439  1
  P  P26  1  0.500000  0.500000  0.345441  1
  P  P27  1  0.000000  0.000000  0.654559  1
  P  P28  1  0.500000  0.311345  0.617735  1
  P  P29  1  0.500000  0.688655  0.617735  1
  P  P30  1  0.000000  0.188655  0.382265  1
  P  P31  1  0.000000  0.811345  0.382265  1
  P  P32  1  0.500000  0.846104  0.891906  1
  P  P33  1  0.500000  0.153896  0.891906  1
  P  P34  1  0.000000  0.653896  0.108094  1
  P  P35  1  0.000000  0.346104  0.108094  1
