# generated using pymatgen
data_Ca2FeRhO6
_symmetry_space_group_name_H-M   'P 1'
_cell_length_a   7.83209363
_cell_length_b   7.85648381
_cell_length_c   7.85648381
_cell_angle_alpha   88.58854209
_cell_angle_beta   89.88312437
_cell_angle_gamma   90.11687563
_symmetry_Int_Tables_number   1
_chemical_formula_structural   Ca2FeRhO6
_chemical_formula_sum   'Ca8 Fe4 Rh4 O24'
_cell_volume   483.28205134
_cell_formula_units_Z   4
loop_
 _symmetry_equiv_pos_site_id
 _symmetry_equiv_pos_as_xyz
  1  'x, y, z'
loop_
 _atom_site_type_symbol
 _atom_site_label
 _atom_site_symmetry_multiplicity
 _atom_site_fract_x
 _atom_site_fract_y
 _atom_site_fract_z
 _atom_site_occupancy
  Ca  Ca0  1  0.748805  0.480286  0.467800  1
  Ca  Ca1  1  0.748805  0.980286  0.967800  1
  Ca  Ca2  1  0.751195  0.467800  0.980286  1
  Ca  Ca3  1  0.751195  0.967800  0.480286  1
  Ca  Ca4  1  0.248805  0.532200  0.019714  1
  Ca  Ca5  1  0.248805  0.032200  0.519714  1
  Ca  Ca6  1  0.251195  0.519714  0.532200  1
  Ca  Ca7  1  0.251195  0.019714  0.032200  1
  Fe  Fe8  1  0.500000  0.750000  0.750000  1
  Fe  Fe9  1  0.000000  0.750000  0.250000  1
  Fe  Fe10  1  0.500000  0.250000  0.250000  1
  Fe  Fe11  1  0.000000  0.250000  0.750000  1
  Rh  Rh12  1  0.000000  0.250000  0.250000  1
  Rh  Rh13  1  0.000000  0.750000  0.750000  1
  Rh  Rh14  1  0.500000  0.250000  0.750000  1
  Rh  Rh15  1  0.500000  0.750000  0.250000  1
  O  O16  1  0.252308  0.690360  0.281096  1
  O  O17  1  0.252308  0.190360  0.781096  1
  O  O18  1  0.247692  0.281096  0.190360  1
  O  O19  1  0.247692  0.781096  0.690360  1
  O  O20  1  0.747692  0.309640  0.718904  1
  O  O21  1  0.747692  0.809640  0.218904  1
  O  O22  1  0.752308  0.718904  0.809640  1
  O  O23  1  0.752308  0.218904  0.309640  1
  O  O24  1  0.048416  0.796102  0.995850  1
  O  O25  1  0.048416  0.296102  0.495850  1
  O  O26  1  0.451584  0.495850  0.796102  1
  O  O27  1  0.451584  0.995850  0.296102  1
  O  O28  1  0.951584  0.203898  0.004150  1
  O  O29  1  0.951584  0.703898  0.504150  1
  O  O30  1  0.548416  0.504150  0.203898  1
  O  O31  1  0.548416  0.004150  0.703898  1
  O  O32  1  0.953271  0.498781  0.204126  1
  O  O33  1  0.953271  0.998781  0.704126  1
  O  O34  1  0.546729  0.204126  0.998781  1
  O  O35  1  0.546729  0.704126  0.498781  1
  O  O36  1  0.046729  0.501219  0.795874  1
  O  O37  1  0.046729  0.001219  0.295874  1
  O  O38  1  0.453271  0.795874  0.001219  1
  O  O39  1  0.453271  0.295874  0.501219  1
