# generated using pymatgen
data_Tb2Y2HoIr3
_symmetry_space_group_name_H-M   'P 1'
_cell_length_a   10.92259200
_cell_length_b   10.92259200
_cell_length_c   6.38298100
_cell_angle_alpha   90.00000000
_cell_angle_beta   90.00000000
_cell_angle_gamma   90.00000000
_symmetry_Int_Tables_number   1
_chemical_formula_structural   Tb2Y2HoIr3
_chemical_formula_sum   'Tb8 Y8 Ho4 Ir12'
_cell_volume   761.50888436
_cell_formula_units_Z   4
loop_
 _symmetry_equiv_pos_site_id
 _symmetry_equiv_pos_as_xyz
  1  'x, y, z'
loop_
 _atom_site_type_symbol
 _atom_site_label
 _atom_site_symmetry_multiplicity
 _atom_site_fract_x
 _atom_site_fract_y
 _atom_site_fract_z
 _atom_site_occupancy
  Tb  Tb0  1  0.290802  0.088160  0.378009  1
  Tb  Tb1  1  0.290802  0.911840  0.878009  1
  Tb  Tb2  1  0.709198  0.088160  0.878009  1
  Tb  Tb3  1  0.709198  0.911840  0.378009  1
  Tb  Tb4  1  0.588160  0.790802  0.878009  1
  Tb  Tb5  1  0.588160  0.209198  0.378009  1
  Tb  Tb6  1  0.411840  0.790802  0.378009  1
  Tb  Tb7  1  0.411840  0.209198  0.878009  1
  Y  Y8  1  0.208973  0.412206  0.621812  1
  Y  Y9  1  0.208973  0.587794  0.121812  1
  Y  Y10  1  0.791027  0.412206  0.121812  1
  Y  Y11  1  0.791027  0.587794  0.621812  1
  Y  Y12  1  0.912206  0.708973  0.121812  1
  Y  Y13  1  0.912206  0.291027  0.621812  1
  Y  Y14  1  0.087794  0.708973  0.621812  1
  Y  Y15  1  0.087794  0.291027  0.121812  1
  Ho  Ho16  1  0.000000  0.000000  0.500430  1
  Ho  Ho17  1  0.000000  0.000000  0.000430  1
  Ho  Ho18  1  0.500000  0.500000  0.000430  1
  Ho  Ho19  1  0.500000  0.500000  0.500430  1
  Ir  Ir20  1  0.847288  0.152199  0.249861  1
  Ir  Ir21  1  0.847288  0.847801  0.749861  1
  Ir  Ir22  1  0.152712  0.152199  0.749861  1
  Ir  Ir23  1  0.152712  0.847801  0.249861  1
  Ir  Ir24  1  0.652199  0.347288  0.749861  1
  Ir  Ir25  1  0.652199  0.652712  0.249861  1
  Ir  Ir26  1  0.347801  0.347288  0.249861  1
  Ir  Ir27  1  0.347801  0.652712  0.749861  1
  Ir  Ir28  1  0.500000  0.000000  0.122696  1
  Ir  Ir29  1  0.500000  0.000000  0.622696  1
  Ir  Ir30  1  0.000000  0.500000  0.877714  1
  Ir  Ir31  1  0.000000  0.500000  0.377714  1
