# generated using pymatgen
data_TbHo3(Si3Ir)2
_symmetry_space_group_name_H-M   'P 1'
_cell_length_a   8.16463700
_cell_length_b   8.16463720
_cell_length_c   7.89376200
_cell_angle_alpha   90.00000000
_cell_angle_beta   90.00000000
_cell_angle_gamma   120.00000323
_symmetry_Int_Tables_number   1
_chemical_formula_structural   TbHo3(Si3Ir)2
_chemical_formula_sum   'Tb2 Ho6 Si12 Ir4'
_cell_volume   455.70985227
_cell_formula_units_Z   2
loop_
 _symmetry_equiv_pos_site_id
 _symmetry_equiv_pos_as_xyz
  1  'x, y, z'
loop_
 _atom_site_type_symbol
 _atom_site_label
 _atom_site_symmetry_multiplicity
 _atom_site_fract_x
 _atom_site_fract_y
 _atom_site_fract_z
 _atom_site_occupancy
  Tb  Tb0  1  0.000000  0.000000  0.250000  1
  Tb  Tb1  1  0.000000  0.000000  0.750000  1
  Ho  Ho2  1  0.509595  0.490405  0.250000  1
  Ho  Ho3  1  0.509595  0.019189  0.250000  1
  Ho  Ho4  1  0.980811  0.490405  0.250000  1
  Ho  Ho5  1  0.490405  0.509595  0.750000  1
  Ho  Ho6  1  0.490405  0.980811  0.750000  1
  Ho  Ho7  1  0.019189  0.509595  0.750000  1
  Si  Si8  1  0.166998  0.833002  0.499331  1
  Si  Si9  1  0.166998  0.333996  0.499331  1
  Si  Si10  1  0.666004  0.833002  0.499331  1
  Si  Si11  1  0.833002  0.166998  0.500669  1
  Si  Si12  1  0.833002  0.666004  0.500669  1
  Si  Si13  1  0.333996  0.166998  0.500669  1
  Si  Si14  1  0.833002  0.166998  0.999331  1
  Si  Si15  1  0.833002  0.666004  0.999331  1
  Si  Si16  1  0.333996  0.166998  0.999331  1
  Si  Si17  1  0.166998  0.833002  0.000669  1
  Si  Si18  1  0.166998  0.333996  0.000669  1
  Si  Si19  1  0.666004  0.833002  0.000669  1
  Ir  Ir20  1  0.333333  0.666667  0.466100  1
  Ir  Ir21  1  0.666667  0.333333  0.533900  1
  Ir  Ir22  1  0.666667  0.333333  0.966100  1
  Ir  Ir23  1  0.333333  0.666667  0.033900  1
