# generated using pymatgen
data_Tb7Yb(TmIr3)2
_symmetry_space_group_name_H-M   'P 1'
_cell_length_a   10.88626203
_cell_length_b   10.91104000
_cell_length_c   6.36848008
_cell_angle_alpha   90.00000000
_cell_angle_beta   90.21403228
_cell_angle_gamma   90.00000000
_symmetry_Int_Tables_number   1
_chemical_formula_structural   Tb7Yb(TmIr3)2
_chemical_formula_sum   'Tb14 Yb2 Tm4 Ir12'
_cell_volume   756.44559158
_cell_formula_units_Z   2
loop_
 _symmetry_equiv_pos_site_id
 _symmetry_equiv_pos_as_xyz
  1  'x, y, z'
loop_
 _atom_site_type_symbol
 _atom_site_label
 _atom_site_symmetry_multiplicity
 _atom_site_fract_x
 _atom_site_fract_y
 _atom_site_fract_z
 _atom_site_occupancy
  Tb  Tb0  1  0.708930  0.086399  0.878849  1
  Tb  Tb1  1  0.708930  0.913601  0.378849  1
  Tb  Tb2  1  0.586153  0.791708  0.877764  1
  Tb  Tb3  1  0.586153  0.208292  0.377764  1
  Tb  Tb4  1  0.411787  0.792313  0.378526  1
  Tb  Tb5  1  0.411787  0.207687  0.878526  1
  Tb  Tb6  1  0.210208  0.412928  0.622355  1
  Tb  Tb7  1  0.210208  0.587072  0.122355  1
  Tb  Tb8  1  0.790368  0.412503  0.120883  1
  Tb  Tb9  1  0.790368  0.587497  0.620883  1
  Tb  Tb10  1  0.912655  0.710376  0.122970  1
  Tb  Tb11  1  0.912655  0.289624  0.622970  1
  Tb  Tb12  1  0.088189  0.710465  0.620966  1
  Tb  Tb13  1  0.088189  0.289535  0.120966  1
  Yb  Yb14  1  0.289542  0.087159  0.376169  1
  Yb  Yb15  1  0.289542  0.912841  0.876169  1
  Tm  Tm16  1  0.001026  0.999845  0.498821  1
  Tm  Tm17  1  0.001026  0.000155  0.998821  1
  Tm  Tm18  1  0.499728  0.499768  0.999465  1
  Tm  Tm19  1  0.499728  0.500232  0.499465  1
  Ir  Ir20  1  0.850244  0.151525  0.250083  1
  Ir  Ir21  1  0.850244  0.848475  0.750083  1
  Ir  Ir22  1  0.147587  0.155656  0.752948  1
  Ir  Ir23  1  0.147587  0.844344  0.252948  1
  Ir  Ir24  1  0.650321  0.348221  0.750158  1
  Ir  Ir25  1  0.650321  0.651779  0.250158  1
  Ir  Ir26  1  0.349435  0.351728  0.247851  1
  Ir  Ir27  1  0.349435  0.648272  0.747851  1
  Ir  Ir28  1  0.503389  0.000515  0.122299  1
  Ir  Ir29  1  0.503389  0.999485  0.622299  1
  Ir  Ir30  1  0.000439  0.500272  0.879892  1
  Ir  Ir31  1  0.000439  0.499728  0.379892  1
