# generated using pymatgen
data_DyYPa2(B4Os)4
_symmetry_space_group_name_H-M   'P 1'
_cell_length_a   3.58419800
_cell_length_b   5.98708298
_cell_length_c   11.60391001
_cell_angle_alpha   90.10705264
_cell_angle_beta   90.00000000
_cell_angle_gamma   90.00000000
_symmetry_Int_Tables_number   1
_chemical_formula_structural   DyYPa2(B4Os)4
_chemical_formula_sum   'Dy1 Y1 Pa2 B16 Os4'
_cell_volume   249.00660356
_cell_formula_units_Z   1
loop_
 _symmetry_equiv_pos_site_id
 _symmetry_equiv_pos_as_xyz
  1  'x, y, z'
loop_
 _atom_site_type_symbol
 _atom_site_label
 _atom_site_symmetry_multiplicity
 _atom_site_fract_x
 _atom_site_fract_y
 _atom_site_fract_z
 _atom_site_occupancy
  Dy  Dy0  1  0.000000  0.128800  0.851941  1
  Y  Y1  1  0.000000  0.871192  0.148046  1
  Pa  Pa2  1  0.000000  0.628900  0.650781  1
  Pa  Pa3  1  0.000000  0.371093  0.349226  1
  B  B4  1  0.500000  0.972752  0.691571  1
  B  B5  1  0.500000  0.027313  0.308472  1
  B  B6  1  0.500000  0.471623  0.809776  1
  B  B7  1  0.500000  0.528274  0.190245  1
  B  B8  1  0.500000  0.789188  0.813655  1
  B  B9  1  0.500000  0.210928  0.186369  1
  B  B10  1  0.500000  0.290810  0.687233  1
  B  B11  1  0.500000  0.709142  0.312821  1
  B  B12  1  0.500000  0.863072  0.969042  1
  B  B13  1  0.500000  0.137035  0.030849  1
  B  B14  1  0.500000  0.366017  0.532415  1
  B  B15  1  0.500000  0.633986  0.467594  1
  B  B16  1  0.500000  0.887212  0.546396  1
  B  B17  1  0.500000  0.112792  0.453606  1
  B  B18  1  0.500000  0.386673  0.954466  1
  B  B19  1  0.500000  0.613226  0.045490  1
  Os  Os20  1  0.000000  0.639767  0.904569  1
  Os  Os21  1  0.000000  0.360225  0.095362  1
  Os  Os22  1  0.000000  0.142107  0.595192  1
  Os  Os23  1  0.000000  0.857873  0.404884  1
