# generated using pymatgen
data_NaLa(PuB12)2
_symmetry_space_group_name_H-M   'P 1'
_cell_length_a   7.16470404
_cell_length_b   7.16470421
_cell_length_c   5.85213400
_cell_angle_alpha   90.00000000
_cell_angle_beta   90.00000000
_cell_angle_gamma   109.43475303
_symmetry_Int_Tables_number   1
_chemical_formula_structural   NaLa(PuB12)2
_chemical_formula_sum   'Na1 La1 Pu2 B24'
_cell_volume   283.29059157
_cell_formula_units_Z   1
loop_
 _symmetry_equiv_pos_site_id
 _symmetry_equiv_pos_as_xyz
  1  'x, y, z'
loop_
 _atom_site_type_symbol
 _atom_site_label
 _atom_site_symmetry_multiplicity
 _atom_site_fract_x
 _atom_site_fract_y
 _atom_site_fract_z
 _atom_site_occupancy
  Na  Na0  1  0.999838  0.000162  0.000000  1
  La  La1  1  0.248645  0.751355  0.500000  1
  Pu  Pu2  1  0.751132  0.248868  0.500000  1
  Pu  Pu3  1  0.500472  0.499528  0.000000  1
  B  B4  1  0.175223  0.324754  0.650350  1
  B  B5  1  0.924335  0.574685  0.149741  1
  B  B6  1  0.675246  0.824777  0.650350  1
  B  B7  1  0.425315  0.075665  0.149741  1
  B  B8  1  0.175223  0.324754  0.349650  1
  B  B9  1  0.924335  0.574685  0.850259  1
  B  B10  1  0.675246  0.824777  0.349650  1
  B  B11  1  0.425315  0.075665  0.850259  1
  B  B12  1  0.400351  0.400158  0.500000  1
  B  B13  1  0.148990  0.650139  0.000000  1
  B  B14  1  0.899271  0.899600  0.500000  1
  B  B15  1  0.651030  0.149782  0.000000  1
  B  B16  1  0.325108  0.175654  0.650534  1
  B  B17  1  0.075001  0.424598  0.149525  1
  B  B18  1  0.824346  0.674892  0.650534  1
  B  B19  1  0.575402  0.924999  0.149525  1
  B  B20  1  0.100400  0.100729  0.500000  1
  B  B21  1  0.850218  0.348970  0.000000  1
  B  B22  1  0.599842  0.599649  0.500000  1
  B  B23  1  0.349861  0.851010  0.000000  1
  B  B24  1  0.325108  0.175654  0.349466  1
  B  B25  1  0.075001  0.424598  0.850475  1
  B  B26  1  0.824346  0.674892  0.349466  1
  B  B27  1  0.575402  0.924999  0.850475  1
