# generated using pymatgen
data_DyPaTcB6
_symmetry_space_group_name_H-M   'P 1'
_cell_length_a   3.72754400
_cell_length_b   9.18353100
_cell_length_c   11.52274500
_cell_angle_alpha   90.00000000
_cell_angle_beta   90.00000000
_cell_angle_gamma   90.00000000
_symmetry_Int_Tables_number   1
_chemical_formula_structural   DyPaTcB6
_chemical_formula_sum   'Dy4 Pa4 Tc4 B24'
_cell_volume   394.44678980
_cell_formula_units_Z   4
loop_
 _symmetry_equiv_pos_site_id
 _symmetry_equiv_pos_as_xyz
  1  'x, y, z'
loop_
 _atom_site_type_symbol
 _atom_site_label
 _atom_site_symmetry_multiplicity
 _atom_site_fract_x
 _atom_site_fract_y
 _atom_site_fract_z
 _atom_site_occupancy
  Dy  Dy0  1  0.000000  0.944824  0.374306  1
  Dy  Dy1  1  0.000000  0.055176  0.625694  1
  Dy  Dy2  1  0.000000  0.444824  0.125694  1
  Dy  Dy3  1  0.000000  0.555176  0.874306  1
  Pa  Pa4  1  0.000000  0.324114  0.413104  1
  Pa  Pa5  1  0.000000  0.675886  0.586896  1
  Pa  Pa6  1  0.000000  0.824114  0.086896  1
  Pa  Pa7  1  0.000000  0.175886  0.913104  1
  Tc  Tc8  1  0.000000  0.638494  0.321913  1
  Tc  Tc9  1  0.000000  0.361506  0.678087  1
  Tc  Tc10  1  0.000000  0.138494  0.178087  1
  Tc  Tc11  1  0.000000  0.861506  0.821913  1
  B  B12  1  0.500000  0.552351  0.433327  1
  B  B13  1  0.500000  0.447649  0.566673  1
  B  B14  1  0.500000  0.052351  0.066673  1
  B  B15  1  0.500000  0.947649  0.933327  1
  B  B16  1  0.500000  0.747375  0.420447  1
  B  B17  1  0.500000  0.252625  0.579553  1
  B  B18  1  0.500000  0.247375  0.079553  1
  B  B19  1  0.500000  0.752625  0.920447  1
  B  B20  1  0.500000  0.793010  0.266280  1
  B  B21  1  0.500000  0.206990  0.733720  1
  B  B22  1  0.500000  0.293010  0.233720  1
  B  B23  1  0.500000  0.706990  0.766280  1
  B  B24  1  0.500000  0.633737  0.185584  1
  B  B25  1  0.500000  0.366263  0.814416  1
  B  B26  1  0.500000  0.133737  0.314416  1
  B  B27  1  0.500000  0.866263  0.685584  1
  B  B28  1  0.500000  0.982940  0.213378  1
  B  B29  1  0.500000  0.017060  0.786622  1
  B  B30  1  0.500000  0.482940  0.286622  1
  B  B31  1  0.500000  0.517060  0.713378  1
  B  B32  1  0.500000  0.614701  0.031673  1
  B  B33  1  0.500000  0.385299  0.968327  1
  B  B34  1  0.500000  0.114701  0.468327  1
  B  B35  1  0.500000  0.885299  0.531673  1
