# generated using pymatgen
data_Tb2Gd2Si3Rh4
_symmetry_space_group_name_H-M   'P 1'
_cell_length_a   10.69723976
_cell_length_b   10.69724061
_cell_length_c   7.86378400
_cell_angle_alpha   71.06538605
_cell_angle_beta   71.06539015
_cell_angle_gamma   29.98221166
_symmetry_Int_Tables_number   1
_chemical_formula_structural   Tb2Gd2Si3Rh4
_chemical_formula_sum   'Tb4 Gd4 Si6 Rh8'
_cell_volume   423.55675138
_cell_formula_units_Z   2
loop_
 _symmetry_equiv_pos_site_id
 _symmetry_equiv_pos_as_xyz
  1  'x, y, z'
loop_
 _atom_site_type_symbol
 _atom_site_label
 _atom_site_symmetry_multiplicity
 _atom_site_fract_x
 _atom_site_fract_y
 _atom_site_fract_z
 _atom_site_occupancy
  Tb  Tb0  1  0.788539  0.550926  0.601895  1
  Tb  Tb1  1  0.449074  0.211461  0.898105  1
  Tb  Tb2  1  0.211461  0.449074  0.398105  1
  Tb  Tb3  1  0.550926  0.788539  0.101895  1
  Gd  Gd4  1  0.791144  0.073488  0.168597  1
  Gd  Gd5  1  0.926512  0.208856  0.331403  1
  Gd  Gd6  1  0.208856  0.926512  0.831403  1
  Gd  Gd7  1  0.073488  0.791144  0.668597  1
  Si  Si8  1  0.950319  0.704045  0.057010  1
  Si  Si9  1  0.295955  0.049681  0.442990  1
  Si  Si10  1  0.049681  0.295955  0.942990  1
  Si  Si11  1  0.704045  0.950319  0.557010  1
  Si  Si12  1  0.624909  0.375091  0.750000  1
  Si  Si13  1  0.375091  0.624909  0.250000  1
  Rh  Rh14  1  0.578095  0.296751  0.522355  1
  Rh  Rh15  1  0.703249  0.421905  0.977645  1
  Rh  Rh16  1  0.421905  0.703249  0.477645  1
  Rh  Rh17  1  0.296751  0.578095  0.022355  1
  Rh  Rh18  1  0.632366  0.925959  0.311551  1
  Rh  Rh19  1  0.074041  0.367634  0.188449  1
  Rh  Rh20  1  0.367634  0.074041  0.688449  1
  Rh  Rh21  1  0.925959  0.632366  0.811551  1
