# generated using pymatgen
data_Cs4MgHg(Ge3Se8)2
_symmetry_space_group_name_H-M   'P 1'
_cell_length_a   7.88900899
_cell_length_b   13.66129566
_cell_length_c   18.16842100
_cell_angle_alpha   90.00000000
_cell_angle_beta   90.00000000
_cell_angle_gamma   89.75822312
_symmetry_Int_Tables_number   1
_chemical_formula_structural   Cs4MgHg(Ge3Se8)2
_chemical_formula_sum   'Cs8 Mg2 Hg2 Ge12 Se32'
_cell_volume   1958.06750421
_cell_formula_units_Z   2
loop_
 _symmetry_equiv_pos_site_id
 _symmetry_equiv_pos_as_xyz
  1  'x, y, z'
loop_
 _atom_site_type_symbol
 _atom_site_label
 _atom_site_symmetry_multiplicity
 _atom_site_fract_x
 _atom_site_fract_y
 _atom_site_fract_z
 _atom_site_occupancy
  Cs  Cs0  1  0.753886  0.627256  0.052265  1
  Cs  Cs1  1  0.746114  0.372744  0.552265  1
  Cs  Cs2  1  0.258134  0.874231  0.946962  1
  Cs  Cs3  1  0.241866  0.125769  0.446962  1
  Cs  Cs4  1  0.271328  0.794937  0.346708  1
  Cs  Cs5  1  0.228672  0.205063  0.846708  1
  Cs  Cs6  1  0.770328  0.703951  0.654297  1
  Cs  Cs7  1  0.729672  0.296049  0.154297  1
  Mg  Mg8  1  0.484826  0.000768  0.652125  1
  Mg  Mg9  1  0.015174  0.999232  0.152125  1
  Hg  Hg10  1  0.982028  0.499327  0.347879  1
  Hg  Hg11  1  0.517972  0.500673  0.847879  1
  Ge  Ge12  1  0.766209  0.048112  0.322555  1
  Ge  Ge13  1  0.733791  0.951888  0.822555  1
  Ge  Ge14  1  0.266505  0.448967  0.676661  1
  Ge  Ge15  1  0.233495  0.551033  0.176661  1
  Ge  Ge16  1  0.737903  0.946793  0.482514  1
  Ge  Ge17  1  0.762097  0.053207  0.982514  1
  Ge  Ge18  1  0.238020  0.554933  0.518907  1
  Ge  Ge19  1  0.261980  0.445067  0.018907  1
  Ge  Ge20  1  0.519776  0.974016  0.153736  1
  Ge  Ge21  1  0.980224  0.025984  0.653736  1
  Ge  Ge22  1  0.023066  0.528511  0.845944  1
  Ge  Ge23  1  0.476934  0.471489  0.345944  1
  Se  Se24  1  0.995065  0.622742  0.230482  1
  Se  Se25  1  0.504935  0.377258  0.730482  1
  Se  Se26  1  0.494825  0.885484  0.766268  1
  Se  Se27  1  0.005175  0.114516  0.266268  1
  Se  Se28  1  0.987251  0.617773  0.469088  1
  Se  Se29  1  0.512749  0.382227  0.969088  1
  Se  Se30  1  0.486629  0.889310  0.534693  1
  Se  Se31  1  0.013371  0.110690  0.034693  1
  Se  Se32  1  0.763849  0.875826  0.155134  1
  Se  Se33  1  0.736151  0.124174  0.655134  1
  Se  Se34  1  0.259379  0.631058  0.842502  1
  Se  Se35  1  0.240621  0.368942  0.342502  1
  Se  Se36  1  0.779008  0.628540  0.849331  1
  Se  Se37  1  0.720992  0.371460  0.349331  1
  Se  Se38  1  0.272718  0.877408  0.150914  1
  Se  Se39  1  0.227282  0.122592  0.650914  1
  Se  Se40  1  0.782483  0.877875  0.361198  1
  Se  Se41  1  0.717517  0.122125  0.861198  1
  Se  Se42  1  0.286049  0.620343  0.640909  1
  Se  Se43  1  0.213951  0.379657  0.140909  1
  Se  Se44  1  0.732296  0.117798  0.445093  1
  Se  Se45  1  0.767704  0.882202  0.945093  1
  Se  Se46  1  0.229868  0.382754  0.553536  1
  Se  Se47  1  0.270132  0.617246  0.053536  1
  Se  Se48  1  0.499116  0.579256  0.238498  1
  Se  Se49  1  0.000884  0.420744  0.738498  1
  Se  Se50  1  0.000035  0.919683  0.762246  1
  Se  Se51  1  0.499965  0.080317  0.262246  1
  Se  Se52  1  0.493431  0.585991  0.449873  1
  Se  Se53  1  0.006569  0.414009  0.949873  1
  Se  Se54  1  0.994623  0.911496  0.549682  1
  Se  Se55  1  0.505377  0.088504  0.049682  1
