# generated using pymatgen
data_Lu4Al2B4RuRh9
_symmetry_space_group_name_H-M   'P 1'
_cell_length_a   9.47221418
_cell_length_b   9.47221418
_cell_length_c   3.10922500
_cell_angle_alpha   90.00000000
_cell_angle_beta   90.00000000
_cell_angle_gamma   89.83198774
_symmetry_Int_Tables_number   1
_chemical_formula_structural   Lu4Al2B4RuRh9
_chemical_formula_sum   'Lu4 Al2 B4 Ru1 Rh9'
_cell_volume   278.96730245
_cell_formula_units_Z   1
loop_
 _symmetry_equiv_pos_site_id
 _symmetry_equiv_pos_as_xyz
  1  'x, y, z'
loop_
 _atom_site_type_symbol
 _atom_site_label
 _atom_site_symmetry_multiplicity
 _atom_site_fract_x
 _atom_site_fract_y
 _atom_site_fract_z
 _atom_site_occupancy
  Lu  Lu0  1  0.823567  0.323567  0.000000  1
  Lu  Lu1  1  0.325694  0.174306  0.000000  1
  Lu  Lu2  1  0.674306  0.825694  0.000000  1
  Lu  Lu3  1  0.176433  0.676433  0.000000  1
  Al  Al4  1  0.000000  0.000000  0.000000  1
  Al  Al5  1  0.500000  0.500000  0.000000  1
  B  B6  1  0.620966  0.120966  0.000000  1
  B  B7  1  0.122738  0.377262  0.000000  1
  B  B8  1  0.877262  0.622738  0.000000  1
  B  B9  1  0.379034  0.879034  0.000000  1
  Ru  Ru10  1  0.500000  0.000000  0.500000  1
  Rh  Rh11  1  0.069526  0.217917  0.500000  1
  Rh  Rh12  1  0.216177  0.929523  0.500000  1
  Rh  Rh13  1  0.783823  0.070477  0.500000  1
  Rh  Rh14  1  0.930474  0.782083  0.500000  1
  Rh  Rh15  1  0.429523  0.716177  0.500000  1
  Rh  Rh16  1  0.570477  0.283823  0.500000  1
  Rh  Rh17  1  0.717917  0.569526  0.500000  1
  Rh  Rh18  1  0.282083  0.430474  0.500000  1
  Rh  Rh19  1  0.000000  0.500000  0.500000  1
