# generated using pymatgen
data_Ac4PdAu3
_symmetry_space_group_name_H-M   'P 1'
_cell_length_a   4.94475100
_cell_length_b   6.19924459
_cell_length_c   7.95836585
_cell_angle_alpha   90.79075744
_cell_angle_beta   90.00000000
_cell_angle_gamma   90.00000000
_symmetry_Int_Tables_number   1
_chemical_formula_structural   Ac4PdAu3
_chemical_formula_sum   'Ac4 Pd1 Au3'
_cell_volume   243.93029198
_cell_formula_units_Z   1
loop_
 _symmetry_equiv_pos_site_id
 _symmetry_equiv_pos_as_xyz
  1  'x, y, z'
loop_
 _atom_site_type_symbol
 _atom_site_label
 _atom_site_symmetry_multiplicity
 _atom_site_fract_x
 _atom_site_fract_y
 _atom_site_fract_z
 _atom_site_occupancy
  Ac  Ac0  1  0.250000  0.641800  0.181686  1
  Ac  Ac1  1  0.750000  0.351399  0.820420  1
  Ac  Ac2  1  0.750000  0.144142  0.309912  1
  Ac  Ac3  1  0.250000  0.857022  0.686166  1
  Pd  Pd4  1  0.250000  0.150636  0.041288  1
  Au  Au5  1  0.750000  0.853732  0.959480  1
  Au  Au6  1  0.750000  0.651454  0.458612  1
  Au  Au7  1  0.250000  0.349813  0.542435  1
