# generated using pymatgen
data_ZrNb6SnS12
_symmetry_space_group_name_H-M   'P 1'
_cell_length_a   5.78893500
_cell_length_b   5.78893508
_cell_length_c   13.88619500
_cell_angle_alpha   90.00000000
_cell_angle_beta   90.00000000
_cell_angle_gamma   120.00001667
_symmetry_Int_Tables_number   1
_chemical_formula_structural   ZrNb6SnS12
_chemical_formula_sum   'Zr1 Nb6 Sn1 S12'
_cell_volume   403.00568351
_cell_formula_units_Z   1
loop_
 _symmetry_equiv_pos_site_id
 _symmetry_equiv_pos_as_xyz
  1  'x, y, z'
loop_
 _atom_site_type_symbol
 _atom_site_label
 _atom_site_symmetry_multiplicity
 _atom_site_fract_x
 _atom_site_fract_y
 _atom_site_fract_z
 _atom_site_occupancy
  Zr  Zr0  1  0.000000  0.000000  0.500000  1
  Nb  Nb1  1  0.333333  0.666667  0.264820  1
  Nb  Nb2  1  0.666667  0.333333  0.735180  1
  Nb  Nb3  1  0.666667  0.333333  0.264820  1
  Nb  Nb4  1  0.333333  0.666667  0.735180  1
  Nb  Nb5  1  0.000000  0.000000  0.264114  1
  Nb  Nb6  1  0.000000  0.000000  0.735886  1
  Sn  Sn7  1  0.000000  0.000000  0.000000  1
  S  S8  1  0.338384  0.000000  0.150309  1
  S  S9  1  0.000000  0.338384  0.150309  1
  S  S10  1  0.661616  0.661616  0.150309  1
  S  S11  1  0.336412  0.336412  0.620366  1
  S  S12  1  0.663588  0.663588  0.379634  1
  S  S13  1  0.663588  0.000000  0.620366  1
  S  S14  1  0.000000  0.663588  0.620366  1
  S  S15  1  0.000000  0.661616  0.849691  1
  S  S16  1  0.338384  0.338384  0.849691  1
  S  S17  1  0.000000  0.336412  0.379634  1
  S  S18  1  0.336412  0.000000  0.379634  1
  S  S19  1  0.661616  0.000000  0.849691  1
