# generated using pymatgen
data_InHF4
_symmetry_space_group_name_H-M   'P 1'
_cell_length_a   6.83959203
_cell_length_b   6.83959167
_cell_length_c   5.86755798
_cell_angle_alpha   111.08889812
_cell_angle_beta   111.08889602
_cell_angle_gamma   45.60411440
_symmetry_Int_Tables_number   1
_chemical_formula_structural   InHF4
_chemical_formula_sum   'In2 H2 F8'
_cell_volume   180.56863930
_cell_formula_units_Z   2
loop_
 _symmetry_equiv_pos_site_id
 _symmetry_equiv_pos_as_xyz
  1  'x, y, z'
loop_
 _atom_site_type_symbol
 _atom_site_label
 _atom_site_symmetry_multiplicity
 _atom_site_fract_x
 _atom_site_fract_y
 _atom_site_fract_z
 _atom_site_occupancy
  In  In0  1  0.500000  0.000000  0.000000  1
  In  In1  1  0.000000  0.500000  0.499999  1
  H  H2  1  0.907837  0.092163  0.250000  1
  H  H3  1  0.092163  0.907837  0.750001  1
  F  F4  1  0.824740  0.002299  0.083138  1
  F  F5  1  0.758376  0.637067  0.157342  1
  F  F6  1  0.362933  0.241623  0.342658  1
  F  F7  1  0.997701  0.175261  0.416862  1
  F  F8  1  0.002300  0.824740  0.583139  1
  F  F9  1  0.637067  0.758376  0.657341  1
  F  F10  1  0.241624  0.362933  0.842659  1
  F  F11  1  0.175260  0.997700  0.916861  1
