# generated using pymatgen
data_TbHoPa(ZnPd)3
_symmetry_space_group_name_H-M   'P 1'
_cell_length_a   7.35294511
_cell_length_b   7.36886098
_cell_length_c   3.78121900
_cell_angle_alpha   90.00000000
_cell_angle_beta   90.00000000
_cell_angle_gamma   119.56030200
_symmetry_Int_Tables_number   1
_chemical_formula_structural   TbHoPa(ZnPd)3
_chemical_formula_sum   'Tb1 Ho1 Pa1 Zn3 Pd3'
_cell_volume   178.20971385
_cell_formula_units_Z   1
loop_
 _symmetry_equiv_pos_site_id
 _symmetry_equiv_pos_as_xyz
  1  'x, y, z'
loop_
 _atom_site_type_symbol
 _atom_site_label
 _atom_site_symmetry_multiplicity
 _atom_site_fract_x
 _atom_site_fract_y
 _atom_site_fract_z
 _atom_site_occupancy
  Tb  Tb0  1  0.595946  0.995586  0.000000  1
  Ho  Ho1  1  0.995777  0.596809  0.000000  1
  Pa  Pa2  1  0.406439  0.406509  0.000000  1
  Zn  Zn3  1  0.754607  0.753639  0.500000  1
  Zn  Zn4  1  0.255478  0.992399  0.500000  1
  Zn  Zn5  1  0.993278  0.256907  0.500000  1
  Pd  Pd6  1  0.011737  0.010470  0.000000  1
  Pd  Pd7  1  0.653705  0.336056  0.500000  1
  Pd  Pd8  1  0.333033  0.651625  0.500000  1
