# generated using pymatgen
data_KCo2(Sb6Os)2
_symmetry_space_group_name_H-M   'P 1'
_cell_length_a   8.04926939
_cell_length_b   8.09820453
_cell_length_c   8.04927017
_cell_angle_alpha   109.54638714
_cell_angle_beta   109.19173211
_cell_angle_gamma   109.42930428
_symmetry_Int_Tables_number   1
_chemical_formula_structural   KCo2(Sb6Os)2
_chemical_formula_sum   'K1 Co2 Sb12 Os2'
_cell_volume   405.12530751
_cell_formula_units_Z   1
loop_
 _symmetry_equiv_pos_site_id
 _symmetry_equiv_pos_as_xyz
  1  'x, y, z'
loop_
 _atom_site_type_symbol
 _atom_site_label
 _atom_site_symmetry_multiplicity
 _atom_site_fract_x
 _atom_site_fract_y
 _atom_site_fract_z
 _atom_site_occupancy
  K  K0  1  0.000000  0.000000  0.000000  1
  Co  Co1  1  0.000000  0.500000  0.000000  1
  Co  Co2  1  0.500000  0.500000  0.500000  1
  Sb  Sb3  1  0.342275  0.185336  0.843061  1
  Sb  Sb4  1  0.657725  0.814664  0.156939  1
  Sb  Sb5  1  0.664978  0.503095  0.838117  1
  Sb  Sb6  1  0.335022  0.496905  0.161883  1
  Sb  Sb7  1  0.179772  0.835736  0.333123  1
  Sb  Sb8  1  0.820228  0.164264  0.666877  1
  Sb  Sb9  1  0.502613  0.835736  0.655965  1
  Sb  Sb10  1  0.497387  0.164264  0.344035  1
  Sb  Sb11  1  0.845990  0.344315  0.180091  1
  Sb  Sb12  1  0.154010  0.655685  0.819909  1
  Sb  Sb13  1  0.835776  0.655685  0.501674  1
  Sb  Sb14  1  0.164224  0.344315  0.498326  1
  Os  Os15  1  0.000000  0.000000  0.500000  1
  Os  Os16  1  0.500000  0.000000  0.000000  1
