# generated using pymatgen
data_HoEr3Co2(Si2Ru)2
_symmetry_space_group_name_H-M   'P 1'
_cell_length_a   4.24929100
_cell_length_b   7.00717660
_cell_length_c   6.87319443
_cell_angle_alpha   90.18685095
_cell_angle_beta   90.00000000
_cell_angle_gamma   90.00000000
_symmetry_Int_Tables_number   1
_chemical_formula_structural   HoEr3Co2(Si2Ru)2
_chemical_formula_sum   'Ho1 Er3 Co2 Si4 Ru2'
_cell_volume   204.65193557
_cell_formula_units_Z   1
loop_
 _symmetry_equiv_pos_site_id
 _symmetry_equiv_pos_as_xyz
  1  'x, y, z'
loop_
 _atom_site_type_symbol
 _atom_site_label
 _atom_site_symmetry_multiplicity
 _atom_site_fract_x
 _atom_site_fract_y
 _atom_site_fract_z
 _atom_site_occupancy
  Ho  Ho0  1  0.750000  0.694615  0.513223  1
  Er  Er1  1  0.250000  0.182173  0.984547  1
  Er  Er2  1  0.750000  0.818312  0.015418  1
  Er  Er3  1  0.250000  0.303904  0.486504  1
  Co  Co4  1  0.250000  0.935998  0.650683  1
  Co  Co5  1  0.750000  0.065419  0.349251  1
  Si  Si6  1  0.250000  0.608408  0.800240  1
  Si  Si7  1  0.750000  0.390707  0.200354  1
  Si  Si8  1  0.250000  0.896850  0.306557  1
  Si  Si9  1  0.750000  0.104274  0.692793  1
  Ru  Ru10  1  0.250000  0.568098  0.154644  1
  Ru  Ru11  1  0.750000  0.431242  0.845787  1
