# generated using pymatgen
data_TiHg3Te2F6
_symmetry_space_group_name_H-M   'P 1'
_cell_length_a   7.86685075
_cell_length_b   7.86685122
_cell_length_c   5.36309170
_cell_angle_alpha   90.82625622
_cell_angle_beta   90.82626131
_cell_angle_gamma   59.60094259
_symmetry_Int_Tables_number   1
_chemical_formula_structural   TiHg3Te2F6
_chemical_formula_sum   'Ti1 Hg3 Te2 F6'
_cell_volume   286.23799008
_cell_formula_units_Z   1
loop_
 _symmetry_equiv_pos_site_id
 _symmetry_equiv_pos_as_xyz
  1  'x, y, z'
loop_
 _atom_site_type_symbol
 _atom_site_label
 _atom_site_symmetry_multiplicity
 _atom_site_fract_x
 _atom_site_fract_y
 _atom_site_fract_z
 _atom_site_occupancy
  Ti  Ti0  1  0.000000  0.000000  0.499999  1
  Hg  Hg1  1  0.500000  0.000000  0.000000  1
  Hg  Hg2  1  0.000000  0.500000  0.000000  1
  Hg  Hg3  1  0.500000  0.500000  0.000000  1
  Te  Te4  1  0.667631  0.667631  0.267116  1
  Te  Te5  1  0.332369  0.332369  0.732884  1
  F  F6  1  0.885751  0.885751  0.291712  1
  F  F7  1  0.884573  0.230742  0.301139  1
  F  F8  1  0.230742  0.884573  0.301139  1
  F  F9  1  0.769257  0.115427  0.698861  1
  F  F10  1  0.115427  0.769257  0.698861  1
  F  F11  1  0.114250  0.114250  0.708288  1
