# generated using pymatgen
data_Hf4Zr3P4
_symmetry_space_group_name_H-M   'P 1'
_cell_length_a   8.07548093
_cell_length_b   8.07548098
_cell_length_c   14.85764061
_cell_angle_alpha   75.76151200
_cell_angle_beta   75.76151273
_cell_angle_gamma   25.49804517
_symmetry_Int_Tables_number   1
_chemical_formula_structural   Hf4Zr3P4
_chemical_formula_sum   'Hf8 Zr6 P8'
_cell_volume   403.61969928
_cell_formula_units_Z   2
loop_
 _symmetry_equiv_pos_site_id
 _symmetry_equiv_pos_as_xyz
  1  'x, y, z'
loop_
 _atom_site_type_symbol
 _atom_site_label
 _atom_site_symmetry_multiplicity
 _atom_site_fract_x
 _atom_site_fract_y
 _atom_site_fract_z
 _atom_site_occupancy
  Hf  Hf0  1  0.205143  0.205143  0.203440  1
  Hf  Hf1  1  0.794857  0.794857  0.796560  1
  Hf  Hf2  1  0.195345  0.195345  0.690026  1
  Hf  Hf3  1  0.804655  0.804655  0.309974  1
  Hf  Hf4  1  0.431470  0.431470  0.167301  1
  Hf  Hf5  1  0.568530  0.568530  0.832699  1
  Hf  Hf6  1  0.500000  0.500000  0.500000  1
  Hf  Hf7  1  0.000000  0.000000  0.000000  1
  Zr  Zr8  1  0.659924  0.659924  0.028092  1
  Zr  Zr9  1  0.340076  0.340076  0.971908  1
  Zr  Zr10  1  0.996881  0.996881  0.668817  1
  Zr  Zr11  1  0.003119  0.003119  0.331183  1
  Zr  Zr12  1  0.823908  0.823908  0.542416  1
  Zr  Zr13  1  0.176092  0.176092  0.457584  1
  P  P14  1  0.062805  0.062805  0.147072  1
  P  P15  1  0.937195  0.937195  0.852928  1
  P  P16  1  0.369125  0.369125  0.661604  1
  P  P17  1  0.630875  0.630875  0.338396  1
  P  P18  1  0.373132  0.373132  0.400769  1
  P  P19  1  0.626868  0.626868  0.599231  1
  P  P20  1  0.177002  0.177002  0.887065  1
  P  P21  1  0.822998  0.822998  0.112935  1
