# generated using pymatgen
data_TbPrCoSiI
_symmetry_space_group_name_H-M   'P 1'
_cell_length_a   4.13878800
_cell_length_b   4.13878702
_cell_length_c   8.42623300
_cell_angle_alpha   90.00000000
_cell_angle_beta   90.00000000
_cell_angle_gamma   119.99999181
_symmetry_Int_Tables_number   1
_chemical_formula_structural   TbPrCoSiI
_chemical_formula_sum   'Tb1 Pr1 Co1 Si1 I1'
_cell_volume   125.00010897
_cell_formula_units_Z   1
loop_
 _symmetry_equiv_pos_site_id
 _symmetry_equiv_pos_as_xyz
  1  'x, y, z'
loop_
 _atom_site_type_symbol
 _atom_site_label
 _atom_site_symmetry_multiplicity
 _atom_site_fract_x
 _atom_site_fract_y
 _atom_site_fract_z
 _atom_site_occupancy
  Tb  Tb0  1  0.000000  0.000000  0.203629  1
  Pr  Pr1  1  0.000000  0.000000  0.794175  1
  Co  Co2  1  0.666667  0.333333  0.006158  1
  Si  Si3  1  0.333333  0.666667  0.008290  1
  I  I4  1  0.666667  0.333333  0.487748  1
