# generated using pymatgen
data_CaYbDy4(Si3Ru)8
_symmetry_space_group_name_H-M   'P 1'
_cell_length_a   10.14289976
_cell_length_b   10.14429090
_cell_length_c   8.14446581
_cell_angle_alpha   89.95363725
_cell_angle_beta   90.04847135
_cell_angle_gamma   132.67362945
_symmetry_Int_Tables_number   1
_chemical_formula_structural   CaYbDy4(Si3Ru)8
_chemical_formula_sum   'Ca1 Yb1 Dy4 Si24 Ru8'
_cell_volume   616.12309849
_cell_formula_units_Z   1
loop_
 _symmetry_equiv_pos_site_id
 _symmetry_equiv_pos_as_xyz
  1  'x, y, z'
loop_
 _atom_site_type_symbol
 _atom_site_label
 _atom_site_symmetry_multiplicity
 _atom_site_fract_x
 _atom_site_fract_y
 _atom_site_fract_z
 _atom_site_occupancy
  Ca  Ca0  1  0.501445  0.001473  0.749867  1
  Yb  Yb1  1  0.500211  0.500329  0.500483  1
  Dy  Dy2  1  0.000357  0.000195  0.999305  1
  Dy  Dy3  1  0.999092  0.499265  0.250354  1
  Dy  Dy4  1  0.496532  0.996636  0.250433  1
  Dy  Dy5  1  0.002902  0.502774  0.749489  1
  Si  Si6  1  0.794277  0.203545  0.500666  1
  Si  Si7  1  0.295932  0.705995  0.998539  1
  Si  Si8  1  0.206006  0.796109  0.501414  1
  Si  Si9  1  0.703806  0.294324  0.999483  1
  Si  Si10  1  0.333628  0.335595  0.831138  1
  Si  Si11  1  0.665035  0.667933  0.168730  1
  Si  Si12  1  0.171186  0.167771  0.334357  1
  Si  Si13  1  0.832595  0.830460  0.665661  1
  Si  Si14  1  0.120944  0.886782  0.727924  1
  Si  Si15  1  0.111013  0.877768  0.272794  1
  Si  Si16  1  0.609179  0.377418  0.229913  1
  Si  Si17  1  0.623963  0.391624  0.769678  1
  Si  Si18  1  0.876719  0.109614  0.272117  1
  Si  Si19  1  0.891210  0.124670  0.728430  1
  Si  Si20  1  0.387157  0.620379  0.769938  1
  Si  Si21  1  0.378486  0.610644  0.229235  1
  Si  Si22  1  0.346010  0.113612  0.502700  1
  Si  Si23  1  0.886318  0.654605  0.495378  1
  Si  Si24  1  0.388068  0.154608  0.007274  1
  Si  Si25  1  0.843763  0.611540  0.993886  1
  Si  Si26  1  0.653259  0.885708  0.492683  1
  Si  Si27  1  0.114031  0.345203  0.506263  1
  Si  Si28  1  0.611228  0.844612  0.997066  1
  Si  Si29  1  0.156082  0.388826  0.004734  1
  Ru  Ru30  1  0.672531  0.330753  0.498167  1
  Ru  Ru31  1  0.167183  0.828163  0.002338  1
  Ru  Ru32  1  0.327357  0.667848  0.497597  1
  Ru  Ru33  1  0.831429  0.171779  0.001963  1
  Ru  Ru34  1  0.125203  0.124695  0.627543  1
  Ru  Ru35  1  0.875552  0.875794  0.372778  1
  Ru  Ru36  1  0.373187  0.373074  0.124781  1
  Ru  Ru37  1  0.627127  0.627880  0.874900  1
