# generated using pymatgen
data_Ca3Ho5Hg8
_symmetry_space_group_name_H-M   'P 1'
_cell_length_a   7.46836002
_cell_length_b   7.49610800
_cell_length_c   7.50023800
_cell_angle_alpha   90.00000000
_cell_angle_beta   90.00405838
_cell_angle_gamma   90.00000000
_symmetry_Int_Tables_number   1
_chemical_formula_structural   Ca3Ho5Hg8
_chemical_formula_sum   'Ca3 Ho5 Hg8'
_cell_volume   419.89057268
_cell_formula_units_Z   1
loop_
 _symmetry_equiv_pos_site_id
 _symmetry_equiv_pos_as_xyz
  1  'x, y, z'
loop_
 _atom_site_type_symbol
 _atom_site_label
 _atom_site_symmetry_multiplicity
 _atom_site_fract_x
 _atom_site_fract_y
 _atom_site_fract_z
 _atom_site_occupancy
  Ca  Ca0  1  0.249394  0.750000  0.499804  1
  Ca  Ca1  1  0.750576  0.250000  0.500134  1
  Ca  Ca2  1  0.250795  0.750000  0.999721  1
  Ho  Ho3  1  0.250699  0.250000  0.000022  1
  Ho  Ho4  1  0.749338  0.750000  0.000018  1
  Ho  Ho5  1  0.750679  0.750000  0.500013  1
  Ho  Ho6  1  0.249324  0.250000  0.500027  1
  Ho  Ho7  1  0.749394  0.250000  0.000103  1
  Hg  Hg8  1  0.997306  0.497274  0.246878  1
  Hg  Hg9  1  0.997306  0.002728  0.246878  1
  Hg  Hg10  1  0.502891  0.002864  0.249078  1
  Hg  Hg11  1  0.502891  0.497136  0.249078  1
  Hg  Hg12  1  0.502636  0.497319  0.750952  1
  Hg  Hg13  1  0.502636  0.002683  0.750952  1
  Hg  Hg14  1  0.997067  0.002873  0.753172  1
  Hg  Hg15  1  0.997067  0.497127  0.753172  1
