# generated using pymatgen
data_Y2HoLu3(Al3Ru)8
_symmetry_space_group_name_H-M   'P 1'
_cell_length_a   8.76880758
_cell_length_b   8.76761841
_cell_length_c   9.59367000
_cell_angle_alpha   90.00000000
_cell_angle_beta   90.00000000
_cell_angle_gamma   120.01331815
_symmetry_Int_Tables_number   1
_chemical_formula_structural   Y2HoLu3(Al3Ru)8
_chemical_formula_sum   'Y2 Ho1 Lu3 Al24 Ru8'
_cell_volume   638.67407588
_cell_formula_units_Z   1
loop_
 _symmetry_equiv_pos_site_id
 _symmetry_equiv_pos_as_xyz
  1  'x, y, z'
loop_
 _atom_site_type_symbol
 _atom_site_label
 _atom_site_symmetry_multiplicity
 _atom_site_fract_x
 _atom_site_fract_y
 _atom_site_fract_z
 _atom_site_occupancy
  Y  Y0  1  0.193144  0.386339  0.250000  1
  Y  Y1  1  0.806577  0.613272  0.750000  1
  Ho  Ho2  1  0.806438  0.193198  0.750000  1
  Lu  Lu3  1  0.610543  0.805490  0.250000  1
  Lu  Lu4  1  0.389853  0.194812  0.750000  1
  Lu  Lu5  1  0.194754  0.805660  0.250000  1
  Al  Al6  1  0.333638  0.667480  0.019589  1
  Al  Al7  1  0.666080  0.332759  0.981751  1
  Al  Al8  1  0.666080  0.332759  0.518249  1
  Al  Al9  1  0.333638  0.667480  0.480411  1
  Al  Al10  1  0.163009  0.325468  0.578030  1
  Al  Al11  1  0.837533  0.675126  0.421423  1
  Al  Al12  1  0.674064  0.837205  0.576803  1
  Al  Al13  1  0.837533  0.675126  0.078577  1
  Al  Al14  1  0.325424  0.162273  0.422842  1
  Al  Al15  1  0.163009  0.325468  0.921970  1
  Al  Al16  1  0.163150  0.837749  0.576719  1
  Al  Al17  1  0.325424  0.162273  0.077158  1
  Al  Al18  1  0.836735  0.162271  0.421887  1
  Al  Al19  1  0.674064  0.837205  0.923197  1
  Al  Al20  1  0.836735  0.162271  0.078113  1
  Al  Al21  1  0.163150  0.837749  0.923281  1
  Al  Al22  1  0.560669  0.121750  0.250000  1
  Al  Al23  1  0.437991  0.877162  0.750000  1
  Al  Al24  1  0.876694  0.439545  0.250000  1
  Al  Al25  1  0.124429  0.561851  0.750000  1
  Al  Al26  1  0.562520  0.439498  0.250000  1
  Al  Al27  1  0.437394  0.560778  0.750000  1
  Al  Al28  1  0.998160  0.997223  0.250000  1
  Al  Al29  1  0.002704  0.001773  0.750000  1
  Ru  Ru30  1  0.499410  0.999637  0.000397  1
  Ru  Ru31  1  0.000314  0.500580  0.000385  1
  Ru  Ru32  1  0.499410  0.999637  0.499603  1
  Ru  Ru33  1  0.499818  0.500154  0.000143  1
  Ru  Ru34  1  0.000314  0.500580  0.499615  1
  Ru  Ru35  1  0.499818  0.500154  0.499857  1
  Ru  Ru36  1  0.999892  0.000122  0.999830  1
  Ru  Ru37  1  0.999892  0.000122  0.500170  1
