# generated using pymatgen
data_Ho19Tm(Bi2As)4
_symmetry_space_group_name_H-M   'P 1'
_cell_length_a   8.02111307
_cell_length_b   9.12592905
_cell_length_c   12.03025616
_cell_angle_alpha   90.01134302
_cell_angle_beta   89.98528442
_cell_angle_gamma   89.99765521
_symmetry_Int_Tables_number   1
_chemical_formula_structural   Ho19Tm(Bi2As)4
_chemical_formula_sum   'Ho19 Tm1 Bi8 As4'
_cell_volume   880.61601181
_cell_formula_units_Z   1
loop_
 _symmetry_equiv_pos_site_id
 _symmetry_equiv_pos_as_xyz
  1  'x, y, z'
loop_
 _atom_site_type_symbol
 _atom_site_label
 _atom_site_symmetry_multiplicity
 _atom_site_fract_x
 _atom_site_fract_y
 _atom_site_fract_z
 _atom_site_occupancy
  Ho  Ho0  1  0.682911  0.943624  0.562824  1
  Ho  Ho1  1  0.182779  0.056392  0.937035  1
  Ho  Ho2  1  0.317142  0.443712  0.437117  1
  Ho  Ho3  1  0.182830  0.443642  0.937163  1
  Ho  Ho4  1  0.317160  0.056224  0.437074  1
  Ho  Ho5  1  0.817086  0.943482  0.062852  1
  Ho  Ho6  1  0.682929  0.556351  0.562909  1
  Ho  Ho7  1  0.156355  0.749846  0.210716  1
  Ho  Ho8  1  0.343664  0.749970  0.710798  1
  Ho  Ho9  1  0.843681  0.249937  0.789177  1
  Ho  Ho10  1  0.656343  0.249996  0.289185  1
  Ho  Ho11  1  0.464000  0.749978  0.000031  1
  Ho  Ho12  1  0.036167  0.750040  0.499988  1
  Ho  Ho13  1  0.536314  0.250145  0.999987  1
  Ho  Ho14  1  0.963759  0.250086  0.499990  1
  Ho  Ho15  1  0.634271  0.749865  0.292581  1
  Ho  Ho16  1  0.865769  0.749976  0.792832  1
  Ho  Ho17  1  0.365803  0.250005  0.707325  1
  Ho  Ho18  1  0.134165  0.250018  0.207265  1
  Tm  Tm19  1  0.817441  0.556734  0.062931  1
  Bi  Bi20  1  0.925463  0.509913  0.326724  1
  Bi  Bi21  1  0.574505  0.989961  0.826835  1
  Bi  Bi22  1  0.074427  0.009949  0.673183  1
  Bi  Bi23  1  0.425545  0.489953  0.173145  1
  Bi  Bi24  1  0.074448  0.490017  0.673216  1
  Bi  Bi25  1  0.425554  0.009932  0.173170  1
  Bi  Bi26  1  0.925530  0.990010  0.326807  1
  Bi  Bi27  1  0.574416  0.509929  0.826939  1
  As  As28  1  0.412831  0.749994  0.478551  1
  As  As29  1  0.086942  0.749610  0.978655  1
  As  As30  1  0.587194  0.249992  0.521419  1
  As  As31  1  0.912575  0.250718  0.021576  1
