# generated using pymatgen
data_Yb3In(Rh2O7)2
_symmetry_space_group_name_H-M   'P 1'
_cell_length_a   7.23760270
_cell_length_b   7.13897539
_cell_length_c   7.23760200
_cell_angle_alpha   59.54193370
_cell_angle_beta   60.00000319
_cell_angle_gamma   59.54194068
_symmetry_Int_Tables_number   1
_chemical_formula_structural   Yb3In(Rh2O7)2
_chemical_formula_sum   'Yb3 In1 Rh4 O14'
_cell_volume   262.58413803
_cell_formula_units_Z   1
loop_
 _symmetry_equiv_pos_site_id
 _symmetry_equiv_pos_as_xyz
  1  'x, y, z'
loop_
 _atom_site_type_symbol
 _atom_site_label
 _atom_site_symmetry_multiplicity
 _atom_site_fract_x
 _atom_site_fract_y
 _atom_site_fract_z
 _atom_site_occupancy
  Yb  Yb0  1  0.125000  0.125000  0.125000  1
  Yb  Yb1  1  0.625000  0.125000  0.125000  1
  Yb  Yb2  1  0.125000  0.125000  0.625000  1
  In  In3  1  0.125000  0.625000  0.125000  1
  Rh  Rh4  1  0.625000  0.625000  0.125000  1
  Rh  Rh5  1  0.625000  0.125000  0.625000  1
  Rh  Rh6  1  0.125000  0.625000  0.625000  1
  Rh  Rh7  1  0.625000  0.625000  0.625000  1
  O  O8  1  0.241502  0.275494  0.241502  1
  O  O9  1  0.706355  0.293014  0.294276  1
  O  O10  1  0.706355  0.293014  0.706355  1
  O  O11  1  0.298244  0.697297  0.298244  1
  O  O12  1  0.706215  0.697297  0.298244  1
  O  O13  1  0.294276  0.293014  0.706355  1
  O  O14  1  0.951756  0.552703  0.543785  1
  O  O15  1  0.298244  0.697297  0.706215  1
  O  O16  1  0.955724  0.956986  0.543645  1
  O  O17  1  0.543645  0.956986  0.543645  1
  O  O18  1  0.543785  0.552703  0.951756  1
  O  O19  1  0.951756  0.552703  0.951756  1
  O  O20  1  0.543645  0.956986  0.955724  1
  O  O21  1  0.008498  0.974506  0.008498  1
