# generated using pymatgen
data_Dy4Y2IrI10
_symmetry_space_group_name_H-M   'P 1'
_cell_length_a   7.75616260
_cell_length_b   9.70644075
_cell_length_c   9.79652192
_cell_angle_alpha   107.22260711
_cell_angle_beta   96.87554986
_cell_angle_gamma   104.56980239
_symmetry_Int_Tables_number   1
_chemical_formula_structural   Dy4Y2IrI10
_chemical_formula_sum   'Dy4 Y2 Ir1 I10'
_cell_volume   666.59165698
_cell_formula_units_Z   1
loop_
 _symmetry_equiv_pos_site_id
 _symmetry_equiv_pos_as_xyz
  1  'x, y, z'
loop_
 _atom_site_type_symbol
 _atom_site_label
 _atom_site_symmetry_multiplicity
 _atom_site_fract_x
 _atom_site_fract_y
 _atom_site_fract_z
 _atom_site_occupancy
  Dy  Dy0  1  0.114756  0.042365  0.758638  1
  Dy  Dy1  1  0.885244  0.957635  0.241362  1
  Dy  Dy2  1  0.969537  0.279273  0.082443  1
  Dy  Dy3  1  0.030463  0.720727  0.917557  1
  Y  Y4  1  0.350846  0.125687  0.167149  1
  Y  Y5  1  0.649154  0.874313  0.832851  1
  Ir  Ir6  1  0.000000  0.000000  0.000000  1
  I  I7  1  0.350162  0.451521  0.272348  1
  I  I8  1  0.649838  0.548479  0.727652  1
  I  I9  1  0.258409  0.087926  0.462623  1
  I  I10  1  0.741591  0.912074  0.537377  1
  I  I11  1  0.085598  0.372333  0.821584  1
  I  I12  1  0.914402  0.627667  0.178416  1
  I  I13  1  0.453107  0.815382  0.090889  1
  I  I14  1  0.546893  0.184618  0.909111  1
  I  I15  1  0.780781  0.257963  0.345310  1
  I  I16  1  0.219219  0.742037  0.654690  1
