# generated using pymatgen
data_Pr4Ga9Ge(IrRh)3
_symmetry_space_group_name_H-M   'P 1'
_cell_length_a   8.65447114
_cell_length_b   8.70249781
_cell_length_c   8.70249720
_cell_angle_alpha   140.78601495
_cell_angle_beta   108.17265944
_cell_angle_gamma   85.09971485
_symmetry_Int_Tables_number   1
_chemical_formula_structural   Pr4Ga9Ge(IrRh)3
_chemical_formula_sum   'Pr4 Ga9 Ge1 Ir3 Rh3'
_cell_volume   380.16038985
_cell_formula_units_Z   1
loop_
 _symmetry_equiv_pos_site_id
 _symmetry_equiv_pos_as_xyz
  1  'x, y, z'
loop_
 _atom_site_type_symbol
 _atom_site_label
 _atom_site_symmetry_multiplicity
 _atom_site_fract_x
 _atom_site_fract_y
 _atom_site_fract_z
 _atom_site_occupancy
  Pr  Pr0  1  0.863881  0.635887  0.227993  1
  Pr  Pr1  1  0.135502  0.364774  0.770727  1
  Pr  Pr2  1  0.406033  0.136104  0.269929  1
  Pr  Pr3  1  0.589632  0.862146  0.727486  1
  Ga  Ga4  1  0.501361  0.750479  0.250969  1
  Ga  Ga5  1  0.501361  0.250393  0.750883  1
  Ga  Ga6  1  0.209277  0.958265  0.747873  1
  Ga  Ga7  1  0.790654  0.541550  0.750549  1
  Ga  Ga8  1  0.790654  0.040106  0.249104  1
  Ga  Ga9  1  0.209277  0.461405  0.251013  1
  Ga  Ga10  1  0.076446  0.906971  0.169474  1
  Ga  Ga11  1  0.922955  0.090147  0.832808  1
  Ga  Ga12  1  0.740148  0.408709  0.331439  1
  Ge  Ge13  1  0.258704  0.592121  0.666583  1
  Ir  Ir14  1  0.745697  0.147317  0.598380  1
  Ir  Ir15  1  0.449258  0.353483  0.095776  1
  Ir  Ir16  1  0.545906  0.646033  0.899873  1
  Rh  Rh17  1  0.002403  0.749757  0.752420  1
  Rh  Rh18  1  0.002403  0.249982  0.252645  1
  Rh  Rh19  1  0.258446  0.854372  0.404074  1
