# generated using pymatgen
data_Rb(SnSe2)8
_symmetry_space_group_name_H-M   'P 1'
_cell_length_a   7.79779100
_cell_length_b   7.79779053
_cell_length_c   16.99519800
_cell_angle_alpha   90.00000000
_cell_angle_beta   90.00000000
_cell_angle_gamma   119.99998078
_symmetry_Int_Tables_number   1
_chemical_formula_structural   Rb(SnSe2)8
_chemical_formula_sum   'Rb1 Sn8 Se16'
_cell_volume   894.95273571
_cell_formula_units_Z   1
loop_
 _symmetry_equiv_pos_site_id
 _symmetry_equiv_pos_as_xyz
  1  'x, y, z'
loop_
 _atom_site_type_symbol
 _atom_site_label
 _atom_site_symmetry_multiplicity
 _atom_site_fract_x
 _atom_site_fract_y
 _atom_site_fract_z
 _atom_site_occupancy
  Rb  Rb0  1  0.000000  0.000000  0.000000  1
  Sn  Sn1  1  0.501245  0.498755  0.735538  1
  Sn  Sn2  1  0.498755  0.501245  0.264462  1
  Sn  Sn3  1  0.501245  0.002489  0.735538  1
  Sn  Sn4  1  0.498755  0.997511  0.264462  1
  Sn  Sn5  1  0.997511  0.498755  0.735538  1
  Sn  Sn6  1  0.002489  0.501245  0.264462  1
  Sn  Sn7  1  0.000000  0.000000  0.734947  1
  Sn  Sn8  1  0.000000  0.000000  0.265053  1
  Se  Se9  1  0.835189  0.670381  0.169868  1
  Se  Se10  1  0.834784  0.669569  0.642333  1
  Se  Se11  1  0.835189  0.164811  0.169868  1
  Se  Se12  1  0.834784  0.165216  0.642333  1
  Se  Se13  1  0.333333  0.666667  0.169294  1
  Se  Se14  1  0.333333  0.666667  0.644259  1
  Se  Se15  1  0.329619  0.164811  0.169868  1
  Se  Se16  1  0.330431  0.165216  0.642333  1
  Se  Se17  1  0.670381  0.835189  0.830132  1
  Se  Se18  1  0.669569  0.834784  0.357667  1
  Se  Se19  1  0.666667  0.333333  0.830706  1
  Se  Se20  1  0.666667  0.333333  0.355741  1
  Se  Se21  1  0.164811  0.835189  0.830132  1
  Se  Se22  1  0.165216  0.834784  0.357667  1
  Se  Se23  1  0.164811  0.329619  0.830132  1
  Se  Se24  1  0.165216  0.330431  0.357667  1
