# generated using pymatgen
data_HoTaMn3FeP3
_symmetry_space_group_name_H-M   'P 1'
_cell_length_a   3.63551800
_cell_length_b   10.78069600
_cell_length_c   12.44727600
_cell_angle_alpha   90.00000000
_cell_angle_beta   90.00000000
_cell_angle_gamma   90.00000000
_symmetry_Int_Tables_number   1
_chemical_formula_structural   HoTaMn3FeP3
_chemical_formula_sum   'Ho4 Ta4 Mn12 Fe4 P12'
_cell_volume   487.85124593
_cell_formula_units_Z   4
loop_
 _symmetry_equiv_pos_site_id
 _symmetry_equiv_pos_as_xyz
  1  'x, y, z'
loop_
 _atom_site_type_symbol
 _atom_site_label
 _atom_site_symmetry_multiplicity
 _atom_site_fract_x
 _atom_site_fract_y
 _atom_site_fract_z
 _atom_site_occupancy
  Ho  Ho0  1  0.250000  0.584731  0.710202  1
  Ho  Ho1  1  0.250000  0.915269  0.210202  1
  Ho  Ho2  1  0.750000  0.415269  0.289798  1
  Ho  Ho3  1  0.750000  0.084731  0.789798  1
  Ta  Ta4  1  0.250000  0.704179  0.986085  1
  Ta  Ta5  1  0.250000  0.795821  0.486085  1
  Ta  Ta6  1  0.750000  0.295821  0.013915  1
  Ta  Ta7  1  0.750000  0.204179  0.513915  1
  Mn  Mn8  1  0.250000  0.409100  0.492506  1
  Mn  Mn9  1  0.250000  0.090900  0.992506  1
  Mn  Mn10  1  0.750000  0.590900  0.507494  1
  Mn  Mn11  1  0.750000  0.909100  0.007494  1
  Mn  Mn12  1  0.250000  0.216637  0.175959  1
  Mn  Mn13  1  0.250000  0.283363  0.675959  1
  Mn  Mn14  1  0.750000  0.783363  0.824041  1
  Mn  Mn15  1  0.750000  0.716637  0.324041  1
  Mn  Mn16  1  0.250000  0.879023  0.699681  1
  Mn  Mn17  1  0.250000  0.620977  0.199681  1
  Mn  Mn18  1  0.750000  0.120977  0.300319  1
  Mn  Mn19  1  0.750000  0.379023  0.800319  1
  Fe  Fe20  1  0.250000  0.462090  0.932732  1
  Fe  Fe21  1  0.250000  0.037910  0.432732  1
  Fe  Fe22  1  0.750000  0.537910  0.067268  1
  Fe  Fe23  1  0.750000  0.962090  0.567268  1
  P  P24  1  0.250000  0.427376  0.113521  1
  P  P25  1  0.250000  0.072624  0.613521  1
  P  P26  1  0.750000  0.572624  0.886479  1
  P  P27  1  0.750000  0.927376  0.386479  1
  P  P28  1  0.250000  0.265190  0.865814  1
  P  P29  1  0.250000  0.234810  0.365814  1
  P  P30  1  0.750000  0.734810  0.134186  1
  P  P31  1  0.750000  0.765190  0.634186  1
  P  P32  1  0.250000  0.586968  0.384117  1
  P  P33  1  0.250000  0.913032  0.884117  1
  P  P34  1  0.750000  0.413032  0.615883  1
  P  P35  1  0.750000  0.086968  0.115883  1
