# generated using pymatgen
data_Sc5Ta(SnRu2)6
_symmetry_space_group_name_H-M   'P 1'
_cell_length_a   4.52536902
_cell_length_b   6.43060002
_cell_length_c   13.61009800
_cell_angle_alpha   89.99962763
_cell_angle_beta   89.99918648
_cell_angle_gamma   89.99055896
_symmetry_Int_Tables_number   1
_chemical_formula_structural   Sc5Ta(SnRu2)6
_chemical_formula_sum   'Sc5 Ta1 Sn6 Ru12'
_cell_volume   396.06525287
_cell_formula_units_Z   1
loop_
 _symmetry_equiv_pos_site_id
 _symmetry_equiv_pos_as_xyz
  1  'x, y, z'
loop_
 _atom_site_type_symbol
 _atom_site_label
 _atom_site_symmetry_multiplicity
 _atom_site_fract_x
 _atom_site_fract_y
 _atom_site_fract_z
 _atom_site_occupancy
  Sc  Sc0  1  0.999998  0.000051  0.999635  1
  Sc  Sc1  1  0.499965  0.499847  0.167134  1
  Sc  Sc2  1  0.999964  0.000227  0.333358  1
  Sc  Sc3  1  0.500006  0.499842  0.499565  1
  Sc  Sc4  1  0.000030  0.000040  0.667020  1
  Ta  Ta5  1  0.500021  0.499990  0.833338  1
  Sn  Sn6  1  0.000005  0.500000  0.002840  1
  Sn  Sn7  1  0.499983  0.000009  0.166160  1
  Sn  Sn8  1  0.999987  0.500003  0.333333  1
  Sn  Sn9  1  0.500007  0.000010  0.500507  1
  Sn  Sn10  1  0.000019  0.499994  0.663835  1
  Sn  Sn11  1  0.500009  0.999999  0.833327  1
  Ru  Ru12  1  0.500003  0.253801  0.996008  1
  Ru  Ru13  1  0.500011  0.746199  0.996008  1
  Ru  Ru14  1  0.999980  0.248893  0.166068  1
  Ru  Ru15  1  0.999981  0.751099  0.166088  1
  Ru  Ru16  1  0.499977  0.249971  0.333327  1
  Ru  Ru17  1  0.499974  0.750041  0.333330  1
  Ru  Ru18  1  0.000023  0.248902  0.500592  1
  Ru  Ru19  1  0.999985  0.751094  0.500569  1
  Ru  Ru20  1  0.500018  0.253788  0.670649  1
  Ru  Ru21  1  0.500010  0.746206  0.670650  1
  Ru  Ru22  1  0.000005  0.260642  0.833331  1
  Ru  Ru23  1  0.000041  0.739361  0.833330  1
