# generated using pymatgen
data_Nd2Ga2IrPd
_symmetry_space_group_name_H-M   'P 1'
_cell_length_a   4.51600700
_cell_length_b   7.11911200
_cell_length_c   7.79293800
_cell_angle_alpha   90.00000000
_cell_angle_beta   90.00000000
_cell_angle_gamma   90.00000000
_symmetry_Int_Tables_number   1
_chemical_formula_structural   Nd2Ga2IrPd
_chemical_formula_sum   'Nd4 Ga4 Ir2 Pd2'
_cell_volume   250.54264207
_cell_formula_units_Z   2
loop_
 _symmetry_equiv_pos_site_id
 _symmetry_equiv_pos_as_xyz
  1  'x, y, z'
loop_
 _atom_site_type_symbol
 _atom_site_label
 _atom_site_symmetry_multiplicity
 _atom_site_fract_x
 _atom_site_fract_y
 _atom_site_fract_z
 _atom_site_occupancy
  Nd  Nd0  1  0.250000  0.027979  0.689883  1
  Nd  Nd1  1  0.250000  0.527979  0.810117  1
  Nd  Nd2  1  0.750000  0.981202  0.303722  1
  Nd  Nd3  1  0.750000  0.481202  0.196278  1
  Ga  Ga4  1  0.250000  0.162448  0.076855  1
  Ga  Ga5  1  0.250000  0.662448  0.423145  1
  Ga  Ga6  1  0.750000  0.831825  0.928891  1
  Ga  Ga7  1  0.750000  0.331825  0.571109  1
  Ir  Ir8  1  0.250000  0.282064  0.397670  1
  Ir  Ir9  1  0.250000  0.782064  0.102330  1
  Pd  Pd10  1  0.750000  0.714481  0.601772  1
  Pd  Pd11  1  0.750000  0.214481  0.898228  1
