# generated using pymatgen
data_Yb4AlSiNi4
_symmetry_space_group_name_H-M   'P 1'
_cell_length_a   5.34576431
_cell_length_b   5.34886039
_cell_length_c   7.40872735
_cell_angle_alpha   100.60879247
_cell_angle_beta   100.63385589
_cell_angle_gamma   61.24674153
_symmetry_Int_Tables_number   1
_chemical_formula_structural   Yb4AlSiNi4
_chemical_formula_sum   'Yb4 Al1 Si1 Ni4'
_cell_volume   181.41263449
_cell_formula_units_Z   1
loop_
 _symmetry_equiv_pos_site_id
 _symmetry_equiv_pos_as_xyz
  1  'x, y, z'
loop_
 _atom_site_type_symbol
 _atom_site_label
 _atom_site_symmetry_multiplicity
 _atom_site_fract_x
 _atom_site_fract_y
 _atom_site_fract_z
 _atom_site_occupancy
  Yb  Yb0  1  0.283861  0.013453  0.143070  1
  Yb  Yb1  1  0.986555  0.716195  0.356934  1
  Yb  Yb2  1  0.019794  0.279673  0.651988  1
  Yb  Yb3  1  0.720400  0.980223  0.848128  1
  Al  Al4  1  0.617466  0.382541  0.249961  1
  Si  Si5  1  0.384173  0.615893  0.750026  1
  Ni  Ni6  1  0.760688  0.499230  0.995066  1
  Ni  Ni7  1  0.500708  0.239302  0.505031  1
  Ni  Ni8  1  0.491946  0.765312  0.510841  1
  Ni  Ni9  1  0.234410  0.508179  0.988955  1
