# generated using pymatgen
data_Li2Ho3AlSi2Pd
_symmetry_space_group_name_H-M   'P 1'
_cell_length_a   6.98715126
_cell_length_b   6.96969791
_cell_length_c   4.20751400
_cell_angle_alpha   90.00000000
_cell_angle_beta   90.00000000
_cell_angle_gamma   119.91739066
_symmetry_Int_Tables_number   1
_chemical_formula_structural   Li2Ho3AlSi2Pd
_chemical_formula_sum   'Li2 Ho3 Al1 Si2 Pd1'
_cell_volume   177.59519775
_cell_formula_units_Z   1
loop_
 _symmetry_equiv_pos_site_id
 _symmetry_equiv_pos_as_xyz
  1  'x, y, z'
loop_
 _atom_site_type_symbol
 _atom_site_label
 _atom_site_symmetry_multiplicity
 _atom_site_fract_x
 _atom_site_fract_y
 _atom_site_fract_z
 _atom_site_occupancy
  Li  Li0  1  0.761161  0.001798  0.499999  1
  Li  Li1  1  0.238839  0.240637  0.499999  1
  Ho  Ho2  1  0.421835  0.005850  0.000000  1
  Ho  Ho3  1  0.000000  0.416676  0.000000  1
  Ho  Ho4  1  0.578165  0.584015  0.000000  1
  Al  Al5  1  0.000000  0.761155  0.499999  1
  Si  Si6  1  0.673829  0.343730  0.499999  1
  Si  Si7  1  0.326170  0.669900  0.499999  1
  Pd  Pd8  1  0.000000  0.976236  0.000000  1
