# generated using pymatgen
data_TbDy2Tm5(CdPt)2
_symmetry_space_group_name_H-M   'P 1'
_cell_length_a   9.60073800
_cell_length_b   9.60238569
_cell_length_c   9.60238514
_cell_angle_alpha   59.98865250
_cell_angle_beta   60.00567477
_cell_angle_gamma   60.00567271
_symmetry_Int_Tables_number   1
_chemical_formula_structural   TbDy2Tm5(CdPt)2
_chemical_formula_sum   'Tb2 Dy4 Tm10 Cd4 Pt4'
_cell_volume   625.96184467
_cell_formula_units_Z   2
loop_
 _symmetry_equiv_pos_site_id
 _symmetry_equiv_pos_as_xyz
  1  'x, y, z'
loop_
 _atom_site_type_symbol
 _atom_site_label
 _atom_site_symmetry_multiplicity
 _atom_site_fract_x
 _atom_site_fract_y
 _atom_site_fract_z
 _atom_site_occupancy
  Tb  Tb0  1  0.935820  0.564180  0.564180  1
  Tb  Tb1  1  0.564180  0.935820  0.935820  1
  Dy  Dy2  1  0.563915  0.936085  0.563915  1
  Dy  Dy3  1  0.936085  0.563914  0.936085  1
  Dy  Dy4  1  0.563915  0.563915  0.936085  1
  Dy  Dy5  1  0.936085  0.936085  0.563914  1
  Tm  Tm6  1  0.352027  0.351872  0.351872  1
  Tm  Tm7  1  0.351872  0.352027  0.944232  1
  Tm  Tm8  1  0.351872  0.944232  0.352027  1
  Tm  Tm9  1  0.944232  0.351872  0.351872  1
  Tm  Tm10  1  0.811180  0.188820  0.188820  1
  Tm  Tm11  1  0.188820  0.811180  0.811180  1
  Tm  Tm12  1  0.188821  0.811179  0.188821  1
  Tm  Tm13  1  0.811179  0.188821  0.811179  1
  Tm  Tm14  1  0.188821  0.188821  0.811179  1
  Tm  Tm15  1  0.811179  0.811179  0.188821  1
  Cd  Cd16  1  0.581304  0.581514  0.581514  1
  Cd  Cd17  1  0.581514  0.581304  0.255667  1
  Cd  Cd18  1  0.581514  0.255667  0.581304  1
  Cd  Cd19  1  0.255667  0.581514  0.581514  1
  Pt  Pt20  1  0.143003  0.143222  0.143222  1
  Pt  Pt21  1  0.143222  0.143003  0.570555  1
  Pt  Pt22  1  0.143222  0.570555  0.143003  1
  Pt  Pt23  1  0.570555  0.143222  0.143222  1
