# generated using pymatgen
data_PrCd2Hg(Ru2O7)2
_symmetry_space_group_name_H-M   'P 1'
_cell_length_a   7.36310849
_cell_length_b   7.36310835
_cell_length_c   7.30012307
_cell_angle_alpha   59.36244247
_cell_angle_beta   59.36244402
_cell_angle_gamma   59.45788097
_symmetry_Int_Tables_number   1
_chemical_formula_structural   PrCd2Hg(Ru2O7)2
_chemical_formula_sum   'Pr1 Cd2 Hg1 Ru4 O14'
_cell_volume   275.99952609
_cell_formula_units_Z   1
loop_
 _symmetry_equiv_pos_site_id
 _symmetry_equiv_pos_as_xyz
  1  'x, y, z'
loop_
 _atom_site_type_symbol
 _atom_site_label
 _atom_site_symmetry_multiplicity
 _atom_site_fract_x
 _atom_site_fract_y
 _atom_site_fract_z
 _atom_site_occupancy
  Pr  Pr0  1  0.125000  0.125000  0.125000  1
  Cd  Cd1  1  0.125000  0.625000  0.125000  1
  Cd  Cd2  1  0.625000  0.125000  0.125000  1
  Hg  Hg3  1  0.125000  0.125000  0.625000  1
  Ru  Ru4  1  0.625000  0.125000  0.625000  1
  Ru  Ru5  1  0.625000  0.625000  0.125000  1
  Ru  Ru6  1  0.125000  0.625000  0.625000  1
  Ru  Ru7  1  0.625000  0.625000  0.625000  1
  O  O8  1  0.690495  0.690495  0.307082  1
  O  O9  1  0.941048  0.564557  0.557610  1
  O  O10  1  0.548337  0.950308  0.951635  1
  O  O11  1  0.945987  0.945987  0.549944  1
  O  O12  1  0.950308  0.548337  0.951635  1
  O  O13  1  0.564557  0.941048  0.557610  1
  O  O14  1  0.299692  0.701663  0.298365  1
  O  O15  1  0.308952  0.685443  0.692390  1
  O  O16  1  0.701663  0.299692  0.298365  1
  O  O17  1  0.685443  0.308952  0.692390  1
  O  O18  1  0.559505  0.559505  0.942918  1
  O  O19  1  0.304013  0.304013  0.700056  1
  O  O20  1  0.255838  0.255838  0.260179  1
  O  O21  1  0.994162  0.994162  0.989821  1
