# generated using pymatgen
data_La2NdAuO6
_symmetry_space_group_name_H-M   'P 1'
_cell_length_a   3.92230733
_cell_length_b   5.77318281
_cell_length_c   7.16462458
_cell_angle_alpha   91.47196665
_cell_angle_beta   103.15155612
_cell_angle_gamma   90.64992782
_symmetry_Int_Tables_number   1
_chemical_formula_structural   La2NdAuO6
_chemical_formula_sum   'La2 Nd1 Au1 O6'
_cell_volume   157.90520347
_cell_formula_units_Z   1
loop_
 _symmetry_equiv_pos_site_id
 _symmetry_equiv_pos_as_xyz
  1  'x, y, z'
loop_
 _atom_site_type_symbol
 _atom_site_label
 _atom_site_symmetry_multiplicity
 _atom_site_fract_x
 _atom_site_fract_y
 _atom_site_fract_z
 _atom_site_occupancy
  La  La0  1  0.998481  0.998489  0.496741  1
  La  La1  1  0.610914  0.520851  0.770042  1
  Nd  Nd2  1  0.387983  0.476981  0.233029  1
  Au  Au3  1  0.999003  0.000339  0.001340  1
  O  O4  1  0.856575  0.714586  0.134265  1
  O  O5  1  0.872416  0.225790  0.196560  1
  O  O6  1  0.490004  0.744321  0.485644  1
  O  O7  1  0.508387  0.255590  0.509317  1
  O  O8  1  0.127679  0.780276  0.803522  1
  O  O9  1  0.148561  0.282777  0.869538  1
