# generated using pymatgen
data_Zr10Cu2Sn5Sb
_symmetry_space_group_name_H-M   'P 1'
_cell_length_a   8.69095219
_cell_length_b   8.70572338
_cell_length_c   5.85864500
_cell_angle_alpha   90.00000000
_cell_angle_beta   90.00000000
_cell_angle_gamma   120.05622947
_symmetry_Int_Tables_number   1
_chemical_formula_structural   Zr10Cu2Sn5Sb
_chemical_formula_sum   'Zr10 Cu2 Sn5 Sb1'
_cell_volume   383.66632859
_cell_formula_units_Z   1
loop_
 _symmetry_equiv_pos_site_id
 _symmetry_equiv_pos_as_xyz
  1  'x, y, z'
loop_
 _atom_site_type_symbol
 _atom_site_label
 _atom_site_symmetry_multiplicity
 _atom_site_fract_x
 _atom_site_fract_y
 _atom_site_fract_z
 _atom_site_occupancy
  Zr  Zr0  1  0.667602  0.333659  0.999975  1
  Zr  Zr1  1  0.332398  0.666057  0.999975  1
  Zr  Zr2  1  0.332398  0.666057  0.500025  1
  Zr  Zr3  1  0.667602  0.333659  0.500025  1
  Zr  Zr4  1  0.735403  0.735229  0.750000  1
  Zr  Zr5  1  0.264597  0.999826  0.750000  1
  Zr  Zr6  1  0.000000  0.265572  0.750000  1
  Zr  Zr7  1  0.264145  0.265086  0.250000  1
  Zr  Zr8  1  0.735855  0.000942  0.250000  1
  Zr  Zr9  1  0.000000  0.733746  0.250000  1
  Cu  Cu10  1  0.000000  0.999261  0.500395  1
  Cu  Cu11  1  0.000000  0.999261  0.999605  1
  Sn  Sn12  1  0.385393  0.384909  0.750000  1
  Sn  Sn13  1  0.614607  0.999516  0.750000  1
  Sn  Sn14  1  0.000000  0.616109  0.750000  1
  Sn  Sn15  1  0.615061  0.615222  0.250000  1
  Sn  Sn16  1  0.384939  0.000161  0.250000  1
  Sb  Sb17  1  0.000000  0.385729  0.250000  1
