# generated using pymatgen
data_LiDy4Ga4Ru3
_symmetry_space_group_name_H-M   'P 1'
_cell_length_a   4.50368900
_cell_length_b   7.10414586
_cell_length_c   7.18896500
_cell_angle_alpha   88.86336473
_cell_angle_beta   90.00000000
_cell_angle_gamma   90.00000000
_symmetry_Int_Tables_number   1
_chemical_formula_structural   LiDy4Ga4Ru3
_chemical_formula_sum   'Li1 Dy4 Ga4 Ru3'
_cell_volume   229.96469602
_cell_formula_units_Z   1
loop_
 _symmetry_equiv_pos_site_id
 _symmetry_equiv_pos_as_xyz
  1  'x, y, z'
loop_
 _atom_site_type_symbol
 _atom_site_label
 _atom_site_symmetry_multiplicity
 _atom_site_fract_x
 _atom_site_fract_y
 _atom_site_fract_z
 _atom_site_occupancy
  Li  Li0  1  0.750000  0.655536  0.933914  1
  Dy  Dy1  1  0.250000  0.019869  0.800109  1
  Dy  Dy2  1  0.250000  0.507736  0.687243  1
  Dy  Dy3  1  0.750000  0.995226  0.206513  1
  Dy  Dy4  1  0.750000  0.479794  0.308829  1
  Ga  Ga5  1  0.250000  0.202622  0.394863  1
  Ga  Ga6  1  0.250000  0.698462  0.116494  1
  Ga  Ga7  1  0.750000  0.793957  0.594613  1
  Ga  Ga8  1  0.750000  0.294629  0.898851  1
  Ru  Ru9  1  0.250000  0.843853  0.437115  1
  Ru  Ru10  1  0.250000  0.347463  0.055397  1
  Ru  Ru11  1  0.750000  0.160854  0.566059  1
