# generated using pymatgen
data_Rb4BaAg6
_symmetry_space_group_name_H-M   'P 1'
_cell_length_a   17.10137281
_cell_length_b   17.10137330
_cell_length_c   5.05860800
_cell_angle_alpha   90.00000000
_cell_angle_beta   90.00000000
_cell_angle_gamma   163.32555374
_symmetry_Int_Tables_number   1
_chemical_formula_structural   Rb4BaAg6
_chemical_formula_sum   'Rb4 Ba1 Ag6'
_cell_volume   424.49633968
_cell_formula_units_Z   1
loop_
 _symmetry_equiv_pos_site_id
 _symmetry_equiv_pos_as_xyz
  1  'x, y, z'
loop_
 _atom_site_type_symbol
 _atom_site_label
 _atom_site_symmetry_multiplicity
 _atom_site_fract_x
 _atom_site_fract_y
 _atom_site_fract_z
 _atom_site_occupancy
  Rb  Rb0  1  0.617491  0.382507  0.000000  1
  Rb  Rb1  1  0.382507  0.617491  0.000000  1
  Rb  Rb2  1  0.805643  0.194355  0.500001  1
  Rb  Rb3  1  0.194355  0.805643  0.500001  1
  Ba  Ba4  1  0.000000  0.000000  0.000000  1
  Ag  Ag5  1  0.733309  0.266689  0.000000  1
  Ag  Ag6  1  0.266689  0.733309  0.000000  1
  Ag  Ag7  1  0.923437  0.076562  0.500001  1
  Ag  Ag8  1  0.541841  0.458157  0.500001  1
  Ag  Ag9  1  0.458157  0.541841  0.500001  1
  Ag  Ag10  1  0.076562  0.923437  0.500001  1
