# generated using pymatgen
data_Zr3ZnGaCu3Si
_symmetry_space_group_name_H-M   'P 1'
_cell_length_a   6.48024208
_cell_length_b   6.45960504
_cell_length_c   4.04597900
_cell_angle_alpha   90.00000000
_cell_angle_beta   90.00000000
_cell_angle_gamma   120.28754669
_symmetry_Int_Tables_number   1
_chemical_formula_structural   Zr3ZnGaCu3Si
_chemical_formula_sum   'Zr3 Zn1 Ga1 Cu3 Si1'
_cell_volume   146.24659766
_cell_formula_units_Z   1
loop_
 _symmetry_equiv_pos_site_id
 _symmetry_equiv_pos_as_xyz
  1  'x, y, z'
loop_
 _atom_site_type_symbol
 _atom_site_label
 _atom_site_symmetry_multiplicity
 _atom_site_fract_x
 _atom_site_fract_y
 _atom_site_fract_z
 _atom_site_occupancy
  Zr  Zr0  1  0.005778  0.586868  0.500000  1
  Zr  Zr1  1  0.415286  0.414433  0.500000  1
  Zr  Zr2  1  0.585739  0.997159  0.500000  1
  Zn  Zn3  1  0.229940  0.996167  0.000000  1
  Ga  Ga4  1  0.673636  0.337763  0.000000  1
  Cu  Cu5  1  0.996241  0.998944  0.500000  1
  Cu  Cu6  1  0.751166  0.760107  0.000000  1
  Cu  Cu7  1  0.006051  0.247712  0.000000  1
  Si  Si8  1  0.336163  0.660847  0.000000  1
