# generated using pymatgen
data_Zr10NiSn2Bi5
_symmetry_space_group_name_H-M   'P 1'
_cell_length_a   8.89834656
_cell_length_b   8.90940958
_cell_length_c   5.95032800
_cell_angle_alpha   89.98981341
_cell_angle_beta   90.02040495
_cell_angle_gamma   119.95893265
_symmetry_Int_Tables_number   1
_chemical_formula_structural   Zr10NiSn2Bi5
_chemical_formula_sum   'Zr10 Ni1 Sn2 Bi5'
_cell_volume   408.70440889
_cell_formula_units_Z   1
loop_
 _symmetry_equiv_pos_site_id
 _symmetry_equiv_pos_as_xyz
  1  'x, y, z'
loop_
 _atom_site_type_symbol
 _atom_site_label
 _atom_site_symmetry_multiplicity
 _atom_site_fract_x
 _atom_site_fract_y
 _atom_site_fract_z
 _atom_site_occupancy
  Zr  Zr0  1  0.334340  0.670517  0.998462  1
  Zr  Zr1  1  0.663369  0.329456  0.501825  1
  Zr  Zr2  1  0.663824  0.329483  0.998462  1
  Zr  Zr3  1  0.333912  0.670544  0.501825  1
  Zr  Zr4  1  0.266108  0.000000  0.228839  1
  Zr  Zr5  1  0.268877  0.262669  0.770159  1
  Zr  Zr6  1  0.006209  0.737331  0.770159  1
  Zr  Zr7  1  0.999412  0.264616  0.229778  1
  Zr  Zr8  1  0.734796  0.735384  0.229778  1
  Zr  Zr9  1  0.730407  0.000000  0.769474  1
  Ni  Ni10  1  0.999491  0.000000  0.999034  1
  Sn  Sn11  1  0.999639  0.000000  0.500988  1
  Sn  Sn12  1  0.387314  0.000000  0.746706  1
  Bi  Bi13  1  0.611327  0.000000  0.254531  1
  Bi  Bi14  1  0.613751  0.612988  0.745333  1
  Bi  Bi15  1  0.000762  0.387012  0.745333  1
  Bi  Bi16  1  0.998951  0.611441  0.254658  1
  Bi  Bi17  1  0.387510  0.388559  0.254658  1
