# generated using pymatgen
data_Th3Zn4InRh8
_symmetry_space_group_name_H-M   'P 1'
_cell_length_a   6.16212519
_cell_length_b   6.16186100
_cell_length_c   7.39953700
_cell_angle_alpha   89.99979543
_cell_angle_beta   90.01427251
_cell_angle_gamma   89.99994426
_symmetry_Int_Tables_number   1
_chemical_formula_structural   Th3Zn4InRh8
_chemical_formula_sum   'Th3 Zn4 In1 Rh8'
_cell_volume   280.96158691
_cell_formula_units_Z   1
loop_
 _symmetry_equiv_pos_site_id
 _symmetry_equiv_pos_as_xyz
  1  'x, y, z'
loop_
 _atom_site_type_symbol
 _atom_site_label
 _atom_site_symmetry_multiplicity
 _atom_site_fract_x
 _atom_site_fract_y
 _atom_site_fract_z
 _atom_site_occupancy
  Th  Th0  1  0.750042  0.250007  0.999910  1
  Th  Th1  1  0.249943  0.750000  0.999929  1
  Th  Th2  1  0.250034  0.750004  0.500149  1
  Zn  Zn3  1  0.250049  0.249990  0.000071  1
  Zn  Zn4  1  0.749932  0.750005  0.000077  1
  Zn  Zn5  1  0.750006  0.750004  0.499945  1
  Zn  Zn6  1  0.250009  0.249989  0.500014  1
  In  In7  1  0.750016  0.249996  0.500058  1
  Rh  Rh8  1  0.500109  0.000120  0.256413  1
  Rh  Rh9  1  0.500074  0.499922  0.256411  1
  Rh  Rh10  1  0.999788  0.000095  0.256459  1
  Rh  Rh11  1  0.999811  0.499936  0.256455  1
  Rh  Rh12  1  0.999917  0.000043  0.743517  1
  Rh  Rh13  1  0.999902  0.499903  0.743480  1
  Rh  Rh14  1  0.500182  0.000049  0.743551  1
  Rh  Rh15  1  0.500186  0.499933  0.743556  1
