# generated using pymatgen
data_Er12GaFe4Pb
_symmetry_space_group_name_H-M   'P 1'
_cell_length_a   8.30994196
_cell_length_b   8.30994050
_cell_length_c   8.30994200
_cell_angle_alpha   110.12419667
_cell_angle_beta   111.41153881
_cell_angle_gamma   106.91061607
_symmetry_Int_Tables_number   1
_chemical_formula_structural   Er12GaFe4Pb
_chemical_formula_sum   'Er12 Ga1 Fe4 Pb1'
_cell_volume   441.02895258
_cell_formula_units_Z   1
loop_
 _symmetry_equiv_pos_site_id
 _symmetry_equiv_pos_as_xyz
  1  'x, y, z'
loop_
 _atom_site_type_symbol
 _atom_site_label
 _atom_site_symmetry_multiplicity
 _atom_site_fract_x
 _atom_site_fract_y
 _atom_site_fract_z
 _atom_site_occupancy
  Er  Er0  1  0.285048  0.184977  0.470025  1
  Er  Er1  1  0.714952  0.815023  0.529975  1
  Er  Er2  1  0.285048  0.815023  0.100072  1
  Er  Er3  1  0.714952  0.184977  0.899928  1
  Er  Er4  1  0.613056  0.311894  0.301162  1
  Er  Er5  1  0.386944  0.688106  0.698838  1
  Er  Er6  1  0.010733  0.311894  0.698838  1
  Er  Er7  1  0.989267  0.688106  0.301162  1
  Er  Er8  1  0.223712  0.433838  0.210126  1
  Er  Er9  1  0.776288  0.566162  0.789874  1
  Er  Er10  1  0.223712  0.013587  0.789874  1
  Er  Er11  1  0.776288  0.986413  0.210126  1
  Ga  Ga12  1  0.000000  0.000000  0.000000  1
  Fe  Fe13  1  0.000000  0.385155  0.385155  1
  Fe  Fe14  1  0.000000  0.614845  0.614845  1
  Fe  Fe15  1  0.391896  0.891896  0.500000  1
  Fe  Fe16  1  0.608104  0.108104  0.500000  1
  Pb  Pb17  1  0.500000  0.500000  0.000000  1
