# generated using pymatgen
data_Pr20Ir9Ru2Rh
_symmetry_space_group_name_H-M   'P 1'
_cell_length_a   11.32586600
_cell_length_b   11.32586600
_cell_length_c   6.68923100
_cell_angle_alpha   90.00000000
_cell_angle_beta   90.00000000
_cell_angle_gamma   90.00000000
_symmetry_Int_Tables_number   1
_chemical_formula_structural   Pr20Ir9Ru2Rh
_chemical_formula_sum   'Pr20 Ir9 Ru2 Rh1'
_cell_volume   858.06271629
_cell_formula_units_Z   1
loop_
 _symmetry_equiv_pos_site_id
 _symmetry_equiv_pos_as_xyz
  1  'x, y, z'
loop_
 _atom_site_type_symbol
 _atom_site_label
 _atom_site_symmetry_multiplicity
 _atom_site_fract_x
 _atom_site_fract_y
 _atom_site_fract_z
 _atom_site_occupancy
  Pr  Pr0  1  0.294087  0.087834  0.386642  1
  Pr  Pr1  1  0.293950  0.912060  0.886647  1
  Pr  Pr2  1  0.706050  0.087940  0.886647  1
  Pr  Pr3  1  0.705913  0.912166  0.386642  1
  Pr  Pr4  1  0.587940  0.793950  0.886647  1
  Pr  Pr5  1  0.587834  0.205913  0.386642  1
  Pr  Pr6  1  0.412166  0.794087  0.386642  1
  Pr  Pr7  1  0.412060  0.206050  0.886647  1
  Pr  Pr8  1  0.208981  0.409347  0.615576  1
  Pr  Pr9  1  0.209222  0.590871  0.117818  1
  Pr  Pr10  1  0.790778  0.409129  0.117818  1
  Pr  Pr11  1  0.791019  0.590653  0.615576  1
  Pr  Pr12  1  0.909129  0.709222  0.117818  1
  Pr  Pr13  1  0.909347  0.291019  0.615576  1
  Pr  Pr14  1  0.090653  0.708981  0.615576  1
  Pr  Pr15  1  0.090871  0.290778  0.117818  1
  Pr  Pr16  1  0.000000  0.000000  0.494089  1
  Pr  Pr17  1  0.000000  0.000000  0.994047  1
  Pr  Pr18  1  0.500000  0.500000  0.994047  1
  Pr  Pr19  1  0.500000  0.500000  0.494089  1
  Ir  Ir20  1  0.847836  0.154581  0.248876  1
  Ir  Ir21  1  0.848128  0.845135  0.748803  1
  Ir  Ir22  1  0.151872  0.154865  0.748803  1
  Ir  Ir23  1  0.152164  0.845419  0.248876  1
  Ir  Ir24  1  0.654865  0.348128  0.748803  1
  Ir  Ir25  1  0.654581  0.652164  0.248876  1
  Ir  Ir26  1  0.345419  0.347836  0.248876  1
  Ir  Ir27  1  0.345135  0.651872  0.748803  1
  Ir  Ir28  1  0.000000  0.500000  0.380120  1
  Ru  Ru29  1  0.500000  0.000000  0.121877  1
  Ru  Ru30  1  0.500000  0.000000  0.622008  1
  Rh  Rh31  1  0.000000  0.500000  0.882285  1
