# generated using pymatgen
data_Th2Al16RuPt8
_symmetry_space_group_name_H-M   'P 1'
_cell_length_a   11.16151478
_cell_length_b   11.16151651
_cell_length_c   11.16151709
_cell_angle_alpha   158.49952652
_cell_angle_beta   115.92505218
_cell_angle_gamma   68.43173041
_symmetry_Int_Tables_number   1
_chemical_formula_structural   Th2Al16RuPt8
_chemical_formula_sum   'Th2 Al16 Ru1 Pt8'
_cell_volume   455.09685913
_cell_formula_units_Z   1
loop_
 _symmetry_equiv_pos_site_id
 _symmetry_equiv_pos_as_xyz
  1  'x, y, z'
loop_
 _atom_site_type_symbol
 _atom_site_label
 _atom_site_symmetry_multiplicity
 _atom_site_fract_x
 _atom_site_fract_y
 _atom_site_fract_z
 _atom_site_occupancy
  Th  Th0  1  0.230945  0.229292  0.001654  1
  Th  Th1  1  0.772362  0.770708  0.001654  1
  Al  Al2  1  0.276718  0.392108  0.884610  1
  Al  Al3  1  0.091529  0.926318  0.165212  1
  Al  Al4  1  0.502643  0.200005  0.302638  1
  Al  Al5  1  0.238893  0.073682  0.165212  1
  Al  Al6  1  0.909606  0.417427  0.492179  1
  Al  Al7  1  0.726721  0.601514  0.125207  1
  Al  Al8  1  0.902854  0.208296  0.694558  1
  Al  Al9  1  0.486264  0.791704  0.694558  1
  Al  Al10  1  0.393363  0.000000  0.393363  1
  Al  Al11  1  0.624686  0.000000  0.624686  1
  Al  Al12  1  0.492503  0.607892  0.884610  1
  Al  Al13  1  0.102633  0.799995  0.302638  1
  Al  Al14  1  0.901113  0.083198  0.817914  1
  Al  Al15  1  0.734716  0.916802  0.817914  1
  Al  Al16  1  0.523693  0.398486  0.125207  1
  Al  Al17  1  0.074751  0.582573  0.492179  1
  Ru  Ru18  1  0.773684  0.500000  0.273684  1
  Pt  Pt19  1  0.024259  0.344033  0.680226  1
  Pt  Pt20  1  0.633371  0.129411  0.503960  1
  Pt  Pt21  1  0.261448  0.500000  0.761448  1
  Pt  Pt22  1  0.374548  0.870589  0.503960  1
  Pt  Pt23  1  0.981243  0.000000  0.981243  1
  Pt  Pt24  1  0.649606  0.334974  0.314631  1
  Pt  Pt25  1  0.336192  0.655967  0.680226  1
  Pt  Pt26  1  0.979657  0.665026  0.314631  1
