# generated using pymatgen
data_La3Th(AuBr6)4
_symmetry_space_group_name_H-M   'P 1'
_cell_length_a   8.38784142
_cell_length_b   10.63468398
_cell_length_c   15.33466900
_cell_angle_alpha   103.20444736
_cell_angle_beta   96.13218433
_cell_angle_gamma   112.41468701
_symmetry_Int_Tables_number   1
_chemical_formula_structural   La3Th(AuBr6)4
_chemical_formula_sum   'La3 Th1 Au4 Br24'
_cell_volume   1202.18726825
_cell_formula_units_Z   1
loop_
 _symmetry_equiv_pos_site_id
 _symmetry_equiv_pos_as_xyz
  1  'x, y, z'
loop_
 _atom_site_type_symbol
 _atom_site_label
 _atom_site_symmetry_multiplicity
 _atom_site_fract_x
 _atom_site_fract_y
 _atom_site_fract_z
 _atom_site_occupancy
  La  La0  1  0.578701  0.922629  0.623096  1
  La  La1  1  0.424782  0.081324  0.377649  1
  La  La2  1  0.975605  0.308144  0.870895  1
  Th  Th3  1  0.022647  0.687529  0.127753  1
  Au  Au4  1  0.293551  0.631892  0.762476  1
  Au  Au5  1  0.706316  0.368444  0.236457  1
  Au  Au6  1  0.499523  0.499482  0.499557  1
  Au  Au7  1  0.000368  0.000459  0.001270  1
  Br  Br8  1  0.607714  0.732181  0.751103  1
  Br  Br9  1  0.390033  0.267606  0.249947  1
  Br  Br10  1  0.274386  0.847000  0.735257  1
  Br  Br11  1  0.725566  0.151359  0.265756  1
  Br  Br12  1  0.977362  0.533224  0.770224  1
  Br  Br13  1  0.026558  0.472068  0.226512  1
  Br  Br14  1  0.313446  0.415086  0.788005  1
  Br  Br15  1  0.693576  0.591405  0.209165  1
  Br  Br16  1  0.692082  0.372388  0.508179  1
  Br  Br17  1  0.308449  0.627959  0.491985  1
  Br  Br18  1  0.761006  0.726788  0.526496  1
  Br  Br19  1  0.238032  0.271797  0.473363  1
  Br  Br20  1  0.783951  0.108165  0.979138  1
  Br  Br21  1  0.212409  0.886656  0.023842  1
  Br  Br22  1  0.769796  0.788495  0.035764  1
  Br  Br23  1  0.234476  0.208805  0.968012  1
  Br  Br24  1  0.617294  0.197139  0.747036  1
  Br  Br25  1  0.374706  0.801097  0.250288  1
  Br  Br26  1  0.951296  0.052780  0.727853  1
  Br  Br27  1  0.046473  0.939021  0.267380  1
  Br  Br28  1  0.728711  0.050293  0.480309  1
  Br  Br29  1  0.270083  0.948598  0.517782  1
  Br  Br30  1  0.764980  0.441772  0.981625  1
  Br  Br31  1  0.236124  0.568417  0.025826  1
