# generated using pymatgen
data_BeZnP4
_symmetry_space_group_name_H-M   'P 1'
_cell_length_a   7.02968200
_cell_length_b   7.37493834
_cell_length_c   8.61211034
_cell_angle_alpha   77.63987262
_cell_angle_beta   90.00000000
_cell_angle_gamma   90.00000000
_symmetry_Int_Tables_number   1
_chemical_formula_structural   BeZnP4
_chemical_formula_sum   'Be4 Zn4 P16'
_cell_volume   436.13290958
_cell_formula_units_Z   4
loop_
 _symmetry_equiv_pos_site_id
 _symmetry_equiv_pos_as_xyz
  1  'x, y, z'
loop_
 _atom_site_type_symbol
 _atom_site_label
 _atom_site_symmetry_multiplicity
 _atom_site_fract_x
 _atom_site_fract_y
 _atom_site_fract_z
 _atom_site_occupancy
  Be  Be0  1  0.252188  0.605777  0.079137  1
  Be  Be1  1  0.752188  0.894223  0.920863  1
  Be  Be2  1  0.747812  0.394223  0.920863  1
  Be  Be3  1  0.247812  0.105777  0.079137  1
  Zn  Zn4  1  0.904234  0.777709  0.386338  1
  Zn  Zn5  1  0.404234  0.722291  0.613662  1
  Zn  Zn6  1  0.095766  0.222291  0.613662  1
  Zn  Zn7  1  0.595766  0.277709  0.386338  1
  P  P8  1  0.563514  0.785201  0.366173  1
  P  P9  1  0.063514  0.714799  0.633827  1
  P  P10  1  0.436486  0.214799  0.633827  1
  P  P11  1  0.936486  0.285201  0.366173  1
  P  P12  1  0.991356  0.565752  0.221015  1
  P  P13  1  0.491356  0.934248  0.778985  1
  P  P14  1  0.008644  0.434248  0.778985  1
  P  P15  1  0.508644  0.065752  0.221015  1
  P  P16  1  0.505239  0.573149  0.226441  1
  P  P17  1  0.005239  0.926851  0.773559  1
  P  P18  1  0.494761  0.426851  0.773559  1
  P  P19  1  0.994761  0.073149  0.226441  1
  P  P20  1  0.744584  0.610656  0.055882  1
  P  P21  1  0.244584  0.889344  0.944118  1
  P  P22  1  0.255416  0.389344  0.944118  1
  P  P23  1  0.755416  0.110656  0.055882  1
