# generated using pymatgen
data_Ho3Sc3NbBi2
_symmetry_space_group_name_H-M   'P 1'
_cell_length_a   7.95869200
_cell_length_b   7.95869247
_cell_length_c   4.37885200
_cell_angle_alpha   90.00000000
_cell_angle_beta   90.00000000
_cell_angle_gamma   119.99999803
_symmetry_Int_Tables_number   1
_chemical_formula_structural   Ho3Sc3NbBi2
_chemical_formula_sum   'Ho3 Sc3 Nb1 Bi2'
_cell_volume   240.20073323
_cell_formula_units_Z   1
loop_
 _symmetry_equiv_pos_site_id
 _symmetry_equiv_pos_as_xyz
  1  'x, y, z'
loop_
 _atom_site_type_symbol
 _atom_site_label
 _atom_site_symmetry_multiplicity
 _atom_site_fract_x
 _atom_site_fract_y
 _atom_site_fract_z
 _atom_site_occupancy
  Ho  Ho0  1  0.602377  0.000000  0.500000  1
  Ho  Ho1  1  0.000000  0.602377  0.500000  1
  Ho  Ho2  1  0.397623  0.397623  0.500000  1
  Sc  Sc3  1  0.232033  0.000000  0.000000  1
  Sc  Sc4  1  0.000000  0.232033  0.000000  1
  Sc  Sc5  1  0.767967  0.767967  0.000000  1
  Nb  Nb6  1  0.000000  0.000000  0.500000  1
  Bi  Bi7  1  0.333333  0.666667  0.000000  1
  Bi  Bi8  1  0.666667  0.333333  0.000000  1
