# generated using pymatgen
data_Pr(PPt4)2
_symmetry_space_group_name_H-M   'P 1'
_cell_length_a   6.37683475
_cell_length_b   6.37683473
_cell_length_c   9.43927283
_cell_angle_alpha   54.56497021
_cell_angle_beta   54.56497128
_cell_angle_gamma   37.50231948
_symmetry_Int_Tables_number   1
_chemical_formula_structural   Pr(PPt4)2
_chemical_formula_sum   'Pr1 P2 Pt8'
_cell_volume   184.75643652
_cell_formula_units_Z   1
loop_
 _symmetry_equiv_pos_site_id
 _symmetry_equiv_pos_as_xyz
  1  'x, y, z'
loop_
 _atom_site_type_symbol
 _atom_site_label
 _atom_site_symmetry_multiplicity
 _atom_site_fract_x
 _atom_site_fract_y
 _atom_site_fract_z
 _atom_site_occupancy
  Pr  Pr0  1  0.500000  0.500000  0.500000  1
  P  P1  1  0.058442  0.058442  0.711588  1
  P  P2  1  0.941558  0.941558  0.288412  1
  Pt  Pt3  1  0.228462  0.228462  0.412447  1
  Pt  Pt4  1  0.821954  0.821954  0.846080  1
  Pt  Pt5  1  0.178046  0.178046  0.153920  1
  Pt  Pt6  1  0.165396  0.165396  0.849044  1
  Pt  Pt7  1  0.474485  0.474485  0.870600  1
  Pt  Pt8  1  0.525515  0.525515  0.129400  1
  Pt  Pt9  1  0.771538  0.771538  0.587553  1
  Pt  Pt10  1  0.834604  0.834604  0.150956  1
