# generated using pymatgen
data_TbY7Cd2IrPd
_symmetry_space_group_name_H-M   'P 1'
_cell_length_a   9.70984873
_cell_length_b   9.70984872
_cell_length_c   9.68741800
_cell_angle_alpha   60.07638813
_cell_angle_beta   60.07638815
_cell_angle_gamma   60.23784852
_symmetry_Int_Tables_number   1
_chemical_formula_structural   TbY7Cd2IrPd
_chemical_formula_sum   'Tb2 Y14 Cd4 Ir2 Pd2'
_cell_volume   647.73122858
_cell_formula_units_Z   2
loop_
 _symmetry_equiv_pos_site_id
 _symmetry_equiv_pos_as_xyz
  1  'x, y, z'
loop_
 _atom_site_type_symbol
 _atom_site_label
 _atom_site_symmetry_multiplicity
 _atom_site_fract_x
 _atom_site_fract_y
 _atom_site_fract_z
 _atom_site_occupancy
  Tb  Tb0  1  0.351440  0.351440  0.345288  1
  Tb  Tb1  1  0.351440  0.351440  0.951832  1
  Y  Y2  1  0.359124  0.939556  0.350660  1
  Y  Y3  1  0.939556  0.359124  0.350660  1
  Y  Y4  1  0.806053  0.190187  0.189370  1
  Y  Y5  1  0.190187  0.806053  0.814390  1
  Y  Y6  1  0.190187  0.806053  0.189370  1
  Y  Y7  1  0.806053  0.190187  0.814390  1
  Y  Y8  1  0.190912  0.190912  0.809088  1
  Y  Y9  1  0.811606  0.811606  0.188394  1
  Y  Y10  1  0.937203  0.566214  0.561654  1
  Y  Y11  1  0.566214  0.937203  0.934930  1
  Y  Y12  1  0.566214  0.937203  0.561654  1
  Y  Y13  1  0.937203  0.566214  0.934930  1
  Y  Y14  1  0.563885  0.563885  0.936115  1
  Y  Y15  1  0.936066  0.936066  0.563934  1
  Cd  Cd16  1  0.581240  0.581240  0.582419  1
  Cd  Cd17  1  0.581240  0.581240  0.255101  1
  Cd  Cd18  1  0.580538  0.256056  0.581704  1
  Cd  Cd19  1  0.256056  0.580538  0.581704  1
  Ir  Ir20  1  0.141163  0.571290  0.143774  1
  Ir  Ir21  1  0.571290  0.141163  0.143774  1
  Pd  Pd22  1  0.142565  0.142565  0.146145  1
  Pd  Pd23  1  0.142565  0.142565  0.568725  1
