# generated using pymatgen
data_Eu6Al24Ru3Pt5
_symmetry_space_group_name_H-M   'P 1'
_cell_length_a   8.94313500
_cell_length_b   8.96786342
_cell_length_c   9.67874448
_cell_angle_alpha   90.13715099
_cell_angle_beta   90.00000000
_cell_angle_gamma   119.90882252
_symmetry_Int_Tables_number   1
_chemical_formula_structural   Eu6Al24Ru3Pt5
_chemical_formula_sum   'Eu6 Al24 Ru3 Pt5'
_cell_volume   672.86053116
_cell_formula_units_Z   1
loop_
 _symmetry_equiv_pos_site_id
 _symmetry_equiv_pos_as_xyz
  1  'x, y, z'
loop_
 _atom_site_type_symbol
 _atom_site_label
 _atom_site_symmetry_multiplicity
 _atom_site_fract_x
 _atom_site_fract_y
 _atom_site_fract_z
 _atom_site_occupancy
  Eu  Eu0  1  0.190443  0.380885  0.250520  1
  Eu  Eu1  1  0.809557  0.619115  0.749480  1
  Eu  Eu2  1  0.618513  0.809478  0.249855  1
  Eu  Eu3  1  0.381487  0.190522  0.750145  1
  Eu  Eu4  1  0.190966  0.809478  0.249855  1
  Eu  Eu5  1  0.809034  0.190522  0.750145  1
  Al  Al6  1  0.333553  0.667109  0.015269  1
  Al  Al7  1  0.666447  0.332891  0.984731  1
  Al  Al8  1  0.663677  0.327353  0.516325  1
  Al  Al9  1  0.336323  0.672647  0.483675  1
  Al  Al10  1  0.161094  0.322187  0.575959  1
  Al  Al11  1  0.838906  0.677813  0.424041  1
  Al  Al12  1  0.676845  0.843310  0.576745  1
  Al  Al13  1  0.839537  0.679075  0.077242  1
  Al  Al14  1  0.323155  0.156690  0.423255  1
  Al  Al15  1  0.160463  0.320925  0.922758  1
  Al  Al16  1  0.166467  0.843310  0.576745  1
  Al  Al17  1  0.321740  0.160960  0.079016  1
  Al  Al18  1  0.833533  0.156690  0.423255  1
  Al  Al19  1  0.678260  0.839040  0.920984  1
  Al  Al20  1  0.839218  0.160960  0.079016  1
  Al  Al21  1  0.160782  0.839040  0.920984  1
  Al  Al22  1  0.562211  0.124421  0.253359  1
  Al  Al23  1  0.437789  0.875579  0.746641  1
  Al  Al24  1  0.872315  0.435872  0.249559  1
  Al  Al25  1  0.127685  0.564128  0.750441  1
  Al  Al26  1  0.563556  0.435872  0.249559  1
  Al  Al27  1  0.436444  0.564128  0.750441  1
  Al  Al28  1  0.000745  0.001489  0.250130  1
  Al  Al29  1  0.999255  0.998511  0.749870  1
  Ru  Ru30  1  0.500000  0.000000  0.500000  1
  Ru  Ru31  1  0.000000  0.000000  0.000000  1
  Ru  Ru32  1  0.000000  0.000000  0.500000  1
  Pt  Pt33  1  0.500000  0.000000  0.000000  1
  Pt  Pt34  1  0.000000  0.500000  0.000000  1
  Pt  Pt35  1  0.500000  0.500000  0.000000  1
  Pt  Pt36  1  0.000000  0.500000  0.500000  1
  Pt  Pt37  1  0.500000  0.500000  0.500000  1
