# generated using pymatgen
data_Hf6Zn6O
_symmetry_space_group_name_H-M   'P 1'
_cell_length_a   8.47828732
_cell_length_b   8.47828707
_cell_length_c   8.47828700
_cell_angle_alpha   59.99999637
_cell_angle_beta   59.99999734
_cell_angle_gamma   59.99999501
_symmetry_Int_Tables_number   1
_chemical_formula_structural   Hf6Zn6O
_chemical_formula_sum   'Hf12 Zn12 O2'
_cell_volume   430.93257704
_cell_formula_units_Z   2
loop_
 _symmetry_equiv_pos_site_id
 _symmetry_equiv_pos_as_xyz
  1  'x, y, z'
loop_
 _atom_site_type_symbol
 _atom_site_label
 _atom_site_symmetry_multiplicity
 _atom_site_fract_x
 _atom_site_fract_y
 _atom_site_fract_z
 _atom_site_occupancy
  Hf  Hf0  1  0.193148  0.806852  0.193148  1
  Hf  Hf1  1  0.443148  0.056852  0.443148  1
  Hf  Hf2  1  0.443148  0.056852  0.056852  1
  Hf  Hf3  1  0.443148  0.443148  0.056852  1
  Hf  Hf4  1  0.193148  0.806852  0.806852  1
  Hf  Hf5  1  0.056852  0.443148  0.056852  1
  Hf  Hf6  1  0.806852  0.806852  0.193148  1
  Hf  Hf7  1  0.056852  0.443148  0.443148  1
  Hf  Hf8  1  0.193148  0.193148  0.806852  1
  Hf  Hf9  1  0.806852  0.193148  0.193148  1
  Hf  Hf10  1  0.806852  0.193148  0.806852  1
  Hf  Hf11  1  0.056852  0.056852  0.443148  1
  Zn  Zn12  1  0.832806  0.501582  0.832806  1
  Zn  Zn13  1  0.417194  0.417194  0.748418  1
  Zn  Zn14  1  0.748418  0.417194  0.417194  1
  Zn  Zn15  1  0.417194  0.417194  0.417194  1
  Zn  Zn16  1  0.832806  0.832806  0.501582  1
  Zn  Zn17  1  0.417194  0.748418  0.417194  1
  Zn  Zn18  1  0.832806  0.832806  0.832806  1
  Zn  Zn19  1  0.501582  0.832806  0.832806  1
  Zn  Zn20  1  0.625000  0.125000  0.625000  1
  Zn  Zn21  1  0.625000  0.625000  0.125000  1
  Zn  Zn22  1  0.125000  0.625000  0.625000  1
  Zn  Zn23  1  0.625000  0.625000  0.625000  1
  O  O24  1  0.000000  0.000000  0.000000  1
  O  O25  1  0.250000  0.250000  0.250000  1
