# generated using pymatgen
data_Ta12Al7Cu5C2
_symmetry_space_group_name_H-M   'P 1'
_cell_length_a   8.05519558
_cell_length_b   8.05519433
_cell_length_c   8.05519497
_cell_angle_alpha   60.39530858
_cell_angle_beta   60.39531356
_cell_angle_gamma   60.39531413
_symmetry_Int_Tables_number   1
_chemical_formula_structural   Ta12Al7Cu5C2
_chemical_formula_sum   'Ta12 Al7 Cu5 C2'
_cell_volume   372.88812472
_cell_formula_units_Z   1
loop_
 _symmetry_equiv_pos_site_id
 _symmetry_equiv_pos_as_xyz
  1  'x, y, z'
loop_
 _atom_site_type_symbol
 _atom_site_label
 _atom_site_symmetry_multiplicity
 _atom_site_fract_x
 _atom_site_fract_y
 _atom_site_fract_z
 _atom_site_occupancy
  Ta  Ta0  1  0.056469  0.056469  0.444436  1
  Ta  Ta1  1  0.442850  0.056759  0.442850  1
  Ta  Ta2  1  0.056759  0.442850  0.442850  1
  Ta  Ta3  1  0.442850  0.442850  0.056759  1
  Ta  Ta4  1  0.056469  0.444436  0.056469  1
  Ta  Ta5  1  0.444436  0.056469  0.056469  1
  Ta  Ta6  1  0.192135  0.192135  0.807819  1
  Ta  Ta7  1  0.807201  0.190842  0.807201  1
  Ta  Ta8  1  0.190842  0.807201  0.807201  1
  Ta  Ta9  1  0.807201  0.807201  0.190842  1
  Ta  Ta10  1  0.192135  0.807819  0.192135  1
  Ta  Ta11  1  0.807819  0.192135  0.192135  1
  Al  Al12  1  0.416207  0.416207  0.751679  1
  Al  Al13  1  0.416207  0.751679  0.416207  1
  Al  Al14  1  0.751679  0.416207  0.416207  1
  Al  Al15  1  0.415733  0.415733  0.415733  1
  Al  Al16  1  0.834758  0.834758  0.502132  1
  Al  Al17  1  0.834758  0.502132  0.834758  1
  Al  Al18  1  0.502132  0.834758  0.834758  1
  Cu  Cu19  1  0.831270  0.831270  0.831270  1
  Cu  Cu20  1  0.623678  0.623678  0.127934  1
  Cu  Cu21  1  0.623678  0.127934  0.623678  1
  Cu  Cu22  1  0.127934  0.623678  0.623678  1
  Cu  Cu23  1  0.625625  0.625625  0.625625  1
  C  C24  1  0.249566  0.249566  0.249566  1
  C  C25  1  0.999610  0.999610  0.999610  1
