# generated using pymatgen
data_Ce4Mn2B6Pb
_symmetry_space_group_name_H-M   'P 1'
_cell_length_a   5.30940083
_cell_length_b   5.30940250
_cell_length_c   8.44535200
_cell_angle_alpha   71.67911020
_cell_angle_beta   71.67910189
_cell_angle_gamma   59.99998677
_symmetry_Int_Tables_number   1
_chemical_formula_structural   Ce4Mn2B6Pb
_chemical_formula_sum   'Ce4 Mn2 B6 Pb1'
_cell_volume   192.11582013
_cell_formula_units_Z   1
loop_
 _symmetry_equiv_pos_site_id
 _symmetry_equiv_pos_as_xyz
  1  'x, y, z'
loop_
 _atom_site_type_symbol
 _atom_site_label
 _atom_site_symmetry_multiplicity
 _atom_site_fract_x
 _atom_site_fract_y
 _atom_site_fract_z
 _atom_site_occupancy
  Ce  Ce0  1  0.747119  0.747119  0.758643  1
  Ce  Ce1  1  0.252881  0.252881  0.241357  1
  Ce  Ce2  1  0.586154  0.586154  0.241537  1
  Ce  Ce3  1  0.413846  0.413846  0.758463  1
  Mn  Mn4  1  0.883053  0.883053  0.350841  1
  Mn  Mn5  1  0.116947  0.116947  0.649160  1
  B  B6  1  0.500000  0.167845  0.500000  1
  B  B7  1  0.832155  0.500000  0.500000  1
  B  B8  1  0.167845  0.832155  0.500000  1
  B  B9  1  0.167845  0.500000  0.500000  1
  B  B10  1  0.832155  0.167845  0.500000  1
  B  B11  1  0.500000  0.832155  0.500000  1
  Pb  Pb12  1  0.000000  0.000000  0.000000  1
