# generated using pymatgen
data_Zr6Al16Co5Cu2
_symmetry_space_group_name_H-M   'P 1'
_cell_length_a   8.52018427
_cell_length_b   8.57469614
_cell_length_c   8.52018483
_cell_angle_alpha   59.78813686
_cell_angle_beta   60.42374569
_cell_angle_gamma   59.78812940
_symmetry_Int_Tables_number   1
_chemical_formula_structural   Zr6Al16Co5Cu2
_chemical_formula_sum   'Zr6 Al16 Co5 Cu2'
_cell_volume   440.11482576
_cell_formula_units_Z   1
loop_
 _symmetry_equiv_pos_site_id
 _symmetry_equiv_pos_as_xyz
  1  'x, y, z'
loop_
 _atom_site_type_symbol
 _atom_site_label
 _atom_site_symmetry_multiplicity
 _atom_site_fract_x
 _atom_site_fract_y
 _atom_site_fract_z
 _atom_site_occupancy
  Zr  Zr0  1  0.700213  0.700213  0.299787  1
  Zr  Zr1  1  0.321782  0.678218  0.321782  1
  Zr  Zr2  1  0.700213  0.299787  0.299787  1
  Zr  Zr3  1  0.299787  0.299787  0.700213  1
  Zr  Zr4  1  0.678218  0.321782  0.678218  1
  Zr  Zr5  1  0.299787  0.700213  0.700213  1
  Al  Al6  1  0.892919  0.876649  0.353783  1
  Al  Al7  1  0.876649  0.353783  0.876649  1
  Al  Al8  1  0.353783  0.876649  0.892919  1
  Al  Al9  1  0.876649  0.892919  0.876649  1
  Al  Al10  1  0.107081  0.123351  0.646217  1
  Al  Al11  1  0.123351  0.646217  0.123351  1
  Al  Al12  1  0.646217  0.123351  0.107081  1
  Al  Al13  1  0.123351  0.107081  0.123351  1
  Al  Al14  1  0.663373  0.667599  0.001429  1
  Al  Al15  1  0.667599  0.001429  0.667599  1
  Al  Al16  1  0.001429  0.667599  0.663373  1
  Al  Al17  1  0.667599  0.663373  0.667599  1
  Al  Al18  1  0.336627  0.332401  0.998571  1
  Al  Al19  1  0.332401  0.998571  0.332401  1
  Al  Al20  1  0.998571  0.332401  0.336627  1
  Al  Al21  1  0.332401  0.336627  0.332401  1
  Co  Co22  1  0.000000  0.000000  0.000000  1
  Co  Co23  1  0.000000  0.000000  0.500000  1
  Co  Co24  1  0.000000  0.500000  0.500000  1
  Co  Co25  1  0.500000  0.500000  0.000000  1
  Co  Co26  1  0.500000  0.000000  0.000000  1
  Cu  Cu27  1  0.500000  0.000000  0.500000  1
  Cu  Cu28  1  0.000000  0.500000  0.000000  1
