# generated using pymatgen
data_Lu12In2CoTc2
_symmetry_space_group_name_H-M   'P 1'
_cell_length_a   8.24843660
_cell_length_b   8.24843776
_cell_length_c   8.24843743
_cell_angle_alpha   108.78710174
_cell_angle_beta   108.78711199
_cell_angle_gamma   110.84828824
_symmetry_Int_Tables_number   1
_chemical_formula_structural   Lu12In2CoTc2
_chemical_formula_sum   'Lu12 In2 Co1 Tc2'
_cell_volume   431.82165718
_cell_formula_units_Z   1
loop_
 _symmetry_equiv_pos_site_id
 _symmetry_equiv_pos_as_xyz
  1  'x, y, z'
loop_
 _atom_site_type_symbol
 _atom_site_label
 _atom_site_symmetry_multiplicity
 _atom_site_fract_x
 _atom_site_fract_y
 _atom_site_fract_z
 _atom_site_occupancy
  Lu  Lu0  1  0.309886  0.309886  0.611717  1
  Lu  Lu1  1  0.698169  0.698169  0.388283  1
  Lu  Lu2  1  0.698169  0.309886  0.000000  1
  Lu  Lu3  1  0.309886  0.698169  0.000000  1
  Lu  Lu4  1  0.192949  0.430973  0.238023  1
  Lu  Lu5  1  0.810266  0.571009  0.760743  1
  Lu  Lu6  1  0.192949  0.954925  0.761977  1
  Lu  Lu7  1  0.954925  0.192949  0.761977  1
  Lu  Lu8  1  0.810266  0.049523  0.239257  1
  Lu  Lu9  1  0.049523  0.810266  0.239257  1
  Lu  Lu10  1  0.430973  0.192949  0.238023  1
  Lu  Lu11  1  0.571009  0.810266  0.760743  1
  In  In12  1  0.998443  0.498443  0.500000  1
  In  In13  1  0.498443  0.998443  0.500000  1
  Co  Co14  1  0.361459  0.361459  0.000000  1
  Tc  Tc15  1  0.612809  0.612809  0.000000  1
  Tc  Tc16  1  0.999876  0.999876  0.000000  1
