# generated using pymatgen
data_Yb(PtO3)2
_symmetry_space_group_name_H-M   'P 1'
_cell_length_a   5.28105101
_cell_length_b   5.28188388
_cell_length_c   9.76571101
_cell_angle_alpha   90.00227291
_cell_angle_beta   89.99726598
_cell_angle_gamma   120.00450400
_symmetry_Int_Tables_number   1
_chemical_formula_structural   Yb(PtO3)2
_chemical_formula_sum   'Yb2 Pt4 O12'
_cell_volume   235.89785865
_cell_formula_units_Z   2
loop_
 _symmetry_equiv_pos_site_id
 _symmetry_equiv_pos_as_xyz
  1  'x, y, z'
loop_
 _atom_site_type_symbol
 _atom_site_label
 _atom_site_symmetry_multiplicity
 _atom_site_fract_x
 _atom_site_fract_y
 _atom_site_fract_z
 _atom_site_occupancy
  Yb  Yb0  1  0.999999  0.999999  0.000150  1
  Yb  Yb1  1  0.000004  0.000004  0.499849  1
  Pt  Pt2  1  0.666947  0.333470  0.250023  1
  Pt  Pt3  1  0.333026  0.666504  0.749975  1
  Pt  Pt4  1  0.333194  0.666597  0.250024  1
  Pt  Pt5  1  0.666831  0.333422  0.749974  1
  O  O6  1  0.360914  0.000190  0.140267  1
  O  O7  1  0.639293  0.639053  0.140278  1
  O  O8  1  0.999738  0.360734  0.140314  1
  O  O9  1  0.999737  0.638995  0.359724  1
  O  O10  1  0.639280  0.000245  0.359762  1
  O  O11  1  0.360917  0.360734  0.359766  1
  O  O12  1  0.638991  0.639192  0.640086  1
  O  O13  1  0.360796  0.999737  0.640090  1
  O  O14  1  0.000281  0.361099  0.640137  1
  O  O15  1  0.000282  0.639188  0.859829  1
  O  O16  1  0.360776  0.361038  0.859871  1
  O  O17  1  0.638995  0.999796  0.859881  1
