# generated using pymatgen
data_Sr2V5FeF20
_symmetry_space_group_name_H-M   'P 1'
_cell_length_a   10.61958469
_cell_length_b   9.15002040
_cell_length_c   7.69049703
_cell_angle_alpha   77.61557330
_cell_angle_beta   57.32320110
_cell_angle_gamma   44.98929604
_symmetry_Int_Tables_number   1
_chemical_formula_structural   Sr2V5FeF20
_chemical_formula_sum   'Sr2 V5 Fe1 F20'
_cell_volume   426.74254473
_cell_formula_units_Z   1
loop_
 _symmetry_equiv_pos_site_id
 _symmetry_equiv_pos_as_xyz
  1  'x, y, z'
loop_
 _atom_site_type_symbol
 _atom_site_label
 _atom_site_symmetry_multiplicity
 _atom_site_fract_x
 _atom_site_fract_y
 _atom_site_fract_z
 _atom_site_occupancy
  Sr  Sr0  1  0.005424  0.994589  0.994566  1
  Sr  Sr1  1  0.255481  0.244577  0.244509  1
  V  V2  1  0.755060  0.744721  0.744949  1
  V  V3  1  0.263222  0.249926  0.736621  1
  V  V4  1  0.750108  0.736738  0.249939  1
  V  V5  1  0.513008  0.499666  0.987099  1
  V  V6  1  0.000227  0.987112  0.499786  1
  Fe  Fe7  1  0.505342  0.494685  0.494502  1
  F  F8  1  0.152551  0.130051  0.844366  1
  F  F9  1  0.873096  0.844329  0.130054  1
  F  F10  1  0.405194  0.376392  0.097974  1
  F  F11  1  0.120447  0.097883  0.376427  1
  F  F12  1  0.804034  0.201489  0.785520  1
  F  F13  1  0.209818  0.784730  0.200632  1
  F  F14  1  0.464333  0.041108  0.445026  1
  F  F15  1  0.049518  0.445007  0.041127  1
  F  F16  1  0.856090  0.635168  0.438732  1
  F  F17  1  0.070030  0.438676  0.635223  1
  F  F18  1  0.812572  0.178573  0.392715  1
  F  F19  1  0.616647  0.392443  0.178972  1
  F  F20  1  0.628609  0.622430  0.371283  1
  F  F21  1  0.377376  0.371611  0.622696  1
  F  F22  1  0.879600  0.873533  0.620653  1
  F  F23  1  0.626207  0.620673  0.873601  1
  F  F24  1  0.449898  0.058375  0.844235  1
  F  F25  1  0.647481  0.844268  0.058346  1
  F  F26  1  0.404294  0.604416  0.800824  1
  F  F27  1  0.189948  0.801216  0.604007  1
