# generated using pymatgen
data_HoLuSc3P12Pd3Ru16
_symmetry_space_group_name_H-M   'P 1'
_cell_length_a   12.44809100
_cell_length_b   12.44809122
_cell_length_c   3.94740300
_cell_angle_alpha   90.00000000
_cell_angle_beta   90.00000000
_cell_angle_gamma   120.00000207
_symmetry_Int_Tables_number   1
_chemical_formula_structural   HoLuSc3P12Pd3Ru16
_chemical_formula_sum   'Ho1 Lu1 Sc3 P12 Pd3 Ru16'
_cell_volume   529.72150731
_cell_formula_units_Z   1
loop_
 _symmetry_equiv_pos_site_id
 _symmetry_equiv_pos_as_xyz
  1  'x, y, z'
loop_
 _atom_site_type_symbol
 _atom_site_label
 _atom_site_symmetry_multiplicity
 _atom_site_fract_x
 _atom_site_fract_y
 _atom_site_fract_z
 _atom_site_occupancy
  Ho  Ho0  1  0.333333  0.666667  0.000000  1
  Lu  Lu1  1  0.666667  0.333333  0.000000  1
  Sc  Sc2  1  0.000035  0.180040  0.500000  1
  Sc  Sc3  1  0.819960  0.819995  0.500000  1
  Sc  Sc4  1  0.180005  0.999965  0.500000  1
  P  P5  1  0.999253  0.817769  0.000000  1
  P  P6  1  0.182231  0.181484  0.000000  1
  P  P7  1  0.818516  0.000747  0.000000  1
  P  P8  1  0.698170  0.178204  0.500000  1
  P  P9  1  0.821796  0.519966  0.500000  1
  P  P10  1  0.480034  0.301830  0.500000  1
  P  P11  1  0.176952  0.698268  0.500000  1
  P  P12  1  0.521317  0.823048  0.500000  1
  P  P13  1  0.301732  0.478683  0.500000  1
  P  P14  1  0.000209  0.365536  0.000000  1
  P  P15  1  0.634464  0.634673  0.000000  1
  P  P16  1  0.365327  0.999791  0.000000  1
  Pd  Pd17  1  0.000142  0.554893  0.000000  1
  Pd  Pd18  1  0.445107  0.445248  0.000000  1
  Pd  Pd19  1  0.554752  0.999858  0.000000  1
  Ru  Ru20  1  0.999380  0.718022  0.500000  1
  Ru  Ru21  1  0.281978  0.281358  0.500000  1
  Ru  Ru22  1  0.718642  0.000620  0.500000  1
  Ru  Ru23  1  0.810446  0.186001  0.000000  1
  Ru  Ru24  1  0.813999  0.624445  0.000000  1
  Ru  Ru25  1  0.375555  0.189554  0.000000  1
  Ru  Ru26  1  0.184838  0.810805  0.000000  1
  Ru  Ru27  1  0.625967  0.815162  0.000000  1
  Ru  Ru28  1  0.189195  0.374033  0.000000  1
  Ru  Ru29  1  0.875156  0.368268  0.500000  1
  Ru  Ru30  1  0.631732  0.506888  0.500000  1
  Ru  Ru31  1  0.493112  0.124844  0.500000  1
  Ru  Ru32  1  0.367789  0.876276  0.500000  1
  Ru  Ru33  1  0.508487  0.632211  0.500000  1
  Ru  Ru34  1  0.123724  0.491513  0.500000  1
  Ru  Ru35  1  0.000000  0.000000  0.000000  1
