# generated using pymatgen
data_Dy5Ho(Tm2Si3)2
_symmetry_space_group_name_H-M   'P 1'
_cell_length_a   8.40120415
_cell_length_b   8.40397315
_cell_length_c   6.28642400
_cell_angle_alpha   90.00000000
_cell_angle_beta   90.00000000
_cell_angle_gamma   120.01090843
_symmetry_Int_Tables_number   1
_chemical_formula_structural   Dy5Ho(Tm2Si3)2
_chemical_formula_sum   'Dy5 Ho1 Tm4 Si6'
_cell_volume   384.33748824
_cell_formula_units_Z   1
loop_
 _symmetry_equiv_pos_site_id
 _symmetry_equiv_pos_as_xyz
  1  'x, y, z'
loop_
 _atom_site_type_symbol
 _atom_site_label
 _atom_site_symmetry_multiplicity
 _atom_site_fract_x
 _atom_site_fract_y
 _atom_site_fract_z
 _atom_site_occupancy
  Dy  Dy0  1  0.756378  0.756287  0.250000  1
  Dy  Dy1  1  0.243622  0.999909  0.250000  1
  Dy  Dy2  1  0.000000  0.243835  0.250000  1
  Dy  Dy3  1  0.243691  0.243647  0.750000  1
  Dy  Dy4  1  0.756309  0.999956  0.750000  1
  Ho  Ho5  1  0.000000  0.756168  0.750000  1
  Tm  Tm6  1  0.666736  0.333412  0.500032  1
  Tm  Tm7  1  0.333264  0.666676  0.500032  1
  Tm  Tm8  1  0.333264  0.666676  0.999968  1
  Tm  Tm9  1  0.666736  0.333412  0.999968  1
  Si  Si10  1  0.394661  0.394637  0.250000  1
  Si  Si11  1  0.605339  0.999976  0.250000  1
  Si  Si12  1  0.000000  0.605313  0.250000  1
  Si  Si13  1  0.605641  0.605445  0.750000  1
  Si  Si14  1  0.394359  0.999803  0.750000  1
  Si  Si15  1  0.000000  0.394850  0.750000  1
