# generated using pymatgen
data_Zn21GaPd3Rh
_symmetry_space_group_name_H-M   'P 1'
_cell_length_a   7.94212407
_cell_length_b   7.97034276
_cell_length_c   7.94212356
_cell_angle_alpha   109.52487419
_cell_angle_beta   109.36623321
_cell_angle_gamma   109.52486470
_symmetry_Int_Tables_number   1
_chemical_formula_structural   Zn21GaPd3Rh
_chemical_formula_sum   'Zn21 Ga1 Pd3 Rh1'
_cell_volume   387.00377292
_cell_formula_units_Z   1
loop_
 _symmetry_equiv_pos_site_id
 _symmetry_equiv_pos_as_xyz
  1  'x, y, z'
loop_
 _atom_site_type_symbol
 _atom_site_label
 _atom_site_symmetry_multiplicity
 _atom_site_fract_x
 _atom_site_fract_y
 _atom_site_fract_z
 _atom_site_occupancy
  Zn  Zn0  1  0.780158  0.000311  0.997849  1
  Zn  Zn1  1  0.997849  0.000311  0.780158  1
  Zn  Zn2  1  0.221437  0.223586  0.221437  1
  Zn  Zn3  1  0.353657  0.623987  0.353657  1
  Zn  Zn4  1  0.272384  0.000048  0.649933  1
  Zn  Zn5  1  0.649933  0.000048  0.272384  1
  Zn  Zn6  1  0.274024  0.648363  0.000930  1
  Zn  Zn7  1  0.728116  0.727314  0.379241  1
  Zn  Zn8  1  0.379241  0.727314  0.728116  1
  Zn  Zn9  1  0.000930  0.648363  0.274024  1
  Zn  Zn10  1  0.000926  0.275142  0.649751  1
  Zn  Zn11  1  0.649751  0.275142  0.000926  1
  Zn  Zn12  1  0.352567  0.352001  0.621065  1
  Zn  Zn13  1  0.621065  0.352001  0.352567  1
  Zn  Zn14  1  0.725325  0.373473  0.725325  1
  Zn  Zn15  1  0.354672  0.354172  0.996008  1
  Zn  Zn16  1  0.999882  0.640322  0.636710  1
  Zn  Zn17  1  0.996008  0.354172  0.354672  1
  Zn  Zn18  1  0.360155  0.999854  0.360155  1
  Zn  Zn19  1  0.642804  0.999360  0.642804  1
  Zn  Zn20  1  0.636710  0.640322  0.999882  1
  Ga  Ga21  1  0.995156  0.782544  0.995156  1
  Pd  Pd22  1  0.001117  0.345605  0.001117  1
  Pd  Pd23  1  0.345291  0.999588  0.000757  1
  Pd  Pd24  1  0.000757  0.999588  0.345291  1
  Rh  Rh25  1  0.660082  0.657068  0.660082  1
