# generated using pymatgen
data_TbZn2Cu3
_symmetry_space_group_name_H-M   'P 1'
_cell_length_a   5.13782600
_cell_length_b   5.11767398
_cell_length_c   4.16160000
_cell_angle_alpha   90.00000000
_cell_angle_beta   90.00000000
_cell_angle_gamma   120.13034476
_symmetry_Int_Tables_number   1
_chemical_formula_structural   TbZn2Cu3
_chemical_formula_sum   'Tb1 Zn2 Cu3'
_cell_volume   94.63919885
_cell_formula_units_Z   1
loop_
 _symmetry_equiv_pos_site_id
 _symmetry_equiv_pos_as_xyz
  1  'x, y, z'
loop_
 _atom_site_type_symbol
 _atom_site_label
 _atom_site_symmetry_multiplicity
 _atom_site_fract_x
 _atom_site_fract_y
 _atom_site_fract_z
 _atom_site_occupancy
  Tb  Tb0  1  0.000000  0.000000  0.000000  1
  Zn  Zn1  1  0.000000  0.500000  0.500000  1
  Zn  Zn2  1  0.500000  0.500000  0.500000  1
  Cu  Cu3  1  0.500000  0.000000  0.500000  1
  Cu  Cu4  1  0.663171  0.326341  0.000000  1
  Cu  Cu5  1  0.336829  0.673659  0.000000  1
