# generated using pymatgen
data_Tb2Dy2Al4Ir3Au
_symmetry_space_group_name_H-M   'P 1'
_cell_length_a   4.34944800
_cell_length_b   6.87658545
_cell_length_c   7.91818310
_cell_angle_alpha   89.97164673
_cell_angle_beta   90.00000000
_cell_angle_gamma   90.00000000
_symmetry_Int_Tables_number   1
_chemical_formula_structural   Tb2Dy2Al4Ir3Au
_chemical_formula_sum   'Tb2 Dy2 Al4 Ir3 Au1'
_cell_volume   236.82768731
_cell_formula_units_Z   1
loop_
 _symmetry_equiv_pos_site_id
 _symmetry_equiv_pos_as_xyz
  1  'x, y, z'
loop_
 _atom_site_type_symbol
 _atom_site_label
 _atom_site_symmetry_multiplicity
 _atom_site_fract_x
 _atom_site_fract_y
 _atom_site_fract_z
 _atom_site_occupancy
  Tb  Tb0  1  0.250000  0.025097  0.326130  1
  Tb  Tb1  1  0.250000  0.541461  0.182651  1
  Dy  Dy2  1  0.750000  0.969213  0.678953  1
  Dy  Dy3  1  0.750000  0.476064  0.812940  1
  Al  Al4  1  0.250000  0.135746  0.930759  1
  Al  Al5  1  0.250000  0.641340  0.562847  1
  Al  Al6  1  0.750000  0.847513  0.060453  1
  Al  Al7  1  0.750000  0.364430  0.444899  1
  Ir  Ir8  1  0.250000  0.268722  0.618935  1
  Ir  Ir9  1  0.250000  0.766614  0.881143  1
  Ir  Ir10  1  0.750000  0.733761  0.379855  1
  Au  Au11  1  0.750000  0.230041  0.120434  1
