# generated using pymatgen
data_Ba2(ReO3)3
_symmetry_space_group_name_H-M   'P 1'
_cell_length_a   8.18824682
_cell_length_b   8.18824754
_cell_length_c   8.18824600
_cell_angle_alpha   109.47122178
_cell_angle_beta   109.47122355
_cell_angle_gamma   109.47121945
_symmetry_Int_Tables_number   1
_chemical_formula_structural   Ba2(ReO3)3
_chemical_formula_sum   'Ba4 Re6 O18'
_cell_volume   422.62079641
_cell_formula_units_Z   2
loop_
 _symmetry_equiv_pos_site_id
 _symmetry_equiv_pos_as_xyz
  1  'x, y, z'
loop_
 _atom_site_type_symbol
 _atom_site_label
 _atom_site_symmetry_multiplicity
 _atom_site_fract_x
 _atom_site_fract_y
 _atom_site_fract_z
 _atom_site_occupancy
  Ba  Ba0  1  0.000000  0.000000  0.382506  1
  Ba  Ba1  1  0.000000  0.382506  0.000000  1
  Ba  Ba2  1  0.617494  0.617494  0.617494  1
  Ba  Ba3  1  0.382506  0.000000  0.000000  1
  Re  Re4  1  0.369384  0.500000  0.869384  1
  Re  Re5  1  0.869384  0.369384  0.500000  1
  Re  Re6  1  0.500000  0.130616  0.630616  1
  Re  Re7  1  0.130616  0.630616  0.500000  1
  Re  Re8  1  0.500000  0.869384  0.369384  1
  Re  Re9  1  0.630616  0.500000  0.130616  1
  O  O10  1  0.331954  0.000000  0.331954  1
  O  O11  1  0.331954  0.331954  0.000000  1
  O  O12  1  0.000000  0.668046  0.668046  1
  O  O13  1  0.668046  0.668046  0.000000  1
  O  O14  1  0.000000  0.331954  0.331954  1
  O  O15  1  0.668046  0.000000  0.668046  1
  O  O16  1  0.372199  0.303963  0.649627  1
  O  O17  1  0.068236  0.345665  0.696037  1
  O  O18  1  0.722571  0.350373  0.654335  1
  O  O19  1  0.350373  0.654335  0.722571  1
  O  O20  1  0.277429  0.931764  0.627801  1
  O  O21  1  0.649627  0.372199  0.303963  1
  O  O22  1  0.303963  0.649627  0.372199  1
  O  O23  1  0.696037  0.068236  0.345665  1
  O  O24  1  0.931764  0.627801  0.277429  1
  O  O25  1  0.654335  0.722571  0.350373  1
  O  O26  1  0.627801  0.277429  0.931764  1
  O  O27  1  0.345665  0.696037  0.068236  1
