# generated using pymatgen
data_Tm3PaTlTc
_symmetry_space_group_name_H-M   'P 1'
_cell_length_a   9.54283515
_cell_length_b   9.54283621
_cell_length_c   9.54283600
_cell_angle_alpha   60.00000766
_cell_angle_beta   60.00000400
_cell_angle_gamma   60.00000833
_symmetry_Int_Tables_number   1
_chemical_formula_structural   Tm3PaTlTc
_chemical_formula_sum   'Tm12 Pa4 Tl4 Tc4'
_cell_volume   614.49367849
_cell_formula_units_Z   4
loop_
 _symmetry_equiv_pos_site_id
 _symmetry_equiv_pos_as_xyz
  1  'x, y, z'
loop_
 _atom_site_type_symbol
 _atom_site_label
 _atom_site_symmetry_multiplicity
 _atom_site_fract_x
 _atom_site_fract_y
 _atom_site_fract_z
 _atom_site_occupancy
  Tm  Tm0  1  0.809766  0.190234  0.190234  1
  Tm  Tm1  1  0.190234  0.809766  0.809766  1
  Tm  Tm2  1  0.190234  0.809766  0.190234  1
  Tm  Tm3  1  0.809766  0.190234  0.809766  1
  Tm  Tm4  1  0.190234  0.190234  0.809766  1
  Tm  Tm5  1  0.809766  0.809766  0.190234  1
  Tm  Tm6  1  0.939896  0.560104  0.560104  1
  Tm  Tm7  1  0.560104  0.939896  0.939896  1
  Tm  Tm8  1  0.560104  0.939896  0.560104  1
  Tm  Tm9  1  0.939896  0.560104  0.939896  1
  Tm  Tm10  1  0.560104  0.560104  0.939896  1
  Tm  Tm11  1  0.939896  0.939896  0.560104  1
  Pa  Pa12  1  0.343941  0.343941  0.343941  1
  Pa  Pa13  1  0.343941  0.343941  0.968176  1
  Pa  Pa14  1  0.343941  0.968176  0.343941  1
  Pa  Pa15  1  0.968176  0.343941  0.343941  1
  Tl  Tl16  1  0.585382  0.585382  0.585382  1
  Tl  Tl17  1  0.585382  0.585382  0.243855  1
  Tl  Tl18  1  0.585382  0.243855  0.585382  1
  Tl  Tl19  1  0.243855  0.585382  0.585382  1
  Tc  Tc20  1  0.146855  0.146855  0.146855  1
  Tc  Tc21  1  0.146855  0.146855  0.559436  1
  Tc  Tc22  1  0.146855  0.559436  0.146855  1
  Tc  Tc23  1  0.559436  0.146855  0.146855  1
