# generated using pymatgen
data_DyEr3BBr6
_symmetry_space_group_name_H-M   'P 1'
_cell_length_a   3.93322300
_cell_length_b   13.09344696
_cell_length_c   13.55750235
_cell_angle_alpha   90.14825826
_cell_angle_beta   90.00000000
_cell_angle_gamma   90.00000000
_symmetry_Int_Tables_number   1
_chemical_formula_structural   DyEr3BBr6
_chemical_formula_sum   'Dy2 Er6 B2 Br12'
_cell_volume   698.20153241
_cell_formula_units_Z   2
loop_
 _symmetry_equiv_pos_site_id
 _symmetry_equiv_pos_as_xyz
  1  'x, y, z'
loop_
 _atom_site_type_symbol
 _atom_site_label
 _atom_site_symmetry_multiplicity
 _atom_site_fract_x
 _atom_site_fract_y
 _atom_site_fract_z
 _atom_site_occupancy
  Dy  Dy0  1  0.500000  0.122703  0.855751  1
  Dy  Dy1  1  0.500000  0.877297  0.144249  1
  Er  Er2  1  0.000000  0.100867  0.080150  1
  Er  Er3  1  0.000000  0.899133  0.919850  1
  Er  Er4  1  0.000000  0.600733  0.420036  1
  Er  Er5  1  0.000000  0.399267  0.579964  1
  Er  Er6  1  0.500000  0.622029  0.643452  1
  Er  Er7  1  0.500000  0.377971  0.356548  1
  B  B8  1  0.500000  0.000000  0.000000  1
  B  B9  1  0.500000  0.500000  0.500000  1
  Br  Br10  1  0.500000  0.268887  0.681181  1
  Br  Br11  1  0.500000  0.731113  0.318819  1
  Br  Br12  1  0.500000  0.767922  0.817693  1
  Br  Br13  1  0.500000  0.232078  0.182307  1
  Br  Br14  1  0.000000  0.261725  0.932339  1
  Br  Br15  1  0.000000  0.738275  0.067661  1
  Br  Br16  1  0.000000  0.480120  0.240050  1
  Br  Br17  1  0.000000  0.519880  0.759950  1
  Br  Br18  1  0.000000  0.981974  0.261176  1
  Br  Br19  1  0.000000  0.018026  0.738824  1
  Br  Br20  1  0.000000  0.239803  0.430763  1
  Br  Br21  1  0.000000  0.760197  0.569237  1
