# generated using pymatgen
data_YGe4PdRh5
_symmetry_space_group_name_H-M   'P 1'
_cell_length_a   7.28717863
_cell_length_b   7.28717724
_cell_length_c   3.85276800
_cell_angle_alpha   90.00000000
_cell_angle_beta   90.00000000
_cell_angle_gamma   120.62856928
_symmetry_Int_Tables_number   1
_chemical_formula_structural   YGe4PdRh5
_chemical_formula_sum   'Y1 Ge4 Pd1 Rh5'
_cell_volume   176.05018014
_cell_formula_units_Z   1
loop_
 _symmetry_equiv_pos_site_id
 _symmetry_equiv_pos_as_xyz
  1  'x, y, z'
loop_
 _atom_site_type_symbol
 _atom_site_label
 _atom_site_symmetry_multiplicity
 _atom_site_fract_x
 _atom_site_fract_y
 _atom_site_fract_z
 _atom_site_occupancy
  Y  Y0  1  0.996905  0.003095  0.000000  1
  Ge  Ge1  1  0.804130  0.195870  0.500000  1
  Ge  Ge2  1  0.798295  0.603804  0.500000  1
  Ge  Ge3  1  0.396196  0.201705  0.500000  1
  Ge  Ge4  1  0.336946  0.663054  0.000000  1
  Pd  Pd5  1  0.198107  0.801893  0.500000  1
  Rh  Rh6  1  0.534116  0.465884  0.000000  1
  Rh  Rh7  1  0.532465  0.066806  0.000000  1
  Rh  Rh8  1  0.933194  0.467535  0.000000  1
  Rh  Rh9  1  0.198483  0.395505  0.500000  1
  Rh  Rh10  1  0.604495  0.801517  0.500000  1
