# generated using pymatgen
data_Dy3Tm5Pt4
_symmetry_space_group_name_H-M   'P 1'
_cell_length_a   4.73879500
_cell_length_b   7.08968824
_cell_length_c   8.71172629
_cell_angle_alpha   89.97043404
_cell_angle_beta   90.00000000
_cell_angle_gamma   90.00000000
_symmetry_Int_Tables_number   1
_chemical_formula_structural   Dy3Tm5Pt4
_chemical_formula_sum   'Dy3 Tm5 Pt4'
_cell_volume   292.68416299
_cell_formula_units_Z   1
loop_
 _symmetry_equiv_pos_site_id
 _symmetry_equiv_pos_as_xyz
  1  'x, y, z'
loop_
 _atom_site_type_symbol
 _atom_site_label
 _atom_site_symmetry_multiplicity
 _atom_site_fract_x
 _atom_site_fract_y
 _atom_site_fract_z
 _atom_site_occupancy
  Dy  Dy0  1  0.250000  0.510611  0.170379  1
  Dy  Dy1  1  0.750000  0.989159  0.669487  1
  Dy  Dy2  1  0.750000  0.489218  0.829939  1
  Tm  Tm3  1  0.250000  0.144103  0.921252  1
  Tm  Tm4  1  0.250000  0.644544  0.578856  1
  Tm  Tm5  1  0.750000  0.856119  0.080059  1
  Tm  Tm6  1  0.750000  0.355138  0.420767  1
  Tm  Tm7  1  0.250000  0.010810  0.331284  1
  Pt  Pt8  1  0.250000  0.242540  0.592137  1
  Pt  Pt9  1  0.250000  0.743018  0.906362  1
  Pt  Pt10  1  0.750000  0.758141  0.405840  1
  Pt  Pt11  1  0.750000  0.256599  0.093638  1
