# generated using pymatgen
data_Cs6TmLuF12
_symmetry_space_group_name_H-M   'P 1'
_cell_length_a   7.00170586
_cell_length_b   6.75810752
_cell_length_c   11.74763400
_cell_angle_alpha   55.23207918
_cell_angle_beta   89.94818449
_cell_angle_gamma   89.95704818
_symmetry_Int_Tables_number   1
_chemical_formula_structural   Cs6TmLuF12
_chemical_formula_sum   'Cs6 Tm1 Lu1 F12'
_cell_volume   456.63600009
_cell_formula_units_Z   1
loop_
 _symmetry_equiv_pos_site_id
 _symmetry_equiv_pos_as_xyz
  1  'x, y, z'
loop_
 _atom_site_type_symbol
 _atom_site_label
 _atom_site_symmetry_multiplicity
 _atom_site_fract_x
 _atom_site_fract_y
 _atom_site_fract_z
 _atom_site_occupancy
  Cs  Cs0  1  0.500000  0.500000  0.000000  1
  Cs  Cs1  1  0.000000  0.500000  0.500000  1
  Cs  Cs2  1  0.043750  0.736458  0.751095  1
  Cs  Cs3  1  0.956250  0.263542  0.248905  1
  Cs  Cs4  1  0.544382  0.262127  0.750593  1
  Cs  Cs5  1  0.455618  0.737873  0.249407  1
  Tm  Tm6  1  0.500000  0.000000  0.500000  1
  Lu  Lu7  1  0.000000  0.000000  0.000000  1
  F  F8  1  0.752823  0.780993  0.559568  1
  F  F9  1  0.247177  0.219007  0.440432  1
  F  F10  1  0.250362  0.216918  0.941693  1
  F  F11  1  0.749638  0.783082  0.058307  1
  F  F12  1  0.458369  0.884004  0.710643  1
  F  F13  1  0.541631  0.115996  0.289357  1
  F  F14  1  0.958771  0.114200  0.791581  1
  F  F15  1  0.041229  0.885800  0.208419  1
  F  F16  1  0.330722  0.702032  0.539984  1
  F  F17  1  0.669278  0.297968  0.460016  1
  F  F18  1  0.831485  0.294800  0.960695  1
  F  F19  1  0.168515  0.705200  0.039305  1
