# generated using pymatgen
data_Lu4Th4B24RuW3
_symmetry_space_group_name_H-M   'P 1'
_cell_length_a   3.73306700
_cell_length_b   9.24569332
_cell_length_c   11.70533917
_cell_angle_alpha   89.90302851
_cell_angle_beta   90.00000000
_cell_angle_gamma   90.00000000
_symmetry_Int_Tables_number   1
_chemical_formula_structural   Lu4Th4B24RuW3
_chemical_formula_sum   'Lu4 Th4 B24 Ru1 W3'
_cell_volume   404.00677574
_cell_formula_units_Z   1
loop_
 _symmetry_equiv_pos_site_id
 _symmetry_equiv_pos_as_xyz
  1  'x, y, z'
loop_
 _atom_site_type_symbol
 _atom_site_label
 _atom_site_symmetry_multiplicity
 _atom_site_fract_x
 _atom_site_fract_y
 _atom_site_fract_z
 _atom_site_occupancy
  Lu  Lu0  1  0.000000  0.944974  0.373375  1
  Lu  Lu1  1  0.000000  0.055545  0.627763  1
  Lu  Lu2  1  0.000000  0.445835  0.126616  1
  Lu  Lu3  1  0.000000  0.555459  0.872182  1
  Th  Th4  1  0.000000  0.320804  0.413832  1
  Th  Th5  1  0.000000  0.676862  0.584077  1
  Th  Th6  1  0.000000  0.821488  0.087024  1
  Th  Th7  1  0.000000  0.180067  0.915302  1
  B  B8  1  0.500000  0.554866  0.431060  1
  B  B9  1  0.500000  0.445286  0.569370  1
  B  B10  1  0.500000  0.054432  0.068135  1
  B  B11  1  0.500000  0.942539  0.929117  1
  B  B12  1  0.500000  0.752770  0.418051  1
  B  B13  1  0.500000  0.246893  0.582999  1
  B  B14  1  0.500000  0.253054  0.081768  1
  B  B15  1  0.500000  0.748681  0.916302  1
  B  B16  1  0.500000  0.794602  0.265899  1
  B  B17  1  0.500000  0.205227  0.735041  1
  B  B18  1  0.500000  0.293951  0.234000  1
  B  B19  1  0.500000  0.708721  0.766570  1
  B  B20  1  0.500000  0.630370  0.183702  1
  B  B21  1  0.500000  0.370287  0.816261  1
  B  B22  1  0.500000  0.129131  0.315304  1
  B  B23  1  0.500000  0.870213  0.685566  1
  B  B24  1  0.500000  0.981829  0.214902  1
  B  B25  1  0.500000  0.014123  0.785762  1
  B  B26  1  0.500000  0.482369  0.284311  1
  B  B27  1  0.500000  0.518041  0.715414  1
  B  B28  1  0.500000  0.601337  0.025991  1
  B  B29  1  0.500000  0.401375  0.972285  1
  B  B30  1  0.500000  0.098465  0.473733  1
  B  B31  1  0.500000  0.900918  0.528595  1
  Ru  Ru32  1  0.000000  0.859894  0.818741  1
  W  W33  1  0.000000  0.640217  0.319235  1
  W  W34  1  0.000000  0.359863  0.681623  1
  W  W35  1  0.000000  0.139512  0.180088  1
