# generated using pymatgen
data_BaTc2(NiSb6)2
_symmetry_space_group_name_H-M   'P 1'
_cell_length_a   8.11805551
_cell_length_b   8.18172388
_cell_length_c   8.18172337
_cell_angle_alpha   109.55261677
_cell_angle_beta   109.64735238
_cell_angle_gamma   109.53092968
_symmetry_Int_Tables_number   1
_chemical_formula_structural   BaTc2(NiSb6)2
_chemical_formula_sum   'Ba1 Tc2 Ni2 Sb12'
_cell_volume   416.68446925
_cell_formula_units_Z   1
loop_
 _symmetry_equiv_pos_site_id
 _symmetry_equiv_pos_as_xyz
  1  'x, y, z'
loop_
 _atom_site_type_symbol
 _atom_site_label
 _atom_site_symmetry_multiplicity
 _atom_site_fract_x
 _atom_site_fract_y
 _atom_site_fract_z
 _atom_site_occupancy
  Ba  Ba0  1  0.000000  0.000000  0.000000  1
  Tc  Tc1  1  0.500000  0.000000  0.000000  1
  Tc  Tc2  1  0.500000  0.500000  0.500000  1
  Ni  Ni3  1  0.000000  0.000000  0.500000  1
  Ni  Ni4  1  0.000000  0.500000  0.000000  1
  Sb  Sb5  1  0.341177  0.181669  0.839457  1
  Sb  Sb6  1  0.658823  0.818331  0.160543  1
  Sb  Sb7  1  0.658823  0.498279  0.840492  1
  Sb  Sb8  1  0.341177  0.501721  0.159508  1
  Sb  Sb9  1  0.180674  0.839350  0.341323  1
  Sb  Sb10  1  0.819326  0.160650  0.658677  1
  Sb  Sb11  1  0.498721  0.839529  0.659194  1
  Sb  Sb12  1  0.501279  0.160471  0.340806  1
  Sb  Sb13  1  0.841892  0.344007  0.182433  1
  Sb  Sb14  1  0.158108  0.655993  0.817567  1
  Sb  Sb15  1  0.841892  0.659458  0.497883  1
  Sb  Sb16  1  0.158108  0.340542  0.502117  1
