# generated using pymatgen
data_Li2TbCePt2
_symmetry_space_group_name_H-M   'P 1'
_cell_length_a   4.02779900
_cell_length_b   7.08214000
_cell_length_c   8.50140400
_cell_angle_alpha   90.00000000
_cell_angle_beta   90.00000000
_cell_angle_gamma   90.00000000
_symmetry_Int_Tables_number   1
_chemical_formula_structural   Li2TbCePt2
_chemical_formula_sum   'Li4 Tb2 Ce2 Pt4'
_cell_volume   242.50625920
_cell_formula_units_Z   2
loop_
 _symmetry_equiv_pos_site_id
 _symmetry_equiv_pos_as_xyz
  1  'x, y, z'
loop_
 _atom_site_type_symbol
 _atom_site_label
 _atom_site_symmetry_multiplicity
 _atom_site_fract_x
 _atom_site_fract_y
 _atom_site_fract_z
 _atom_site_occupancy
  Li  Li0  1  0.250000  0.374533  0.550564  1
  Li  Li1  1  0.250000  0.874533  0.949436  1
  Li  Li2  1  0.750000  0.625386  0.440606  1
  Li  Li3  1  0.750000  0.125386  0.059394  1
  Tb  Tb4  1  0.250000  0.949145  0.314723  1
  Tb  Tb5  1  0.250000  0.449145  0.185277  1
  Ce  Ce6  1  0.750000  0.048908  0.683672  1
  Ce  Ce7  1  0.750000  0.548908  0.816328  1
  Pt  Pt8  1  0.250000  0.260054  0.873460  1
  Pt  Pt9  1  0.250000  0.760054  0.626540  1
  Pt  Pt10  1  0.750000  0.741972  0.125229  1
  Pt  Pt11  1  0.750000  0.241972  0.374771  1
