# generated using pymatgen
data_Tb3Pr8In9Pd4
_symmetry_space_group_name_H-M   'P 1'
_cell_length_a   13.56534180
_cell_length_b   13.56534273
_cell_length_c   3.79542000
_cell_angle_alpha   90.00000000
_cell_angle_beta   90.00000000
_cell_angle_gamma   112.42035605
_symmetry_Int_Tables_number   1
_chemical_formula_structural   Tb3Pr8In9Pd4
_chemical_formula_sum   'Tb3 Pr8 In9 Pd4'
_cell_volume   645.63380948
_cell_formula_units_Z   1
loop_
 _symmetry_equiv_pos_site_id
 _symmetry_equiv_pos_as_xyz
  1  'x, y, z'
loop_
 _atom_site_type_symbol
 _atom_site_label
 _atom_site_symmetry_multiplicity
 _atom_site_fract_x
 _atom_site_fract_y
 _atom_site_fract_z
 _atom_site_occupancy
  Tb  Tb0  1  0.626233  0.373764  0.000000  1
  Tb  Tb1  1  0.313338  0.312065  0.000000  1
  Tb  Tb2  1  0.687934  0.686663  0.000000  1
  Pr  Pr3  1  0.414974  0.072744  0.000000  1
  Pr  Pr4  1  0.586324  0.929946  0.000000  1
  Pr  Pr5  1  0.070053  0.413676  0.000000  1
  Pr  Pr6  1  0.927256  0.585028  0.000000  1
  Pr  Pr7  1  0.159852  0.840148  0.000000  1
  Pr  Pr8  1  0.839308  0.160690  0.000000  1
  Pr  Pr9  1  0.373322  0.626679  0.000000  1
  Pr  Pr10  1  0.000318  0.999681  0.000000  1
  In  In11  1  0.366579  0.839041  0.500000  1
  In  In12  1  0.632839  0.164701  0.500000  1
  In  In13  1  0.835300  0.367161  0.500000  1
  In  In14  1  0.160957  0.633420  0.500000  1
  In  In15  1  0.220618  0.083258  0.500000  1
  In  In16  1  0.780611  0.917812  0.500000  1
  In  In17  1  0.082187  0.219387  0.500000  1
  In  In18  1  0.916741  0.779380  0.500000  1
  In  In19  1  0.502223  0.497777  0.500000  1
  Pd  Pd20  1  0.450504  0.254001  0.500000  1
  Pd  Pd21  1  0.557010  0.750487  0.500000  1
  Pd  Pd22  1  0.249518  0.442992  0.500000  1
  Pd  Pd23  1  0.746002  0.549499  0.500000  1
