# generated using pymatgen
data_Dy4Ho2Al24Os5Pt3
_symmetry_space_group_name_H-M   'P 1'
_cell_length_a   8.81088436
_cell_length_b   8.83122317
_cell_length_c   9.56064198
_cell_angle_alpha   90.11308487
_cell_angle_beta   89.74236611
_cell_angle_gamma   119.49650258
_symmetry_Int_Tables_number   1
_chemical_formula_structural   Dy4Ho2Al24Os5Pt3
_chemical_formula_sum   'Dy4 Ho2 Al24 Os5 Pt3'
_cell_volume   647.49256026
_cell_formula_units_Z   1
loop_
 _symmetry_equiv_pos_site_id
 _symmetry_equiv_pos_as_xyz
  1  'x, y, z'
loop_
 _atom_site_type_symbol
 _atom_site_label
 _atom_site_symmetry_multiplicity
 _atom_site_fract_x
 _atom_site_fract_y
 _atom_site_fract_z
 _atom_site_occupancy
  Dy  Dy0  1  0.187700  0.383291  0.250934  1
  Dy  Dy1  1  0.812300  0.616709  0.749066  1
  Dy  Dy2  1  0.613995  0.813979  0.252071  1
  Dy  Dy3  1  0.386005  0.186021  0.747929  1
  Ho  Ho4  1  0.195269  0.809066  0.251503  1
  Ho  Ho5  1  0.804731  0.190934  0.748497  1
  Al  Al6  1  0.335320  0.671282  0.029226  1
  Al  Al7  1  0.664680  0.328718  0.970774  1
  Al  Al8  1  0.669187  0.331195  0.527484  1
  Al  Al9  1  0.330813  0.668805  0.472516  1
  Al  Al10  1  0.158114  0.325429  0.575501  1
  Al  Al11  1  0.841886  0.674571  0.424499  1
  Al  Al12  1  0.673476  0.840775  0.575810  1
  Al  Al13  1  0.837016  0.676332  0.078279  1
  Al  Al14  1  0.326524  0.159225  0.424190  1
  Al  Al15  1  0.162984  0.323668  0.921721  1
  Al  Al16  1  0.163949  0.835185  0.576273  1
  Al  Al17  1  0.325539  0.158746  0.076563  1
  Al  Al18  1  0.836051  0.164815  0.423727  1
  Al  Al19  1  0.674461  0.841254  0.923437  1
  Al  Al20  1  0.831828  0.159299  0.077580  1
  Al  Al21  1  0.168172  0.840701  0.922420  1
  Al  Al22  1  0.560404  0.124516  0.249783  1
  Al  Al23  1  0.439596  0.875484  0.750217  1
  Al  Al24  1  0.874148  0.438231  0.252664  1
  Al  Al25  1  0.125852  0.561769  0.747336  1
  Al  Al26  1  0.562679  0.436689  0.249674  1
  Al  Al27  1  0.437321  0.563311  0.750326  1
  Al  Al28  1  0.998910  0.002373  0.250154  1
  Al  Al29  1  0.001090  0.997627  0.749846  1
  Os  Os30  1  0.500000  0.000000  0.000000  1
  Os  Os31  1  0.500000  0.000000  0.500000  1
  Os  Os32  1  0.000000  0.500000  0.500000  1
  Os  Os33  1  0.000000  0.000000  0.000000  1
  Os  Os34  1  0.000000  0.000000  0.500000  1
  Pt  Pt35  1  0.000000  0.500000  0.000000  1
  Pt  Pt36  1  0.500000  0.500000  0.000000  1
  Pt  Pt37  1  0.500000  0.500000  0.500000  1
