# generated using pymatgen
data_PmTeSF
_symmetry_space_group_name_H-M   'P 1'
_cell_length_a   5.48162000
_cell_length_b   12.10820000
_cell_length_c   5.48588900
_cell_angle_alpha   90.00000000
_cell_angle_beta   90.00000000
_cell_angle_gamma   90.00000000
_symmetry_Int_Tables_number   1
_chemical_formula_structural   PmTeSF
_chemical_formula_sum   'Pm4 Te4 S4 F4'
_cell_volume   364.11244899
_cell_formula_units_Z   4
loop_
 _symmetry_equiv_pos_site_id
 _symmetry_equiv_pos_as_xyz
  1  'x, y, z'
loop_
 _atom_site_type_symbol
 _atom_site_label
 _atom_site_symmetry_multiplicity
 _atom_site_fract_x
 _atom_site_fract_y
 _atom_site_fract_z
 _atom_site_occupancy
  Pm  Pm0  1  0.000013  0.367471  0.603807  1
  Pm  Pm1  1  0.500013  0.632529  0.603807  1
  Pm  Pm2  1  0.499986  0.367471  0.103805  1
  Pm  Pm3  1  0.999986  0.632529  0.103805  1
  Te  Te4  1  0.500342  0.042457  0.140754  1
  Te  Te5  1  0.000343  0.957543  0.140754  1
  Te  Te6  1  0.999656  0.042457  0.640752  1
  Te  Te7  1  0.499658  0.957543  0.640752  1
  S  S8  1  0.000006  0.289318  0.104804  1
  S  S9  1  0.500007  0.710682  0.104804  1
  S  S10  1  0.499994  0.289318  0.604804  1
  S  S11  1  0.999994  0.710682  0.604804  1
  F  F12  1  0.750316  0.499981  0.353037  1
  F  F13  1  0.250314  0.500019  0.353037  1
  F  F14  1  0.749685  0.499981  0.853038  1
  F  F15  1  0.249685  0.500019  0.853038  1
