# generated using pymatgen
data_Nd2Tc17C3
_symmetry_space_group_name_H-M   'P 1'
_cell_length_a   7.01313929
_cell_length_b   7.01314029
_cell_length_c   7.01313981
_cell_angle_alpha   82.96190023
_cell_angle_beta   82.96189952
_cell_angle_gamma   82.96190241
_symmetry_Int_Tables_number   1
_chemical_formula_structural   Nd2Tc17C3
_chemical_formula_sum   'Nd2 Tc17 C3'
_cell_volume   337.72639583
_cell_formula_units_Z   1
loop_
 _symmetry_equiv_pos_site_id
 _symmetry_equiv_pos_as_xyz
  1  'x, y, z'
loop_
 _atom_site_type_symbol
 _atom_site_label
 _atom_site_symmetry_multiplicity
 _atom_site_fract_x
 _atom_site_fract_y
 _atom_site_fract_z
 _atom_site_occupancy
  Nd  Nd0  1  0.651449  0.651449  0.651449  1
  Nd  Nd1  1  0.348551  0.348551  0.348551  1
  Tc  Tc2  1  0.000000  0.000000  0.500000  1
  Tc  Tc3  1  0.500000  0.000000  0.000000  1
  Tc  Tc4  1  0.000000  0.500000  0.000000  1
  Tc  Tc5  1  0.721828  0.278172  0.000000  1
  Tc  Tc6  1  0.000000  0.721828  0.278172  1
  Tc  Tc7  1  0.278172  0.000000  0.721828  1
  Tc  Tc8  1  0.000000  0.278172  0.721828  1
  Tc  Tc9  1  0.721828  0.000000  0.278172  1
  Tc  Tc10  1  0.278172  0.721828  0.000000  1
  Tc  Tc11  1  0.347682  0.864976  0.347682  1
  Tc  Tc12  1  0.347682  0.347682  0.864976  1
  Tc  Tc13  1  0.864976  0.347682  0.347682  1
  Tc  Tc14  1  0.652318  0.135024  0.652318  1
  Tc  Tc15  1  0.652318  0.652318  0.135024  1
  Tc  Tc16  1  0.135024  0.652318  0.652318  1
  Tc  Tc17  1  0.903047  0.903047  0.903047  1
  Tc  Tc18  1  0.096953  0.096953  0.096953  1
  C  C19  1  0.500000  0.500000  0.000000  1
  C  C20  1  0.000000  0.500000  0.500000  1
  C  C21  1  0.500000  0.000000  0.500000  1
