# generated using pymatgen
data_SmTh2Sn2Rh3Pb
_symmetry_space_group_name_H-M   'P 1'
_cell_length_a   7.64463274
_cell_length_b   7.60498595
_cell_length_c   4.07663600
_cell_angle_alpha   90.00000000
_cell_angle_beta   90.00000000
_cell_angle_gamma   119.42167622
_symmetry_Int_Tables_number   1
_chemical_formula_structural   SmTh2Sn2Rh3Pb
_chemical_formula_sum   'Sm1 Th2 Sn2 Rh3 Pb1'
_cell_volume   206.43774586
_cell_formula_units_Z   1
loop_
 _symmetry_equiv_pos_site_id
 _symmetry_equiv_pos_as_xyz
  1  'x, y, z'
loop_
 _atom_site_type_symbol
 _atom_site_label
 _atom_site_symmetry_multiplicity
 _atom_site_fract_x
 _atom_site_fract_y
 _atom_site_fract_z
 _atom_site_occupancy
  Sm  Sm0  1  0.004645  0.592130  0.500000  1
  Th  Th1  1  0.408959  0.409395  0.500000  1
  Th  Th2  1  0.587528  0.002299  0.500000  1
  Sn  Sn3  1  0.245278  0.992197  0.000000  1
  Sn  Sn4  1  0.999688  0.261874  0.000000  1
  Rh  Rh5  1  0.648060  0.310482  0.000000  1
  Rh  Rh6  1  0.338613  0.665040  0.000000  1
  Rh  Rh7  1  0.012026  0.021190  0.500000  1
  Pb  Pb8  1  0.755202  0.745392  0.000000  1
