# generated using pymatgen
data_Rb16Hf3SnSe16
_symmetry_space_group_name_H-M   'P 1'
_cell_length_a   8.83461166
_cell_length_b   10.61119000
_cell_length_c   15.71079021
_cell_angle_alpha   90.00000000
_cell_angle_beta   89.79865696
_cell_angle_gamma   90.00000000
_symmetry_Int_Tables_number   1
_chemical_formula_structural   Rb16Hf3SnSe16
_chemical_formula_sum   'Rb16 Hf3 Sn1 Se16'
_cell_volume   1472.81060603
_cell_formula_units_Z   1
loop_
 _symmetry_equiv_pos_site_id
 _symmetry_equiv_pos_as_xyz
  1  'x, y, z'
loop_
 _atom_site_type_symbol
 _atom_site_label
 _atom_site_symmetry_multiplicity
 _atom_site_fract_x
 _atom_site_fract_y
 _atom_site_fract_z
 _atom_site_occupancy
  Rb  Rb0  1  0.499814  0.497282  0.500383  1
  Rb  Rb1  1  0.158554  0.449359  0.275370  1
  Rb  Rb2  1  0.158554  0.050641  0.275370  1
  Rb  Rb3  1  0.010144  0.750000  0.429102  1
  Rb  Rb4  1  0.987606  0.250000  0.571333  1
  Rb  Rb5  1  0.655145  0.944640  0.224205  1
  Rb  Rb6  1  0.341371  0.055512  0.777797  1
  Rb  Rb7  1  0.841726  0.944614  0.722741  1
  Rb  Rb8  1  0.341371  0.444488  0.777797  1
  Rb  Rb9  1  0.998157  0.502910  0.001134  1
  Rb  Rb10  1  0.517562  0.250000  0.075128  1
  Rb  Rb11  1  0.655145  0.555360  0.224205  1
  Rb  Rb12  1  0.487199  0.750000  0.927083  1
  Rb  Rb13  1  0.998157  0.997090  0.001134  1
  Rb  Rb14  1  0.841726  0.555386  0.722741  1
  Rb  Rb15  1  0.499814  0.002718  0.500383  1
  Hf  Hf16  1  0.745137  0.250000  0.834525  1
  Hf  Hf17  1  0.754846  0.250000  0.334043  1
  Hf  Hf18  1  0.246198  0.750000  0.665926  1
  Sn  Sn19  1  0.256671  0.750000  0.164454  1
  Se  Se20  1  0.532471  0.750000  0.672459  1
  Se  Se21  1  0.468325  0.250000  0.326563  1
  Se  Se22  1  0.364412  0.750000  0.317397  1
  Se  Se23  1  0.134078  0.750000  0.815164  1
  Se  Se24  1  0.031150  0.250000  0.826944  1
  Se  Se25  1  0.965178  0.750000  0.171606  1
  Se  Se26  1  0.634248  0.250000  0.685351  1
  Se  Se27  1  0.866539  0.250000  0.184843  1
  Se  Se28  1  0.844027  0.446296  0.408578  1
  Se  Se29  1  0.655086  0.054142  0.909735  1
  Se  Se30  1  0.348601  0.948005  0.087633  1
  Se  Se31  1  0.348601  0.551995  0.087633  1
  Se  Se32  1  0.156637  0.553744  0.591462  1
  Se  Se33  1  0.844027  0.053704  0.408578  1
  Se  Se34  1  0.156637  0.946256  0.591462  1
  Se  Se35  1  0.655086  0.445858  0.909735  1
