# generated using pymatgen
data_HoLu5(P2Ir3)6
_symmetry_space_group_name_H-M   'P 1'
_cell_length_a   3.94649500
_cell_length_b   11.14113100
_cell_length_c   12.80988100
_cell_angle_alpha   90.00000000
_cell_angle_beta   90.00000000
_cell_angle_gamma   90.00000000
_symmetry_Int_Tables_number   1
_chemical_formula_structural   HoLu5(P2Ir3)6
_chemical_formula_sum   'Ho1 Lu5 P12 Ir18'
_cell_volume   563.23019959
_cell_formula_units_Z   1
loop_
 _symmetry_equiv_pos_site_id
 _symmetry_equiv_pos_as_xyz
  1  'x, y, z'
loop_
 _atom_site_type_symbol
 _atom_site_label
 _atom_site_symmetry_multiplicity
 _atom_site_fract_x
 _atom_site_fract_y
 _atom_site_fract_z
 _atom_site_occupancy
  Ho  Ho0  1  0.000000  0.500000  0.522865  1
  Lu  Lu1  1  0.500000  0.000000  0.477083  1
  Lu  Lu2  1  0.500000  0.814087  0.204407  1
  Lu  Lu3  1  0.500000  0.185913  0.204407  1
  Lu  Lu4  1  0.000000  0.685883  0.795591  1
  Lu  Lu5  1  0.000000  0.314117  0.795591  1
  P  P6  1  0.500000  0.500000  0.872780  1
  P  P7  1  0.000000  0.000000  0.127297  1
  P  P8  1  0.500000  0.500000  0.361476  1
  P  P9  1  0.000000  0.000000  0.637959  1
  P  P10  1  0.500000  0.315618  0.617493  1
  P  P11  1  0.500000  0.684382  0.617493  1
  P  P12  1  0.000000  0.184276  0.382669  1
  P  P13  1  0.000000  0.815724  0.382669  1
  P  P14  1  0.500000  0.846243  0.892733  1
  P  P15  1  0.500000  0.153757  0.892733  1
  P  P16  1  0.000000  0.653728  0.107248  1
  P  P17  1  0.000000  0.346272  0.107248  1
  Ir  Ir18  1  0.500000  0.500000  0.183281  1
  Ir  Ir19  1  0.000000  0.000000  0.816588  1
  Ir  Ir20  1  0.500000  0.500000  0.698311  1
  Ir  Ir21  1  0.000000  0.000000  0.302598  1
  Ir  Ir22  1  0.000000  0.500000  0.965682  1
  Ir  Ir23  1  0.500000  0.000000  0.034342  1
  Ir  Ir24  1  0.500000  0.336843  0.004959  1
  Ir  Ir25  1  0.500000  0.663157  0.004959  1
  Ir  Ir26  1  0.000000  0.163113  0.995040  1
  Ir  Ir27  1  0.000000  0.836887  0.995040  1
  Ir  Ir28  1  0.500000  0.294230  0.430276  1
  Ir  Ir29  1  0.500000  0.705770  0.430276  1
  Ir  Ir30  1  0.000000  0.205130  0.569517  1
  Ir  Ir31  1  0.000000  0.794870  0.569517  1
  Ir  Ir32  1  0.500000  0.867088  0.713943  1
  Ir  Ir33  1  0.500000  0.132912  0.713943  1
  Ir  Ir34  1  0.000000  0.632959  0.285993  1
  Ir  Ir35  1  0.000000  0.367041  0.285993  1
