# generated using pymatgen
data_Eu2Ni2I
_symmetry_space_group_name_H-M   'P 1'
_cell_length_a   4.13881800
_cell_length_b   4.13881791
_cell_length_c   17.52351200
_cell_angle_alpha   90.00000000
_cell_angle_beta   90.00000000
_cell_angle_gamma   119.99998476
_symmetry_Int_Tables_number   1
_chemical_formula_structural   Eu2Ni2I
_chemical_formula_sum   'Eu4 Ni4 I2'
_cell_volume   259.95878434
_cell_formula_units_Z   2
loop_
 _symmetry_equiv_pos_site_id
 _symmetry_equiv_pos_as_xyz
  1  'x, y, z'
loop_
 _atom_site_type_symbol
 _atom_site_label
 _atom_site_symmetry_multiplicity
 _atom_site_fract_x
 _atom_site_fract_y
 _atom_site_fract_z
 _atom_site_occupancy
  Eu  Eu0  1  0.000000  0.000000  0.106639  1
  Eu  Eu1  1  0.000000  0.000000  0.893361  1
  Eu  Eu2  1  0.000000  0.000000  0.606639  1
  Eu  Eu3  1  0.000000  0.000000  0.393361  1
  Ni  Ni4  1  0.333333  0.666667  0.501263  1
  Ni  Ni5  1  0.666667  0.333333  0.498737  1
  Ni  Ni6  1  0.666667  0.333333  0.001263  1
  Ni  Ni7  1  0.333333  0.666667  0.998737  1
  I  I8  1  0.333333  0.666667  0.250000  1
  I  I9  1  0.666667  0.333333  0.750000  1
