# generated using pymatgen
data_TaNb5N3
_symmetry_space_group_name_H-M   'P 1'
_cell_length_a   5.32460682
_cell_length_b   5.32460419
_cell_length_c   5.01613553
_cell_angle_alpha   89.89360143
_cell_angle_beta   89.89356419
_cell_angle_gamma   119.91389743
_symmetry_Int_Tables_number   1
_chemical_formula_structural   TaNb5N3
_chemical_formula_sum   'Ta1 Nb5 N3'
_cell_volume   123.26731345
_cell_formula_units_Z   1
loop_
 _symmetry_equiv_pos_site_id
 _symmetry_equiv_pos_as_xyz
  1  'x, y, z'
loop_
 _atom_site_type_symbol
 _atom_site_label
 _atom_site_symmetry_multiplicity
 _atom_site_fract_x
 _atom_site_fract_y
 _atom_site_fract_z
 _atom_site_occupancy
  Ta  Ta0  1  0.333940  0.333942  0.751692  1
  Nb  Nb1  1  0.333808  0.999009  0.249079  1
  Nb  Nb2  1  0.665949  0.665948  0.245009  1
  Nb  Nb3  1  0.999010  0.333807  0.249080  1
  Nb  Nb4  1  0.999872  0.665870  0.751735  1
  Nb  Nb5  1  0.665868  0.999873  0.751738  1
  N  N6  1  0.003359  0.003359  0.998594  1
  N  N7  1  0.663869  0.334321  0.501537  1
  N  N8  1  0.334323  0.663870  0.501537  1
