# generated using pymatgen
data_Gd4Lu4B24Os3W
_symmetry_space_group_name_H-M   'P 1'
_cell_length_a   3.63039100
_cell_length_b   9.13908212
_cell_length_c   11.55104407
_cell_angle_alpha   89.88939243
_cell_angle_beta   90.00000000
_cell_angle_gamma   90.00000000
_symmetry_Int_Tables_number   1
_chemical_formula_structural   Gd4Lu4B24Os3W
_chemical_formula_sum   'Gd4 Lu4 B24 Os3 W1'
_cell_volume   383.24492573
_cell_formula_units_Z   1
loop_
 _symmetry_equiv_pos_site_id
 _symmetry_equiv_pos_as_xyz
  1  'x, y, z'
loop_
 _atom_site_type_symbol
 _atom_site_label
 _atom_site_symmetry_multiplicity
 _atom_site_fract_x
 _atom_site_fract_y
 _atom_site_fract_z
 _atom_site_occupancy
  Gd  Gd0  1  0.000000  0.321025  0.413415  1
  Gd  Gd1  1  0.000000  0.678500  0.585416  1
  Gd  Gd2  1  0.000000  0.820024  0.086696  1
  Gd  Gd3  1  0.000000  0.178003  0.914507  1
  Lu  Lu4  1  0.000000  0.945622  0.373386  1
  Lu  Lu5  1  0.000000  0.057441  0.628197  1
  Lu  Lu6  1  0.000000  0.443144  0.126089  1
  Lu  Lu7  1  0.000000  0.556512  0.871626  1
  B  B8  1  0.500000  0.551279  0.435077  1
  B  B9  1  0.500000  0.445497  0.568934  1
  B  B10  1  0.500000  0.054133  0.067711  1
  B  B11  1  0.500000  0.945490  0.932301  1
  B  B12  1  0.500000  0.752835  0.421151  1
  B  B13  1  0.500000  0.250671  0.582069  1
  B  B14  1  0.500000  0.249475  0.080928  1
  B  B15  1  0.500000  0.749996  0.918194  1
  B  B16  1  0.500000  0.795214  0.264902  1
  B  B17  1  0.500000  0.208536  0.734229  1
  B  B18  1  0.500000  0.290847  0.232550  1
  B  B19  1  0.500000  0.709152  0.766060  1
  B  B20  1  0.500000  0.630103  0.182255  1
  B  B21  1  0.500000  0.369472  0.815344  1
  B  B22  1  0.500000  0.130145  0.314281  1
  B  B23  1  0.500000  0.870763  0.685219  1
  B  B24  1  0.500000  0.983124  0.213424  1
  B  B25  1  0.500000  0.017530  0.787207  1
  B  B26  1  0.500000  0.477580  0.285282  1
  B  B27  1  0.500000  0.516913  0.713821  1
  B  B28  1  0.500000  0.602120  0.026581  1
  B  B29  1  0.500000  0.397118  0.970725  1
  B  B30  1  0.500000  0.103336  0.472282  1
  B  B31  1  0.500000  0.899887  0.529458  1
  Os  Os32  1  0.000000  0.360727  0.681347  1
  Os  Os33  1  0.000000  0.138345  0.178834  1
  Os  Os34  1  0.000000  0.861474  0.819931  1
  W  W35  1  0.000000  0.637968  0.320570  1
