# generated using pymatgen
data_Pr2EuDy4FeI12
_symmetry_space_group_name_H-M   'P 1'
_cell_length_a   9.96977662
_cell_length_b   9.78526479
_cell_length_c   9.95081567
_cell_angle_alpha   106.30943652
_cell_angle_beta   106.57816316
_cell_angle_gamma   107.21257270
_symmetry_Int_Tables_number   1
_chemical_formula_structural   Pr2EuDy4FeI12
_chemical_formula_sum   'Pr2 Eu1 Dy4 Fe1 I12'
_cell_volume   814.95013592
_cell_formula_units_Z   1
loop_
 _symmetry_equiv_pos_site_id
 _symmetry_equiv_pos_as_xyz
  1  'x, y, z'
loop_
 _atom_site_type_symbol
 _atom_site_label
 _atom_site_symmetry_multiplicity
 _atom_site_fract_x
 _atom_site_fract_y
 _atom_site_fract_z
 _atom_site_occupancy
  Pr  Pr0  1  0.590003  0.776872  0.522815  1
  Pr  Pr1  1  0.409997  0.223128  0.477185  1
  Eu  Eu2  1  0.000000  0.000000  0.000000  1
  Dy  Dy3  1  0.797271  0.524474  0.595656  1
  Dy  Dy4  1  0.524855  0.596476  0.797834  1
  Dy  Dy5  1  0.202729  0.475526  0.404344  1
  Dy  Dy6  1  0.475145  0.403524  0.202166  1
  Fe  Fe7  1  0.500000  0.500000  0.500000  1
  I  I8  1  0.729623  0.188176  0.575741  1
  I  I9  1  0.958549  0.874695  0.647361  1
  I  I10  1  0.572880  0.720836  0.177135  1
  I  I11  1  0.129951  0.361493  0.050841  1
  I  I12  1  0.645817  0.954059  0.879436  1
  I  I13  1  0.870049  0.638507  0.949159  1
  I  I14  1  0.041451  0.125305  0.352639  1
  I  I15  1  0.815413  0.427500  0.279785  1
  I  I16  1  0.354183  0.045941  0.120564  1
  I  I17  1  0.270377  0.811824  0.424259  1
  I  I18  1  0.184587  0.572500  0.720215  1
  I  I19  1  0.427120  0.279164  0.822865  1
