# generated using pymatgen
data_Pr2PdRhPb
_symmetry_space_group_name_H-M   'P 1'
_cell_length_a   7.98222000
_cell_length_b   7.99967900
_cell_length_c   3.84857100
_cell_angle_alpha   90.00000000
_cell_angle_beta   90.00000000
_cell_angle_gamma   90.00000000
_symmetry_Int_Tables_number   1
_chemical_formula_structural   Pr2PdRhPb
_chemical_formula_sum   'Pr4 Pd2 Rh2 Pb2'
_cell_volume   245.75126210
_cell_formula_units_Z   2
loop_
 _symmetry_equiv_pos_site_id
 _symmetry_equiv_pos_as_xyz
  1  'x, y, z'
loop_
 _atom_site_type_symbol
 _atom_site_label
 _atom_site_symmetry_multiplicity
 _atom_site_fract_x
 _atom_site_fract_y
 _atom_site_fract_z
 _atom_site_occupancy
  Pr  Pr0  1  0.336405  0.823877  0.500000  1
  Pr  Pr1  1  0.683758  0.176113  0.500000  1
  Pr  Pr2  1  0.816242  0.676113  0.500000  1
  Pr  Pr3  1  0.163595  0.323877  0.500000  1
  Pd  Pd4  1  0.376297  0.126217  0.000000  1
  Pd  Pd5  1  0.123703  0.626217  0.000000  1
  Rh  Rh6  1  0.876065  0.373139  0.000000  1
  Rh  Rh7  1  0.623935  0.873139  0.000000  1
  Pb  Pb8  1  0.501975  0.500654  0.000000  1
  Pb  Pb9  1  0.998025  0.000654  0.000000  1
