# generated using pymatgen
data_Tl2B2Se3O10
_symmetry_space_group_name_H-M   'P 1'
_cell_length_a   4.79700500
_cell_length_b   14.58849700
_cell_length_c   16.11141300
_cell_angle_alpha   90.00000000
_cell_angle_beta   90.00000000
_cell_angle_gamma   90.00000000
_symmetry_Int_Tables_number   1
_chemical_formula_structural   Tl2B2Se3O10
_chemical_formula_sum   'Tl8 B8 Se12 O40'
_cell_volume   1127.49429234
_cell_formula_units_Z   4
loop_
 _symmetry_equiv_pos_site_id
 _symmetry_equiv_pos_as_xyz
  1  'x, y, z'
loop_
 _atom_site_type_symbol
 _atom_site_label
 _atom_site_symmetry_multiplicity
 _atom_site_fract_x
 _atom_site_fract_y
 _atom_site_fract_z
 _atom_site_occupancy
  Tl  Tl0  1  0.242002  0.136775  0.452479  1
  Tl  Tl1  1  0.257998  0.636775  0.047521  1
  Tl  Tl2  1  0.757998  0.863225  0.952479  1
  Tl  Tl3  1  0.742002  0.363225  0.547521  1
  Tl  Tl4  1  0.757998  0.863225  0.547521  1
  Tl  Tl5  1  0.742002  0.363225  0.952479  1
  Tl  Tl6  1  0.242002  0.136775  0.047521  1
  Tl  Tl7  1  0.257998  0.636775  0.452479  1
  B  B8  1  0.737494  0.989947  0.330058  1
  B  B9  1  0.762506  0.489947  0.169942  1
  B  B10  1  0.262506  0.010053  0.830058  1
  B  B11  1  0.237494  0.510053  0.669942  1
  B  B12  1  0.262506  0.010053  0.669942  1
  B  B13  1  0.237494  0.510053  0.830058  1
  B  B14  1  0.737494  0.989947  0.169942  1
  B  B15  1  0.762506  0.489947  0.330058  1
  Se  Se16  1  0.234074  0.886880  0.356840  1
  Se  Se17  1  0.265926  0.386880  0.143160  1
  Se  Se18  1  0.765926  0.113120  0.856840  1
  Se  Se19  1  0.734074  0.613120  0.643160  1
  Se  Se20  1  0.765926  0.113120  0.643160  1
  Se  Se21  1  0.734074  0.613120  0.856840  1
  Se  Se22  1  0.234074  0.886880  0.143160  1
  Se  Se23  1  0.265926  0.386880  0.356840  1
  Se  Se24  1  0.760788  0.167455  0.250000  1
  Se  Se25  1  0.739212  0.667455  0.250000  1
  Se  Se26  1  0.239212  0.832545  0.750000  1
  Se  Se27  1  0.260788  0.332545  0.750000  1
  O  O28  1  0.302273  0.825960  0.442050  1
  O  O29  1  0.197727  0.325960  0.057950  1
  O  O30  1  0.697727  0.174040  0.942050  1
  O  O31  1  0.802273  0.674040  0.557950  1
  O  O32  1  0.697727  0.174040  0.557950  1
  O  O33  1  0.802273  0.674040  0.942050  1
  O  O34  1  0.302273  0.825960  0.057950  1
  O  O35  1  0.197727  0.325960  0.442050  1
  O  O36  1  0.925437  0.942509  0.391403  1
  O  O37  1  0.574563  0.442509  0.108597  1
  O  O38  1  0.074563  0.057491  0.891403  1
  O  O39  1  0.425437  0.557491  0.608597  1
  O  O40  1  0.074563  0.057491  0.608597  1
  O  O41  1  0.425437  0.557491  0.891403  1
  O  O42  1  0.925437  0.942509  0.108597  1
  O  O43  1  0.574563  0.442509  0.391403  1
  O  O44  1  0.451390  0.985423  0.367814  1
  O  O45  1  0.048610  0.485423  0.132186  1
  O  O46  1  0.548610  0.014577  0.867814  1
  O  O47  1  0.951390  0.514577  0.632186  1
  O  O48  1  0.548610  0.014577  0.632186  1
  O  O49  1  0.951390  0.514577  0.867814  1
  O  O50  1  0.451390  0.985423  0.132186  1
  O  O51  1  0.048610  0.485423  0.367814  1
  O  O52  1  0.812305  0.089674  0.334345  1
  O  O53  1  0.687695  0.589674  0.165655  1
  O  O54  1  0.187695  0.910326  0.834345  1
  O  O55  1  0.312305  0.410326  0.665655  1
  O  O56  1  0.187695  0.910326  0.665655  1
  O  O57  1  0.312305  0.410326  0.834345  1
  O  O58  1  0.812305  0.089674  0.165655  1
  O  O59  1  0.687695  0.589674  0.334345  1
  O  O60  1  0.423383  0.192882  0.250000  1
  O  O61  1  0.076617  0.692882  0.250000  1
  O  O62  1  0.576617  0.807118  0.750000  1
  O  O63  1  0.923383  0.307118  0.750000  1
  O  O64  1  0.761807  0.948132  0.250000  1
  O  O65  1  0.738193  0.448132  0.250000  1
  O  O66  1  0.238193  0.051868  0.750000  1
  O  O67  1  0.261807  0.551868  0.750000  1
