# generated using pymatgen
data_La9Yb(Ga2Pb)2
_symmetry_space_group_name_H-M   'P 1'
_cell_length_a   8.23033100
_cell_length_b   8.23033100
_cell_length_c   14.61043000
_cell_angle_alpha   90.00000000
_cell_angle_beta   90.00000000
_cell_angle_gamma   90.00000000
_symmetry_Int_Tables_number   1
_chemical_formula_structural   La9Yb(Ga2Pb)2
_chemical_formula_sum   'La18 Yb2 Ga8 Pb4'
_cell_volume   989.68639717
_cell_formula_units_Z   2
loop_
 _symmetry_equiv_pos_site_id
 _symmetry_equiv_pos_as_xyz
  1  'x, y, z'
loop_
 _atom_site_type_symbol
 _atom_site_label
 _atom_site_symmetry_multiplicity
 _atom_site_fract_x
 _atom_site_fract_y
 _atom_site_fract_z
 _atom_site_occupancy
  La  La0  1  0.333212  0.323096  0.105197  1
  La  La1  1  0.833212  0.823096  0.894803  1
  La  La2  1  0.835713  0.171887  0.393402  1
  La  La3  1  0.166788  0.176904  0.894803  1
  La  La4  1  0.666788  0.676904  0.105197  1
  La  La5  1  0.000000  0.500000  0.722758  1
  La  La6  1  0.828113  0.835713  0.606598  1
  La  La7  1  0.328113  0.335713  0.393402  1
  La  La8  1  0.176904  0.833212  0.105197  1
  La  La9  1  0.171887  0.164287  0.606598  1
  La  La10  1  0.823096  0.166788  0.105197  1
  La  La11  1  0.335713  0.671887  0.606598  1
  La  La12  1  0.500000  0.000000  0.277242  1
  La  La13  1  0.676904  0.333212  0.894803  1
  La  La14  1  0.664287  0.328113  0.606598  1
  La  La15  1  0.323096  0.666788  0.894803  1
  La  La16  1  0.164287  0.828113  0.393402  1
  La  La17  1  0.671887  0.664287  0.393402  1
  Yb  Yb18  1  0.500000  0.000000  0.758860  1
  Yb  Yb19  1  0.000000  0.500000  0.241140  1
  Ga  Ga20  1  0.619605  0.378926  0.247329  1
  Ga  Ga21  1  0.880395  0.121074  0.752671  1
  Ga  Ga22  1  0.878926  0.880395  0.247329  1
  Ga  Ga23  1  0.119605  0.878926  0.752671  1
  Ga  Ga24  1  0.378926  0.380395  0.752671  1
  Ga  Ga25  1  0.121074  0.119605  0.247329  1
  Ga  Ga26  1  0.380395  0.621074  0.247329  1
  Ga  Ga27  1  0.621074  0.619605  0.752671  1
  Pb  Pb28  1  0.500000  0.000000  0.503945  1
  Pb  Pb29  1  0.000000  0.500000  0.005402  1
  Pb  Pb30  1  0.500000  0.000000  0.994598  1
  Pb  Pb31  1  0.000000  0.500000  0.496055  1
