# generated using pymatgen
data_Zr10Zn2BiPb5
_symmetry_space_group_name_H-M   'P 1'
_cell_length_a   8.84410200
_cell_length_b   8.83762578
_cell_length_c   5.96559400
_cell_angle_alpha   90.00000000
_cell_angle_beta   90.00000000
_cell_angle_gamma   120.02424381
_symmetry_Int_Tables_number   1
_chemical_formula_structural   Zr10Zn2BiPb5
_chemical_formula_sum   'Zr10 Zn2 Bi1 Pb5'
_cell_volume   403.70815941
_cell_formula_units_Z   1
loop_
 _symmetry_equiv_pos_site_id
 _symmetry_equiv_pos_as_xyz
  1  'x, y, z'
loop_
 _atom_site_type_symbol
 _atom_site_label
 _atom_site_symmetry_multiplicity
 _atom_site_fract_x
 _atom_site_fract_y
 _atom_site_fract_z
 _atom_site_occupancy
  Zr  Zr0  1  0.332890  0.666291  0.999469  1
  Zr  Zr1  1  0.666600  0.333709  0.500531  1
  Zr  Zr2  1  0.666600  0.333709  0.999469  1
  Zr  Zr3  1  0.332890  0.666291  0.500531  1
  Zr  Zr4  1  0.264921  0.000000  0.250000  1
  Zr  Zr5  1  0.265069  0.265081  0.750000  1
  Zr  Zr6  1  0.999987  0.734919  0.750000  1
  Zr  Zr7  1  0.001162  0.265575  0.250000  1
  Zr  Zr8  1  0.735587  0.734425  0.250000  1
  Zr  Zr9  1  0.734862  0.000000  0.750000  1
  Zn  Zn10  1  0.000526  0.000000  0.999492  1
  Zn  Zn11  1  0.000526  0.000000  0.500508  1
  Bi  Bi12  1  0.614784  0.000000  0.250000  1
  Pb  Pb13  1  0.615185  0.615197  0.750000  1
  Pb  Pb14  1  0.999988  0.384803  0.750000  1
  Pb  Pb15  1  0.999967  0.615375  0.250000  1
  Pb  Pb16  1  0.384592  0.384625  0.250000  1
  Pb  Pb17  1  0.383866  0.000000  0.750000  1
