# generated using pymatgen
data_Sc20Zn3Ir2Au3
_symmetry_space_group_name_H-M   'P 1'
_cell_length_a   8.88438700
_cell_length_b   8.88438602
_cell_length_c   9.07946700
_cell_angle_alpha   90.00000000
_cell_angle_beta   90.00000000
_cell_angle_gamma   119.99999991
_symmetry_Int_Tables_number   1
_chemical_formula_structural   Sc20Zn3Ir2Au3
_chemical_formula_sum   'Sc20 Zn3 Ir2 Au3'
_cell_volume   620.64873530
_cell_formula_units_Z   1
loop_
 _symmetry_equiv_pos_site_id
 _symmetry_equiv_pos_as_xyz
  1  'x, y, z'
loop_
 _atom_site_type_symbol
 _atom_site_label
 _atom_site_symmetry_multiplicity
 _atom_site_fract_x
 _atom_site_fract_y
 _atom_site_fract_z
 _atom_site_occupancy
  Sc  Sc0  1  0.000000  0.000000  0.486391  1
  Sc  Sc1  1  0.000000  0.000000  0.013609  1
  Sc  Sc2  1  0.207223  0.792777  0.445180  1
  Sc  Sc3  1  0.207223  0.414448  0.445180  1
  Sc  Sc4  1  0.585552  0.792777  0.445180  1
  Sc  Sc5  1  0.793218  0.206782  0.556168  1
  Sc  Sc6  1  0.793218  0.586434  0.556168  1
  Sc  Sc7  1  0.413566  0.206782  0.556168  1
  Sc  Sc8  1  0.793218  0.206782  0.943832  1
  Sc  Sc9  1  0.793218  0.586434  0.943832  1
  Sc  Sc10  1  0.413566  0.206782  0.943832  1
  Sc  Sc11  1  0.207223  0.792777  0.054820  1
  Sc  Sc12  1  0.207223  0.414448  0.054820  1
  Sc  Sc13  1  0.585552  0.792777  0.054820  1
  Sc  Sc14  1  0.540460  0.459540  0.250000  1
  Sc  Sc15  1  0.540460  0.080919  0.250000  1
  Sc  Sc16  1  0.919081  0.459540  0.250000  1
  Sc  Sc17  1  0.459451  0.540549  0.750000  1
  Sc  Sc18  1  0.459451  0.918904  0.750000  1
  Sc  Sc19  1  0.081096  0.540549  0.750000  1
  Zn  Zn20  1  0.110931  0.889069  0.750000  1
  Zn  Zn21  1  0.110931  0.221861  0.750000  1
  Zn  Zn22  1  0.778139  0.889069  0.750000  1
  Ir  Ir23  1  0.333333  0.666667  0.250000  1
  Ir  Ir24  1  0.666667  0.333333  0.750000  1
  Au  Au25  1  0.878152  0.121848  0.250000  1
  Au  Au26  1  0.878152  0.756304  0.250000  1
  Au  Au27  1  0.243696  0.121848  0.250000  1
