# generated using pymatgen
data_Ho5Co16(Si4Os)3
_symmetry_space_group_name_H-M   'P 1'
_cell_length_a   12.22146500
_cell_length_b   12.22146598
_cell_length_c   3.78416900
_cell_angle_alpha   90.00000000
_cell_angle_beta   90.00000000
_cell_angle_gamma   120.00000006
_symmetry_Int_Tables_number   1
_chemical_formula_structural   Ho5Co16(Si4Os)3
_chemical_formula_sum   'Ho5 Co16 Si12 Os3'
_cell_volume   489.49439865
_cell_formula_units_Z   1
loop_
 _symmetry_equiv_pos_site_id
 _symmetry_equiv_pos_as_xyz
  1  'x, y, z'
loop_
 _atom_site_type_symbol
 _atom_site_label
 _atom_site_symmetry_multiplicity
 _atom_site_fract_x
 _atom_site_fract_y
 _atom_site_fract_z
 _atom_site_occupancy
  Ho  Ho0  1  0.666667  0.333333  0.000000  1
  Ho  Ho1  1  0.333333  0.666667  0.000000  1
  Ho  Ho2  1  0.814608  0.814608  0.500000  1
  Ho  Ho3  1  0.185392  0.000000  0.500000  1
  Ho  Ho4  1  0.000000  0.185392  0.500000  1
  Co  Co5  1  0.876268  0.355474  0.500000  1
  Co  Co6  1  0.644526  0.520795  0.500000  1
  Co  Co7  1  0.479205  0.123732  0.500000  1
  Co  Co8  1  0.355474  0.876268  0.500000  1
  Co  Co9  1  0.520795  0.644526  0.500000  1
  Co  Co10  1  0.123732  0.479205  0.500000  1
  Co  Co11  1  0.803373  0.180357  0.000000  1
  Co  Co12  1  0.819643  0.623015  0.000000  1
  Co  Co13  1  0.376985  0.196627  0.000000  1
  Co  Co14  1  0.180357  0.803373  0.000000  1
  Co  Co15  1  0.623015  0.819643  0.000000  1
  Co  Co16  1  0.196627  0.376985  0.000000  1
  Co  Co17  1  0.279952  0.279952  0.500000  1
  Co  Co18  1  0.720048  0.000000  0.500000  1
  Co  Co19  1  0.000000  0.720048  0.500000  1
  Co  Co20  1  0.000000  0.000000  0.000000  1
  Si  Si21  1  0.684008  0.161749  0.500000  1
  Si  Si22  1  0.838251  0.522260  0.500000  1
  Si  Si23  1  0.477740  0.315992  0.500000  1
  Si  Si24  1  0.161749  0.684008  0.500000  1
  Si  Si25  1  0.522260  0.838251  0.500000  1
  Si  Si26  1  0.315992  0.477740  0.500000  1
  Si  Si27  1  0.183795  0.183795  0.000000  1
  Si  Si28  1  0.816205  0.000000  0.000000  1
  Si  Si29  1  0.000000  0.816205  0.000000  1
  Si  Si30  1  0.633158  0.633158  0.000000  1
  Si  Si31  1  0.366842  0.000000  0.000000  1
  Si  Si32  1  0.000000  0.366842  0.000000  1
  Os  Os33  1  0.439921  0.439921  0.000000  1
  Os  Os34  1  0.560079  0.000000  0.000000  1
  Os  Os35  1  0.000000  0.560079  0.000000  1
