# generated using pymatgen
data_Ho6Co13P12Ru5
_symmetry_space_group_name_H-M   'P 1'
_cell_length_a   3.76170000
_cell_length_b   10.58044458
_cell_length_c   12.34925655
_cell_angle_alpha   90.28348337
_cell_angle_beta   90.00000000
_cell_angle_gamma   90.00000000
_symmetry_Int_Tables_number   1
_chemical_formula_structural   Ho6Co13P12Ru5
_chemical_formula_sum   'Ho6 Co13 P12 Ru5'
_cell_volume   491.50005535
_cell_formula_units_Z   1
loop_
 _symmetry_equiv_pos_site_id
 _symmetry_equiv_pos_as_xyz
  1  'x, y, z'
loop_
 _atom_site_type_symbol
 _atom_site_label
 _atom_site_symmetry_multiplicity
 _atom_site_fract_x
 _atom_site_fract_y
 _atom_site_fract_z
 _atom_site_occupancy
  Ho  Ho0  1  0.000000  0.502616  0.526985  1
  Ho  Ho1  1  0.500000  0.995250  0.477031  1
  Ho  Ho2  1  0.500000  0.818576  0.202810  1
  Ho  Ho3  1  0.500000  0.182782  0.201580  1
  Ho  Ho4  1  0.000000  0.682671  0.795732  1
  Ho  Ho5  1  0.000000  0.317339  0.798402  1
  Co  Co6  1  0.000000  0.500388  0.985567  1
  Co  Co7  1  0.500000  0.999537  0.013924  1
  Co  Co8  1  0.000000  0.798444  0.573971  1
  Co  Co9  1  0.500000  0.877431  0.711704  1
  Co  Co10  1  0.500000  0.117867  0.715292  1
  Co  Co11  1  0.000000  0.622027  0.286077  1
  Co  Co12  1  0.000000  0.381045  0.284337  1
  Co  Co13  1  0.500000  0.332706  0.989857  1
  Co  Co14  1  0.500000  0.668024  0.990063  1
  Co  Co15  1  0.000000  0.166930  0.009413  1
  Co  Co16  1  0.000000  0.832337  0.009322  1
  Co  Co17  1  0.500000  0.500429  0.705156  1
  Co  Co18  1  0.000000  0.000679  0.294690  1
  P  P19  1  0.500000  0.312939  0.622391  1
  P  P20  1  0.500000  0.689303  0.621100  1
  P  P21  1  0.000000  0.186659  0.378136  1
  P  P22  1  0.000000  0.816241  0.381339  1
  P  P23  1  0.500000  0.500383  0.882384  1
  P  P24  1  0.000000  0.999989  0.117182  1
  P  P25  1  0.500000  0.845711  0.894535  1
  P  P26  1  0.500000  0.152734  0.894989  1
  P  P27  1  0.000000  0.654170  0.104893  1
  P  P28  1  0.000000  0.346896  0.104240  1
  P  P29  1  0.500000  0.500255  0.343573  1
  P  P30  1  0.000000  0.996201  0.654310  1
  Ru  Ru31  1  0.500000  0.298522  0.426702  1
  Ru  Ru32  1  0.500000  0.703975  0.430151  1
  Ru  Ru33  1  0.000000  0.200232  0.573736  1
  Ru  Ru34  1  0.500000  0.501030  0.155733  1
  Ru  Ru35  1  0.000000  0.997683  0.842691  1
