# generated using pymatgen
data_Li2MnCu(TeO4)4
_symmetry_space_group_name_H-M   'P 1'
_cell_length_a   4.76257001
_cell_length_b   5.53468803
_cell_length_c   10.62987454
_cell_angle_alpha   90.60202167
_cell_angle_beta   87.53200024
_cell_angle_gamma   91.68799503
_symmetry_Int_Tables_number   1
_chemical_formula_structural   Li2MnCu(TeO4)4
_chemical_formula_sum   'Li2 Mn1 Cu1 Te4 O16'
_cell_volume   279.80311445
_cell_formula_units_Z   1
loop_
 _symmetry_equiv_pos_site_id
 _symmetry_equiv_pos_as_xyz
  1  'x, y, z'
loop_
 _atom_site_type_symbol
 _atom_site_label
 _atom_site_symmetry_multiplicity
 _atom_site_fract_x
 _atom_site_fract_y
 _atom_site_fract_z
 _atom_site_occupancy
  Li  Li0  1  0.000000  0.000000  0.500000  1
  Li  Li1  1  0.500000  0.500000  0.000000  1
  Mn  Mn2  1  0.500000  0.500000  0.500000  1
  Cu  Cu3  1  0.000000  0.000000  0.000000  1
  Te  Te4  1  0.432584  0.195756  0.749873  1
  Te  Te5  1  0.070958  0.297718  0.254529  1
  Te  Te6  1  0.929042  0.702282  0.745471  1
  Te  Te7  1  0.567416  0.804244  0.250127  1
  O  O8  1  0.240237  0.223294  0.911745  1
  O  O9  1  0.759763  0.776706  0.088255  1
  O  O10  1  0.631243  0.228345  0.591654  1
  O  O11  1  0.770106  0.712763  0.584736  1
  O  O12  1  0.824209  0.036025  0.330834  1
  O  O13  1  0.792252  0.531933  0.319431  1
  O  O14  1  0.318888  0.548185  0.173044  1
  O  O15  1  0.674703  0.953212  0.816478  1
  O  O16  1  0.681112  0.451815  0.826956  1
  O  O17  1  0.117977  0.740667  0.901315  1
  O  O18  1  0.175791  0.963975  0.669166  1
  O  O19  1  0.368757  0.771655  0.408346  1
  O  O20  1  0.207748  0.468067  0.680569  1
  O  O21  1  0.229894  0.287237  0.415264  1
  O  O22  1  0.882023  0.259333  0.098685  1
  O  O23  1  0.325297  0.046788  0.183522  1
