# generated using pymatgen
data_La8Y2Os2Br15
_symmetry_space_group_name_H-M   'P 1'
_cell_length_a   9.82021300
_cell_length_b   10.62478873
_cell_length_c   11.26136328
_cell_angle_alpha   90.86558289
_cell_angle_beta   114.28688981
_cell_angle_gamma   110.82421952
_symmetry_Int_Tables_number   1
_chemical_formula_structural   La8Y2Os2Br15
_chemical_formula_sum   'La8 Y2 Os2 Br15'
_cell_volume   982.92205615
_cell_formula_units_Z   1
loop_
 _symmetry_equiv_pos_site_id
 _symmetry_equiv_pos_as_xyz
  1  'x, y, z'
loop_
 _atom_site_type_symbol
 _atom_site_label
 _atom_site_symmetry_multiplicity
 _atom_site_fract_x
 _atom_site_fract_y
 _atom_site_fract_z
 _atom_site_occupancy
  La  La0  1  0.308974  0.913630  0.278423  1
  La  La1  1  0.691026  0.086370  0.721577  1
  La  La2  1  0.088243  0.546436  0.327649  1
  La  La3  1  0.911757  0.453564  0.672351  1
  La  La4  1  0.821144  0.754670  0.183948  1
  La  La5  1  0.178856  0.245330  0.816052  1
  La  La6  1  0.973969  0.788953  0.904487  1
  La  La7  1  0.026031  0.211047  0.095513  1
  Y  Y8  1  0.247601  0.583130  0.052967  1
  Y  Y9  1  0.752399  0.416870  0.947033  1
  Os  Os10  1  0.031349  0.667800  0.116027  1
  Os  Os11  1  0.968651  0.332200  0.883973  1
  Br  Br12  1  0.334016  0.450886  0.288972  1
  Br  Br13  1  0.665984  0.549114  0.711028  1
  Br  Br14  1  0.211862  0.729508  0.826950  1
  Br  Br15  1  0.788138  0.270492  0.173050  1
  Br  Br16  1  0.137938  0.386200  0.582614  1
  Br  Br17  1  0.862062  0.613800  0.417386  1
  Br  Br18  1  0.385442  0.801500  0.529112  1
  Br  Br19  1  0.614558  0.198500  0.470888  1
  Br  Br20  1  0.255182  0.085601  0.052121  1
  Br  Br21  1  0.744818  0.914399  0.947879  1
  Br  Br22  1  0.549400  0.832438  0.217876  1
  Br  Br23  1  0.450600  0.167562  0.782124  1
  Br  Br24  1  0.091977  0.033566  0.332632  1
  Br  Br25  1  0.908023  0.966434  0.667368  1
  Br  Br26  1  0.500000  0.500000  0.000000  1
