# generated using pymatgen
data_Tb4Y2Al24Os5Rh3
_symmetry_space_group_name_H-M   'P 1'
_cell_length_a   8.81412048
_cell_length_b   8.79412075
_cell_length_c   9.58865192
_cell_angle_alpha   90.19622941
_cell_angle_beta   89.96852626
_cell_angle_gamma   119.38942703
_symmetry_Int_Tables_number   1
_chemical_formula_structural   Tb4Y2Al24Os5Rh3
_chemical_formula_sum   'Tb4 Y2 Al24 Os5 Rh3'
_cell_volume   647.58375647
_cell_formula_units_Z   1
loop_
 _symmetry_equiv_pos_site_id
 _symmetry_equiv_pos_as_xyz
  1  'x, y, z'
loop_
 _atom_site_type_symbol
 _atom_site_label
 _atom_site_symmetry_multiplicity
 _atom_site_fract_x
 _atom_site_fract_y
 _atom_site_fract_z
 _atom_site_occupancy
  Tb  Tb0  1  0.185827  0.385306  0.251140  1
  Tb  Tb1  1  0.814173  0.614694  0.748860  1
  Tb  Tb2  1  0.616955  0.813158  0.251404  1
  Tb  Tb3  1  0.383045  0.186842  0.748596  1
  Y  Y4  1  0.191071  0.804002  0.251313  1
  Y  Y5  1  0.808929  0.195998  0.748687  1
  Al  Al6  1  0.332329  0.666447  0.023559  1
  Al  Al7  1  0.667671  0.333553  0.976441  1
  Al  Al8  1  0.667185  0.332365  0.522293  1
  Al  Al9  1  0.332815  0.667635  0.477707  1
  Al  Al10  1  0.163374  0.327179  0.575861  1
  Al  Al11  1  0.836626  0.672821  0.424139  1
  Al  Al12  1  0.673563  0.837777  0.576205  1
  Al  Al13  1  0.836916  0.673164  0.076151  1
  Al  Al14  1  0.326437  0.162223  0.423795  1
  Al  Al15  1  0.163084  0.326836  0.923849  1
  Al  Al16  1  0.165734  0.836212  0.575490  1
  Al  Al17  1  0.326216  0.164274  0.076909  1
  Al  Al18  1  0.834266  0.163788  0.424510  1
  Al  Al19  1  0.673784  0.835726  0.923091  1
  Al  Al20  1  0.836925  0.166258  0.076138  1
  Al  Al21  1  0.163075  0.833742  0.923862  1
  Al  Al22  1  0.560692  0.124494  0.250111  1
  Al  Al23  1  0.439308  0.875506  0.749889  1
  Al  Al24  1  0.873409  0.438524  0.249643  1
  Al  Al25  1  0.126591  0.561476  0.750357  1
  Al  Al26  1  0.560191  0.439307  0.249775  1
  Al  Al27  1  0.439809  0.560693  0.750225  1
  Al  Al28  1  0.998193  0.000946  0.250074  1
  Al  Al29  1  0.001807  0.999054  0.749926  1
  Os  Os30  1  0.000000  0.500000  0.000000  1
  Os  Os31  1  0.500000  0.000000  0.500000  1
  Os  Os32  1  0.000000  0.500000  0.500000  1
  Os  Os33  1  0.000000  0.000000  0.000000  1
  Os  Os34  1  0.000000  0.000000  0.500000  1
  Rh  Rh35  1  0.500000  0.000000  0.000000  1
  Rh  Rh36  1  0.500000  0.500000  0.000000  1
  Rh  Rh37  1  0.500000  0.500000  0.500000  1
