# generated using pymatgen
data_Tb2Dy4Al24Os7Pt
_symmetry_space_group_name_H-M   'P 1'
_cell_length_a   8.82092204
_cell_length_b   8.82083474
_cell_length_c   9.58797428
_cell_angle_alpha   89.91865616
_cell_angle_beta   89.89140935
_cell_angle_gamma   119.66510909
_symmetry_Int_Tables_number   1
_chemical_formula_structural   Tb2Dy4Al24Os7Pt
_chemical_formula_sum   'Tb2 Dy4 Al24 Os7 Pt1'
_cell_volume   648.23798529
_cell_formula_units_Z   1
loop_
 _symmetry_equiv_pos_site_id
 _symmetry_equiv_pos_as_xyz
  1  'x, y, z'
loop_
 _atom_site_type_symbol
 _atom_site_label
 _atom_site_symmetry_multiplicity
 _atom_site_fract_x
 _atom_site_fract_y
 _atom_site_fract_z
 _atom_site_occupancy
  Tb  Tb0  1  0.193326  0.810488  0.250498  1
  Tb  Tb1  1  0.806674  0.189512  0.749502  1
  Dy  Dy2  1  0.190992  0.384961  0.252026  1
  Dy  Dy3  1  0.809008  0.615039  0.747974  1
  Dy  Dy4  1  0.611065  0.805529  0.252433  1
  Dy  Dy5  1  0.388935  0.194471  0.747567  1
  Al  Al6  1  0.337291  0.669228  0.022131  1
  Al  Al7  1  0.662709  0.330772  0.977869  1
  Al  Al8  1  0.667835  0.333155  0.520454  1
  Al  Al9  1  0.332165  0.666845  0.479546  1
  Al  Al10  1  0.164156  0.327596  0.575484  1
  Al  Al11  1  0.835844  0.672404  0.424516  1
  Al  Al12  1  0.672021  0.834784  0.575160  1
  Al  Al13  1  0.831725  0.674137  0.077858  1
  Al  Al14  1  0.327979  0.165216  0.424840  1
  Al  Al15  1  0.168275  0.325863  0.922142  1
  Al  Al16  1  0.163762  0.835751  0.574666  1
  Al  Al17  1  0.326974  0.164921  0.075729  1
  Al  Al18  1  0.836238  0.164249  0.425334  1
  Al  Al19  1  0.673026  0.835079  0.924271  1
  Al  Al20  1  0.831822  0.158467  0.076535  1
  Al  Al21  1  0.168178  0.841533  0.923465  1
  Al  Al22  1  0.561665  0.124283  0.249713  1
  Al  Al23  1  0.438335  0.875717  0.750287  1
  Al  Al24  1  0.875365  0.438405  0.252532  1
  Al  Al25  1  0.124635  0.561595  0.747468  1
  Al  Al26  1  0.560783  0.438146  0.249550  1
  Al  Al27  1  0.439217  0.561854  0.750450  1
  Al  Al28  1  0.998039  0.001621  0.250023  1
  Al  Al29  1  0.001961  0.998379  0.749977  1
  Os  Os30  1  0.500000  0.000000  0.000000  1
  Os  Os31  1  0.500000  0.000000  0.500000  1
  Os  Os32  1  0.500000  0.500000  0.000000  1
  Os  Os33  1  0.000000  0.500000  0.500000  1
  Os  Os34  1  0.500000  0.500000  0.500000  1
  Os  Os35  1  0.000000  0.000000  0.000000  1
  Os  Os36  1  0.000000  0.000000  0.500000  1
  Pt  Pt37  1  0.000000  0.500000  0.000000  1
