# generated using pymatgen
data_NdErCo3P7Ru9
_symmetry_space_group_name_H-M   'P 1'
_cell_length_a   9.35455900
_cell_length_b   9.35455985
_cell_length_c   3.84858100
_cell_angle_alpha   90.00000000
_cell_angle_beta   90.00000000
_cell_angle_gamma   119.99999960
_symmetry_Int_Tables_number   1
_chemical_formula_structural   NdErCo3P7Ru9
_chemical_formula_sum   'Nd1 Er1 Co3 P7 Ru9'
_cell_volume   291.66071834
_cell_formula_units_Z   1
loop_
 _symmetry_equiv_pos_site_id
 _symmetry_equiv_pos_as_xyz
  1  'x, y, z'
loop_
 _atom_site_type_symbol
 _atom_site_label
 _atom_site_symmetry_multiplicity
 _atom_site_fract_x
 _atom_site_fract_y
 _atom_site_fract_z
 _atom_site_occupancy
  Nd  Nd0  1  0.000000  0.000000  0.000000  1
  Er  Er1  1  0.333333  0.666667  0.500000  1
  Co  Co2  1  0.824867  0.602144  0.000000  1
  Co  Co3  1  0.397856  0.222723  0.000000  1
  Co  Co4  1  0.777277  0.175133  0.000000  1
  P  P5  1  0.779825  0.730203  0.500000  1
  P  P6  1  0.269797  0.049623  0.500000  1
  P  P7  1  0.950377  0.220175  0.500000  1
  P  P8  1  0.666667  0.333333  0.000000  1
  P  P9  1  0.079792  0.636338  0.000000  1
  P  P10  1  0.363662  0.443454  0.000000  1
  P  P11  1  0.556546  0.920208  0.000000  1
  Ru  Ru12  1  0.091316  0.397159  0.000000  1
  Ru  Ru13  1  0.602841  0.694157  0.000000  1
  Ru  Ru14  1  0.305843  0.908684  0.000000  1
  Ru  Ru15  1  0.051030  0.766434  0.500000  1
  Ru  Ru16  1  0.233566  0.284594  0.500000  1
  Ru  Ru17  1  0.715406  0.948970  0.500000  1
  Ru  Ru18  1  0.871387  0.418577  0.500000  1
  Ru  Ru19  1  0.581423  0.452811  0.500000  1
  Ru  Ru20  1  0.547189  0.128613  0.500000  1
