# generated using pymatgen
data_Pu(OF3)2
_symmetry_space_group_name_H-M   'P 1'
_cell_length_a   5.50258389
_cell_length_b   5.61088817
_cell_length_c   5.64447300
_cell_angle_alpha   92.45779192
_cell_angle_beta   102.08022823
_cell_angle_gamma   100.47959774
_symmetry_Int_Tables_number   1
_chemical_formula_structural   Pu(OF3)2
_chemical_formula_sum   'Pu1 O2 F6'
_cell_volume   166.97316059
_cell_formula_units_Z   1
loop_
 _symmetry_equiv_pos_site_id
 _symmetry_equiv_pos_as_xyz
  1  'x, y, z'
loop_
 _atom_site_type_symbol
 _atom_site_label
 _atom_site_symmetry_multiplicity
 _atom_site_fract_x
 _atom_site_fract_y
 _atom_site_fract_z
 _atom_site_occupancy
  Pu  Pu0  1  0.000000  0.000000  0.000000  1
  O  O1  1  0.413992  0.539391  0.529551  1
  O  O2  1  0.586008  0.460609  0.470449  1
  F  F3  1  0.787648  0.691033  0.074175  1
  F  F4  1  0.687399  0.081796  0.788811  1
  F  F5  1  0.312601  0.918204  0.211189  1
  F  F6  1  0.062695  0.818568  0.710516  1
  F  F7  1  0.937305  0.181432  0.289484  1
  F  F8  1  0.212352  0.308967  0.925825  1
