# generated using pymatgen
data_LiMgUO4
_symmetry_space_group_name_H-M   'P 1'
_cell_length_a   5.12805400
_cell_length_b   6.17437300
_cell_length_c   10.72329900
_cell_angle_alpha   90.00000000
_cell_angle_beta   90.00000000
_cell_angle_gamma   90.00000000
_symmetry_Int_Tables_number   1
_chemical_formula_structural   LiMgUO4
_chemical_formula_sum   'Li4 Mg4 U4 O16'
_cell_volume   339.52664932
_cell_formula_units_Z   4
loop_
 _symmetry_equiv_pos_site_id
 _symmetry_equiv_pos_as_xyz
  1  'x, y, z'
loop_
 _atom_site_type_symbol
 _atom_site_label
 _atom_site_symmetry_multiplicity
 _atom_site_fract_x
 _atom_site_fract_y
 _atom_site_fract_z
 _atom_site_occupancy
  Li  Li0  1  0.543607  0.750000  0.921616  1
  Li  Li1  1  0.043607  0.250000  0.578384  1
  Li  Li2  1  0.456393  0.250000  0.078384  1
  Li  Li3  1  0.956393  0.750000  0.421616  1
  Mg  Mg4  1  0.500000  0.000000  0.500000  1
  Mg  Mg5  1  0.000000  0.000000  0.000000  1
  Mg  Mg6  1  0.500000  0.500000  0.500000  1
  Mg  Mg7  1  0.000000  0.500000  0.000000  1
  U  U8  1  0.984985  0.750000  0.731949  1
  U  U9  1  0.484985  0.250000  0.768051  1
  U  U10  1  0.015015  0.250000  0.268051  1
  U  U11  1  0.515015  0.750000  0.231949  1
  O  O12  1  0.179767  0.750000  0.903664  1
  O  O13  1  0.251312  0.250000  0.423870  1
  O  O14  1  0.248688  0.250000  0.923870  1
  O  O15  1  0.751312  0.750000  0.076130  1
  O  O16  1  0.258687  0.011218  0.161224  1
  O  O17  1  0.758687  0.988782  0.338776  1
  O  O18  1  0.741313  0.511218  0.838776  1
  O  O19  1  0.241313  0.488782  0.661224  1
  O  O20  1  0.741313  0.988782  0.838776  1
  O  O21  1  0.241313  0.011218  0.661224  1
  O  O22  1  0.258687  0.488782  0.161224  1
  O  O23  1  0.758687  0.511218  0.338776  1
  O  O24  1  0.820233  0.250000  0.096336  1
  O  O25  1  0.320233  0.750000  0.403664  1
  O  O26  1  0.748688  0.750000  0.576130  1
  O  O27  1  0.679767  0.250000  0.596336  1
