# generated using pymatgen
data_Er3Sc3Al6PtAu5
_symmetry_space_group_name_H-M   'P 1'
_cell_length_a   7.20347700
_cell_length_b   7.20347805
_cell_length_c   7.82972800
_cell_angle_alpha   90.00000000
_cell_angle_beta   90.00000000
_cell_angle_gamma   119.99999978
_symmetry_Int_Tables_number   1
_chemical_formula_structural   Er3Sc3Al6PtAu5
_chemical_formula_sum   'Er3 Sc3 Al6 Pt1 Au5'
_cell_volume   351.85337309
_cell_formula_units_Z   1
loop_
 _symmetry_equiv_pos_site_id
 _symmetry_equiv_pos_as_xyz
  1  'x, y, z'
loop_
 _atom_site_type_symbol
 _atom_site_label
 _atom_site_symmetry_multiplicity
 _atom_site_fract_x
 _atom_site_fract_y
 _atom_site_fract_z
 _atom_site_occupancy
  Er  Er0  1  0.581716  0.999495  0.750000  1
  Er  Er1  1  0.000505  0.582222  0.750000  1
  Er  Er2  1  0.417778  0.418284  0.750000  1
  Sc  Sc3  1  0.998946  0.599316  0.250000  1
  Sc  Sc4  1  0.600370  0.001054  0.250000  1
  Sc  Sc5  1  0.400684  0.399630  0.250000  1
  Al  Al6  1  0.752356  0.752670  0.012983  1
  Al  Al7  1  0.247330  0.999686  0.012983  1
  Al  Al8  1  0.000314  0.247644  0.012983  1
  Al  Al9  1  0.752356  0.752670  0.487017  1
  Al  Al10  1  0.247330  0.999686  0.487017  1
  Al  Al11  1  0.000314  0.247644  0.487017  1
  Pt  Pt12  1  0.000000  0.000000  0.250000  1
  Au  Au13  1  0.000000  0.000000  0.750000  1
  Au  Au14  1  0.666667  0.333333  0.018621  1
  Au  Au15  1  0.666667  0.333333  0.481379  1
  Au  Au16  1  0.333333  0.666667  0.480044  1
  Au  Au17  1  0.333333  0.666667  0.019956  1
