# generated using pymatgen
data_Y4Al18IrPd3Rh2
_symmetry_space_group_name_H-M   'P 1'
_cell_length_a   7.61696376
_cell_length_b   7.61698126
_cell_length_c   9.46052019
_cell_angle_alpha   89.98885870
_cell_angle_beta   89.98863281
_cell_angle_gamma   119.58604371
_symmetry_Int_Tables_number   1
_chemical_formula_structural   Y4Al18IrPd3Rh2
_chemical_formula_sum   'Y4 Al18 Ir1 Pd3 Rh2'
_cell_volume   477.31698840
_cell_formula_units_Z   1
loop_
 _symmetry_equiv_pos_site_id
 _symmetry_equiv_pos_as_xyz
  1  'x, y, z'
loop_
 _atom_site_type_symbol
 _atom_site_label
 _atom_site_symmetry_multiplicity
 _atom_site_fract_x
 _atom_site_fract_y
 _atom_site_fract_z
 _atom_site_occupancy
  Y  Y0  1  0.994341  0.671409  0.749870  1
  Y  Y1  1  0.003876  0.327517  0.250291  1
  Y  Y2  1  0.672483  0.996127  0.749712  1
  Y  Y3  1  0.328589  0.005657  0.250129  1
  Al  Al4  1  0.132418  0.131204  0.750760  1
  Al  Al5  1  0.868797  0.867582  0.249240  1
  Al  Al6  1  0.004180  0.338526  0.576444  1
  Al  Al7  1  0.002165  0.665144  0.423667  1
  Al  Al8  1  0.000307  0.661196  0.074188  1
  Al  Al9  1  0.338801  0.999690  0.925811  1
  Al  Al10  1  0.000023  0.338808  0.925233  1
  Al  Al11  1  0.661193  0.999977  0.074766  1
  Al  Al12  1  0.661475  0.995821  0.423555  1
  Al  Al13  1  0.334857  0.997835  0.576331  1
  Al  Al14  1  0.335517  0.335651  0.051466  1
  Al  Al15  1  0.664349  0.664483  0.948534  1
  Al  Al16  1  0.663392  0.666067  0.555124  1
  Al  Al17  1  0.333933  0.336608  0.444874  1
  Al  Al18  1  0.339970  0.550529  0.751348  1
  Al  Al19  1  0.661229  0.452071  0.246469  1
  Al  Al20  1  0.547930  0.338771  0.753531  1
  Al  Al21  1  0.449472  0.660030  0.248655  1
  Ir  Ir22  1  0.328209  0.671790  0.500001  1
  Pd  Pd23  1  0.672485  0.327517  0.499998  1
  Pd  Pd24  1  0.999728  0.000272  0.500000  1
  Pd  Pd25  1  0.000028  0.999972  0.999998  1
  Rh  Rh26  1  0.328240  0.671770  0.000005  1
  Rh  Rh27  1  0.672012  0.327979  0.000001  1
