# generated using pymatgen
data_Zr4MnRe6Tc
_symmetry_space_group_name_H-M   'P 1'
_cell_length_a   5.25154300
_cell_length_b   5.25154319
_cell_length_c   8.71333300
_cell_angle_alpha   90.00000000
_cell_angle_beta   90.00000000
_cell_angle_gamma   120.00001770
_symmetry_Int_Tables_number   1
_chemical_formula_structural   Zr4MnRe6Tc
_chemical_formula_sum   'Zr4 Mn1 Re6 Tc1'
_cell_volume   208.10797990
_cell_formula_units_Z   1
loop_
 _symmetry_equiv_pos_site_id
 _symmetry_equiv_pos_as_xyz
  1  'x, y, z'
loop_
 _atom_site_type_symbol
 _atom_site_label
 _atom_site_symmetry_multiplicity
 _atom_site_fract_x
 _atom_site_fract_y
 _atom_site_fract_z
 _atom_site_occupancy
  Zr  Zr0  1  0.333333  0.666667  0.435891  1
  Zr  Zr1  1  0.666667  0.333333  0.564109  1
  Zr  Zr2  1  0.666667  0.333333  0.935668  1
  Zr  Zr3  1  0.333333  0.666667  0.064332  1
  Mn  Mn4  1  0.000000  0.000000  0.000000  1
  Re  Re5  1  0.830608  0.169392  0.245886  1
  Re  Re6  1  0.830608  0.661216  0.245886  1
  Re  Re7  1  0.338784  0.169392  0.245886  1
  Re  Re8  1  0.169392  0.830608  0.754114  1
  Re  Re9  1  0.169392  0.338784  0.754114  1
  Re  Re10  1  0.661216  0.830608  0.754114  1
  Tc  Tc11  1  0.000000  0.000000  0.500000  1
