# generated using pymatgen
data_Li3Si2Ag
_symmetry_space_group_name_H-M   'P 1'
_cell_length_a   4.37244033
_cell_length_b   4.37244076
_cell_length_c   9.44089496
_cell_angle_alpha   103.17509079
_cell_angle_beta   103.17509536
_cell_angle_gamma   90.18465317
_symmetry_Int_Tables_number   1
_chemical_formula_structural   Li3Si2Ag
_chemical_formula_sum   'Li6 Si4 Ag2'
_cell_volume   170.82643069
_cell_formula_units_Z   2
loop_
 _symmetry_equiv_pos_site_id
 _symmetry_equiv_pos_as_xyz
  1  'x, y, z'
loop_
 _atom_site_type_symbol
 _atom_site_label
 _atom_site_symmetry_multiplicity
 _atom_site_fract_x
 _atom_site_fract_y
 _atom_site_fract_z
 _atom_site_occupancy
  Li  Li0  1  0.537098  0.791538  0.081940  1
  Li  Li1  1  0.121190  0.878809  0.250000  1
  Li  Li2  1  0.208462  0.462902  0.418060  1
  Li  Li3  1  0.791538  0.537098  0.581940  1
  Li  Li4  1  0.878810  0.121190  0.750000  1
  Li  Li5  1  0.462902  0.208462  0.918060  1
  Si  Si6  1  0.038603  0.287964  0.073745  1
  Si  Si7  1  0.712037  0.961397  0.426255  1
  Si  Si8  1  0.287964  0.038604  0.573745  1
  Si  Si9  1  0.961396  0.712036  0.926255  1
  Ag  Ag10  1  0.625039  0.374960  0.250000  1
  Ag  Ag11  1  0.374960  0.625040  0.750000  1
