# generated using pymatgen
data_Pr2SmCCl5
_symmetry_space_group_name_H-M   'P 1'
_cell_length_a   7.42268588
_cell_length_b   8.88001616
_cell_length_c   8.93363626
_cell_angle_alpha   108.48797828
_cell_angle_beta   96.53387681
_cell_angle_gamma   106.10778413
_symmetry_Int_Tables_number   1
_chemical_formula_structural   Pr2SmCCl5
_chemical_formula_sum   'Pr4 Sm2 C2 Cl10'
_cell_volume   523.21290693
_cell_formula_units_Z   2
loop_
 _symmetry_equiv_pos_site_id
 _symmetry_equiv_pos_as_xyz
  1  'x, y, z'
loop_
 _atom_site_type_symbol
 _atom_site_label
 _atom_site_symmetry_multiplicity
 _atom_site_fract_x
 _atom_site_fract_y
 _atom_site_fract_z
 _atom_site_occupancy
  Pr  Pr0  1  0.878431  0.952014  0.236679  1
  Pr  Pr1  1  0.121569  0.047986  0.763321  1
  Pr  Pr2  1  0.026678  0.710685  0.910644  1
  Pr  Pr3  1  0.973322  0.289315  0.089356  1
  Sm  Sm4  1  0.606941  0.843581  0.793561  1
  Sm  Sm5  1  0.393059  0.156419  0.206439  1
  C  C6  1  0.905588  0.965737  0.952261  1
  C  C7  1  0.094412  0.034263  0.047739  1
  Cl  Cl8  1  0.751591  0.914179  0.541692  1
  Cl  Cl9  1  0.248409  0.085821  0.458308  1
  Cl  Cl10  1  0.456782  0.828260  0.077602  1
  Cl  Cl11  1  0.543218  0.171740  0.922398  1
  Cl  Cl12  1  0.808353  0.261878  0.353745  1
  Cl  Cl13  1  0.191647  0.738122  0.646255  1
  Cl  Cl14  1  0.907961  0.627196  0.171881  1
  Cl  Cl15  1  0.092039  0.372804  0.828119  1
  Cl  Cl16  1  0.649441  0.539276  0.720275  1
  Cl  Cl17  1  0.350559  0.460724  0.279725  1
