# generated using pymatgen
data_Ho7Lu13Si15P
_symmetry_space_group_name_H-M   'P 1'
_cell_length_a   7.24719188
_cell_length_b   7.53624777
_cell_length_c   14.28437100
_cell_angle_alpha   89.96420652
_cell_angle_beta   90.02820835
_cell_angle_gamma   90.08504616
_symmetry_Int_Tables_number   1
_chemical_formula_structural   Ho7Lu13Si15P
_chemical_formula_sum   'Ho7 Lu13 Si15 P1'
_cell_volume   780.16315161
_cell_formula_units_Z   1
loop_
 _symmetry_equiv_pos_site_id
 _symmetry_equiv_pos_as_xyz
  1  'x, y, z'
loop_
 _atom_site_type_symbol
 _atom_site_label
 _atom_site_symmetry_multiplicity
 _atom_site_fract_x
 _atom_site_fract_y
 _atom_site_fract_z
 _atom_site_occupancy
  Ho  Ho0  1  0.990247  0.823907  0.900215  1
  Ho  Ho1  1  0.488859  0.677496  0.904187  1
  Ho  Ho2  1  0.989873  0.823771  0.600464  1
  Ho  Ho3  1  0.512929  0.321152  0.096024  1
  Ho  Ho4  1  0.011530  0.176158  0.404029  1
  Ho  Ho5  1  0.513071  0.321604  0.403154  1
  Ho  Ho6  1  0.489129  0.677666  0.596453  1
  Lu  Lu7  1  0.011729  0.176911  0.096450  1
  Lu  Lu8  1  0.161972  0.507923  0.750282  1
  Lu  Lu9  1  0.836508  0.490885  0.249519  1
  Lu  Lu10  1  0.336472  0.009314  0.249551  1
  Lu  Lu11  1  0.665242  0.993585  0.750256  1
  Lu  Lu12  1  0.327123  0.172341  0.625977  1
  Lu  Lu13  1  0.668336  0.822385  0.376607  1
  Lu  Lu14  1  0.168159  0.678715  0.376361  1
  Lu  Lu15  1  0.668039  0.823110  0.122719  1
  Lu  Lu16  1  0.829950  0.324227  0.624646  1
  Lu  Lu17  1  0.327096  0.172086  0.874271  1
  Lu  Lu18  1  0.830573  0.323449  0.875697  1
  Lu  Lu19  1  0.167621  0.679094  0.123319  1
  Si  Si20  1  0.963443  0.892895  0.249538  1
  Si  Si21  1  0.464539  0.608117  0.249676  1
  Si  Si22  1  0.531665  0.388687  0.750369  1
  Si  Si23  1  0.297487  0.857579  0.750300  1
  Si  Si24  1  0.717744  0.129014  0.249080  1
  Si  Si25  1  0.216583  0.370626  0.249201  1
  Si  Si26  1  0.785215  0.632702  0.750321  1
  Si  Si27  1  0.160766  0.465246  0.539197  1
  Si  Si28  1  0.839588  0.533195  0.461465  1
  Si  Si29  1  0.337630  0.968099  0.460759  1
  Si  Si30  1  0.840197  0.532097  0.038933  1
  Si  Si31  1  0.663807  0.034259  0.539731  1
  Si  Si32  1  0.160356  0.463919  0.961404  1
  Si  Si33  1  0.664312  0.034125  0.960086  1
  Si  Si34  1  0.334324  0.969313  0.039566  1
  P  P35  1  0.027887  0.124347  0.750195  1
