# generated using pymatgen
data_Ac(GaRu)2
_symmetry_space_group_name_H-M   'P 1'
_cell_length_a   4.53723131
_cell_length_b   4.53723173
_cell_length_c   5.82572889
_cell_angle_alpha   112.91799727
_cell_angle_beta   112.91799077
_cell_angle_gamma   90.00000006
_symmetry_Int_Tables_number   1
_chemical_formula_structural   Ac(GaRu)2
_chemical_formula_sum   'Ac1 Ga2 Ru2'
_cell_volume   100.10588915
_cell_formula_units_Z   1
loop_
 _symmetry_equiv_pos_site_id
 _symmetry_equiv_pos_as_xyz
  1  'x, y, z'
loop_
 _atom_site_type_symbol
 _atom_site_label
 _atom_site_symmetry_multiplicity
 _atom_site_fract_x
 _atom_site_fract_y
 _atom_site_fract_z
 _atom_site_occupancy
  Ac  Ac0  1  0.000000  0.000000  0.000000  1
  Ga  Ga1  1  0.641429  0.641429  0.282858  1
  Ga  Ga2  1  0.358570  0.358570  0.717142  1
  Ru  Ru3  1  0.750001  0.249999  0.499999  1
  Ru  Ru4  1  0.249999  0.750001  0.499999  1
