# generated using pymatgen
data_Er20Ir8OsRu3
_symmetry_space_group_name_H-M   'P 1'
_cell_length_a   10.74560500
_cell_length_b   10.74560500
_cell_length_c   6.38105600
_cell_angle_alpha   90.00000000
_cell_angle_beta   90.00000000
_cell_angle_gamma   90.00000000
_symmetry_Int_Tables_number   1
_chemical_formula_structural   Er20Ir8OsRu3
_chemical_formula_sum   'Er20 Ir8 Os1 Ru3'
_cell_volume   736.80794532
_cell_formula_units_Z   1
loop_
 _symmetry_equiv_pos_site_id
 _symmetry_equiv_pos_as_xyz
  1  'x, y, z'
loop_
 _atom_site_type_symbol
 _atom_site_label
 _atom_site_symmetry_multiplicity
 _atom_site_fract_x
 _atom_site_fract_y
 _atom_site_fract_z
 _atom_site_occupancy
  Er  Er0  1  0.293508  0.086370  0.376820  1
  Er  Er1  1  0.293600  0.913547  0.877362  1
  Er  Er2  1  0.706400  0.086453  0.877362  1
  Er  Er3  1  0.706492  0.913630  0.376820  1
  Er  Er4  1  0.586453  0.793600  0.877362  1
  Er  Er5  1  0.586370  0.206492  0.376820  1
  Er  Er6  1  0.413630  0.793508  0.376820  1
  Er  Er7  1  0.413547  0.206400  0.877362  1
  Er  Er8  1  0.206586  0.413544  0.622609  1
  Er  Er9  1  0.206581  0.586481  0.122795  1
  Er  Er10  1  0.793419  0.413519  0.122795  1
  Er  Er11  1  0.793414  0.586456  0.622609  1
  Er  Er12  1  0.913519  0.706581  0.122795  1
  Er  Er13  1  0.913544  0.293414  0.622609  1
  Er  Er14  1  0.086456  0.706586  0.622609  1
  Er  Er15  1  0.086481  0.293419  0.122795  1
  Er  Er16  1  0.000000  0.000000  0.500026  1
  Er  Er17  1  0.000000  0.000000  0.999928  1
  Er  Er18  1  0.500000  0.500000  0.999928  1
  Er  Er19  1  0.500000  0.500000  0.500026  1
  Ir  Ir20  1  0.847660  0.152817  0.250243  1
  Ir  Ir21  1  0.847619  0.847161  0.750085  1
  Ir  Ir22  1  0.152381  0.152839  0.750085  1
  Ir  Ir23  1  0.152340  0.847183  0.250243  1
  Ir  Ir24  1  0.652839  0.347619  0.750085  1
  Ir  Ir25  1  0.652817  0.652340  0.250243  1
  Ir  Ir26  1  0.347183  0.347660  0.250243  1
  Ir  Ir27  1  0.347161  0.652381  0.750085  1
  Os  Os28  1  0.500000  0.000000  0.122870  1
  Ru  Ru29  1  0.500000  0.000000  0.621938  1
  Ru  Ru30  1  0.000000  0.500000  0.877728  1
  Ru  Ru31  1  0.000000  0.500000  0.377898  1
