# generated using pymatgen
data_TbLu7Ta10(TiSi8)2
_symmetry_space_group_name_H-M   'P 1'
_cell_length_a   7.00346001
_cell_length_b   6.99786426
_cell_length_c   12.86574707
_cell_angle_alpha   89.95433533
_cell_angle_beta   89.99696220
_cell_angle_gamma   89.96936506
_symmetry_Int_Tables_number   1
_chemical_formula_structural   TbLu7Ta10(TiSi8)2
_chemical_formula_sum   'Tb1 Lu7 Ta10 Ti2 Si16'
_cell_volume   630.54048352
_cell_formula_units_Z   1
loop_
 _symmetry_equiv_pos_site_id
 _symmetry_equiv_pos_as_xyz
  1  'x, y, z'
loop_
 _atom_site_type_symbol
 _atom_site_label
 _atom_site_symmetry_multiplicity
 _atom_site_fract_x
 _atom_site_fract_y
 _atom_site_fract_z
 _atom_site_occupancy
  Tb  Tb0  1  0.996238  0.659615  0.031973  1
  Lu  Lu1  1  0.341910  0.002021  0.468125  1
  Lu  Lu2  1  0.498765  0.841893  0.717806  1
  Lu  Lu3  1  0.500922  0.158272  0.218747  1
  Lu  Lu4  1  0.841927  0.499105  0.282512  1
  Lu  Lu5  1  0.158413  0.500529  0.781676  1
  Lu  Lu6  1  0.657787  0.998068  0.967520  1
  Lu  Lu7  1  0.002045  0.341172  0.531665  1
  Ta  Ta8  1  0.329253  0.328515  0.999607  1
  Ta  Ta9  1  0.173039  0.827533  0.250697  1
  Ta  Ta10  1  0.827224  0.172967  0.749503  1
  Ta  Ta11  1  0.671176  0.671001  0.499821  1
  Ta  Ta12  1  0.153045  0.005806  0.872876  1
  Ta  Ta13  1  0.493981  0.651897  0.124536  1
  Ta  Ta14  1  0.506132  0.348610  0.623876  1
  Ta  Ta15  1  0.651310  0.491544  0.875284  1
  Ta  Ta16  1  0.348752  0.507319  0.376617  1
  Ta  Ta17  1  0.847976  0.994096  0.374299  1
  Ti  Ti18  1  0.007385  0.153250  0.126560  1
  Ti  Ti19  1  0.992940  0.847758  0.625830  1
  Si  Si20  1  0.202627  0.133119  0.679822  1
  Si  Si21  1  0.366328  0.705216  0.930227  1
  Si  Si22  1  0.635653  0.294877  0.430770  1
  Si  Si23  1  0.703937  0.361363  0.069615  1
  Si  Si24  1  0.294009  0.637247  0.570098  1
  Si  Si25  1  0.795812  0.869041  0.181936  1
  Si  Si26  1  0.135685  0.203601  0.319290  1
  Si  Si27  1  0.864242  0.796766  0.817636  1
  Si  Si28  1  0.294909  0.956234  0.064732  1
  Si  Si29  1  0.545703  0.796730  0.314300  1
  Si  Si30  1  0.453625  0.203534  0.813419  1
  Si  Si31  1  0.797943  0.547174  0.684749  1
  Si  Si32  1  0.203582  0.451860  0.186159  1
  Si  Si33  1  0.705859  0.044907  0.564684  1
  Si  Si34  1  0.954429  0.292808  0.936152  1
  Si  Si35  1  0.045435  0.704549  0.436878  1
