# generated using pymatgen
data_Ir2SeS3
_symmetry_space_group_name_H-M   'P 1'
_cell_length_a   3.65359800
_cell_length_b   5.69679800
_cell_length_c   20.39734600
_cell_angle_alpha   90.00000000
_cell_angle_beta   90.00000000
_cell_angle_gamma   90.00000000
_symmetry_Int_Tables_number   1
_chemical_formula_structural   Ir2SeS3
_chemical_formula_sum   'Ir8 Se4 S12'
_cell_volume   424.54647964
_cell_formula_units_Z   4
loop_
 _symmetry_equiv_pos_site_id
 _symmetry_equiv_pos_as_xyz
  1  'x, y, z'
loop_
 _atom_site_type_symbol
 _atom_site_label
 _atom_site_symmetry_multiplicity
 _atom_site_fract_x
 _atom_site_fract_y
 _atom_site_fract_z
 _atom_site_occupancy
  Ir  Ir0  1  0.250000  0.940284  0.802994  1
  Ir  Ir1  1  0.750000  0.059716  0.197006  1
  Ir  Ir2  1  0.750000  0.440284  0.697006  1
  Ir  Ir3  1  0.250000  0.559716  0.302994  1
  Ir  Ir4  1  0.250000  0.926803  0.581254  1
  Ir  Ir5  1  0.750000  0.073197  0.418746  1
  Ir  Ir6  1  0.750000  0.426803  0.918746  1
  Ir  Ir7  1  0.250000  0.573197  0.081254  1
  Se  Se8  1  0.250000  0.236571  0.491646  1
  Se  Se9  1  0.750000  0.763429  0.508354  1
  Se  Se10  1  0.750000  0.736571  0.008354  1
  Se  Se11  1  0.250000  0.263429  0.991646  1
  S  S12  1  0.250000  0.179619  0.262158  1
  S  S13  1  0.750000  0.820381  0.737842  1
  S  S14  1  0.750000  0.679619  0.237842  1
  S  S15  1  0.250000  0.320381  0.762158  1
  S  S16  1  0.250000  0.935466  0.357425  1
  S  S17  1  0.750000  0.064534  0.642575  1
  S  S18  1  0.750000  0.435466  0.142575  1
  S  S19  1  0.250000  0.564534  0.857425  1
  S  S20  1  0.250000  0.546815  0.626509  1
  S  S21  1  0.750000  0.453185  0.373491  1
  S  S22  1  0.750000  0.046815  0.873491  1
  S  S23  1  0.250000  0.953185  0.126509  1
