# generated using pymatgen
data_NaDy6CoCl12
_symmetry_space_group_name_H-M   'P 1'
_cell_length_a   8.77770922
_cell_length_b   8.84584436
_cell_length_c   8.78974131
_cell_angle_alpha   107.27126218
_cell_angle_beta   106.72412199
_cell_angle_gamma   106.99934335
_symmetry_Int_Tables_number   1
_chemical_formula_structural   NaDy6CoCl12
_chemical_formula_sum   'Na1 Dy6 Co1 Cl12'
_cell_volume   568.40179763
_cell_formula_units_Z   1
loop_
 _symmetry_equiv_pos_site_id
 _symmetry_equiv_pos_as_xyz
  1  'x, y, z'
loop_
 _atom_site_type_symbol
 _atom_site_label
 _atom_site_symmetry_multiplicity
 _atom_site_fract_x
 _atom_site_fract_y
 _atom_site_fract_z
 _atom_site_occupancy
  Na  Na0  1  0.500000  0.500000  0.500000  1
  Dy  Dy1  1  0.111481  0.323000  0.028601  1
  Dy  Dy2  1  0.318035  0.028195  0.109415  1
  Dy  Dy3  1  0.028738  0.108953  0.319229  1
  Dy  Dy4  1  0.971263  0.891047  0.680772  1
  Dy  Dy5  1  0.681965  0.971806  0.890585  1
  Dy  Dy6  1  0.888519  0.677000  0.971399  1
  Co  Co7  1  0.000000  0.000000  0.000000  1
  Cl  Cl8  1  0.215683  0.681830  0.072253  1
  Cl  Cl9  1  0.446876  0.365712  0.148795  1
  Cl  Cl10  1  0.682220  0.072695  0.216248  1
  Cl  Cl11  1  0.927267  0.784384  0.318839  1
  Cl  Cl12  1  0.148582  0.445812  0.366325  1
  Cl  Cl13  1  0.366997  0.149673  0.447155  1
  Cl  Cl14  1  0.633003  0.850327  0.552846  1
  Cl  Cl15  1  0.851419  0.554188  0.633675  1
  Cl  Cl16  1  0.072734  0.215616  0.681162  1
  Cl  Cl17  1  0.317781  0.927306  0.783752  1
  Cl  Cl18  1  0.553124  0.634288  0.851206  1
  Cl  Cl19  1  0.784317  0.318170  0.927747  1
