# generated using pymatgen
data_Hf6Al16OsPt6
_symmetry_space_group_name_H-M   'P 1'
_cell_length_a   8.75606306
_cell_length_b   8.75606310
_cell_length_c   8.74551100
_cell_angle_alpha   60.03985325
_cell_angle_beta   60.03985308
_cell_angle_gamma   59.90470257
_symmetry_Int_Tables_number   1
_chemical_formula_structural   Hf6Al16OsPt6
_chemical_formula_sum   'Hf6 Al16 Os1 Pt6'
_cell_volume   474.06202625
_cell_formula_units_Z   1
loop_
 _symmetry_equiv_pos_site_id
 _symmetry_equiv_pos_as_xyz
  1  'x, y, z'
loop_
 _atom_site_type_symbol
 _atom_site_label
 _atom_site_symmetry_multiplicity
 _atom_site_fract_x
 _atom_site_fract_y
 _atom_site_fract_z
 _atom_site_occupancy
  Hf  Hf0  1  0.682330  0.682330  0.317670  1
  Hf  Hf1  1  0.321799  0.678201  0.317305  1
  Hf  Hf2  1  0.678201  0.321799  0.317305  1
  Hf  Hf3  1  0.317670  0.317670  0.682330  1
  Hf  Hf4  1  0.678201  0.321799  0.682695  1
  Hf  Hf5  1  0.321799  0.678201  0.682695  1
  Al  Al6  1  0.879469  0.879469  0.360277  1
  Al  Al7  1  0.870413  0.362262  0.883662  1
  Al  Al8  1  0.362262  0.870413  0.883662  1
  Al  Al9  1  0.879469  0.879469  0.880784  1
  Al  Al10  1  0.120531  0.120531  0.639723  1
  Al  Al11  1  0.129587  0.637738  0.116338  1
  Al  Al12  1  0.637738  0.129587  0.116338  1
  Al  Al13  1  0.120531  0.120531  0.119216  1
  Al  Al14  1  0.662270  0.662270  0.009852  1
  Al  Al15  1  0.662592  0.012024  0.662692  1
  Al  Al16  1  0.012024  0.662592  0.662692  1
  Al  Al17  1  0.662270  0.662270  0.665606  1
  Al  Al18  1  0.337730  0.337730  0.990148  1
  Al  Al19  1  0.337408  0.987976  0.337308  1
  Al  Al20  1  0.987976  0.337408  0.337308  1
  Al  Al21  1  0.337730  0.337730  0.334394  1
  Os  Os22  1  0.500000  0.500000  0.000000  1
  Pt  Pt23  1  0.000000  0.000000  0.000000  1
  Pt  Pt24  1  0.000000  0.000000  0.500000  1
  Pt  Pt25  1  0.500000  0.000000  0.500000  1
  Pt  Pt26  1  0.000000  0.500000  0.500000  1
  Pt  Pt27  1  0.000000  0.500000  0.000000  1
  Pt  Pt28  1  0.500000  0.000000  0.000000  1
