# generated using pymatgen
data_SbP2Cl13
_symmetry_space_group_name_H-M   'P 1'
_cell_length_a   9.91553691
_cell_length_b   9.91553606
_cell_length_c   12.12124900
_cell_angle_alpha   90.00000000
_cell_angle_beta   90.00000000
_cell_angle_gamma   115.29199228
_symmetry_Int_Tables_number   1
_chemical_formula_structural   SbP2Cl13
_chemical_formula_sum   'Sb2 P4 Cl26'
_cell_volume   1077.49826568
_cell_formula_units_Z   2
loop_
 _symmetry_equiv_pos_site_id
 _symmetry_equiv_pos_as_xyz
  1  'x, y, z'
loop_
 _atom_site_type_symbol
 _atom_site_label
 _atom_site_symmetry_multiplicity
 _atom_site_fract_x
 _atom_site_fract_y
 _atom_site_fract_z
 _atom_site_occupancy
  Sb  Sb0  1  0.790807  0.209193  0.001007  1
  Sb  Sb1  1  0.209193  0.790807  0.501007  1
  P  P2  1  0.544922  0.455078  0.845183  1
  P  P3  1  0.857353  0.142647  0.537894  1
  P  P4  1  0.455078  0.544922  0.345183  1
  P  P5  1  0.142647  0.857353  0.037894  1
  Cl  Cl6  1  0.061919  0.238729  0.593590  1
  Cl  Cl7  1  0.317501  0.382605  0.868138  1
  Cl  Cl8  1  0.329461  0.670539  0.609647  1
  Cl  Cl9  1  0.670539  0.329461  0.109647  1
  Cl  Cl10  1  0.088280  0.911720  0.390840  1
  Cl  Cl11  1  0.911720  0.088280  0.890840  1
  Cl  Cl12  1  0.313622  0.007891  0.618936  1
  Cl  Cl13  1  0.686378  0.992109  0.118936  1
  Cl  Cl14  1  0.992109  0.686378  0.618936  1
  Cl  Cl15  1  0.007891  0.313622  0.118936  1
  Cl  Cl16  1  0.425367  0.898205  0.382283  1
  Cl  Cl17  1  0.574633  0.101795  0.882283  1
  Cl  Cl18  1  0.101795  0.574633  0.382283  1
  Cl  Cl19  1  0.898205  0.425367  0.882283  1
  Cl  Cl20  1  0.617395  0.682499  0.868138  1
  Cl  Cl21  1  0.238729  0.061919  0.093590  1
  Cl  Cl22  1  0.761271  0.938081  0.593590  1
  Cl  Cl23  1  0.938081  0.761271  0.093590  1
  Cl  Cl24  1  0.746672  0.253328  0.588479  1
  Cl  Cl25  1  0.253328  0.746672  0.088479  1
  Cl  Cl26  1  0.859709  0.140291  0.376484  1
  Cl  Cl27  1  0.140291  0.859709  0.876484  1
  Cl  Cl28  1  0.552775  0.447225  0.673372  1
  Cl  Cl29  1  0.447225  0.552775  0.173372  1
  Cl  Cl30  1  0.382605  0.317501  0.368138  1
  Cl  Cl31  1  0.682499  0.617395  0.368138  1
