# generated using pymatgen
data_HfZrSc2(SiMo)4
_symmetry_space_group_name_H-M   'P 1'
_cell_length_a   3.50182900
_cell_length_b   7.02168306
_cell_length_c   8.23044308
_cell_angle_alpha   89.99921985
_cell_angle_beta   90.00000000
_cell_angle_gamma   90.00000000
_symmetry_Int_Tables_number   1
_chemical_formula_structural   HfZrSc2(SiMo)4
_chemical_formula_sum   'Hf1 Zr1 Sc2 Si4 Mo4'
_cell_volume   202.37617038
_cell_formula_units_Z   1
loop_
 _symmetry_equiv_pos_site_id
 _symmetry_equiv_pos_as_xyz
  1  'x, y, z'
loop_
 _atom_site_type_symbol
 _atom_site_label
 _atom_site_symmetry_multiplicity
 _atom_site_fract_x
 _atom_site_fract_y
 _atom_site_fract_z
 _atom_site_occupancy
  Hf  Hf0  1  0.750000  0.457383  0.833008  1
  Zr  Zr1  1  0.250000  0.542215  0.166363  1
  Sc  Sc2  1  0.250000  0.043466  0.333974  1
  Sc  Sc3  1  0.750000  0.956654  0.666061  1
  Si  Si4  1  0.250000  0.258529  0.636736  1
  Si  Si5  1  0.750000  0.742071  0.363924  1
  Si  Si6  1  0.250000  0.758413  0.862406  1
  Si  Si7  1  0.750000  0.240674  0.137174  1
  Mo  Mo8  1  0.750000  0.370588  0.438978  1
  Mo  Mo9  1  0.250000  0.629107  0.562231  1
  Mo  Mo10  1  0.750000  0.869689  0.061591  1
  Mo  Mo11  1  0.250000  0.131211  0.937554  1
