# generated using pymatgen
data_La2Os2Cl
_symmetry_space_group_name_H-M   'P 1'
_cell_length_a   4.28882800
_cell_length_b   4.28882850
_cell_length_c   17.00775300
_cell_angle_alpha   90.00000000
_cell_angle_beta   90.00000000
_cell_angle_gamma   120.00001157
_symmetry_Int_Tables_number   1
_chemical_formula_structural   La2Os2Cl
_chemical_formula_sum   'La4 Os4 Cl2'
_cell_volume   270.92858627
_cell_formula_units_Z   2
loop_
 _symmetry_equiv_pos_site_id
 _symmetry_equiv_pos_as_xyz
  1  'x, y, z'
loop_
 _atom_site_type_symbol
 _atom_site_label
 _atom_site_symmetry_multiplicity
 _atom_site_fract_x
 _atom_site_fract_y
 _atom_site_fract_z
 _atom_site_occupancy
  La  La0  1  0.000000  0.000000  0.116290  1
  La  La1  1  0.000000  0.000000  0.883710  1
  La  La2  1  0.000000  0.000000  0.616290  1
  La  La3  1  0.000000  0.000000  0.383710  1
  Os  Os4  1  0.333333  0.666667  0.510806  1
  Os  Os5  1  0.666667  0.333333  0.489194  1
  Os  Os6  1  0.666667  0.333333  0.010806  1
  Os  Os7  1  0.333333  0.666667  0.989194  1
  Cl  Cl8  1  0.333333  0.666667  0.250000  1
  Cl  Cl9  1  0.666667  0.333333  0.750000  1
