# generated using pymatgen
data_Ti3Nb3Re6Si5B
_symmetry_space_group_name_H-M   'P 1'
_cell_length_a   7.48956252
_cell_length_b   7.51530415
_cell_length_c   7.48956176
_cell_angle_alpha   126.27643155
_cell_angle_beta   128.15744562
_cell_angle_gamma   77.82986904
_symmetry_Int_Tables_number   1
_chemical_formula_structural   Ti3Nb3Re6Si5B
_chemical_formula_sum   'Ti3 Nb3 Re6 Si5 B1'
_cell_volume   259.14523399
_cell_formula_units_Z   1
loop_
 _symmetry_equiv_pos_site_id
 _symmetry_equiv_pos_as_xyz
  1  'x, y, z'
loop_
 _atom_site_type_symbol
 _atom_site_label
 _atom_site_symmetry_multiplicity
 _atom_site_fract_x
 _atom_site_fract_y
 _atom_site_fract_z
 _atom_site_occupancy
  Ti  Ti0  1  0.553587  0.101647  0.048059  1
  Ti  Ti1  1  0.448129  0.492742  0.544613  1
  Ti  Ti2  1  0.947614  0.497110  0.049496  1
  Nb  Nb3  1  0.050091  0.091691  0.541600  1
  Nb  Nb4  1  0.752830  0.896519  0.643689  1
  Nb  Nb5  1  0.249000  0.899262  0.150262  1
  Re  Re6  1  0.513835  0.247753  0.761388  1
  Re  Re7  1  0.986366  0.247753  0.233918  1
  Re  Re8  1  0.114359  0.746430  0.609866  1
  Re  Re9  1  0.860537  0.496246  0.608554  1
  Re  Re10  1  0.636564  0.746430  0.132070  1
  Re  Re11  1  0.387693  0.496246  0.135710  1
  Si  Si12  1  0.249732  0.496644  0.746911  1
  Si  Si13  1  0.336343  0.825800  0.500001  1
  Si  Si14  1  0.665604  0.168403  0.496563  1
  Si  Si15  1  0.825799  0.825800  0.989457  1
  Si  Si16  1  0.171839  0.168403  0.002799  1
  B  B17  1  0.750080  0.497324  0.247244  1
