# generated using pymatgen
data_Dy20Ir8Os3Rh
_symmetry_space_group_name_H-M   'P 1'
_cell_length_a   10.85632900
_cell_length_b   10.85632900
_cell_length_c   6.41547100
_cell_angle_alpha   90.00000000
_cell_angle_beta   90.00000000
_cell_angle_gamma   90.00000000
_symmetry_Int_Tables_number   1
_chemical_formula_structural   Dy20Ir8Os3Rh
_chemical_formula_sum   'Dy20 Ir8 Os3 Rh1'
_cell_volume   756.12663807
_cell_formula_units_Z   1
loop_
 _symmetry_equiv_pos_site_id
 _symmetry_equiv_pos_as_xyz
  1  'x, y, z'
loop_
 _atom_site_type_symbol
 _atom_site_label
 _atom_site_symmetry_multiplicity
 _atom_site_fract_x
 _atom_site_fract_y
 _atom_site_fract_z
 _atom_site_occupancy
  Dy  Dy0  1  0.294103  0.086609  0.378122  1
  Dy  Dy1  1  0.294106  0.913629  0.878039  1
  Dy  Dy2  1  0.705894  0.086371  0.878039  1
  Dy  Dy3  1  0.705897  0.913391  0.378122  1
  Dy  Dy4  1  0.586371  0.794106  0.878039  1
  Dy  Dy5  1  0.586609  0.205897  0.378122  1
  Dy  Dy6  1  0.413391  0.794103  0.378122  1
  Dy  Dy7  1  0.413629  0.205894  0.878039  1
  Dy  Dy8  1  0.208145  0.412622  0.624098  1
  Dy  Dy9  1  0.207695  0.587447  0.118668  1
  Dy  Dy10  1  0.792305  0.412553  0.118668  1
  Dy  Dy11  1  0.791855  0.587378  0.624098  1
  Dy  Dy12  1  0.912553  0.707695  0.118668  1
  Dy  Dy13  1  0.912622  0.291855  0.624098  1
  Dy  Dy14  1  0.087378  0.708145  0.624098  1
  Dy  Dy15  1  0.087447  0.292305  0.118668  1
  Dy  Dy16  1  0.000000  0.000000  0.499537  1
  Dy  Dy17  1  0.000000  0.000000  0.999870  1
  Dy  Dy18  1  0.500000  0.500000  0.999870  1
  Dy  Dy19  1  0.500000  0.500000  0.499537  1
  Ir  Ir20  1  0.848427  0.153430  0.250643  1
  Ir  Ir21  1  0.848216  0.846800  0.749980  1
  Ir  Ir22  1  0.151784  0.153200  0.749980  1
  Ir  Ir23  1  0.151573  0.846570  0.250643  1
  Ir  Ir24  1  0.653200  0.348216  0.749980  1
  Ir  Ir25  1  0.653430  0.651573  0.250643  1
  Ir  Ir26  1  0.346570  0.348427  0.250643  1
  Ir  Ir27  1  0.346800  0.651784  0.749980  1
  Os  Os28  1  0.500000  0.000000  0.124756  1
  Os  Os29  1  0.500000  0.000000  0.624503  1
  Os  Os30  1  0.000000  0.500000  0.875907  1
  Rh  Rh31  1  0.000000  0.500000  0.377814  1
