# generated using pymatgen
data_SmCoP3Ir4
_symmetry_space_group_name_H-M   'P 1'
_cell_length_a   3.93814400
_cell_length_b   10.72618800
_cell_length_c   12.39711200
_cell_angle_alpha   90.00000000
_cell_angle_beta   90.00000000
_cell_angle_gamma   90.00000000
_symmetry_Int_Tables_number   1
_chemical_formula_structural   SmCoP3Ir4
_chemical_formula_sum   'Sm4 Co4 P12 Ir16'
_cell_volume   523.66979135
_cell_formula_units_Z   4
loop_
 _symmetry_equiv_pos_site_id
 _symmetry_equiv_pos_as_xyz
  1  'x, y, z'
loop_
 _atom_site_type_symbol
 _atom_site_label
 _atom_site_symmetry_multiplicity
 _atom_site_fract_x
 _atom_site_fract_y
 _atom_site_fract_z
 _atom_site_occupancy
  Sm  Sm0  1  0.250000  0.914378  0.209518  1
  Sm  Sm1  1  0.750000  0.085622  0.790482  1
  Sm  Sm2  1  0.750000  0.414378  0.290482  1
  Sm  Sm3  1  0.250000  0.585622  0.709518  1
  Co  Co4  1  0.250000  0.037490  0.434116  1
  Co  Co5  1  0.750000  0.962510  0.565884  1
  Co  Co6  1  0.750000  0.537490  0.065884  1
  Co  Co7  1  0.250000  0.462510  0.934116  1
  P  P8  1  0.250000  0.074039  0.604980  1
  P  P9  1  0.750000  0.925961  0.395020  1
  P  P10  1  0.750000  0.574039  0.895020  1
  P  P11  1  0.250000  0.425961  0.104980  1
  P  P12  1  0.250000  0.227414  0.371623  1
  P  P13  1  0.750000  0.772586  0.628377  1
  P  P14  1  0.750000  0.727414  0.128377  1
  P  P15  1  0.250000  0.272586  0.871623  1
  P  P16  1  0.250000  0.904427  0.885707  1
  P  P17  1  0.750000  0.095573  0.114293  1
  P  P18  1  0.750000  0.404427  0.614293  1
  P  P19  1  0.250000  0.595573  0.385707  1
  Ir  Ir20  1  0.250000  0.779157  0.481823  1
  Ir  Ir21  1  0.750000  0.220843  0.518177  1
  Ir  Ir22  1  0.750000  0.279157  0.018177  1
  Ir  Ir23  1  0.250000  0.720843  0.981823  1
  Ir  Ir24  1  0.250000  0.092566  0.980135  1
  Ir  Ir25  1  0.750000  0.907434  0.019865  1
  Ir  Ir26  1  0.750000  0.592566  0.519865  1
  Ir  Ir27  1  0.250000  0.407434  0.480135  1
  Ir  Ir28  1  0.250000  0.269744  0.678127  1
  Ir  Ir29  1  0.750000  0.730256  0.321873  1
  Ir  Ir30  1  0.750000  0.769744  0.821873  1
  Ir  Ir31  1  0.250000  0.230256  0.178127  1
  Ir  Ir32  1  0.250000  0.614808  0.198512  1
  Ir  Ir33  1  0.750000  0.385192  0.801488  1
  Ir  Ir34  1  0.750000  0.114808  0.301488  1
  Ir  Ir35  1  0.250000  0.885192  0.698512  1
