# generated using pymatgen
data_Dy3Tm3CoTc
_symmetry_space_group_name_H-M   'P 1'
_cell_length_a   6.26379368
_cell_length_b   7.14704694
_cell_length_c   9.11995800
_cell_angle_alpha   90.00000000
_cell_angle_beta   90.00000000
_cell_angle_gamma   90.12185810
_symmetry_Int_Tables_number   1
_chemical_formula_structural   Dy3Tm3CoTc
_chemical_formula_sum   'Dy6 Tm6 Co2 Tc2'
_cell_volume   408.27795902
_cell_formula_units_Z   2
loop_
 _symmetry_equiv_pos_site_id
 _symmetry_equiv_pos_as_xyz
  1  'x, y, z'
loop_
 _atom_site_type_symbol
 _atom_site_label
 _atom_site_symmetry_multiplicity
 _atom_site_fract_x
 _atom_site_fract_y
 _atom_site_fract_z
 _atom_site_occupancy
  Dy  Dy0  1  0.127639  0.451641  0.750000  1
  Dy  Dy1  1  0.359098  0.960432  0.750000  1
  Dy  Dy2  1  0.856910  0.539345  0.250000  1
  Dy  Dy3  1  0.628587  0.048985  0.250000  1
  Dy  Dy4  1  0.332046  0.673449  0.062985  1
  Dy  Dy5  1  0.332046  0.673449  0.437015  1
  Tm  Tm6  1  0.677303  0.318129  0.932754  1
  Tm  Tm7  1  0.176118  0.180972  0.433132  1
  Tm  Tm8  1  0.832572  0.827489  0.564470  1
  Tm  Tm9  1  0.176118  0.180972  0.066868  1
  Tm  Tm10  1  0.832572  0.827489  0.935530  1
  Tm  Tm11  1  0.677303  0.318129  0.567246  1
  Co  Co12  1  0.957114  0.113531  0.750000  1
  Co  Co13  1  0.457229  0.385610  0.250000  1
  Tc  Tc14  1  0.541174  0.608399  0.750000  1
  Tc  Tc15  1  0.036169  0.891982  0.250000  1
