# generated using pymatgen
data_Rb4Re2NCl10
_symmetry_space_group_name_H-M   'P 1'
_cell_length_a   7.12970142
_cell_length_b   7.16238945
_cell_length_c   10.36243800
_cell_angle_alpha   110.11572932
_cell_angle_beta   110.01812690
_cell_angle_gamma   90.29499874
_symmetry_Int_Tables_number   1
_chemical_formula_structural   Rb4Re2NCl10
_chemical_formula_sum   'Rb4 Re2 N1 Cl10'
_cell_volume   462.31614585
_cell_formula_units_Z   1
loop_
 _symmetry_equiv_pos_site_id
 _symmetry_equiv_pos_as_xyz
  1  'x, y, z'
loop_
 _atom_site_type_symbol
 _atom_site_label
 _atom_site_symmetry_multiplicity
 _atom_site_fract_x
 _atom_site_fract_y
 _atom_site_fract_z
 _atom_site_occupancy
  Rb  Rb0  1  0.500000  0.000000  0.000000  1
  Rb  Rb1  1  0.000000  0.500000  0.000000  1
  Rb  Rb2  1  0.749619  0.250288  0.499915  1
  Rb  Rb3  1  0.250381  0.749712  0.500085  1
  Re  Re4  1  0.100744  0.100756  0.201827  1
  Re  Re5  1  0.899256  0.899244  0.798174  1
  N  N6  1  0.000000  0.000000  0.000000  1
  Cl  Cl7  1  0.348206  0.347786  0.221959  1
  Cl  Cl8  1  0.874636  0.346987  0.222152  1
  Cl  Cl9  1  0.347435  0.875072  0.222147  1
  Cl  Cl10  1  0.873662  0.874081  0.221921  1
  Cl  Cl11  1  0.238150  0.238136  0.476426  1
  Cl  Cl12  1  0.761851  0.761865  0.523574  1
  Cl  Cl13  1  0.126338  0.125919  0.778079  1
  Cl  Cl14  1  0.652565  0.124928  0.777853  1
  Cl  Cl15  1  0.125364  0.653013  0.777848  1
  Cl  Cl16  1  0.651794  0.652214  0.778041  1
