# generated using pymatgen
data_SrTbF5
_symmetry_space_group_name_H-M   'P 1'
_cell_length_a   8.23957653
_cell_length_b   8.23957597
_cell_length_c   5.80417982
_cell_angle_alpha   89.05451773
_cell_angle_beta   89.05452521
_cell_angle_gamma   149.39615682
_symmetry_Int_Tables_number   1
_chemical_formula_structural   SrTbF5
_chemical_formula_sum   'Sr2 Tb2 F10'
_cell_volume   200.21766019
_cell_formula_units_Z   2
loop_
 _symmetry_equiv_pos_site_id
 _symmetry_equiv_pos_as_xyz
  1  'x, y, z'
loop_
 _atom_site_type_symbol
 _atom_site_label
 _atom_site_symmetry_multiplicity
 _atom_site_fract_x
 _atom_site_fract_y
 _atom_site_fract_z
 _atom_site_occupancy
  Sr  Sr0  1  0.322316  0.677684  0.750000  1
  Sr  Sr1  1  0.677684  0.322316  0.250000  1
  Tb  Tb2  1  0.075472  0.924528  0.750000  1
  Tb  Tb3  1  0.924528  0.075472  0.250000  1
  F  F4  1  0.727983  0.806563  0.603207  1
  F  F5  1  0.806563  0.727983  0.103207  1
  F  F6  1  0.802223  0.181410  0.002082  1
  F  F7  1  0.622872  0.377128  0.750000  1
  F  F8  1  0.818590  0.197777  0.497918  1
  F  F9  1  0.181410  0.802223  0.502082  1
  F  F10  1  0.377128  0.622872  0.250000  1
  F  F11  1  0.197777  0.818590  0.997918  1
  F  F12  1  0.193437  0.272017  0.896793  1
  F  F13  1  0.272017  0.193437  0.396793  1
