# generated using pymatgen
data_Hf4Nb2Si7Ni16
_symmetry_space_group_name_H-M   'P 1'
_cell_length_a   8.03397660
_cell_length_b   8.01734885
_cell_length_c   8.01735031
_cell_angle_alpha   60.06936365
_cell_angle_beta   59.93137224
_cell_angle_gamma   59.93137307
_symmetry_Int_Tables_number   1
_chemical_formula_structural   Hf4Nb2Si7Ni16
_chemical_formula_sum   'Hf4 Nb2 Si7 Ni16'
_cell_volume   364.96616488
_cell_formula_units_Z   1
loop_
 _symmetry_equiv_pos_site_id
 _symmetry_equiv_pos_as_xyz
  1  'x, y, z'
loop_
 _atom_site_type_symbol
 _atom_site_label
 _atom_site_symmetry_multiplicity
 _atom_site_fract_x
 _atom_site_fract_y
 _atom_site_fract_z
 _atom_site_occupancy
  Hf  Hf0  1  0.202317  0.795839  0.795839  1
  Hf  Hf1  1  0.205724  0.207416  0.792584  1
  Hf  Hf2  1  0.793995  0.204161  0.204161  1
  Hf  Hf3  1  0.205724  0.792584  0.207416  1
  Nb  Nb4  1  0.794303  0.203110  0.796890  1
  Nb  Nb5  1  0.794303  0.796890  0.203110  1
  Si  Si6  1  0.998221  0.501484  0.002892  1
  Si  Si7  1  0.497583  0.500000  0.500000  1
  Si  Si8  1  0.502597  0.498516  0.997108  1
  Si  Si9  1  0.502597  0.997108  0.498516  1
  Si  Si10  1  0.995474  0.500000  0.500000  1
  Si  Si11  1  0.998221  0.002892  0.501484  1
  Si  Si12  1  0.503892  0.000000  0.000000  1
  Ni  Ni13  1  0.167637  0.167690  0.167690  1
  Ni  Ni14  1  0.618372  0.618571  0.147459  1
  Ni  Ni15  1  0.381945  0.381931  0.381931  1
  Ni  Ni16  1  0.169095  0.496189  0.167426  1
  Ni  Ni17  1  0.169095  0.167426  0.496189  1
  Ni  Ni18  1  0.145808  0.618069  0.618069  1
  Ni  Ni19  1  0.618372  0.147459  0.618571  1
  Ni  Ni20  1  0.833156  0.830942  0.830942  1
  Ni  Ni21  1  0.850842  0.383804  0.383804  1
  Ni  Ni22  1  0.384401  0.381429  0.852541  1
  Ni  Ni23  1  0.384401  0.852541  0.381429  1
  Ni  Ni24  1  0.503017  0.832310  0.832310  1
  Ni  Ni25  1  0.618451  0.616196  0.616196  1
  Ni  Ni26  1  0.832708  0.832574  0.503811  1
  Ni  Ni27  1  0.495040  0.169058  0.169058  1
  Ni  Ni28  1  0.832708  0.503811  0.832574  1
