# generated using pymatgen
data_Th3Al2GaRu3
_symmetry_space_group_name_H-M   'P 1'
_cell_length_a   7.24576345
_cell_length_b   7.24001393
_cell_length_c   4.05438900
_cell_angle_alpha   90.00000000
_cell_angle_beta   90.00000000
_cell_angle_gamma   119.97375630
_symmetry_Int_Tables_number   1
_chemical_formula_structural   Th3Al2GaRu3
_chemical_formula_sum   'Th3 Al2 Ga1 Ru3'
_cell_volume   184.24443881
_cell_formula_units_Z   1
loop_
 _symmetry_equiv_pos_site_id
 _symmetry_equiv_pos_as_xyz
  1  'x, y, z'
loop_
 _atom_site_type_symbol
 _atom_site_label
 _atom_site_symmetry_multiplicity
 _atom_site_fract_x
 _atom_site_fract_y
 _atom_site_fract_z
 _atom_site_occupancy
  Th  Th0  1  0.418915  0.421742  0.500000  1
  Th  Th1  1  0.581085  0.002827  0.500000  1
  Th  Th2  1  0.000000  0.578321  0.500000  1
  Al  Al3  1  0.769519  0.767777  0.000000  1
  Al  Al4  1  0.230481  0.998258  0.000000  1
  Ga  Ga5  1  0.000000  0.232782  0.000000  1
  Ru  Ru6  1  0.660618  0.332422  0.000000  1
  Ru  Ru7  1  0.339382  0.671804  0.000000  1
  Ru  Ru8  1  0.000000  0.994066  0.500000  1
