# generated using pymatgen
data_Y2Ga(AsRh2)6
_symmetry_space_group_name_H-M   'P 1'
_cell_length_a   9.96139200
_cell_length_b   9.96139154
_cell_length_c   3.95925400
_cell_angle_alpha   90.00000000
_cell_angle_beta   90.00000000
_cell_angle_gamma   120.00000152
_symmetry_Int_Tables_number   1
_chemical_formula_structural   Y2Ga(AsRh2)6
_chemical_formula_sum   'Y2 Ga1 As6 Rh12'
_cell_volume   340.23895101
_cell_formula_units_Z   1
loop_
 _symmetry_equiv_pos_site_id
 _symmetry_equiv_pos_as_xyz
  1  'x, y, z'
loop_
 _atom_site_type_symbol
 _atom_site_label
 _atom_site_symmetry_multiplicity
 _atom_site_fract_x
 _atom_site_fract_y
 _atom_site_fract_z
 _atom_site_occupancy
  Y  Y0  1  0.333333  0.666667  0.751423  1
  Y  Y1  1  0.000000  0.000000  0.249750  1
  Ga  Ga2  1  0.666667  0.333333  0.581014  1
  As  As3  1  0.953091  0.216613  0.750718  1
  As  As4  1  0.783387  0.736478  0.750718  1
  As  As5  1  0.263522  0.046909  0.750718  1
  As  As6  1  0.379357  0.448549  0.251414  1
  As  As7  1  0.551451  0.930808  0.251414  1
  As  As8  1  0.069192  0.620643  0.251414  1
  Rh  Rh9  1  0.732592  0.951154  0.751700  1
  Rh  Rh10  1  0.048846  0.781438  0.751700  1
  Rh  Rh11  1  0.218562  0.267408  0.751700  1
  Rh  Rh12  1  0.602894  0.717637  0.250578  1
  Rh  Rh13  1  0.282363  0.885257  0.250578  1
  Rh  Rh14  1  0.114743  0.397106  0.250578  1
  Rh  Rh15  1  0.945322  0.456723  0.752158  1
  Rh  Rh16  1  0.543277  0.488599  0.752158  1
  Rh  Rh17  1  0.511401  0.054678  0.752158  1
  Rh  Rh18  1  0.400251  0.213938  0.250765  1
  Rh  Rh19  1  0.786062  0.186313  0.250765  1
  Rh  Rh20  1  0.813687  0.599749  0.250765  1
