# generated using pymatgen
data_Dy15Er5(Ir2Ru)4
_symmetry_space_group_name_H-M   'P 1'
_cell_length_a   10.80969549
_cell_length_b   10.80570243
_cell_length_c   6.41622004
_cell_angle_alpha   90.00350703
_cell_angle_beta   90.01204939
_cell_angle_gamma   89.96773558
_symmetry_Int_Tables_number   1
_chemical_formula_structural   Dy15Er5(Ir2Ru)4
_chemical_formula_sum   'Dy15 Er5 Ir8 Ru4'
_cell_volume   749.45512492
_cell_formula_units_Z   1
loop_
 _symmetry_equiv_pos_site_id
 _symmetry_equiv_pos_as_xyz
  1  'x, y, z'
loop_
 _atom_site_type_symbol
 _atom_site_label
 _atom_site_symmetry_multiplicity
 _atom_site_fract_x
 _atom_site_fract_y
 _atom_site_fract_z
 _atom_site_occupancy
  Dy  Dy0  1  0.292800  0.086745  0.377031  1
  Dy  Dy1  1  0.292970  0.913623  0.877338  1
  Dy  Dy2  1  0.707084  0.086419  0.877364  1
  Dy  Dy3  1  0.707171  0.913472  0.377057  1
  Dy  Dy4  1  0.586509  0.792867  0.877320  1
  Dy  Dy5  1  0.586429  0.207040  0.377383  1
  Dy  Dy6  1  0.413587  0.792957  0.377414  1
  Dy  Dy7  1  0.413416  0.207121  0.877442  1
  Dy  Dy8  1  0.206913  0.413257  0.622658  1
  Dy  Dy9  1  0.206863  0.586136  0.122775  1
  Dy  Dy10  1  0.793241  0.413410  0.122750  1
  Dy  Dy11  1  0.792844  0.586562  0.622817  1
  Dy  Dy12  1  0.913439  0.707091  0.122859  1
  Dy  Dy13  1  0.913794  0.292896  0.622589  1
  Dy  Dy14  1  0.086395  0.707115  0.622549  1
  Er  Er15  1  0.086419  0.293255  0.122336  1
  Er  Er16  1  0.000062  0.000086  0.499638  1
  Er  Er17  1  0.000091  0.000267  0.999958  1
  Er  Er18  1  0.499993  0.499962  0.000028  1
  Er  Er19  1  0.499970  0.500010  0.500072  1
  Ir  Ir20  1  0.848801  0.151831  0.249804  1
  Ir  Ir21  1  0.848470  0.848268  0.750074  1
  Ir  Ir22  1  0.151367  0.152075  0.750922  1
  Ir  Ir23  1  0.151556  0.848395  0.249961  1
  Ir  Ir24  1  0.651708  0.348455  0.750040  1
  Ir  Ir25  1  0.651624  0.651598  0.250012  1
  Ir  Ir26  1  0.347846  0.348302  0.249770  1
  Ir  Ir27  1  0.348313  0.651451  0.750128  1
  Ru  Ru28  1  0.499948  0.999945  0.121717  1
  Ru  Ru29  1  0.500022  0.000030  0.621868  1
  Ru  Ru30  1  0.000168  0.499620  0.878622  1
  Ru  Ru31  1  0.000185  0.499741  0.377704  1
