# generated using pymatgen
data_Pr2SmHo2(Sn5Rh2)2
_symmetry_space_group_name_H-M   'P 1'
_cell_length_a   14.17402500
_cell_length_b   14.17402500
_cell_length_c   4.57351500
_cell_angle_alpha   90.00000000
_cell_angle_beta   90.00000000
_cell_angle_gamma   90.00000000
_symmetry_Int_Tables_number   1
_chemical_formula_structural   Pr2SmHo2(Sn5Rh2)2
_chemical_formula_sum   'Pr4 Sm2 Ho4 Sn20 Rh8'
_cell_volume   918.83281407
_cell_formula_units_Z   2
loop_
 _symmetry_equiv_pos_site_id
 _symmetry_equiv_pos_as_xyz
  1  'x, y, z'
loop_
 _atom_site_type_symbol
 _atom_site_label
 _atom_site_symmetry_multiplicity
 _atom_site_fract_x
 _atom_site_fract_y
 _atom_site_fract_z
 _atom_site_occupancy
  Pr  Pr0  1  0.888177  0.388177  0.500000  1
  Pr  Pr1  1  0.111823  0.611823  0.500000  1
  Pr  Pr2  1  0.388177  0.111823  0.500000  1
  Pr  Pr3  1  0.611823  0.888177  0.500000  1
  Sm  Sm4  1  0.500000  0.500000  0.000000  1
  Sm  Sm5  1  0.000000  0.000000  0.000000  1
  Ho  Ho6  1  0.676705  0.176705  0.500000  1
  Ho  Ho7  1  0.323295  0.823295  0.500000  1
  Ho  Ho8  1  0.176705  0.323295  0.500000  1
  Ho  Ho9  1  0.823295  0.676705  0.500000  1
  Sn  Sn10  1  0.570042  0.070042  0.000000  1
  Sn  Sn11  1  0.429958  0.929958  0.000000  1
  Sn  Sn12  1  0.070042  0.429958  0.000000  1
  Sn  Sn13  1  0.929958  0.570042  0.000000  1
  Sn  Sn14  1  0.653987  0.698582  0.000000  1
  Sn  Sn15  1  0.346013  0.301418  0.000000  1
  Sn  Sn16  1  0.153987  0.801418  0.000000  1
  Sn  Sn17  1  0.846013  0.198582  0.000000  1
  Sn  Sn18  1  0.301418  0.653987  0.000000  1
  Sn  Sn19  1  0.698582  0.346013  0.000000  1
  Sn  Sn20  1  0.198582  0.153987  0.000000  1
  Sn  Sn21  1  0.801418  0.846013  0.000000  1
  Sn  Sn22  1  0.662999  0.506225  0.500000  1
  Sn  Sn23  1  0.337001  0.493775  0.500000  1
  Sn  Sn24  1  0.162999  0.993775  0.500000  1
  Sn  Sn25  1  0.837001  0.006225  0.500000  1
  Sn  Sn26  1  0.493775  0.662999  0.500000  1
  Sn  Sn27  1  0.506225  0.337001  0.500000  1
  Sn  Sn28  1  0.006225  0.162999  0.500000  1
  Sn  Sn29  1  0.993775  0.837001  0.500000  1
  Rh  Rh30  1  0.746968  0.530337  0.000000  1
  Rh  Rh31  1  0.253032  0.469663  0.000000  1
  Rh  Rh32  1  0.246968  0.969663  0.000000  1
  Rh  Rh33  1  0.753032  0.030337  0.000000  1
  Rh  Rh34  1  0.469663  0.746968  0.000000  1
  Rh  Rh35  1  0.530337  0.253032  0.000000  1
  Rh  Rh36  1  0.030337  0.246968  0.000000  1
  Rh  Rh37  1  0.969663  0.753032  0.000000  1
