# generated using pymatgen
data_V(FeW)6
_symmetry_space_group_name_H-M   'P 1'
_cell_length_a   9.07503798
_cell_length_b   9.07503823
_cell_length_c   9.07503747
_cell_angle_alpha   30.66082726
_cell_angle_beta   30.66082497
_cell_angle_gamma   30.66082927
_symmetry_Int_Tables_number   1
_chemical_formula_structural   V(FeW)6
_chemical_formula_sum   'V1 Fe6 W6'
_cell_volume   172.33186070
_cell_formula_units_Z   1
loop_
 _symmetry_equiv_pos_site_id
 _symmetry_equiv_pos_as_xyz
  1  'x, y, z'
loop_
 _atom_site_type_symbol
 _atom_site_label
 _atom_site_symmetry_multiplicity
 _atom_site_fract_x
 _atom_site_fract_y
 _atom_site_fract_z
 _atom_site_occupancy
  V  V0  1  0.000000  0.000000  0.000000  1
  Fe  Fe1  1  0.583638  0.092957  0.092957  1
  Fe  Fe2  1  0.092957  0.092957  0.583638  1
  Fe  Fe3  1  0.092957  0.583638  0.092957  1
  Fe  Fe4  1  0.907043  0.416362  0.907043  1
  Fe  Fe5  1  0.416362  0.907043  0.907043  1
  Fe  Fe6  1  0.907043  0.907043  0.416362  1
  W  W7  1  0.165827  0.165827  0.165827  1
  W  W8  1  0.834173  0.834173  0.834173  1
  W  W9  1  0.347585  0.347585  0.347585  1
  W  W10  1  0.652415  0.652415  0.652415  1
  W  W11  1  0.450228  0.450228  0.450228  1
  W  W12  1  0.549772  0.549772  0.549772  1
