# generated using pymatgen
data_Tb17Hf2CdIr12
_symmetry_space_group_name_H-M   'P 1'
_cell_length_a   10.89601200
_cell_length_b   10.89601200
_cell_length_c   6.27156200
_cell_angle_alpha   90.00000000
_cell_angle_beta   90.00000000
_cell_angle_gamma   90.00000000
_symmetry_Int_Tables_number   1
_chemical_formula_structural   Tb17Hf2CdIr12
_chemical_formula_sum   'Tb17 Hf2 Cd1 Ir12'
_cell_volume   744.57914140
_cell_formula_units_Z   1
loop_
 _symmetry_equiv_pos_site_id
 _symmetry_equiv_pos_as_xyz
  1  'x, y, z'
loop_
 _atom_site_type_symbol
 _atom_site_label
 _atom_site_symmetry_multiplicity
 _atom_site_fract_x
 _atom_site_fract_y
 _atom_site_fract_z
 _atom_site_occupancy
  Tb  Tb0  1  0.281880  0.082291  0.378533  1
  Tb  Tb1  1  0.292378  0.912134  0.876973  1
  Tb  Tb2  1  0.707622  0.087866  0.876973  1
  Tb  Tb3  1  0.718120  0.917709  0.378533  1
  Tb  Tb4  1  0.587759  0.787586  0.879182  1
  Tb  Tb5  1  0.585233  0.211923  0.375286  1
  Tb  Tb6  1  0.414767  0.788077  0.375286  1
  Tb  Tb7  1  0.412241  0.212414  0.879182  1
  Tb  Tb8  1  0.211923  0.414767  0.624714  1
  Tb  Tb9  1  0.212414  0.587759  0.120818  1
  Tb  Tb10  1  0.787586  0.412241  0.120818  1
  Tb  Tb11  1  0.788077  0.585233  0.624714  1
  Tb  Tb12  1  0.912134  0.707622  0.123027  1
  Tb  Tb13  1  0.917709  0.281880  0.621467  1
  Tb  Tb14  1  0.082291  0.718120  0.621467  1
  Tb  Tb15  1  0.087866  0.292378  0.123027  1
  Tb  Tb16  1  0.000000  0.000000  0.000000  1
  Hf  Hf17  1  0.500000  0.500000  0.000000  1
  Hf  Hf18  1  0.500000  0.500000  0.500000  1
  Cd  Cd19  1  0.000000  0.000000  0.500000  1
  Ir  Ir20  1  0.843223  0.159591  0.240030  1
  Ir  Ir21  1  0.840409  0.843223  0.759970  1
  Ir  Ir22  1  0.159591  0.156777  0.759970  1
  Ir  Ir23  1  0.156777  0.840409  0.240030  1
  Ir  Ir24  1  0.640668  0.359964  0.747442  1
  Ir  Ir25  1  0.640036  0.640668  0.252558  1
  Ir  Ir26  1  0.359964  0.359332  0.252558  1
  Ir  Ir27  1  0.359332  0.640036  0.747442  1
  Ir  Ir28  1  0.500000  0.000000  0.124499  1
  Ir  Ir29  1  0.500000  0.000000  0.617718  1
  Ir  Ir30  1  0.000000  0.500000  0.875501  1
  Ir  Ir31  1  0.000000  0.500000  0.382282  1
