# generated using pymatgen
data_ReSb14Mo4Os
_symmetry_space_group_name_H-M   'P 1'
_cell_length_a   8.31359435
_cell_length_b   8.30754469
_cell_length_c   8.31359393
_cell_angle_alpha   109.04994874
_cell_angle_beta   109.85288974
_cell_angle_gamma   109.54107500
_symmetry_Int_Tables_number   1
_chemical_formula_structural   ReSb14Mo4Os
_chemical_formula_sum   'Re1 Sb14 Mo4 Os1'
_cell_volume   441.82464892
_cell_formula_units_Z   1
loop_
 _symmetry_equiv_pos_site_id
 _symmetry_equiv_pos_as_xyz
  1  'x, y, z'
loop_
 _atom_site_type_symbol
 _atom_site_label
 _atom_site_symmetry_multiplicity
 _atom_site_fract_x
 _atom_site_fract_y
 _atom_site_fract_z
 _atom_site_occupancy
  Re  Re0  1  0.339562  0.339575  0.000013  1
  Sb  Sb1  1  0.750787  0.252636  0.501849  1
  Sb  Sb2  1  0.500470  0.250470  0.749999  1
  Sb  Sb3  1  0.500848  0.748426  0.247578  1
  Sb  Sb4  1  0.250734  0.502481  0.751923  1
  Sb  Sb5  1  0.750558  0.502481  0.251747  1
  Sb  Sb6  1  0.248293  0.750469  0.502175  1
  Sb  Sb7  1  0.326572  0.326489  0.326182  1
  Sb  Sb8  1  0.000580  0.000398  0.325797  1
  Sb  Sb9  1  0.325799  0.000934  0.000948  1
  Sb  Sb10  1  0.000307  0.326489  0.999917  1
  Sb  Sb11  1  0.674602  0.000398  0.999818  1
  Sb  Sb12  1  0.999834  0.674983  0.000099  1
  Sb  Sb13  1  0.999986  0.000934  0.675135  1
  Sb  Sb14  1  0.674884  0.674983  0.675149  1
  Mo  Mo15  1  0.999711  0.653730  0.654018  1
  Mo  Mo16  1  0.658810  0.999481  0.658594  1
  Mo  Mo17  1  0.340887  0.999481  0.340671  1
  Mo  Mo18  1  0.656704  0.656282  0.999578  1
  Os  Os19  1  0.000070  0.338878  0.338808  1
