# generated using pymatgen
data_Sc6Ta4Al12Ru7
_symmetry_space_group_name_H-M   'P 1'
_cell_length_a   8.87508246
_cell_length_b   8.87508287
_cell_length_c   8.87508300
_cell_angle_alpha   60.00000326
_cell_angle_beta   60.00000170
_cell_angle_gamma   60.00000054
_symmetry_Int_Tables_number   1
_chemical_formula_structural   Sc6Ta4Al12Ru7
_chemical_formula_sum   'Sc6 Ta4 Al12 Ru7'
_cell_volume   494.31325631
_cell_formula_units_Z   1
loop_
 _symmetry_equiv_pos_site_id
 _symmetry_equiv_pos_as_xyz
  1  'x, y, z'
loop_
 _atom_site_type_symbol
 _atom_site_label
 _atom_site_symmetry_multiplicity
 _atom_site_fract_x
 _atom_site_fract_y
 _atom_site_fract_z
 _atom_site_occupancy
  Sc  Sc0  1  0.709543  0.709543  0.290457  1
  Sc  Sc1  1  0.290457  0.709543  0.290457  1
  Sc  Sc2  1  0.709543  0.290457  0.290457  1
  Sc  Sc3  1  0.290457  0.290457  0.709543  1
  Sc  Sc4  1  0.709543  0.290457  0.709543  1
  Sc  Sc5  1  0.290457  0.709543  0.709543  1
  Ta  Ta6  1  0.879465  0.879465  0.361602  1
  Ta  Ta7  1  0.879465  0.361602  0.879465  1
  Ta  Ta8  1  0.361602  0.879465  0.879465  1
  Ta  Ta9  1  0.879465  0.879465  0.879465  1
  Al  Al10  1  0.120916  0.120916  0.637252  1
  Al  Al11  1  0.120916  0.637252  0.120916  1
  Al  Al12  1  0.637252  0.120916  0.120916  1
  Al  Al13  1  0.120916  0.120916  0.120916  1
  Al  Al14  1  0.662793  0.662793  0.011623  1
  Al  Al15  1  0.662793  0.011623  0.662793  1
  Al  Al16  1  0.011623  0.662793  0.662793  1
  Al  Al17  1  0.662793  0.662793  0.662793  1
  Al  Al18  1  0.334383  0.334383  0.996852  1
  Al  Al19  1  0.334383  0.996852  0.334383  1
  Al  Al20  1  0.996852  0.334383  0.334383  1
  Al  Al21  1  0.334383  0.334383  0.334383  1
  Ru  Ru22  1  0.000000  0.000000  0.000000  1
  Ru  Ru23  1  0.996285  0.996285  0.503715  1
  Ru  Ru24  1  0.503715  0.996285  0.503715  1
  Ru  Ru25  1  0.996285  0.503715  0.503715  1
  Ru  Ru26  1  0.503715  0.503715  0.996285  1
  Ru  Ru27  1  0.996285  0.503715  0.996285  1
  Ru  Ru28  1  0.503715  0.996285  0.996285  1
