# generated using pymatgen
data_Tb2Lu10Os3Ru
_symmetry_space_group_name_H-M   'P 1'
_cell_length_a   6.20613500
_cell_length_b   7.31242871
_cell_length_c   8.87648700
_cell_angle_alpha   90.00000000
_cell_angle_beta   90.00000000
_cell_angle_gamma   90.05121277
_symmetry_Int_Tables_number   1
_chemical_formula_structural   Tb2Lu10Os3Ru
_chemical_formula_sum   'Tb2 Lu10 Os3 Ru1'
_cell_volume   402.83185981
_cell_formula_units_Z   1
loop_
 _symmetry_equiv_pos_site_id
 _symmetry_equiv_pos_as_xyz
  1  'x, y, z'
loop_
 _atom_site_type_symbol
 _atom_site_label
 _atom_site_symmetry_multiplicity
 _atom_site_fract_x
 _atom_site_fract_y
 _atom_site_fract_z
 _atom_site_occupancy
  Tb  Tb0  1  0.871709  0.540906  0.250000  1
  Tb  Tb1  1  0.630493  0.039591  0.250000  1
  Lu  Lu2  1  0.334267  0.674190  0.060878  1
  Lu  Lu3  1  0.166287  0.175090  0.438583  1
  Lu  Lu4  1  0.667366  0.324748  0.564011  1
  Lu  Lu5  1  0.831725  0.824241  0.934646  1
  Lu  Lu6  1  0.667366  0.324748  0.935989  1
  Lu  Lu7  1  0.831725  0.824241  0.565354  1
  Lu  Lu8  1  0.334267  0.674190  0.439122  1
  Lu  Lu9  1  0.166287  0.175090  0.061417  1
  Lu  Lu10  1  0.130082  0.459867  0.750000  1
  Lu  Lu11  1  0.369631  0.960204  0.750000  1
  Os  Os12  1  0.455426  0.383812  0.250000  1
  Os  Os13  1  0.961958  0.117241  0.750000  1
  Os  Os14  1  0.537888  0.617508  0.750000  1
  Ru  Ru15  1  0.043525  0.884331  0.250000  1
