# generated using pymatgen
data_Ta2NbCo2OsN
_symmetry_space_group_name_H-M   'P 1'
_cell_length_a   8.09062717
_cell_length_b   8.09153856
_cell_length_c   8.09153905
_cell_angle_alpha   59.99255616
_cell_angle_beta   60.00372950
_cell_angle_gamma   60.00372931
_symmetry_Int_Tables_number   1
_chemical_formula_structural   Ta2NbCo2OsN
_chemical_formula_sum   'Ta8 Nb4 Co8 Os4 N4'
_cell_volume   374.56696466
_cell_formula_units_Z   4
loop_
 _symmetry_equiv_pos_site_id
 _symmetry_equiv_pos_as_xyz
  1  'x, y, z'
loop_
 _atom_site_type_symbol
 _atom_site_label
 _atom_site_symmetry_multiplicity
 _atom_site_fract_x
 _atom_site_fract_y
 _atom_site_fract_z
 _atom_site_occupancy
  Ta  Ta0  1  0.194241  0.805759  0.805759  1
  Ta  Ta1  1  0.805759  0.194241  0.194241  1
  Ta  Ta2  1  0.444725  0.444725  0.055275  1
  Ta  Ta3  1  0.055275  0.055275  0.444725  1
  Ta  Ta4  1  0.444725  0.055275  0.444725  1
  Ta  Ta5  1  0.055275  0.444725  0.055275  1
  Ta  Ta6  1  0.056015  0.443985  0.443985  1
  Ta  Ta7  1  0.443985  0.056015  0.056015  1
  Nb  Nb8  1  0.806284  0.806284  0.193716  1
  Nb  Nb9  1  0.193716  0.193716  0.806284  1
  Nb  Nb10  1  0.806284  0.193716  0.806284  1
  Nb  Nb11  1  0.193716  0.806284  0.193716  1
  Co  Co12  1  0.742473  0.418746  0.418746  1
  Co  Co13  1  0.418746  0.742473  0.420036  1
  Co  Co14  1  0.418746  0.420036  0.742473  1
  Co  Co15  1  0.420036  0.418746  0.418746  1
  Co  Co16  1  0.510739  0.829479  0.829479  1
  Co  Co17  1  0.829479  0.510739  0.830303  1
  Co  Co18  1  0.829479  0.830303  0.510739  1
  Co  Co19  1  0.830303  0.829479  0.829479  1
  Os  Os20  1  0.124980  0.625458  0.625458  1
  Os  Os21  1  0.625458  0.124980  0.624105  1
  Os  Os22  1  0.625458  0.624105  0.124980  1
  Os  Os23  1  0.624105  0.625458  0.625458  1
  N  N24  1  0.622112  0.127030  0.127030  1
  N  N25  1  0.127030  0.622112  0.123829  1
  N  N26  1  0.127030  0.123829  0.622112  1
  N  N27  1  0.123829  0.127030  0.127030  1
