# generated using pymatgen
data_Ho9TmPt18
_symmetry_space_group_name_H-M   'P 1'
_cell_length_a   9.73585236
_cell_length_b   9.73585236
_cell_length_c   5.76448900
_cell_angle_alpha   90.00000000
_cell_angle_beta   90.00000000
_cell_angle_gamma   89.96897412
_symmetry_Int_Tables_number   1
_chemical_formula_structural   Ho9TmPt18
_chemical_formula_sum   'Ho9 Tm1 Pt18'
_cell_volume   546.39750755
_cell_formula_units_Z   1
loop_
 _symmetry_equiv_pos_site_id
 _symmetry_equiv_pos_as_xyz
  1  'x, y, z'
loop_
 _atom_site_type_symbol
 _atom_site_label
 _atom_site_symmetry_multiplicity
 _atom_site_fract_x
 _atom_site_fract_y
 _atom_site_fract_z
 _atom_site_occupancy
  Ho  Ho0  1  0.452377  0.808985  0.000000  1
  Ho  Ho1  1  0.547623  0.191015  0.000000  1
  Ho  Ho2  1  0.191015  0.547623  0.000000  1
  Ho  Ho3  1  0.808985  0.452377  0.000000  1
  Ho  Ho4  1  0.500000  0.500000  0.500000  1
  Ho  Ho5  1  0.308932  0.047612  0.500000  1
  Ho  Ho6  1  0.691068  0.952388  0.500000  1
  Ho  Ho7  1  0.952388  0.691068  0.500000  1
  Ho  Ho8  1  0.047612  0.308932  0.500000  1
  Tm  Tm9  1  0.000000  0.000000  0.000000  1
  Pt  Pt10  1  0.191561  0.808439  0.250663  1
  Pt  Pt11  1  0.808439  0.191561  0.749337  1
  Pt  Pt12  1  0.808439  0.191561  0.250663  1
  Pt  Pt13  1  0.191561  0.808439  0.749337  1
  Pt  Pt14  1  0.441215  0.782406  0.500000  1
  Pt  Pt15  1  0.558785  0.217594  0.500000  1
  Pt  Pt16  1  0.217594  0.558785  0.500000  1
  Pt  Pt17  1  0.782406  0.441215  0.500000  1
  Pt  Pt18  1  0.308241  0.308241  0.249139  1
  Pt  Pt19  1  0.691759  0.691759  0.750861  1
  Pt  Pt20  1  0.691759  0.691759  0.249139  1
  Pt  Pt21  1  0.308241  0.308241  0.750861  1
  Pt  Pt22  1  0.281999  0.058648  0.000000  1
  Pt  Pt23  1  0.718001  0.941352  0.000000  1
  Pt  Pt24  1  0.941352  0.718001  0.000000  1
  Pt  Pt25  1  0.058648  0.281999  0.000000  1
  Pt  Pt26  1  0.000000  0.000000  0.500000  1
  Pt  Pt27  1  0.500000  0.500000  0.000000  1
