# generated using pymatgen
data_Ta4TiS8
_symmetry_space_group_name_H-M   'P 1'
_cell_length_a   6.66383900
_cell_length_b   6.66411455
_cell_length_c   12.46853500
_cell_angle_alpha   90.00000000
_cell_angle_beta   90.00000000
_cell_angle_gamma   120.00306934
_symmetry_Int_Tables_number   1
_chemical_formula_structural   Ta4TiS8
_chemical_formula_sum   'Ta8 Ti2 S16'
_cell_volume   479.51210724
_cell_formula_units_Z   2
loop_
 _symmetry_equiv_pos_site_id
 _symmetry_equiv_pos_as_xyz
  1  'x, y, z'
loop_
 _atom_site_type_symbol
 _atom_site_label
 _atom_site_symmetry_multiplicity
 _atom_site_fract_x
 _atom_site_fract_y
 _atom_site_fract_z
 _atom_site_occupancy
  Ta  Ta0  1  0.504980  0.494851  0.750000  1
  Ta  Ta1  1  0.010006  0.504937  0.250000  1
  Ta  Ta2  1  0.495112  0.989925  0.250000  1
  Ta  Ta3  1  0.504888  0.010075  0.750000  1
  Ta  Ta4  1  0.989994  0.495063  0.750000  1
  Ta  Ta5  1  0.495020  0.505149  0.250000  1
  Ta  Ta6  1  0.999889  0.000006  0.750000  1
  Ta  Ta7  1  0.000111  0.999994  0.250000  1
  Ti  Ti8  1  0.000000  0.000000  0.500000  1
  Ti  Ti9  1  0.000000  0.000000  0.000000  1
  S  S10  1  0.833091  0.166821  0.376810  1
  S  S11  1  0.832953  0.666118  0.376787  1
  S  S12  1  0.334033  0.167073  0.376744  1
  S  S13  1  0.665967  0.832927  0.876744  1
  S  S14  1  0.167047  0.333882  0.623213  1
  S  S15  1  0.166909  0.833179  0.876810  1
  S  S16  1  0.167047  0.333882  0.876787  1
  S  S17  1  0.833091  0.166821  0.123190  1
  S  S18  1  0.334033  0.167073  0.123256  1
  S  S19  1  0.665967  0.832927  0.623256  1
  S  S20  1  0.333310  0.666661  0.121854  1
  S  S21  1  0.666690  0.333339  0.621854  1
  S  S22  1  0.666690  0.333339  0.878146  1
  S  S23  1  0.333310  0.666661  0.378146  1
  S  S24  1  0.832953  0.666118  0.123213  1
  S  S25  1  0.166909  0.833179  0.623190  1
