# generated using pymatgen
data_Yb2Er2CdPd4Pb
_symmetry_space_group_name_H-M   'P 1'
_cell_length_a   7.85949775
_cell_length_b   7.74178285
_cell_length_c   3.65206200
_cell_angle_alpha   90.00000000
_cell_angle_beta   90.00000000
_cell_angle_gamma   88.76459565
_symmetry_Int_Tables_number   1
_chemical_formula_structural   Yb2Er2CdPd4Pb
_chemical_formula_sum   'Yb2 Er2 Cd1 Pd4 Pb1'
_cell_volume   222.16362780
_cell_formula_units_Z   1
loop_
 _symmetry_equiv_pos_site_id
 _symmetry_equiv_pos_as_xyz
  1  'x, y, z'
loop_
 _atom_site_type_symbol
 _atom_site_label
 _atom_site_symmetry_multiplicity
 _atom_site_fract_x
 _atom_site_fract_y
 _atom_site_fract_z
 _atom_site_occupancy
  Yb  Yb0  1  0.668767  0.167398  0.500000  1
  Yb  Yb1  1  0.331233  0.832602  0.500000  1
  Er  Er2  1  0.162979  0.326968  0.500000  1
  Er  Er3  1  0.837021  0.673032  0.500000  1
  Cd  Cd4  1  0.500000  0.500000  0.000000  1
  Pd  Pd5  1  0.135259  0.620470  0.000000  1
  Pd  Pd6  1  0.864741  0.379530  0.000000  1
  Pd  Pd7  1  0.623463  0.859375  0.000000  1
  Pd  Pd8  1  0.376537  0.140625  0.000000  1
  Pb  Pb9  1  0.000000  0.000000  0.000000  1
