# generated using pymatgen
data_Mg2ScAl3Si2Pt
_symmetry_space_group_name_H-M   'P 1'
_cell_length_a   6.62797866
_cell_length_b   6.62797832
_cell_length_c   4.06581100
_cell_angle_alpha   90.00000000
_cell_angle_beta   90.00000000
_cell_angle_gamma   119.74308731
_symmetry_Int_Tables_number   1
_chemical_formula_structural   Mg2ScAl3Si2Pt
_chemical_formula_sum   'Mg2 Sc1 Al3 Si2 Pt1'
_cell_volume   155.08096648
_cell_formula_units_Z   1
loop_
 _symmetry_equiv_pos_site_id
 _symmetry_equiv_pos_as_xyz
  1  'x, y, z'
loop_
 _atom_site_type_symbol
 _atom_site_label
 _atom_site_symmetry_multiplicity
 _atom_site_fract_x
 _atom_site_fract_y
 _atom_site_fract_z
 _atom_site_occupancy
  Mg  Mg0  1  0.416376  0.999902  0.000000  1
  Mg  Mg1  1  0.999902  0.416376  0.000000  1
  Sc  Sc2  1  0.576623  0.576624  0.000000  1
  Al  Al3  1  0.755043  0.998519  0.500000  1
  Al  Al4  1  0.243956  0.243957  0.500000  1
  Al  Al5  1  0.998519  0.755043  0.500000  1
  Si  Si6  1  0.669573  0.336468  0.500000  1
  Si  Si7  1  0.336468  0.669574  0.500000  1
  Pt  Pt8  1  0.003536  0.003536  0.000000  1
