# generated using pymatgen
data_Dy3Er9Co5Hg
_symmetry_space_group_name_H-M   'P 1'
_cell_length_a   8.20518449
_cell_length_b   8.20518427
_cell_length_c   8.19994983
_cell_angle_alpha   107.50808428
_cell_angle_beta   110.17032071
_cell_angle_gamma   110.77871604
_symmetry_Int_Tables_number   1
_chemical_formula_structural   Dy3Er9Co5Hg
_chemical_formula_sum   'Dy3 Er9 Co5 Hg1'
_cell_volume   424.45798523
_cell_formula_units_Z   1
loop_
 _symmetry_equiv_pos_site_id
 _symmetry_equiv_pos_as_xyz
  1  'x, y, z'
loop_
 _atom_site_type_symbol
 _atom_site_label
 _atom_site_symmetry_multiplicity
 _atom_site_fract_x
 _atom_site_fract_y
 _atom_site_fract_z
 _atom_site_occupancy
  Dy  Dy0  1  0.807252  0.789411  0.596663  1
  Dy  Dy1  1  0.193434  0.788882  0.982315  1
  Dy  Dy2  1  0.807521  0.210649  0.018172  1
  Er  Er3  1  0.474159  0.290370  0.184414  1
  Er  Er4  1  0.106705  0.291107  0.815094  1
  Er  Er5  1  0.894044  0.710255  0.184414  1
  Er  Er6  1  0.523987  0.708389  0.815094  1
  Er  Er7  1  0.303817  0.618977  0.316109  1
  Er  Er8  1  0.303424  0.987832  0.683670  1
  Er  Er9  1  0.695839  0.380248  0.683670  1
  Er  Er10  1  0.697133  0.012290  0.316109  1
  Er  Er11  1  0.193529  0.211611  0.405139  1
  Co  Co12  1  0.500010  0.613561  0.113572  1
  Co  Co13  1  0.498984  0.385975  0.884960  1
  Co  Co14  1  0.376947  0.000162  0.377110  1
  Co  Co15  1  0.621141  0.999802  0.620943  1
  Co  Co16  1  0.001926  0.000854  0.002780  1
  Hg  Hg17  1  0.000147  0.499626  0.499773  1
