# generated using pymatgen
data_Dy3In3Ag2Ir
_symmetry_space_group_name_H-M   'P 1'
_cell_length_a   7.89996500
_cell_length_b   7.89996579
_cell_length_c   3.82673900
_cell_angle_alpha   90.00000000
_cell_angle_beta   90.00000000
_cell_angle_gamma   119.99999364
_symmetry_Int_Tables_number   1
_chemical_formula_structural   Dy3In3Ag2Ir
_chemical_formula_sum   'Dy3 In3 Ag2 Ir1'
_cell_volume   206.82826066
_cell_formula_units_Z   1
loop_
 _symmetry_equiv_pos_site_id
 _symmetry_equiv_pos_as_xyz
  1  'x, y, z'
loop_
 _atom_site_type_symbol
 _atom_site_label
 _atom_site_symmetry_multiplicity
 _atom_site_fract_x
 _atom_site_fract_y
 _atom_site_fract_z
 _atom_site_occupancy
  Dy  Dy0  1  0.576133  0.607526  0.000000  1
  Dy  Dy1  1  0.392474  0.968607  0.000000  1
  Dy  Dy2  1  0.031393  0.423867  0.000000  1
  In  In3  1  0.994315  0.729867  0.500000  1
  In  In4  1  0.270133  0.264449  0.500000  1
  In  In5  1  0.735551  0.005685  0.500000  1
  Ag  Ag6  1  0.000000  0.000000  0.000000  1
  Ag  Ag7  1  0.666667  0.333333  0.500000  1
  Ir  Ir8  1  0.333333  0.666667  0.500000  1
