# generated using pymatgen
data_Er2TaSb5O18
_symmetry_space_group_name_H-M   'P 1'
_cell_length_a   7.50646313
_cell_length_b   5.34860331
_cell_length_c   8.20591886
_cell_angle_alpha   86.17473139
_cell_angle_beta   89.86260610
_cell_angle_gamma   90.04659750
_symmetry_Int_Tables_number   1
_chemical_formula_structural   Er2TaSb5O18
_chemical_formula_sum   'Er2 Ta1 Sb5 O18'
_cell_volume   328.72511210
_cell_formula_units_Z   1
loop_
 _symmetry_equiv_pos_site_id
 _symmetry_equiv_pos_as_xyz
  1  'x, y, z'
loop_
 _atom_site_type_symbol
 _atom_site_label
 _atom_site_symmetry_multiplicity
 _atom_site_fract_x
 _atom_site_fract_y
 _atom_site_fract_z
 _atom_site_occupancy
  Er  Er0  1  0.249474  0.965351  0.431312  1
  Er  Er1  1  0.750526  0.034649  0.568688  1
  Ta  Ta2  1  0.500000  0.000000  0.000000  1
  Sb  Sb3  1  0.000000  0.000000  0.000000  1
  Sb  Sb4  1  0.005374  0.531044  0.696388  1
  Sb  Sb5  1  0.494777  0.534781  0.694448  1
  Sb  Sb6  1  0.994626  0.468956  0.303612  1
  Sb  Sb7  1  0.505223  0.465219  0.305552  1
  O  O8  1  0.250230  0.898504  0.984966  1
  O  O9  1  0.936784  0.859285  0.778007  1
  O  O10  1  0.565017  0.856332  0.778914  1
  O  O11  1  0.958663  0.739963  0.472722  1
  O  O12  1  0.541146  0.740348  0.470645  1
  O  O13  1  0.249838  0.672750  0.654076  1
  O  O14  1  0.929823  0.673042  0.113560  1
  O  O15  1  0.556973  0.678731  0.117533  1
  O  O16  1  0.249546  0.595013  0.311595  1
  O  O17  1  0.750454  0.404987  0.688405  1
  O  O18  1  0.070177  0.326958  0.886440  1
  O  O19  1  0.443027  0.321269  0.882467  1
  O  O20  1  0.750162  0.327250  0.345924  1
  O  O21  1  0.041337  0.260037  0.527278  1
  O  O22  1  0.458854  0.259652  0.529355  1
  O  O23  1  0.063216  0.140715  0.221993  1
  O  O24  1  0.434983  0.143668  0.221086  1
  O  O25  1  0.749770  0.101496  0.015034  1
