# generated using pymatgen
data_TbYb5Mn2(VC6)2
_symmetry_space_group_name_H-M   'P 1'
_cell_length_a   8.15359263
_cell_length_b   8.12419586
_cell_length_c   4.99964100
_cell_angle_alpha   90.00000000
_cell_angle_beta   90.00000000
_cell_angle_gamma   119.76192963
_symmetry_Int_Tables_number   1
_chemical_formula_structural   TbYb5Mn2(VC6)2
_chemical_formula_sum   'Tb1 Yb5 Mn2 V2 C12'
_cell_volume   287.49858369
_cell_formula_units_Z   1
loop_
 _symmetry_equiv_pos_site_id
 _symmetry_equiv_pos_as_xyz
  1  'x, y, z'
loop_
 _atom_site_type_symbol
 _atom_site_label
 _atom_site_symmetry_multiplicity
 _atom_site_fract_x
 _atom_site_fract_y
 _atom_site_fract_z
 _atom_site_occupancy
  Tb  Tb0  1  0.383034  0.313991  0.250000  1
  Yb  Yb1  1  0.612186  0.687659  0.750000  1
  Yb  Yb2  1  0.927799  0.610512  0.250000  1
  Yb  Yb3  1  0.683585  0.073266  0.250000  1
  Yb  Yb4  1  0.316472  0.924398  0.750000  1
  Yb  Yb5  1  0.071889  0.392417  0.750000  1
  Mn  Mn6  1  0.664982  0.333914  0.750000  1
  Mn  Mn7  1  0.334531  0.664632  0.250000  1
  V  V8  1  0.999994  0.999568  0.501108  1
  V  V9  1  0.999994  0.999568  0.998892  1
  C  C10  1  0.951835  0.766636  0.750000  1
  C  C11  1  0.187378  0.952798  0.250000  1
  C  C12  1  0.768500  0.816741  0.250000  1
  C  C13  1  0.231226  0.184635  0.750000  1
  C  C14  1  0.817381  0.050551  0.750000  1
  C  C15  1  0.047210  0.231374  0.250000  1
  C  C16  1  0.855408  0.575414  0.750000  1
  C  C17  1  0.281179  0.853603  0.250000  1
  C  C18  1  0.577651  0.717796  0.250000  1
  C  C19  1  0.423264  0.280059  0.750000  1
  C  C20  1  0.142943  0.424130  0.250000  1
  C  C21  1  0.721558  0.146340  0.750000  1
