# generated using pymatgen
data_Nd4LuTl3Cl
_symmetry_space_group_name_H-M   'P 1'
_cell_length_a   9.47907600
_cell_length_b   9.47907546
_cell_length_c   6.78991800
_cell_angle_alpha   90.00000000
_cell_angle_beta   90.00000000
_cell_angle_gamma   120.00000187
_symmetry_Int_Tables_number   1
_chemical_formula_structural   Nd4LuTl3Cl
_chemical_formula_sum   'Nd8 Lu2 Tl6 Cl2'
_cell_volume   528.35660259
_cell_formula_units_Z   2
loop_
 _symmetry_equiv_pos_site_id
 _symmetry_equiv_pos_as_xyz
  1  'x, y, z'
loop_
 _atom_site_type_symbol
 _atom_site_label
 _atom_site_symmetry_multiplicity
 _atom_site_fract_x
 _atom_site_fract_y
 _atom_site_fract_z
 _atom_site_occupancy
  Nd  Nd0  1  0.740468  0.740468  0.253619  1
  Nd  Nd1  1  0.000000  0.740468  0.746381  1
  Nd  Nd2  1  0.740468  0.000000  0.746381  1
  Nd  Nd3  1  0.259532  0.259532  0.746381  1
  Nd  Nd4  1  0.000000  0.259532  0.253619  1
  Nd  Nd5  1  0.259532  0.000000  0.253619  1
  Nd  Nd6  1  0.333333  0.666667  0.000000  1
  Nd  Nd7  1  0.666667  0.333333  0.000000  1
  Lu  Lu8  1  0.333333  0.666667  0.500000  1
  Lu  Lu9  1  0.666667  0.333333  0.500000  1
  Tl  Tl10  1  0.395051  0.000000  0.744079  1
  Tl  Tl11  1  0.000000  0.604949  0.255921  1
  Tl  Tl12  1  0.604949  0.000000  0.255921  1
  Tl  Tl13  1  0.000000  0.395051  0.744079  1
  Tl  Tl14  1  0.395051  0.395051  0.255921  1
  Tl  Tl15  1  0.604949  0.604949  0.744079  1
  Cl  Cl16  1  0.000000  0.000000  0.500000  1
  Cl  Cl17  1  0.000000  0.000000  0.000000  1
