# generated using pymatgen
data_Na5EuVAs4
_symmetry_space_group_name_H-M   'P 1'
_cell_length_a   9.43547260
_cell_length_b   9.43547295
_cell_length_c   7.39521443
_cell_angle_alpha   90.53793981
_cell_angle_beta   90.53792915
_cell_angle_gamma   120.41223510
_symmetry_Int_Tables_number   1
_chemical_formula_structural   Na5EuVAs4
_chemical_formula_sum   'Na10 Eu2 V2 As8'
_cell_volume   567.69115213
_cell_formula_units_Z   2
loop_
 _symmetry_equiv_pos_site_id
 _symmetry_equiv_pos_as_xyz
  1  'x, y, z'
loop_
 _atom_site_type_symbol
 _atom_site_label
 _atom_site_symmetry_multiplicity
 _atom_site_fract_x
 _atom_site_fract_y
 _atom_site_fract_z
 _atom_site_occupancy
  Na  Na0  1  0.534554  0.474414  0.610874  1
  Na  Na1  1  0.942204  0.473631  0.610978  1
  Na  Na2  1  0.474414  0.534554  0.110874  1
  Na  Na3  1  0.473631  0.942204  0.110978  1
  Na  Na4  1  0.134125  0.854909  0.782282  1
  Na  Na5  1  0.711250  0.848240  0.801277  1
  Na  Na6  1  0.147265  0.289795  0.772789  1
  Na  Na7  1  0.854909  0.134125  0.282282  1
  Na  Na8  1  0.289795  0.147265  0.272789  1
  Na  Na9  1  0.848240  0.711250  0.301277  1
  Eu  Eu10  1  0.530031  0.056425  0.607924  1
  Eu  Eu11  1  0.056425  0.530031  0.107924  1
  V  V12  1  0.332504  0.663450  0.499778  1
  V  V13  1  0.663450  0.332504  0.999778  1
  As  As14  1  0.808351  0.197535  0.893360  1
  As  As15  1  0.390053  0.193195  0.884561  1
  As  As16  1  0.810443  0.612902  0.909910  1
  As  As17  1  0.197535  0.808351  0.393360  1
  As  As18  1  0.612902  0.810443  0.409910  1
  As  As19  1  0.193195  0.390053  0.384561  1
  As  As20  1  0.325925  0.668798  0.823367  1
  As  As21  1  0.668798  0.325925  0.323367  1
