# generated using pymatgen
data_La5Ho5(Co2Sn5)4
_symmetry_space_group_name_H-M   'P 1'
_cell_length_a   13.90133900
_cell_length_b   13.90133900
_cell_length_c   4.52248900
_cell_angle_alpha   90.00000000
_cell_angle_beta   90.00000000
_cell_angle_gamma   90.00000000
_symmetry_Int_Tables_number   1
_chemical_formula_structural   La5Ho5(Co2Sn5)4
_chemical_formula_sum   'La5 Ho5 Co8 Sn20'
_cell_volume   873.95845383
_cell_formula_units_Z   1
loop_
 _symmetry_equiv_pos_site_id
 _symmetry_equiv_pos_as_xyz
  1  'x, y, z'
loop_
 _atom_site_type_symbol
 _atom_site_label
 _atom_site_symmetry_multiplicity
 _atom_site_fract_x
 _atom_site_fract_y
 _atom_site_fract_z
 _atom_site_occupancy
  La  La0  1  0.000000  0.000000  0.000000  1
  La  La1  1  0.889662  0.390896  0.500000  1
  La  La2  1  0.110338  0.609104  0.500000  1
  La  La3  1  0.390896  0.110338  0.500000  1
  La  La4  1  0.609104  0.889662  0.500000  1
  Ho  Ho5  1  0.500000  0.500000  0.000000  1
  Ho  Ho6  1  0.678689  0.180178  0.500000  1
  Ho  Ho7  1  0.321311  0.819822  0.500000  1
  Ho  Ho8  1  0.180178  0.321311  0.500000  1
  Ho  Ho9  1  0.819822  0.678689  0.500000  1
  Co  Co10  1  0.742627  0.534508  0.000000  1
  Co  Co11  1  0.257373  0.465492  0.000000  1
  Co  Co12  1  0.245585  0.965190  0.000000  1
  Co  Co13  1  0.754415  0.034810  0.000000  1
  Co  Co14  1  0.465492  0.742627  0.000000  1
  Co  Co15  1  0.534508  0.257373  0.000000  1
  Co  Co16  1  0.034810  0.245585  0.000000  1
  Co  Co17  1  0.965190  0.754415  0.000000  1
  Sn  Sn18  1  0.573314  0.074154  0.000000  1
  Sn  Sn19  1  0.426686  0.925846  0.000000  1
  Sn  Sn20  1  0.074154  0.426686  0.000000  1
  Sn  Sn21  1  0.925846  0.573314  0.000000  1
  Sn  Sn22  1  0.648619  0.698420  0.000000  1
  Sn  Sn23  1  0.351381  0.301580  0.000000  1
  Sn  Sn24  1  0.149495  0.800660  0.000000  1
  Sn  Sn25  1  0.850505  0.199340  0.000000  1
  Sn  Sn26  1  0.301580  0.648619  0.000000  1
  Sn  Sn27  1  0.698420  0.351381  0.000000  1
  Sn  Sn28  1  0.199340  0.149495  0.000000  1
  Sn  Sn29  1  0.800660  0.850505  0.000000  1
  Sn  Sn30  1  0.666355  0.510785  0.500000  1
  Sn  Sn31  1  0.333645  0.489215  0.500000  1
  Sn  Sn32  1  0.170443  0.989248  0.500000  1
  Sn  Sn33  1  0.829557  0.010752  0.500000  1
  Sn  Sn34  1  0.489215  0.666355  0.500000  1
  Sn  Sn35  1  0.510785  0.333645  0.500000  1
  Sn  Sn36  1  0.010752  0.170443  0.500000  1
  Sn  Sn37  1  0.989248  0.829557  0.500000  1
