# generated using pymatgen
data_Yb4MnIr5Ru2
_symmetry_space_group_name_H-M   'P 1'
_cell_length_a   5.37711694
_cell_length_b   5.40512873
_cell_length_c   8.40935005
_cell_angle_alpha   89.99999779
_cell_angle_beta   89.72995636
_cell_angle_gamma   120.17247167
_symmetry_Int_Tables_number   1
_chemical_formula_structural   Yb4MnIr5Ru2
_chemical_formula_sum   'Yb4 Mn1 Ir5 Ru2'
_cell_volume   211.29281422
_cell_formula_units_Z   1
loop_
 _symmetry_equiv_pos_site_id
 _symmetry_equiv_pos_as_xyz
  1  'x, y, z'
loop_
 _atom_site_type_symbol
 _atom_site_label
 _atom_site_symmetry_multiplicity
 _atom_site_fract_x
 _atom_site_fract_y
 _atom_site_fract_z
 _atom_site_occupancy
  Yb  Yb0  1  0.332556  0.666278  0.431371  1
  Yb  Yb1  1  0.665859  0.332929  0.566624  1
  Yb  Yb2  1  0.667694  0.333847  0.929680  1
  Yb  Yb3  1  0.333855  0.666928  0.071835  1
  Mn  Mn4  1  0.998565  0.999283  0.999990  1
  Ir  Ir5  1  0.829506  0.171602  0.247836  1
  Ir  Ir6  1  0.829506  0.657902  0.247836  1
  Ir  Ir7  1  0.342498  0.171248  0.247189  1
  Ir  Ir8  1  0.173666  0.829630  0.753517  1
  Ir  Ir9  1  0.173666  0.344038  0.753517  1
  Ru  Ru10  1  0.993833  0.996916  0.501951  1
  Ru  Ru11  1  0.658796  0.829399  0.748654  1
