# generated using pymatgen
data_Sm4TcOsC4
_symmetry_space_group_name_H-M   'P 1'
_cell_length_a   5.26573100
_cell_length_b   6.60995789
_cell_length_c   10.04434403
_cell_angle_alpha   89.69849811
_cell_angle_beta   90.00000000
_cell_angle_gamma   90.00000000
_symmetry_Int_Tables_number   1
_chemical_formula_structural   Sm4TcOsC4
_chemical_formula_sum   'Sm8 Tc2 Os2 C8'
_cell_volume   349.60121113
_cell_formula_units_Z   2
loop_
 _symmetry_equiv_pos_site_id
 _symmetry_equiv_pos_as_xyz
  1  'x, y, z'
loop_
 _atom_site_type_symbol
 _atom_site_label
 _atom_site_symmetry_multiplicity
 _atom_site_fract_x
 _atom_site_fract_y
 _atom_site_fract_z
 _atom_site_occupancy
  Sm  Sm0  1  0.250000  0.684283  0.552823  1
  Sm  Sm1  1  0.750000  0.315717  0.447177  1
  Sm  Sm2  1  0.750000  0.817020  0.052827  1
  Sm  Sm3  1  0.250000  0.182980  0.947173  1
  Sm  Sm4  1  0.250000  0.528097  0.213864  1
  Sm  Sm5  1  0.750000  0.471903  0.786136  1
  Sm  Sm6  1  0.750000  0.973498  0.712873  1
  Sm  Sm7  1  0.250000  0.026502  0.287127  1
  Tc  Tc8  1  0.250000  0.726035  0.860191  1
  Tc  Tc9  1  0.750000  0.273965  0.139809  1
  Os  Os10  1  0.750000  0.773213  0.360679  1
  Os  Os11  1  0.250000  0.226787  0.639321  1
  C  C12  1  0.250000  0.460325  0.757400  1
  C  C13  1  0.750000  0.539675  0.242600  1
  C  C14  1  0.750000  0.037360  0.258793  1
  C  C15  1  0.250000  0.962640  0.741207  1
  C  C16  1  0.250000  0.815894  0.042268  1
  C  C17  1  0.750000  0.184106  0.957732  1
  C  C18  1  0.750000  0.683053  0.542951  1
  C  C19  1  0.250000  0.316947  0.457049  1
