# generated using pymatgen
data_Ho8Ga(Pt11Au)2
_symmetry_space_group_name_H-M   'P 1'
_cell_length_a   8.38510000
_cell_length_b   8.35782489
_cell_length_c   8.35646900
_cell_angle_alpha   89.97360006
_cell_angle_beta   90.00000000
_cell_angle_gamma   90.00000000
_symmetry_Int_Tables_number   1
_chemical_formula_structural   Ho8Ga(Pt11Au)2
_chemical_formula_sum   'Ho8 Ga1 Pt22 Au2'
_cell_volume   585.63129191
_cell_formula_units_Z   1
loop_
 _symmetry_equiv_pos_site_id
 _symmetry_equiv_pos_as_xyz
  1  'x, y, z'
loop_
 _atom_site_type_symbol
 _atom_site_label
 _atom_site_symmetry_multiplicity
 _atom_site_fract_x
 _atom_site_fract_y
 _atom_site_fract_z
 _atom_site_occupancy
  Ho  Ho0  1  0.252809  0.248274  0.744158  1
  Ho  Ho1  1  0.252240  0.747782  0.251991  1
  Ho  Ho2  1  0.751304  0.251965  0.255954  1
  Ho  Ho3  1  0.743686  0.751239  0.748324  1
  Ho  Ho4  1  0.747760  0.747782  0.251991  1
  Ho  Ho5  1  0.747191  0.248274  0.744158  1
  Ho  Ho6  1  0.256314  0.751239  0.748324  1
  Ho  Ho7  1  0.248696  0.251965  0.255954  1
  Ga  Ga8  1  0.000000  0.999710  0.000205  1
  Pt  Pt9  1  0.500000  0.500133  0.745842  1
  Pt  Pt10  1  0.500000  0.252818  0.499480  1
  Pt  Pt11  1  0.255207  0.500349  0.499954  1
  Pt  Pt12  1  0.500000  0.500262  0.254277  1
  Pt  Pt13  1  0.500000  0.747065  0.499516  1
  Pt  Pt14  1  0.744793  0.500349  0.499954  1
  Pt  Pt15  1  0.000000  0.999235  0.707736  1
  Pt  Pt16  1  0.000000  0.291919  0.999722  1
  Pt  Pt17  1  0.290617  0.000313  0.000681  1
  Pt  Pt18  1  0.000000  0.999366  0.292686  1
  Pt  Pt19  1  0.000000  0.707707  0.999699  1
  Pt  Pt20  1  0.709383  0.000313  0.000681  1
  Pt  Pt21  1  0.260959  0.999509  0.499523  1
  Pt  Pt22  1  0.000000  0.259409  0.500147  1
  Pt  Pt23  1  0.500000  0.000037  0.739513  1
  Pt  Pt24  1  0.260517  0.500066  0.000036  1
  Pt  Pt25  1  0.000000  0.500460  0.260499  1
  Pt  Pt26  1  0.500000  0.739828  0.000467  1
  Pt  Pt27  1  0.000000  0.740353  0.499905  1
  Pt  Pt28  1  0.500000  0.999893  0.260634  1
  Pt  Pt29  1  0.739041  0.999509  0.499523  1
  Pt  Pt30  1  0.739483  0.500066  0.000036  1
  Au  Au31  1  0.000000  0.500697  0.737604  1
  Au  Au32  1  0.500000  0.262116  0.000827  1
