# generated using pymatgen
data_CaTc6(NiO12)2
_symmetry_space_group_name_H-M   'P 1'
_cell_length_a   9.84662283
_cell_length_b   9.84662251
_cell_length_c   9.84662300
_cell_angle_alpha   55.74143715
_cell_angle_beta   55.74144546
_cell_angle_gamma   55.74145093
_symmetry_Int_Tables_number   1
_chemical_formula_structural   CaTc6(NiO12)2
_chemical_formula_sum   'Ca1 Tc6 Ni2 O24'
_cell_volume   608.38925262
_cell_formula_units_Z   1
loop_
 _symmetry_equiv_pos_site_id
 _symmetry_equiv_pos_as_xyz
  1  'x, y, z'
loop_
 _atom_site_type_symbol
 _atom_site_label
 _atom_site_symmetry_multiplicity
 _atom_site_fract_x
 _atom_site_fract_y
 _atom_site_fract_z
 _atom_site_occupancy
  Ca  Ca0  1  0.856582  0.856582  0.856582  1
  Tc  Tc1  1  0.041041  0.463948  0.737339  1
  Tc  Tc2  1  0.463948  0.737339  0.041041  1
  Tc  Tc3  1  0.737339  0.041041  0.463948  1
  Tc  Tc4  1  0.272347  0.962379  0.520754  1
  Tc  Tc5  1  0.520754  0.272347  0.962379  1
  Tc  Tc6  1  0.962379  0.520754  0.272347  1
  Ni  Ni7  1  0.359454  0.359454  0.359454  1
  Ni  Ni8  1  0.642333  0.642333  0.642333  1
  O  O9  1  0.122274  0.476526  0.333870  1
  O  O10  1  0.333870  0.122274  0.476526  1
  O  O11  1  0.998364  0.331000  0.954015  1
  O  O12  1  0.476526  0.333870  0.122274  1
  O  O13  1  0.032971  0.660693  0.707687  1
  O  O14  1  0.250023  0.357221  0.608440  1
  O  O15  1  0.357221  0.608440  0.250023  1
  O  O16  1  0.331000  0.954015  0.998364  1
  O  O17  1  0.608440  0.250023  0.357221  1
  O  O18  1  0.050536  0.003276  0.657198  1
  O  O19  1  0.305869  0.968102  0.327715  1
  O  O20  1  0.327715  0.305869  0.968102  1
  O  O21  1  0.660693  0.707687  0.032971  1
  O  O22  1  0.707687  0.032971  0.660693  1
  O  O23  1  0.954015  0.998364  0.331000  1
  O  O24  1  0.400454  0.754372  0.628145  1
  O  O25  1  0.657198  0.050536  0.003276  1
  O  O26  1  0.628145  0.400454  0.754372  1
  O  O27  1  0.754372  0.628145  0.400454  1
  O  O28  1  0.968102  0.327715  0.305869  1
  O  O29  1  0.514451  0.674128  0.878844  1
  O  O30  1  0.003276  0.657198  0.050536  1
  O  O31  1  0.674128  0.878844  0.514451  1
  O  O32  1  0.878844  0.514451  0.674128  1
