# generated using pymatgen
data_Tb3Ho3Co17ReP12
_symmetry_space_group_name_H-M   'P 1'
_cell_length_a   3.69961000
_cell_length_b   10.50499400
_cell_length_c   12.20623600
_cell_angle_alpha   89.99784440
_cell_angle_beta   90.00000000
_cell_angle_gamma   90.00000000
_symmetry_Int_Tables_number   1
_chemical_formula_structural   Tb3Ho3Co17ReP12
_chemical_formula_sum   'Tb3 Ho3 Co17 Re1 P12'
_cell_volume   474.38780451
_cell_formula_units_Z   1
loop_
 _symmetry_equiv_pos_site_id
 _symmetry_equiv_pos_as_xyz
  1  'x, y, z'
loop_
 _atom_site_type_symbol
 _atom_site_label
 _atom_site_symmetry_multiplicity
 _atom_site_fract_x
 _atom_site_fract_y
 _atom_site_fract_z
 _atom_site_occupancy
  Tb  Tb0  1  0.000000  0.500010  0.523820  1
  Tb  Tb1  1  0.500000  0.999980  0.478142  1
  Tb  Tb2  1  0.000000  0.317105  0.795185  1
  Ho  Ho3  1  0.500000  0.817755  0.206742  1
  Ho  Ho4  1  0.500000  0.182237  0.206746  1
  Ho  Ho5  1  0.000000  0.683100  0.795218  1
  Co  Co6  1  0.000000  0.999944  0.840207  1
  Co  Co7  1  0.500000  0.500483  0.702984  1
  Co  Co8  1  0.000000  0.999980  0.295917  1
  Co  Co9  1  0.000000  0.500197  0.988205  1
  Co  Co10  1  0.500000  0.999787  0.014939  1
  Co  Co11  1  0.500000  0.332370  0.991607  1
  Co  Co12  1  0.500000  0.667794  0.991270  1
  Co  Co13  1  0.000000  0.166307  0.005974  1
  Co  Co14  1  0.000000  0.833549  0.005756  1
  Co  Co15  1  0.500000  0.296563  0.430243  1
  Co  Co16  1  0.500000  0.703470  0.430367  1
  Co  Co17  1  0.000000  0.203246  0.568994  1
  Co  Co18  1  0.000000  0.796648  0.569286  1
  Co  Co19  1  0.500000  0.878949  0.709351  1
  Co  Co20  1  0.500000  0.120507  0.709098  1
  Co  Co21  1  0.000000  0.620706  0.290760  1
  Co  Co22  1  0.000000  0.379294  0.290715  1
  Re  Re23  1  0.500000  0.500040  0.156530  1
  P  P24  1  0.500000  0.500562  0.880984  1
  P  P25  1  0.000000  0.999942  0.117451  1
  P  P26  1  0.500000  0.499987  0.348971  1
  P  P27  1  0.000000  0.000034  0.656499  1
  P  P28  1  0.500000  0.310541  0.616093  1
  P  P29  1  0.500000  0.689470  0.616765  1
  P  P30  1  0.000000  0.188869  0.383962  1
  P  P31  1  0.000000  0.811084  0.384051  1
  P  P32  1  0.500000  0.849462  0.891893  1
  P  P33  1  0.500000  0.149997  0.892276  1
  P  P34  1  0.000000  0.656442  0.106563  1
  P  P35  1  0.000000  0.343590  0.106444  1
