# generated using pymatgen
data_TbPrZn5Sn
_symmetry_space_group_name_H-M   'P 1'
_cell_length_a   8.51056641
_cell_length_b   8.51056758
_cell_length_c   9.04972400
_cell_angle_alpha   90.00000000
_cell_angle_beta   90.00000000
_cell_angle_gamma   149.69894310
_symmetry_Int_Tables_number   1
_chemical_formula_structural   TbPrZn5Sn
_chemical_formula_sum   'Tb2 Pr2 Zn10 Sn2'
_cell_volume   330.71278355
_cell_formula_units_Z   2
loop_
 _symmetry_equiv_pos_site_id
 _symmetry_equiv_pos_as_xyz
  1  'x, y, z'
loop_
 _atom_site_type_symbol
 _atom_site_label
 _atom_site_symmetry_multiplicity
 _atom_site_fract_x
 _atom_site_fract_y
 _atom_site_fract_z
 _atom_site_occupancy
  Tb  Tb0  1  0.205557  0.794443  0.250000  1
  Tb  Tb1  1  0.794443  0.205557  0.750000  1
  Pr  Pr2  1  0.000000  0.000000  0.500000  1
  Pr  Pr3  1  0.000000  0.000000  0.000000  1
  Zn  Zn4  1  0.812790  0.187210  0.390788  1
  Zn  Zn5  1  0.187210  0.812790  0.609212  1
  Zn  Zn6  1  0.812790  0.187210  0.109212  1
  Zn  Zn7  1  0.187210  0.812790  0.890788  1
  Zn  Zn8  1  0.657655  0.342345  0.482636  1
  Zn  Zn9  1  0.342345  0.657655  0.517364  1
  Zn  Zn10  1  0.657655  0.342345  0.017364  1
  Zn  Zn11  1  0.342345  0.657655  0.982636  1
  Zn  Zn12  1  0.394489  0.605511  0.250000  1
  Zn  Zn13  1  0.605511  0.394489  0.750000  1
  Sn  Sn14  1  0.556975  0.443025  0.250000  1
  Sn  Sn15  1  0.443025  0.556975  0.750000  1
