# generated using pymatgen
data_Hf3Ti3(Zn3C)2
_symmetry_space_group_name_H-M   'P 1'
_cell_length_a   8.40551790
_cell_length_b   8.40551770
_cell_length_c   8.40551800
_cell_angle_alpha   59.99999882
_cell_angle_beta   59.99999959
_cell_angle_gamma   59.99999214
_symmetry_Int_Tables_number   1
_chemical_formula_structural   Hf3Ti3(Zn3C)2
_chemical_formula_sum   'Hf6 Ti6 Zn12 C4'
_cell_volume   419.93144633
_cell_formula_units_Z   2
loop_
 _symmetry_equiv_pos_site_id
 _symmetry_equiv_pos_as_xyz
  1  'x, y, z'
loop_
 _atom_site_type_symbol
 _atom_site_label
 _atom_site_symmetry_multiplicity
 _atom_site_fract_x
 _atom_site_fract_y
 _atom_site_fract_z
 _atom_site_occupancy
  Hf  Hf0  1  0.440838  0.059162  0.059162  1
  Hf  Hf1  1  0.059162  0.440838  0.059162  1
  Hf  Hf2  1  0.440838  0.440838  0.059162  1
  Hf  Hf3  1  0.059162  0.440838  0.440838  1
  Hf  Hf4  1  0.440838  0.059162  0.440838  1
  Hf  Hf5  1  0.059162  0.059162  0.440838  1
  Ti  Ti6  1  0.822133  0.177867  0.177867  1
  Ti  Ti7  1  0.177867  0.822133  0.177867  1
  Ti  Ti8  1  0.822133  0.822133  0.177867  1
  Ti  Ti9  1  0.177867  0.822133  0.822133  1
  Ti  Ti10  1  0.822133  0.177867  0.822133  1
  Ti  Ti11  1  0.177867  0.177867  0.822133  1
  Zn  Zn12  1  0.418278  0.418278  0.745165  1
  Zn  Zn13  1  0.418278  0.418278  0.418278  1
  Zn  Zn14  1  0.745165  0.418278  0.418278  1
  Zn  Zn15  1  0.418278  0.745165  0.418278  1
  Zn  Zn16  1  0.835268  0.835268  0.494199  1
  Zn  Zn17  1  0.835268  0.835268  0.835268  1
  Zn  Zn18  1  0.494199  0.835268  0.835268  1
  Zn  Zn19  1  0.835268  0.494199  0.835268  1
  Zn  Zn20  1  0.626067  0.626067  0.121799  1
  Zn  Zn21  1  0.626067  0.626067  0.626067  1
  Zn  Zn22  1  0.121799  0.626067  0.626067  1
  Zn  Zn23  1  0.626067  0.121799  0.626067  1
  C  C24  1  0.121884  0.121884  0.634347  1
  C  C25  1  0.121884  0.121884  0.121884  1
  C  C26  1  0.634347  0.121884  0.121884  1
  C  C27  1  0.121884  0.634347  0.121884  1
