# generated using pymatgen
data_Dy4B16OsRu3
_symmetry_space_group_name_H-M   'P 1'
_cell_length_a   3.55903400
_cell_length_b   5.95523103
_cell_length_c   11.52454205
_cell_angle_alpha   90.01056185
_cell_angle_beta   90.00000000
_cell_angle_gamma   90.00000000
_symmetry_Int_Tables_number   1
_chemical_formula_structural   Dy4B16OsRu3
_chemical_formula_sum   'Dy4 B16 Os1 Ru3'
_cell_volume   244.26116289
_cell_formula_units_Z   1
loop_
 _symmetry_equiv_pos_site_id
 _symmetry_equiv_pos_as_xyz
  1  'x, y, z'
loop_
 _atom_site_type_symbol
 _atom_site_label
 _atom_site_symmetry_multiplicity
 _atom_site_fract_x
 _atom_site_fract_y
 _atom_site_fract_z
 _atom_site_occupancy
  Dy  Dy0  1  0.000000  0.128731  0.649765  1
  Dy  Dy1  1  0.000000  0.871250  0.350237  1
  Dy  Dy2  1  0.000000  0.628802  0.849822  1
  Dy  Dy3  1  0.000000  0.371162  0.150090  1
  B  B4  1  0.500000  0.476523  0.691764  1
  B  B5  1  0.500000  0.523745  0.308201  1
  B  B6  1  0.500000  0.975813  0.808270  1
  B  B7  1  0.500000  0.023922  0.191757  1
  B  B8  1  0.500000  0.289171  0.814175  1
  B  B9  1  0.500000  0.710929  0.185722  1
  B  B10  1  0.500000  0.788975  0.685581  1
  B  B11  1  0.500000  0.210961  0.314505  1
  B  B12  1  0.500000  0.363725  0.969988  1
  B  B13  1  0.500000  0.636237  0.030191  1
  B  B14  1  0.500000  0.863914  0.530254  1
  B  B15  1  0.500000  0.136029  0.469657  1
  B  B16  1  0.500000  0.388062  0.546579  1
  B  B17  1  0.500000  0.611975  0.453335  1
  B  B18  1  0.500000  0.887809  0.953244  1
  B  B19  1  0.500000  0.112249  0.046760  1
  Os  Os20  1  0.000000  0.141035  0.907247  1
  Ru  Ru21  1  0.000000  0.858916  0.092765  1
  Ru  Ru22  1  0.000000  0.640299  0.592738  1
  Ru  Ru23  1  0.000000  0.359766  0.407351  1
