# generated using pymatgen
data_Mg4Si3Pt4
_symmetry_space_group_name_H-M   'P 1'
_cell_length_a   10.42249333
_cell_length_b   10.42249372
_cell_length_c   7.42719715
_cell_angle_alpha   71.34739026
_cell_angle_beta   71.34739054
_cell_angle_gamma   29.79504914
_symmetry_Int_Tables_number   1
_chemical_formula_structural   Mg4Si3Pt4
_chemical_formula_sum   'Mg8 Si6 Pt8'
_cell_volume   378.30830975
_cell_formula_units_Z   2
loop_
 _symmetry_equiv_pos_site_id
 _symmetry_equiv_pos_as_xyz
  1  'x, y, z'
loop_
 _atom_site_type_symbol
 _atom_site_label
 _atom_site_symmetry_multiplicity
 _atom_site_fract_x
 _atom_site_fract_y
 _atom_site_fract_z
 _atom_site_occupancy
  Mg  Mg0  1  0.930259  0.204139  0.325125  1
  Mg  Mg1  1  0.069741  0.795861  0.674875  1
  Mg  Mg2  1  0.795861  0.069741  0.174875  1
  Mg  Mg3  1  0.454101  0.206250  0.910188  1
  Mg  Mg4  1  0.793750  0.545899  0.589812  1
  Mg  Mg5  1  0.206250  0.454101  0.410188  1
  Mg  Mg6  1  0.204139  0.930259  0.825125  1
  Mg  Mg7  1  0.545899  0.793750  0.089812  1
  Si  Si8  1  0.303608  0.032124  0.441351  1
  Si  Si9  1  0.391834  0.608166  0.250000  1
  Si  Si10  1  0.032124  0.303608  0.941351  1
  Si  Si11  1  0.696392  0.967876  0.558649  1
  Si  Si12  1  0.967876  0.696392  0.058649  1
  Si  Si13  1  0.608166  0.391834  0.750000  1
  Pt  Pt14  1  0.592073  0.283753  0.527498  1
  Pt  Pt15  1  0.716247  0.407927  0.972502  1
  Pt  Pt16  1  0.283753  0.592073  0.027498  1
  Pt  Pt17  1  0.407927  0.716247  0.472502  1
  Pt  Pt18  1  0.635850  0.927222  0.309021  1
  Pt  Pt19  1  0.927222  0.635850  0.809021  1
  Pt  Pt20  1  0.364150  0.072778  0.690979  1
  Pt  Pt21  1  0.072778  0.364150  0.190979  1
