# generated using pymatgen
data_EuEr(SbO4)2
_symmetry_space_group_name_H-M   'P 1'
_cell_length_a   5.39507589
_cell_length_b   7.66359397
_cell_length_c   7.55389400
_cell_angle_alpha   81.13130215
_cell_angle_beta   90.34515253
_cell_angle_gamma   92.27652209
_symmetry_Int_Tables_number   1
_chemical_formula_structural   EuEr(SbO4)2
_chemical_formula_sum   'Eu2 Er2 Sb4 O16'
_cell_volume   308.34323231
_cell_formula_units_Z   2
loop_
 _symmetry_equiv_pos_site_id
 _symmetry_equiv_pos_as_xyz
  1  'x, y, z'
loop_
 _atom_site_type_symbol
 _atom_site_label
 _atom_site_symmetry_multiplicity
 _atom_site_fract_x
 _atom_site_fract_y
 _atom_site_fract_z
 _atom_site_occupancy
  Eu  Eu0  1  0.258707  0.135299  0.610468  1
  Eu  Eu1  1  0.741293  0.864701  0.389532  1
  Er  Er2  1  0.207809  0.158839  0.106985  1
  Er  Er3  1  0.792191  0.841161  0.893015  1
  Sb  Sb4  1  0.239704  0.662349  0.192804  1
  Sb  Sb5  1  0.760296  0.337651  0.807196  1
  Sb  Sb6  1  0.722458  0.337043  0.305774  1
  Sb  Sb7  1  0.277542  0.662957  0.694226  1
  O  O8  1  0.085955  0.435711  0.690779  1
  O  O9  1  0.914045  0.564289  0.309221  1
  O  O10  1  0.618219  0.329188  0.560537  1
  O  O11  1  0.381781  0.670812  0.439463  1
  O  O12  1  0.874166  0.334937  0.061036  1
  O  O13  1  0.125834  0.665063  0.938964  1
  O  O14  1  0.398983  0.430450  0.194069  1
  O  O15  1  0.601017  0.569550  0.805931  1
  O  O16  1  0.046277  0.885737  0.164874  1
  O  O17  1  0.953723  0.114263  0.835126  1
  O  O18  1  0.501969  0.115494  0.320105  1
  O  O19  1  0.498031  0.884506  0.679895  1
  O  O20  1  0.465254  0.188998  0.882330  1
  O  O21  1  0.534746  0.811002  0.117670  1
  O  O22  1  0.986084  0.164941  0.372392  1
  O  O23  1  0.013916  0.835059  0.627608  1
