# generated using pymatgen
data_VFe(TcO4)6
_symmetry_space_group_name_H-M   'P 1'
_cell_length_a   10.53501628
_cell_length_b   10.53488774
_cell_length_c   10.53487102
_cell_angle_alpha   49.14566515
_cell_angle_beta   49.14530506
_cell_angle_gamma   49.14525927
_symmetry_Int_Tables_number   1
_chemical_formula_structural   VFe(TcO4)6
_chemical_formula_sum   'V1 Fe1 Tc6 O24'
_cell_volume   614.38027887
_cell_formula_units_Z   1
loop_
 _symmetry_equiv_pos_site_id
 _symmetry_equiv_pos_as_xyz
  1  'x, y, z'
loop_
 _atom_site_type_symbol
 _atom_site_label
 _atom_site_symmetry_multiplicity
 _atom_site_fract_x
 _atom_site_fract_y
 _atom_site_fract_z
 _atom_site_occupancy
  V  V0  1  0.500000  0.500000  0.500000  1
  Fe  Fe1  1  0.000000  0.000000  0.000000  1
  Tc  Tc2  1  0.598832  0.901285  0.249927  1
  Tc  Tc3  1  0.249929  0.598826  0.901290  1
  Tc  Tc4  1  0.901285  0.249930  0.598831  1
  Tc  Tc5  1  0.750071  0.401174  0.098710  1
  Tc  Tc6  1  0.098715  0.750070  0.401169  1
  Tc  Tc7  1  0.401168  0.098715  0.750073  1
  O  O8  1  0.816269  0.887004  0.169902  1
  O  O9  1  0.169899  0.816279  0.887003  1
  O  O10  1  0.887003  0.169902  0.816271  1
  O  O11  1  0.669936  0.386911  0.316195  1
  O  O12  1  0.316187  0.669939  0.386910  1
  O  O13  1  0.386910  0.316186  0.669940  1
  O  O14  1  0.183731  0.112996  0.830098  1
  O  O15  1  0.830101  0.183721  0.112997  1
  O  O16  1  0.112997  0.830098  0.183729  1
  O  O17  1  0.330064  0.613089  0.683805  1
  O  O18  1  0.683813  0.330061  0.613090  1
  O  O19  1  0.613090  0.683814  0.330060  1
  O  O20  1  0.445012  0.975999  0.422934  1
  O  O21  1  0.422937  0.445010  0.976001  1
  O  O22  1  0.975999  0.422933  0.445013  1
  O  O23  1  0.922983  0.476008  0.944971  1
  O  O24  1  0.944973  0.922980  0.476006  1
  O  O25  1  0.476005  0.944975  0.922979  1
  O  O26  1  0.554988  0.024001  0.577066  1
  O  O27  1  0.577063  0.554990  0.023999  1
  O  O28  1  0.024001  0.577067  0.554987  1
  O  O29  1  0.077017  0.523992  0.055029  1
  O  O30  1  0.055027  0.077020  0.523994  1
  O  O31  1  0.523995  0.055025  0.077021  1
