# generated using pymatgen
data_Ho8In4Pd7Au
_symmetry_space_group_name_H-M   'P 1'
_cell_length_a   7.75059810
_cell_length_b   7.75059837
_cell_length_c   7.33415400
_cell_angle_alpha   90.00917401
_cell_angle_beta   90.00918140
_cell_angle_gamma   89.77593332
_symmetry_Int_Tables_number   1
_chemical_formula_structural   Ho8In4Pd7Au
_chemical_formula_sum   'Ho8 In4 Pd7 Au1'
_cell_volume   440.57225372
_cell_formula_units_Z   1
loop_
 _symmetry_equiv_pos_site_id
 _symmetry_equiv_pos_as_xyz
  1  'x, y, z'
loop_
 _atom_site_type_symbol
 _atom_site_label
 _atom_site_symmetry_multiplicity
 _atom_site_fract_x
 _atom_site_fract_y
 _atom_site_fract_z
 _atom_site_occupancy
  Ho  Ho0  1  0.830774  0.163350  0.503324  1
  Ho  Ho1  1  0.163350  0.830774  0.503324  1
  Ho  Ho2  1  0.339285  0.339285  0.996831  1
  Ho  Ho3  1  0.666067  0.666067  0.999571  1
  Ho  Ho4  1  0.679318  0.679318  0.500522  1
  Ho  Ho5  1  0.324566  0.324566  0.502496  1
  Ho  Ho6  1  0.177764  0.816547  0.997270  1
  Ho  Ho7  1  0.816547  0.177764  0.997270  1
  In  In8  1  0.503388  0.998187  0.250016  1
  In  In9  1  0.999840  0.497617  0.750398  1
  In  In10  1  0.497617  0.999840  0.750398  1
  In  In11  1  0.998187  0.503388  0.250016  1
  Pd  Pd12  1  0.628611  0.373016  0.264973  1
  Pd  Pd13  1  0.373016  0.628611  0.264973  1
  Pd  Pd14  1  0.128283  0.128283  0.764872  1
  Pd  Pd15  1  0.872709  0.872709  0.765053  1
  Pd  Pd16  1  0.374093  0.628528  0.734626  1
  Pd  Pd17  1  0.628528  0.374093  0.734626  1
  Pd  Pd18  1  0.871860  0.871860  0.234968  1
  Au  Au19  1  0.126195  0.126195  0.234475  1
