# generated using pymatgen
data_Li4BeSb3Rh8
_symmetry_space_group_name_H-M   'P 1'
_cell_length_a   6.09217200
_cell_length_b   6.07900100
_cell_length_c   6.09239500
_cell_angle_alpha   90.00349283
_cell_angle_beta   90.00047023
_cell_angle_gamma   90.00040483
_symmetry_Int_Tables_number   1
_chemical_formula_structural   Li4BeSb3Rh8
_chemical_formula_sum   'Li4 Be1 Sb3 Rh8'
_cell_volume   225.62770383
_cell_formula_units_Z   1
loop_
 _symmetry_equiv_pos_site_id
 _symmetry_equiv_pos_as_xyz
  1  'x, y, z'
loop_
 _atom_site_type_symbol
 _atom_site_label
 _atom_site_symmetry_multiplicity
 _atom_site_fract_x
 _atom_site_fract_y
 _atom_site_fract_z
 _atom_site_occupancy
  Li  Li0  1  0.500003  0.750000  0.249951  1
  Li  Li1  1  0.000001  0.249996  0.249952  1
  Li  Li2  1  0.999998  0.749997  0.750033  1
  Li  Li3  1  0.500006  0.250001  0.750052  1
  Be  Be4  1  0.499997  0.250001  0.250007  1
  Sb  Sb5  1  0.999995  0.749991  0.250049  1
  Sb  Sb6  1  0.999997  0.250006  0.749941  1
  Sb  Sb7  1  0.500005  0.749990  0.749941  1
  Rh  Rh8  1  0.259700  0.009482  0.009730  1
  Rh  Rh9  1  0.740310  0.009474  0.009722  1
  Rh  Rh10  1  0.740309  0.490530  0.009717  1
  Rh  Rh11  1  0.259681  0.490558  0.009702  1
  Rh  Rh12  1  0.259727  0.490495  0.490288  1
  Rh  Rh13  1  0.259709  0.009483  0.490319  1
  Rh  Rh14  1  0.740281  0.490497  0.490291  1
  Rh  Rh15  1  0.740279  0.009501  0.490308  1
