# generated using pymatgen
data_Zr10In3CuSiBi3
_symmetry_space_group_name_H-M   'P 1'
_cell_length_a   8.77537700
_cell_length_b   8.77537776
_cell_length_c   5.94058400
_cell_angle_alpha   90.00000000
_cell_angle_beta   90.00000000
_cell_angle_gamma   120.00000090
_symmetry_Int_Tables_number   1
_chemical_formula_structural   Zr10In3CuSiBi3
_chemical_formula_sum   'Zr10 In3 Cu1 Si1 Bi3'
_cell_volume   396.17892866
_cell_formula_units_Z   1
loop_
 _symmetry_equiv_pos_site_id
 _symmetry_equiv_pos_as_xyz
  1  'x, y, z'
loop_
 _atom_site_type_symbol
 _atom_site_label
 _atom_site_symmetry_multiplicity
 _atom_site_fract_x
 _atom_site_fract_y
 _atom_site_fract_z
 _atom_site_occupancy
  Zr  Zr0  1  0.729406  0.000000  0.251114  1
  Zr  Zr1  1  0.000000  0.729406  0.251114  1
  Zr  Zr2  1  0.270594  0.270594  0.251114  1
  Zr  Zr3  1  0.243675  0.000000  0.745498  1
  Zr  Zr4  1  0.000000  0.243675  0.745498  1
  Zr  Zr5  1  0.756325  0.756325  0.745498  1
  Zr  Zr6  1  0.333333  0.666667  0.491562  1
  Zr  Zr7  1  0.666667  0.333333  0.491562  1
  Zr  Zr8  1  0.666667  0.333333  0.008703  1
  Zr  Zr9  1  0.333333  0.666667  0.008703  1
  In  In10  1  0.380431  0.000000  0.247550  1
  In  In11  1  0.000000  0.380431  0.247550  1
  In  In12  1  0.619569  0.619569  0.247550  1
  Cu  Cu13  1  0.000000  0.000000  0.042200  1
  Si  Si14  1  0.000000  0.000000  0.469526  1
  Bi  Bi15  1  0.602393  0.000000  0.751752  1
  Bi  Bi16  1  0.000000  0.602393  0.751752  1
  Bi  Bi17  1  0.397607  0.397607  0.751752  1
