# generated using pymatgen
data_LaPr3(ZnRh)4
_symmetry_space_group_name_H-M   'P 1'
_cell_length_a   4.08027800
_cell_length_b   7.36027200
_cell_length_c   16.65817600
_cell_angle_alpha   90.00000000
_cell_angle_beta   90.00000000
_cell_angle_gamma   90.00000000
_symmetry_Int_Tables_number   1
_chemical_formula_structural   LaPr3(ZnRh)4
_chemical_formula_sum   'La2 Pr6 Zn8 Rh8'
_cell_volume   500.27760727
_cell_formula_units_Z   2
loop_
 _symmetry_equiv_pos_site_id
 _symmetry_equiv_pos_as_xyz
  1  'x, y, z'
loop_
 _atom_site_type_symbol
 _atom_site_label
 _atom_site_symmetry_multiplicity
 _atom_site_fract_x
 _atom_site_fract_y
 _atom_site_fract_z
 _atom_site_occupancy
  La  La0  1  0.750000  0.453252  0.216605  1
  La  La1  1  0.750000  0.953252  0.283395  1
  Pr  Pr2  1  0.750000  0.832445  0.059353  1
  Pr  Pr3  1  0.250000  0.046280  0.716829  1
  Pr  Pr4  1  0.250000  0.167667  0.939814  1
  Pr  Pr5  1  0.250000  0.546280  0.783171  1
  Pr  Pr6  1  0.750000  0.332445  0.440647  1
  Pr  Pr7  1  0.250000  0.667667  0.560186  1
  Zn  Zn8  1  0.250000  0.998991  0.440693  1
  Zn  Zn9  1  0.750000  0.501403  0.939534  1
  Zn  Zn10  1  0.750000  0.001403  0.560466  1
  Zn  Zn11  1  0.250000  0.625918  0.351145  1
  Zn  Zn12  1  0.750000  0.373874  0.650141  1
  Zn  Zn13  1  0.750000  0.873874  0.849859  1
  Zn  Zn14  1  0.250000  0.498991  0.059307  1
  Zn  Zn15  1  0.250000  0.125918  0.148855  1
  Rh  Rh16  1  0.250000  0.243489  0.565220  1
  Rh  Rh17  1  0.750000  0.258827  0.066022  1
  Rh  Rh18  1  0.250000  0.243939  0.312895  1
  Rh  Rh19  1  0.750000  0.253913  0.813739  1
  Rh  Rh20  1  0.250000  0.743489  0.934780  1
  Rh  Rh21  1  0.750000  0.753913  0.686261  1
  Rh  Rh22  1  0.750000  0.758827  0.433978  1
  Rh  Rh23  1  0.250000  0.743939  0.187105  1
