# generated using pymatgen
data_Ho2USn3IrRu2
_symmetry_space_group_name_H-M   'P 1'
_cell_length_a   7.77683200
_cell_length_b   7.30680547
_cell_length_c   3.93726200
_cell_angle_alpha   90.00000000
_cell_angle_beta   90.00000000
_cell_angle_gamma   122.15175834
_symmetry_Int_Tables_number   1
_chemical_formula_structural   Ho2USn3IrRu2
_chemical_formula_sum   'Ho2 U1 Sn3 Ir1 Ru2'
_cell_volume   189.41926551
_cell_formula_units_Z   1
loop_
 _symmetry_equiv_pos_site_id
 _symmetry_equiv_pos_as_xyz
  1  'x, y, z'
loop_
 _atom_site_type_symbol
 _atom_site_label
 _atom_site_symmetry_multiplicity
 _atom_site_fract_x
 _atom_site_fract_y
 _atom_site_fract_z
 _atom_site_occupancy
  Ho  Ho0  1  0.005518  0.405536  0.500000  1
  Ho  Ho1  1  0.599981  0.594464  0.500000  1
  U  U2  1  0.412423  0.000000  0.500000  1
  Sn  Sn3  1  0.981963  0.720764  0.000000  1
  Sn  Sn4  1  0.261199  0.279236  0.000000  1
  Sn  Sn5  1  0.760416  0.000000  0.000000  1
  Ir  Ir6  1  0.014995  0.000000  0.500000  1
  Ru  Ru7  1  0.343079  0.722656  0.000000  1
  Ru  Ru8  1  0.620424  0.277344  0.000000  1
