# generated using pymatgen
data_TbFe3P3IrRu
_symmetry_space_group_name_H-M   'P 1'
_cell_length_a   3.79036700
_cell_length_b   10.30715200
_cell_length_c   12.13726900
_cell_angle_alpha   90.00000000
_cell_angle_beta   90.00000000
_cell_angle_gamma   90.00000000
_symmetry_Int_Tables_number   1
_chemical_formula_structural   TbFe3P3IrRu
_chemical_formula_sum   'Tb4 Fe12 P12 Ir4 Ru4'
_cell_volume   474.17747569
_cell_formula_units_Z   4
loop_
 _symmetry_equiv_pos_site_id
 _symmetry_equiv_pos_as_xyz
  1  'x, y, z'
loop_
 _atom_site_type_symbol
 _atom_site_label
 _atom_site_symmetry_multiplicity
 _atom_site_fract_x
 _atom_site_fract_y
 _atom_site_fract_z
 _atom_site_occupancy
  Tb  Tb0  1  0.250000  0.581740  0.712251  1
  Tb  Tb1  1  0.250000  0.918260  0.212251  1
  Tb  Tb2  1  0.750000  0.418260  0.287749  1
  Tb  Tb3  1  0.750000  0.081740  0.787749  1
  Fe  Fe4  1  0.250000  0.222811  0.172147  1
  Fe  Fe5  1  0.250000  0.277189  0.672147  1
  Fe  Fe6  1  0.750000  0.777189  0.827853  1
  Fe  Fe7  1  0.750000  0.722811  0.327853  1
  Fe  Fe8  1  0.250000  0.879250  0.696258  1
  Fe  Fe9  1  0.250000  0.620750  0.196258  1
  Fe  Fe10  1  0.750000  0.120750  0.303742  1
  Fe  Fe11  1  0.750000  0.379250  0.803742  1
  Fe  Fe12  1  0.250000  0.460930  0.936062  1
  Fe  Fe13  1  0.250000  0.039070  0.436062  1
  Fe  Fe14  1  0.750000  0.539070  0.063938  1
  Fe  Fe15  1  0.750000  0.960930  0.563938  1
  P  P16  1  0.250000  0.425915  0.111565  1
  P  P17  1  0.250000  0.074085  0.611565  1
  P  P18  1  0.750000  0.574085  0.888435  1
  P  P19  1  0.750000  0.925915  0.388435  1
  P  P20  1  0.250000  0.274498  0.855607  1
  P  P21  1  0.250000  0.225502  0.355607  1
  P  P22  1  0.750000  0.725502  0.144393  1
  P  P23  1  0.750000  0.774498  0.644393  1
  P  P24  1  0.250000  0.607515  0.378229  1
  P  P25  1  0.250000  0.892485  0.878229  1
  P  P26  1  0.750000  0.392485  0.621771  1
  P  P27  1  0.750000  0.107515  0.121771  1
  Ir  Ir28  1  0.250000  0.404763  0.478384  1
  Ir  Ir29  1  0.250000  0.095237  0.978384  1
  Ir  Ir30  1  0.750000  0.595237  0.521616  1
  Ir  Ir31  1  0.750000  0.904763  0.021616  1
  Ru  Ru32  1  0.250000  0.706023  0.984674  1
  Ru  Ru33  1  0.250000  0.793977  0.484674  1
  Ru  Ru34  1  0.750000  0.293977  0.015326  1
  Ru  Ru35  1  0.750000  0.206023  0.515326  1
