# generated using pymatgen
data_Li8Nd8Sn3Bi4Sb
_symmetry_space_group_name_H-M   'P 1'
_cell_length_a   9.67597917
_cell_length_b   9.68098921
_cell_length_c   7.56326076
_cell_angle_alpha   89.94897051
_cell_angle_beta   89.92234281
_cell_angle_gamma   119.98260071
_symmetry_Int_Tables_number   1
_chemical_formula_structural   Li8Nd8Sn3Bi4Sb
_chemical_formula_sum   'Li8 Nd8 Sn3 Bi4 Sb1'
_cell_volume   613.66220032
_cell_formula_units_Z   1
loop_
 _symmetry_equiv_pos_site_id
 _symmetry_equiv_pos_as_xyz
  1  'x, y, z'
loop_
 _atom_site_type_symbol
 _atom_site_label
 _atom_site_symmetry_multiplicity
 _atom_site_fract_x
 _atom_site_fract_y
 _atom_site_fract_z
 _atom_site_occupancy
  Li  Li0  1  0.167920  0.334958  0.278360  1
  Li  Li1  1  0.170661  0.834383  0.279485  1
  Li  Li2  1  0.663434  0.833941  0.280696  1
  Li  Li3  1  0.831304  0.662925  0.780642  1
  Li  Li4  1  0.830649  0.168082  0.781682  1
  Li  Li5  1  0.337682  0.168388  0.783106  1
  Li  Li6  1  0.333740  0.667289  0.673851  1
  Li  Li7  1  0.664465  0.330061  0.175828  1
  Nd  Nd8  1  0.511966  0.026862  0.490659  1
  Nd  Nd9  1  0.508670  0.483499  0.491955  1
  Nd  Nd10  1  0.976351  0.485744  0.492185  1
  Nd  Nd11  1  0.489054  0.980928  0.997520  1
  Nd  Nd12  1  0.486465  0.506743  0.996702  1
  Nd  Nd13  1  0.020281  0.508156  0.996117  1
  Nd  Nd14  1  0.003756  0.003788  0.498540  1
  Nd  Nd15  1  0.003581  0.004234  0.005760  1
  Sn  Sn16  1  0.332544  0.166338  0.235317  1
  Sn  Sn17  1  0.332909  0.666333  0.261215  1
  Sn  Sn18  1  0.667212  0.333727  0.761019  1
  Bi  Bi19  1  0.166284  0.333112  0.736375  1
  Bi  Bi20  1  0.166241  0.833175  0.736307  1
  Bi  Bi21  1  0.667062  0.833509  0.736016  1
  Bi  Bi22  1  0.833634  0.666831  0.235999  1
  Sb  Sb23  1  0.834132  0.166993  0.236642  1
