# generated using pymatgen
data_Zr8In4PdPt4Au3
_symmetry_space_group_name_H-M   'P 1'
_cell_length_a   7.56643654
_cell_length_b   7.58795819
_cell_length_c   7.04723250
_cell_angle_alpha   90.00555107
_cell_angle_beta   90.04815239
_cell_angle_gamma   90.16328652
_symmetry_Int_Tables_number   1
_chemical_formula_structural   Zr8In4PdPt4Au3
_chemical_formula_sum   'Zr8 In4 Pd1 Pt4 Au3'
_cell_volume   404.60663767
_cell_formula_units_Z   1
loop_
 _symmetry_equiv_pos_site_id
 _symmetry_equiv_pos_as_xyz
  1  'x, y, z'
loop_
 _atom_site_type_symbol
 _atom_site_label
 _atom_site_symmetry_multiplicity
 _atom_site_fract_x
 _atom_site_fract_y
 _atom_site_fract_z
 _atom_site_occupancy
  Zr  Zr0  1  0.133609  0.154876  0.003642  1
  Zr  Zr1  1  0.837438  0.856975  0.998397  1
  Zr  Zr2  1  0.659080  0.352260  0.496615  1
  Zr  Zr3  1  0.366581  0.646159  0.495787  1
  Zr  Zr4  1  0.694373  0.311423  0.003211  1
  Zr  Zr5  1  0.321433  0.687070  0.002643  1
  Zr  Zr6  1  0.801477  0.809955  0.499845  1
  Zr  Zr7  1  0.183118  0.194802  0.496606  1
  In  In8  1  0.500474  0.005001  0.249568  1
  In  In9  1  0.501387  0.999435  0.749800  1
  In  In10  1  0.002161  0.500229  0.249784  1
  In  In11  1  0.996602  0.500161  0.749697  1
  Pd  Pd12  1  0.368722  0.366838  0.210954  1
  Pt  Pt13  1  0.630089  0.628354  0.787517  1
  Pt  Pt14  1  0.630646  0.627880  0.210325  1
  Pt  Pt15  1  0.870413  0.129204  0.712605  1
  Pt  Pt16  1  0.870099  0.128697  0.289324  1
  Au  Au17  1  0.369546  0.365964  0.792594  1
  Au  Au18  1  0.130676  0.867263  0.290349  1
  Au  Au19  1  0.132074  0.867457  0.710738  1
