# generated using pymatgen
data_Gd5Y3Mg2(SiB4)4
_symmetry_space_group_name_H-M   'P 1'
_cell_length_a   7.19821701
_cell_length_b   7.19886502
_cell_length_c   7.92981302
_cell_angle_alpha   89.99290115
_cell_angle_beta   90.00066829
_cell_angle_gamma   90.00479156
_symmetry_Int_Tables_number   1
_chemical_formula_structural   Gd5Y3Mg2(SiB4)4
_chemical_formula_sum   'Gd5 Y3 Mg2 Si4 B16'
_cell_volume   410.91491746
_cell_formula_units_Z   1
loop_
 _symmetry_equiv_pos_site_id
 _symmetry_equiv_pos_as_xyz
  1  'x, y, z'
loop_
 _atom_site_type_symbol
 _atom_site_label
 _atom_site_symmetry_multiplicity
 _atom_site_fract_x
 _atom_site_fract_y
 _atom_site_fract_z
 _atom_site_occupancy
  Gd  Gd0  1  0.683215  0.183339  0.234487  1
  Gd  Gd1  1  0.316761  0.816873  0.765478  1
  Gd  Gd2  1  0.316660  0.816833  0.234431  1
  Gd  Gd3  1  0.816854  0.683113  0.234337  1
  Gd  Gd4  1  0.816775  0.683172  0.765531  1
  Y  Y5  1  0.683059  0.183295  0.767214  1
  Y  Y6  1  0.183121  0.316811  0.767208  1
  Y  Y7  1  0.183014  0.316874  0.232684  1
  Mg  Mg8  1  0.000121  0.000670  0.500362  1
  Mg  Mg9  1  0.499628  0.499507  0.500321  1
  Si  Si10  1  0.115497  0.613532  0.500319  1
  Si  Si11  1  0.885426  0.383735  0.500459  1
  Si  Si12  1  0.384272  0.116474  0.500433  1
  Si  Si13  1  0.614834  0.886144  0.500450  1
  B  B14  1  0.173866  0.040126  0.999654  1
  B  B15  1  0.826408  0.960617  0.999838  1
  B  B16  1  0.960249  0.173958  0.999760  1
  B  B17  1  0.326247  0.539539  0.999710  1
  B  B18  1  0.039851  0.826641  0.999730  1
  B  B19  1  0.673624  0.459781  0.999794  1
  B  B20  1  0.539521  0.673394  0.999707  1
  B  B21  1  0.460120  0.325904  0.999788  1
  B  B22  1  0.089431  0.589283  0.999770  1
  B  B23  1  0.910745  0.410667  0.000124  1
  B  B24  1  0.410780  0.089265  0.999817  1
  B  B25  1  0.589388  0.910672  0.999865  1
  B  B26  1  0.000267  0.000364  0.159735  1
  B  B27  1  0.000229  0.000224  0.839619  1
  B  B28  1  0.499971  0.499568  0.839618  1
  B  B29  1  0.500068  0.499628  0.159755  1
