# generated using pymatgen
data_Nd3ThReTc5B12
_symmetry_space_group_name_H-M   'P 1'
_cell_length_a   6.30877188
_cell_length_b   6.31315967
_cell_length_c   7.64120807
_cell_angle_alpha   90.55686029
_cell_angle_beta   90.81205792
_cell_angle_gamma   114.67584670
_symmetry_Int_Tables_number   1
_chemical_formula_structural   Nd3ThReTc5B12
_chemical_formula_sum   'Nd3 Th1 Re1 Tc5 B12'
_cell_volume   276.47679576
_cell_formula_units_Z   1
loop_
 _symmetry_equiv_pos_site_id
 _symmetry_equiv_pos_as_xyz
  1  'x, y, z'
loop_
 _atom_site_type_symbol
 _atom_site_label
 _atom_site_symmetry_multiplicity
 _atom_site_fract_x
 _atom_site_fract_y
 _atom_site_fract_z
 _atom_site_occupancy
  Nd  Nd0  1  0.561306  0.905861  0.172534  1
  Nd  Nd1  1  0.904782  0.557872  0.677011  1
  Nd  Nd2  1  0.436077  0.092673  0.825453  1
  Th  Th3  1  0.090777  0.437198  0.326359  1
  Re  Re4  1  0.804776  0.990002  0.588605  1
  Tc  Tc5  1  0.585533  0.416067  0.250199  1
  Tc  Tc6  1  0.415218  0.584385  0.748587  1
  Tc  Tc7  1  0.989888  0.802906  0.088293  1
  Tc  Tc8  1  0.196656  0.010812  0.411395  1
  Tc  Tc9  1  0.010683  0.198483  0.913389  1
  B  B10  1  0.242234  0.150987  0.130392  1
  B  B11  1  0.847048  0.758609  0.371687  1
  B  B12  1  0.760602  0.848796  0.866605  1
  B  B13  1  0.152812  0.244176  0.632509  1
  B  B14  1  0.583257  0.156979  0.482049  1
  B  B15  1  0.841182  0.417876  0.017447  1
  B  B16  1  0.418299  0.841183  0.517263  1
  B  B17  1  0.158879  0.583611  0.981575  1
  B  B18  1  0.441313  0.349129  0.532966  1
  B  B19  1  0.650198  0.559462  0.967193  1
  B  B20  1  0.558011  0.650165  0.466745  1
  B  B21  1  0.350472  0.442767  0.031745  1
