# generated using pymatgen
data_Tm3Zn4InPt4
_symmetry_space_group_name_H-M   'P 1'
_cell_length_a   4.15320300
_cell_length_b   6.80476515
_cell_length_c   8.04866824
_cell_angle_alpha   92.52367464
_cell_angle_beta   90.00000000
_cell_angle_gamma   90.00000000
_symmetry_Int_Tables_number   1
_chemical_formula_structural   Tm3Zn4InPt4
_chemical_formula_sum   'Tm3 Zn4 In1 Pt4'
_cell_volume   227.24739113
_cell_formula_units_Z   1
loop_
 _symmetry_equiv_pos_site_id
 _symmetry_equiv_pos_as_xyz
  1  'x, y, z'
loop_
 _atom_site_type_symbol
 _atom_site_label
 _atom_site_symmetry_multiplicity
 _atom_site_fract_x
 _atom_site_fract_y
 _atom_site_fract_z
 _atom_site_occupancy
  Tm  Tm0  1  0.750000  0.463887  0.830956  1
  Tm  Tm1  1  0.750000  0.960195  0.677429  1
  Tm  Tm2  1  0.250000  0.034529  0.313998  1
  Zn  Zn3  1  0.250000  0.637920  0.555871  1
  Zn  Zn4  1  0.750000  0.363494  0.444983  1
  Zn  Zn5  1  0.750000  0.864539  0.058515  1
  Zn  Zn6  1  0.250000  0.138293  0.939660  1
  In  In7  1  0.250000  0.538437  0.177408  1
  Pt  Pt8  1  0.250000  0.753973  0.872646  1
  Pt  Pt9  1  0.750000  0.246905  0.128223  1
  Pt  Pt10  1  0.750000  0.742401  0.369528  1
  Pt  Pt11  1  0.250000  0.255427  0.630783  1
