# generated using pymatgen
data_SrPrSc2(ZnSn)4
_symmetry_space_group_name_H-M   'P 1'
_cell_length_a   4.49308300
_cell_length_b   4.49308323
_cell_length_c   16.47630100
_cell_angle_alpha   90.00000000
_cell_angle_beta   90.00000000
_cell_angle_gamma   120.00000564
_symmetry_Int_Tables_number   1
_chemical_formula_structural   SrPrSc2(ZnSn)4
_chemical_formula_sum   'Sr1 Pr1 Sc2 Zn4 Sn4'
_cell_volume   288.05752806
_cell_formula_units_Z   1
loop_
 _symmetry_equiv_pos_site_id
 _symmetry_equiv_pos_as_xyz
  1  'x, y, z'
loop_
 _atom_site_type_symbol
 _atom_site_label
 _atom_site_symmetry_multiplicity
 _atom_site_fract_x
 _atom_site_fract_y
 _atom_site_fract_z
 _atom_site_occupancy
  Sr  Sr0  1  0.000000  0.000000  0.000000  1
  Pr  Pr1  1  0.000000  0.000000  0.500000  1
  Sc  Sc2  1  0.000000  0.000000  0.253593  1
  Sc  Sc3  1  0.000000  0.000000  0.746407  1
  Zn  Zn4  1  0.333333  0.666667  0.334057  1
  Zn  Zn5  1  0.666667  0.333333  0.665943  1
  Zn  Zn6  1  0.666667  0.333333  0.825053  1
  Zn  Zn7  1  0.333333  0.666667  0.174947  1
  Sn  Sn8  1  0.333333  0.666667  0.868291  1
  Sn  Sn9  1  0.666667  0.333333  0.131709  1
  Sn  Sn10  1  0.666667  0.333333  0.380832  1
  Sn  Sn11  1  0.333333  0.666667  0.619168  1
