# generated using pymatgen
data_Yb10Pd3Rh
_symmetry_space_group_name_H-M   'P 1'
_cell_length_a   8.72801275
_cell_length_b   8.72218570
_cell_length_c   7.53204186
_cell_angle_alpha   82.97753096
_cell_angle_beta   83.25785838
_cell_angle_gamma   43.76602415
_symmetry_Int_Tables_number   1
_chemical_formula_structural   Yb10Pd3Rh
_chemical_formula_sum   'Yb10 Pd3 Rh1'
_cell_volume   393.29612075
_cell_formula_units_Z   1
loop_
 _symmetry_equiv_pos_site_id
 _symmetry_equiv_pos_as_xyz
  1  'x, y, z'
loop_
 _atom_site_type_symbol
 _atom_site_label
 _atom_site_symmetry_multiplicity
 _atom_site_fract_x
 _atom_site_fract_y
 _atom_site_fract_z
 _atom_site_occupancy
  Yb  Yb0  1  0.025833  0.791452  0.912886  1
  Yb  Yb1  1  0.203966  0.973203  0.579456  1
  Yb  Yb2  1  0.976068  0.204662  0.079674  1
  Yb  Yb3  1  0.803268  0.013828  0.422973  1
  Yb  Yb4  1  0.362179  0.207968  0.813782  1
  Yb  Yb5  1  0.805043  0.634508  0.680122  1
  Yb  Yb6  1  0.634165  0.800659  0.180514  1
  Yb  Yb7  1  0.201781  0.369448  0.325320  1
  Yb  Yb8  1  0.571774  0.424599  0.745696  1
  Yb  Yb9  1  0.417834  0.577488  0.257372  1
  Pd  Pd10  1  0.403661  0.817301  0.919803  1
  Pd  Pd11  1  0.817939  0.403198  0.419426  1
  Pd  Pd12  1  0.598663  0.181013  0.080585  1
  Rh  Rh13  1  0.177825  0.600674  0.582392  1
