# generated using pymatgen
data_Pa2PN2
_symmetry_space_group_name_H-M   'P 1'
_cell_length_a   3.86259400
_cell_length_b   3.86259441
_cell_length_c   6.65491500
_cell_angle_alpha   90.00000000
_cell_angle_beta   90.00000000
_cell_angle_gamma   119.99999650
_symmetry_Int_Tables_number   1
_chemical_formula_structural   Pa2PN2
_chemical_formula_sum   'Pa2 P1 N2'
_cell_volume   85.98670929
_cell_formula_units_Z   1
loop_
 _symmetry_equiv_pos_site_id
 _symmetry_equiv_pos_as_xyz
  1  'x, y, z'
loop_
 _atom_site_type_symbol
 _atom_site_label
 _atom_site_symmetry_multiplicity
 _atom_site_fract_x
 _atom_site_fract_y
 _atom_site_fract_z
 _atom_site_occupancy
  Pa  Pa0  1  0.666667  0.333333  0.720366  1
  Pa  Pa1  1  0.333333  0.666667  0.279634  1
  P  P2  1  0.000000  0.000000  0.000000  1
  N  N3  1  0.333333  0.666667  0.625673  1
  N  N4  1  0.666667  0.333333  0.374327  1
