# generated using pymatgen
data_Ca3Y2Si12Ir19
_symmetry_space_group_name_H-M   'P 1'
_cell_length_a   12.82498600
_cell_length_b   12.82498728
_cell_length_c   4.01498900
_cell_angle_alpha   90.00000000
_cell_angle_beta   90.00000000
_cell_angle_gamma   120.00000702
_symmetry_Int_Tables_number   1
_chemical_formula_structural   Ca3Y2Si12Ir19
_chemical_formula_sum   'Ca3 Y2 Si12 Ir19'
_cell_volume   571.91146573
_cell_formula_units_Z   1
loop_
 _symmetry_equiv_pos_site_id
 _symmetry_equiv_pos_as_xyz
  1  'x, y, z'
loop_
 _atom_site_type_symbol
 _atom_site_label
 _atom_site_symmetry_multiplicity
 _atom_site_fract_x
 _atom_site_fract_y
 _atom_site_fract_z
 _atom_site_occupancy
  Ca  Ca0  1  0.000000  0.181967  0.500000  1
  Ca  Ca1  1  0.818033  0.818033  0.500000  1
  Ca  Ca2  1  0.181967  0.000000  0.500000  1
  Y  Y3  1  0.666667  0.333333  0.000000  1
  Y  Y4  1  0.333333  0.666667  0.000000  1
  Si  Si5  1  0.479723  0.311495  0.500000  1
  Si  Si6  1  0.817072  0.000000  0.000000  1
  Si  Si7  1  0.182928  0.182928  0.000000  1
  Si  Si8  1  0.000000  0.817072  0.000000  1
  Si  Si9  1  0.367433  0.000000  0.000000  1
  Si  Si10  1  0.688505  0.168229  0.500000  1
  Si  Si11  1  0.831771  0.520277  0.500000  1
  Si  Si12  1  0.520277  0.831771  0.500000  1
  Si  Si13  1  0.168229  0.688505  0.500000  1
  Si  Si14  1  0.311495  0.479723  0.500000  1
  Si  Si15  1  0.000000  0.367433  0.000000  1
  Si  Si16  1  0.632567  0.632567  0.000000  1
  Ir  Ir17  1  0.804598  0.183672  0.000000  1
  Ir  Ir18  1  0.379073  0.195402  0.000000  1
  Ir  Ir19  1  0.638087  0.511693  0.500000  1
  Ir  Ir20  1  0.873605  0.361913  0.500000  1
  Ir  Ir21  1  0.361913  0.873605  0.500000  1
  Ir  Ir22  1  0.511693  0.638087  0.500000  1
  Ir  Ir23  1  0.126395  0.488307  0.500000  1
  Ir  Ir24  1  0.816328  0.620927  0.000000  1
  Ir  Ir25  1  0.620927  0.816328  0.000000  1
  Ir  Ir26  1  0.183672  0.804598  0.000000  1
  Ir  Ir27  1  0.195402  0.379073  0.000000  1
  Ir  Ir28  1  0.000000  0.716182  0.500000  1
  Ir  Ir29  1  0.283818  0.283818  0.500000  1
  Ir  Ir30  1  0.716182  0.000000  0.500000  1
  Ir  Ir31  1  0.000000  0.551582  0.000000  1
  Ir  Ir32  1  0.448418  0.448418  0.000000  1
  Ir  Ir33  1  0.551582  0.000000  0.000000  1
  Ir  Ir34  1  0.000000  0.000000  0.000000  1
  Ir  Ir35  1  0.488307  0.126395  0.500000  1
