# generated using pymatgen
data_BaSm2(FeH6)2
_symmetry_space_group_name_H-M   'P 1'
_cell_length_a   4.92655600
_cell_length_b   4.92655630
_cell_length_c   8.38082400
_cell_angle_alpha   90.00000000
_cell_angle_beta   90.00000000
_cell_angle_gamma   119.99999796
_symmetry_Int_Tables_number   1
_chemical_formula_structural   BaSm2(FeH6)2
_chemical_formula_sum   'Ba1 Sm2 Fe2 H12'
_cell_volume   176.15875626
_cell_formula_units_Z   1
loop_
 _symmetry_equiv_pos_site_id
 _symmetry_equiv_pos_as_xyz
  1  'x, y, z'
loop_
 _atom_site_type_symbol
 _atom_site_label
 _atom_site_symmetry_multiplicity
 _atom_site_fract_x
 _atom_site_fract_y
 _atom_site_fract_z
 _atom_site_occupancy
  Ba  Ba0  1  0.000000  0.000000  0.000000  1
  Sm  Sm1  1  0.666667  0.333333  0.363969  1
  Sm  Sm2  1  0.333333  0.666667  0.636031  1
  Fe  Fe3  1  0.666667  0.333333  0.722398  1
  Fe  Fe4  1  0.333333  0.666667  0.277602  1
  H  H5  1  0.176624  0.823376  0.382022  1
  H  H6  1  0.646752  0.823376  0.382022  1
  H  H7  1  0.176624  0.353248  0.382022  1
  H  H8  1  0.823376  0.176624  0.617978  1
  H  H9  1  0.353248  0.176624  0.617978  1
  H  H10  1  0.823376  0.646752  0.617978  1
  H  H11  1  0.518858  0.037717  0.839278  1
  H  H12  1  0.518858  0.481142  0.839278  1
  H  H13  1  0.962283  0.481142  0.839278  1
  H  H14  1  0.481142  0.962283  0.160722  1
  H  H15  1  0.481142  0.518858  0.160722  1
  H  H16  1  0.037717  0.518858  0.160722  1
