# generated using pymatgen
data_Tm4ZrCo4
_symmetry_space_group_name_H-M   'P 1'
_cell_length_a   5.63572864
_cell_length_b   5.63572746
_cell_length_c   9.08287935
_cell_angle_alpha   71.62058837
_cell_angle_beta   71.62059159
_cell_angle_gamma   40.53124114
_symmetry_Int_Tables_number   1
_chemical_formula_structural   Tm4ZrCo4
_chemical_formula_sum   'Tm4 Zr1 Co4'
_cell_volume   176.56863089
_cell_formula_units_Z   1
loop_
 _symmetry_equiv_pos_site_id
 _symmetry_equiv_pos_as_xyz
  1  'x, y, z'
loop_
 _atom_site_type_symbol
 _atom_site_label
 _atom_site_symmetry_multiplicity
 _atom_site_fract_x
 _atom_site_fract_y
 _atom_site_fract_z
 _atom_site_occupancy
  Tm  Tm0  1  0.737522  0.737522  0.672446  1
  Tm  Tm1  1  0.262478  0.262478  0.327554  1
  Tm  Tm2  1  0.390076  0.390076  0.894778  1
  Tm  Tm3  1  0.609924  0.609924  0.105222  1
  Zr  Zr4  1  0.500000  0.500000  0.500000  1
  Co  Co5  1  0.036697  0.036697  0.659850  1
  Co  Co6  1  0.963303  0.963303  0.340150  1
  Co  Co7  1  0.092071  0.092071  0.884303  1
  Co  Co8  1  0.907929  0.907929  0.115697  1
