# generated using pymatgen
data_ErTmZr2(Al3Rh)6
_symmetry_space_group_name_H-M   'P 1'
_cell_length_a   7.51150300
_cell_length_b   7.49275108
_cell_length_c   9.34853900
_cell_angle_alpha   90.00000000
_cell_angle_beta   90.00000000
_cell_angle_gamma   119.66515838
_symmetry_Int_Tables_number   1
_chemical_formula_structural   ErTmZr2(Al3Rh)6
_chemical_formula_sum   'Er1 Tm1 Zr2 Al18 Rh6'
_cell_volume   457.19135184
_cell_formula_units_Z   1
loop_
 _symmetry_equiv_pos_site_id
 _symmetry_equiv_pos_as_xyz
  1  'x, y, z'
loop_
 _atom_site_type_symbol
 _atom_site_label
 _atom_site_symmetry_multiplicity
 _atom_site_fract_x
 _atom_site_fract_y
 _atom_site_fract_z
 _atom_site_occupancy
  Er  Er0  1  0.329007  0.006141  0.249995  1
  Tm  Tm1  1  0.670914  0.993788  0.750003  1
  Zr  Zr2  1  0.994850  0.671312  0.750005  1
  Zr  Zr3  1  0.005090  0.328676  0.250001  1
  Al  Al4  1  0.124701  0.123402  0.750007  1
  Al  Al5  1  0.875137  0.876512  0.249994  1
  Al  Al6  1  0.998961  0.336949  0.575132  1
  Al  Al7  1  0.000950  0.662876  0.424754  1
  Al  Al8  1  0.000953  0.662880  0.075245  1
  Al  Al9  1  0.332551  0.998098  0.921439  1
  Al  Al10  1  0.998960  0.336944  0.924875  1
  Al  Al11  1  0.667513  0.001938  0.078594  1
  Al  Al12  1  0.667511  0.001930  0.421403  1
  Al  Al13  1  0.332554  0.998104  0.578570  1
  Al  Al14  1  0.330880  0.333189  0.055209  1
  Al  Al15  1  0.669098  0.666930  0.944981  1
  Al  Al16  1  0.669098  0.666928  0.555026  1
  Al  Al17  1  0.330882  0.333192  0.444789  1
  Al  Al18  1  0.334606  0.549565  0.750010  1
  Al  Al19  1  0.665442  0.450446  0.249991  1
  Al  Al20  1  0.556266  0.343901  0.750003  1
  Al  Al21  1  0.443686  0.656031  0.249997  1
  Rh  Rh22  1  0.672210  0.327157  0.499442  1
  Rh  Rh23  1  0.327971  0.672913  0.500762  1
  Rh  Rh24  1  0.327930  0.672865  0.999263  1
  Rh  Rh25  1  0.672245  0.327219  0.000515  1
  Rh  Rh26  1  0.999987  0.000051  0.500073  1
  Rh  Rh27  1  0.000047  0.000063  0.999921  1
