# generated using pymatgen
data_ZrPa2ZnPt12
_symmetry_space_group_name_H-M   'P 1'
_cell_length_a   5.76694100
_cell_length_b   5.76694263
_cell_length_c   9.51844300
_cell_angle_alpha   90.00000000
_cell_angle_beta   90.00000000
_cell_angle_gamma   119.99999639
_symmetry_Int_Tables_number   1
_chemical_formula_structural   ZrPa2ZnPt12
_chemical_formula_sum   'Zr1 Pa2 Zn1 Pt12'
_cell_volume   274.14965281
_cell_formula_units_Z   1
loop_
 _symmetry_equiv_pos_site_id
 _symmetry_equiv_pos_as_xyz
  1  'x, y, z'
loop_
 _atom_site_type_symbol
 _atom_site_label
 _atom_site_symmetry_multiplicity
 _atom_site_fract_x
 _atom_site_fract_y
 _atom_site_fract_z
 _atom_site_occupancy
  Zr  Zr0  1  0.666667  0.333333  0.750000  1
  Pa  Pa1  1  0.000000  0.000000  0.496805  1
  Pa  Pa2  1  0.000000  0.000000  0.003195  1
  Zn  Zn3  1  0.333333  0.666667  0.250000  1
  Pt  Pt4  1  0.500096  0.499904  0.499413  1
  Pt  Pt5  1  0.500096  0.000193  0.499413  1
  Pt  Pt6  1  0.999807  0.499904  0.499413  1
  Pt  Pt7  1  0.500096  0.499904  0.000587  1
  Pt  Pt8  1  0.500096  0.000193  0.000587  1
  Pt  Pt9  1  0.999807  0.499904  0.000587  1
  Pt  Pt10  1  0.829504  0.659006  0.250000  1
  Pt  Pt11  1  0.340994  0.170496  0.250000  1
  Pt  Pt12  1  0.829504  0.170496  0.250000  1
  Pt  Pt13  1  0.170261  0.340524  0.750000  1
  Pt  Pt14  1  0.659476  0.829739  0.750000  1
  Pt  Pt15  1  0.170261  0.829739  0.750000  1
