# generated using pymatgen
data_Ba2CeS6
_symmetry_space_group_name_H-M   'P 1'
_cell_length_a   5.49442100
_cell_length_b   5.49442100
_cell_length_c   16.05693800
_cell_angle_alpha   90.00000000
_cell_angle_beta   90.00000000
_cell_angle_gamma   90.00000000
_symmetry_Int_Tables_number   1
_chemical_formula_structural   Ba2CeS6
_chemical_formula_sum   'Ba4 Ce2 S12'
_cell_volume   484.73747605
_cell_formula_units_Z   2
loop_
 _symmetry_equiv_pos_site_id
 _symmetry_equiv_pos_as_xyz
  1  'x, y, z'
loop_
 _atom_site_type_symbol
 _atom_site_label
 _atom_site_symmetry_multiplicity
 _atom_site_fract_x
 _atom_site_fract_y
 _atom_site_fract_z
 _atom_site_occupancy
  Ba  Ba0  1  0.000000  0.000000  0.134068  1
  Ba  Ba1  1  0.500000  0.500000  0.634068  1
  Ba  Ba2  1  0.500000  0.500000  0.365932  1
  Ba  Ba3  1  0.000000  0.000000  0.865932  1
  Ce  Ce4  1  0.000000  0.000000  0.500000  1
  Ce  Ce5  1  0.500000  0.500000  0.000000  1
  S  S6  1  0.311186  0.500000  0.165495  1
  S  S7  1  0.688814  0.500000  0.165495  1
  S  S8  1  0.000000  0.811186  0.665495  1
  S  S9  1  0.000000  0.188814  0.665495  1
  S  S10  1  0.188814  0.000000  0.334505  1
  S  S11  1  0.811186  0.000000  0.334505  1
  S  S12  1  0.500000  0.688814  0.834505  1
  S  S13  1  0.500000  0.311186  0.834505  1
  S  S14  1  0.000000  0.500000  0.978308  1
  S  S15  1  0.000000  0.500000  0.478308  1
  S  S16  1  0.500000  0.000000  0.521692  1
  S  S17  1  0.500000  0.000000  0.021692  1
