# generated using pymatgen
data_LaYb(CdRh)2
_symmetry_space_group_name_H-M   'P 1'
_cell_length_a   4.18884900
_cell_length_b   7.37111872
_cell_length_c   8.66937400
_cell_angle_alpha   90.47257327
_cell_angle_beta   90.00000000
_cell_angle_gamma   90.00000000
_symmetry_Int_Tables_number   1
_chemical_formula_structural   LaYb(CdRh)2
_chemical_formula_sum   'La2 Yb2 Cd4 Rh4'
_cell_volume   267.67084992
_cell_formula_units_Z   2
loop_
 _symmetry_equiv_pos_site_id
 _symmetry_equiv_pos_as_xyz
  1  'x, y, z'
loop_
 _atom_site_type_symbol
 _atom_site_label
 _atom_site_symmetry_multiplicity
 _atom_site_fract_x
 _atom_site_fract_y
 _atom_site_fract_z
 _atom_site_occupancy
  La  La0  1  0.250000  0.535151  0.181446  1
  La  La1  1  0.750000  0.464953  0.818517  1
  Yb  Yb2  1  0.750000  0.966191  0.677494  1
  Yb  Yb3  1  0.250000  0.033653  0.322562  1
  Cd  Cd4  1  0.250000  0.652132  0.558172  1
  Cd  Cd5  1  0.750000  0.347742  0.441887  1
  Cd  Cd6  1  0.750000  0.874575  0.063078  1
  Cd  Cd7  1  0.250000  0.125785  0.936970  1
  Rh  Rh8  1  0.250000  0.742630  0.870680  1
  Rh  Rh9  1  0.750000  0.257618  0.129323  1
  Rh  Rh10  1  0.750000  0.739455  0.360708  1
  Rh  Rh11  1  0.250000  0.260113  0.639162  1
