# generated using pymatgen
data_SmEr5(SiIr2)6
_symmetry_space_group_name_H-M   'P 1'
_cell_length_a   5.56154000
_cell_length_b   5.56204655
_cell_length_c   15.13247000
_cell_angle_alpha   90.00000000
_cell_angle_beta   90.00000000
_cell_angle_gamma   120.00633687
_symmetry_Int_Tables_number   1
_chemical_formula_structural   SmEr5(SiIr2)6
_chemical_formula_sum   'Sm1 Er5 Si6 Ir12'
_cell_volume   405.36141044
_cell_formula_units_Z   1
loop_
 _symmetry_equiv_pos_site_id
 _symmetry_equiv_pos_as_xyz
  1  'x, y, z'
loop_
 _atom_site_type_symbol
 _atom_site_label
 _atom_site_symmetry_multiplicity
 _atom_site_fract_x
 _atom_site_fract_y
 _atom_site_fract_z
 _atom_site_occupancy
  Sm  Sm0  1  0.666663  0.333331  0.250000  1
  Er  Er1  1  0.333338  0.666655  0.539135  1
  Er  Er2  1  0.666656  0.333337  0.461351  1
  Er  Er3  1  0.666656  0.333337  0.038649  1
  Er  Er4  1  0.333338  0.666655  0.960865  1
  Er  Er5  1  0.333329  0.666650  0.750000  1
  Si  Si6  1  0.000000  0.000013  0.250000  1
  Si  Si7  1  0.000009  0.000000  0.750000  1
  Si  Si8  1  0.333331  0.666662  0.250000  1
  Si  Si9  1  0.666658  0.333327  0.750000  1
  Si  Si10  1  0.000006  0.000002  0.999770  1
  Si  Si11  1  0.000006  0.000002  0.500230  1
  Ir  Ir12  1  0.167708  0.335416  0.129184  1
  Ir  Ir13  1  0.832329  0.664664  0.870236  1
  Ir  Ir14  1  0.664586  0.832292  0.129182  1
  Ir  Ir15  1  0.832329  0.664664  0.629764  1
  Ir  Ir16  1  0.335342  0.167676  0.870243  1
  Ir  Ir17  1  0.167708  0.335416  0.370816  1
  Ir  Ir18  1  0.167707  0.832297  0.129186  1
  Ir  Ir19  1  0.335342  0.167676  0.629757  1
  Ir  Ir20  1  0.832333  0.167669  0.870232  1
  Ir  Ir21  1  0.664586  0.832292  0.370818  1
  Ir  Ir22  1  0.832333  0.167669  0.629768  1
  Ir  Ir23  1  0.167707  0.832297  0.370814  1
