# generated using pymatgen
data_Be4BRu2
_symmetry_space_group_name_H-M   'P 1'
_cell_length_a   5.61362935
_cell_length_b   5.61362794
_cell_length_c   5.85235097
_cell_angle_alpha   98.09089280
_cell_angle_beta   98.09088870
_cell_angle_gamma   44.11015672
_symmetry_Int_Tables_number   1
_chemical_formula_structural   Be4BRu2
_chemical_formula_sum   'Be8 B2 Ru4'
_cell_volume   126.87786320
_cell_formula_units_Z   2
loop_
 _symmetry_equiv_pos_site_id
 _symmetry_equiv_pos_as_xyz
  1  'x, y, z'
loop_
 _atom_site_type_symbol
 _atom_site_label
 _atom_site_symmetry_multiplicity
 _atom_site_fract_x
 _atom_site_fract_y
 _atom_site_fract_z
 _atom_site_occupancy
  Be  Be0  1  0.938364  0.244396  0.084786  1
  Be  Be1  1  0.755604  0.061636  0.415214  1
  Be  Be2  1  0.073439  0.358641  0.809252  1
  Be  Be3  1  0.641359  0.926561  0.690748  1
  Be  Be4  1  0.923158  0.643602  0.182876  1
  Be  Be5  1  0.356398  0.076842  0.317124  1
  Be  Be6  1  0.827008  0.172992  0.750000  1
  Be  Be7  1  0.212840  0.787160  0.250000  1
  B  B8  1  0.056259  0.759902  0.927442  1
  B  B9  1  0.240098  0.943741  0.572558  1
  Ru  Ru10  1  0.233944  0.545486  0.575558  1
  Ru  Ru11  1  0.454514  0.766056  0.924442  1
  Ru  Ru12  1  0.763934  0.476919  0.449826  1
  Ru  Ru13  1  0.523081  0.236066  0.050174  1
