# generated using pymatgen
data_TmLuGaB2Ir5
_symmetry_space_group_name_H-M   'P 1'
_cell_length_a   9.52721582
_cell_length_b   9.52721582
_cell_length_c   3.14635600
_cell_angle_alpha   90.00000000
_cell_angle_beta   90.00000000
_cell_angle_gamma   89.85322457
_symmetry_Int_Tables_number   1
_chemical_formula_structural   TmLuGaB2Ir5
_chemical_formula_sum   'Tm2 Lu2 Ga2 B4 Ir10'
_cell_volume   285.58700466
_cell_formula_units_Z   2
loop_
 _symmetry_equiv_pos_site_id
 _symmetry_equiv_pos_as_xyz
  1  'x, y, z'
loop_
 _atom_site_type_symbol
 _atom_site_label
 _atom_site_symmetry_multiplicity
 _atom_site_fract_x
 _atom_site_fract_y
 _atom_site_fract_z
 _atom_site_occupancy
  Tm  Tm0  1  0.676033  0.176033  0.000000  1
  Tm  Tm1  1  0.323967  0.823967  0.000000  1
  Lu  Lu2  1  0.175821  0.324179  0.000000  1
  Lu  Lu3  1  0.824179  0.675821  0.000000  1
  Ga  Ga4  1  0.000000  0.000000  0.000000  1
  Ga  Ga5  1  0.500000  0.500000  0.000000  1
  B  B6  1  0.123364  0.623364  0.000000  1
  B  B7  1  0.876636  0.376636  0.000000  1
  B  B8  1  0.623627  0.876373  0.000000  1
  B  B9  1  0.376373  0.123627  0.000000  1
  Ir  Ir10  1  0.218060  0.070223  0.500000  1
  Ir  Ir11  1  0.781940  0.929777  0.500000  1
  Ir  Ir12  1  0.068780  0.781156  0.500000  1
  Ir  Ir13  1  0.718844  0.431220  0.500000  1
  Ir  Ir14  1  0.931220  0.218844  0.500000  1
  Ir  Ir15  1  0.281156  0.568780  0.500000  1
  Ir  Ir16  1  0.570223  0.718060  0.500000  1
  Ir  Ir17  1  0.429777  0.281940  0.500000  1
  Ir  Ir18  1  0.500000  0.000000  0.500000  1
  Ir  Ir19  1  0.000000  0.500000  0.500000  1
