# generated using pymatgen
data_LiCa2ZnNi5
_symmetry_space_group_name_H-M   'P 1'
_cell_length_a   5.08978243
_cell_length_b   5.08978170
_cell_length_c   12.33020971
_cell_angle_alpha   78.08883492
_cell_angle_beta   78.08883609
_cell_angle_gamma   60.00000584
_symmetry_Int_Tables_number   1
_chemical_formula_structural   LiCa2ZnNi5
_chemical_formula_sum   'Li2 Ca4 Zn2 Ni10'
_cell_volume   268.65921898
_cell_formula_units_Z   2
loop_
 _symmetry_equiv_pos_site_id
 _symmetry_equiv_pos_as_xyz
  1  'x, y, z'
loop_
 _atom_site_type_symbol
 _atom_site_label
 _atom_site_symmetry_multiplicity
 _atom_site_fract_x
 _atom_site_fract_y
 _atom_site_fract_z
 _atom_site_occupancy
  Li  Li0  1  0.610827  0.610827  0.167519  1
  Li  Li1  1  0.389173  0.389173  0.832481  1
  Ca  Ca2  1  0.949420  0.949420  0.151738  1
  Ca  Ca3  1  0.050580  0.050580  0.848262  1
  Ca  Ca4  1  0.851885  0.851885  0.444345  1
  Ca  Ca5  1  0.148115  0.148115  0.555655  1
  Zn  Zn6  1  0.722203  0.722203  0.833390  1
  Zn  Zn7  1  0.277797  0.277797  0.166610  1
  Ni  Ni8  1  0.500000  0.500000  0.500000  1
  Ni  Ni9  1  0.000000  0.500000  0.000000  1
  Ni  Ni10  1  0.500000  0.000000  0.000000  1
  Ni  Ni11  1  0.500000  0.500000  0.000000  1
  Ni  Ni12  1  0.390029  0.390029  0.332199  1
  Ni  Ni13  1  0.887744  0.390029  0.332199  1
  Ni  Ni14  1  0.390029  0.887744  0.332199  1
  Ni  Ni15  1  0.609971  0.609971  0.667801  1
  Ni  Ni16  1  0.112256  0.609971  0.667801  1
  Ni  Ni17  1  0.609971  0.112256  0.667801  1
