# generated using pymatgen
data_DyYGe(PRh2)6
_symmetry_space_group_name_H-M   'P 1'
_cell_length_a   9.67854900
_cell_length_b   9.67854949
_cell_length_c   3.87387200
_cell_angle_alpha   90.00000000
_cell_angle_beta   90.00000000
_cell_angle_gamma   120.00000860
_symmetry_Int_Tables_number   1
_chemical_formula_structural   DyYGe(PRh2)6
_chemical_formula_sum   'Dy1 Y1 Ge1 P6 Rh12'
_cell_volume   314.26526984
_cell_formula_units_Z   1
loop_
 _symmetry_equiv_pos_site_id
 _symmetry_equiv_pos_as_xyz
  1  'x, y, z'
loop_
 _atom_site_type_symbol
 _atom_site_label
 _atom_site_symmetry_multiplicity
 _atom_site_fract_x
 _atom_site_fract_y
 _atom_site_fract_z
 _atom_site_occupancy
  Dy  Dy0  1  0.666667  0.333333  0.251598  1
  Y  Y1  1  0.333333  0.666667  0.748404  1
  Ge  Ge2  1  0.000000  0.000000  0.500062  1
  P  P3  1  0.404057  0.286136  0.750960  1
  P  P4  1  0.713864  0.117921  0.750960  1
  P  P5  1  0.882079  0.595943  0.750960  1
  P  P6  1  0.596039  0.713893  0.249066  1
  P  P7  1  0.286107  0.882145  0.249066  1
  P  P8  1  0.117855  0.403961  0.249066  1
  Rh  Rh9  1  0.451751  0.067606  0.750101  1
  Rh  Rh10  1  0.932394  0.384144  0.750101  1
  Rh  Rh11  1  0.615856  0.548249  0.750101  1
  Rh  Rh12  1  0.548438  0.932688  0.249893  1
  Rh  Rh13  1  0.067312  0.615749  0.249893  1
  Rh  Rh14  1  0.384251  0.451562  0.249893  1
  Rh  Rh15  1  0.155556  0.275143  0.751929  1
  Rh  Rh16  1  0.724857  0.880414  0.751929  1
  Rh  Rh17  1  0.119586  0.844444  0.751929  1
  Rh  Rh18  1  0.844389  0.724791  0.248030  1
  Rh  Rh19  1  0.275209  0.119596  0.248030  1
  Rh  Rh20  1  0.880404  0.155611  0.248030  1
