# generated using pymatgen
data_Tb2FeNi7(MoP3)2
_symmetry_space_group_name_H-M   'P 1'
_cell_length_a   3.70946100
_cell_length_b   10.53509500
_cell_length_c   12.14486400
_cell_angle_alpha   90.00000000
_cell_angle_beta   90.00000000
_cell_angle_gamma   90.00000000
_symmetry_Int_Tables_number   1
_chemical_formula_structural   Tb2FeNi7(MoP3)2
_chemical_formula_sum   'Tb4 Fe2 Ni14 Mo4 P12'
_cell_volume   474.61550458
_cell_formula_units_Z   2
loop_
 _symmetry_equiv_pos_site_id
 _symmetry_equiv_pos_as_xyz
  1  'x, y, z'
loop_
 _atom_site_type_symbol
 _atom_site_label
 _atom_site_symmetry_multiplicity
 _atom_site_fract_x
 _atom_site_fract_y
 _atom_site_fract_z
 _atom_site_occupancy
  Tb  Tb0  1  0.250000  0.583406  0.706368  1
  Tb  Tb1  1  0.250000  0.916594  0.206368  1
  Tb  Tb2  1  0.750000  0.417166  0.293216  1
  Tb  Tb3  1  0.750000  0.082834  0.793216  1
  Fe  Fe4  1  0.750000  0.532798  0.066490  1
  Fe  Fe5  1  0.750000  0.967202  0.566490  1
  Ni  Ni6  1  0.250000  0.408745  0.488759  1
  Ni  Ni7  1  0.250000  0.091255  0.988759  1
  Ni  Ni8  1  0.750000  0.589745  0.512275  1
  Ni  Ni9  1  0.750000  0.910255  0.012275  1
  Ni  Ni10  1  0.250000  0.222991  0.176190  1
  Ni  Ni11  1  0.250000  0.277009  0.676190  1
  Ni  Ni12  1  0.750000  0.779433  0.823351  1
  Ni  Ni13  1  0.750000  0.720567  0.323351  1
  Ni  Ni14  1  0.250000  0.882253  0.702931  1
  Ni  Ni15  1  0.250000  0.617747  0.202931  1
  Ni  Ni16  1  0.750000  0.117071  0.296582  1
  Ni  Ni17  1  0.750000  0.382929  0.796582  1
  Ni  Ni18  1  0.250000  0.464427  0.931659  1
  Ni  Ni19  1  0.250000  0.035573  0.431659  1
  Mo  Mo20  1  0.250000  0.707112  0.989212  1
  Mo  Mo21  1  0.250000  0.792888  0.489212  1
  Mo  Mo22  1  0.750000  0.293314  0.010738  1
  Mo  Mo23  1  0.750000  0.206686  0.510738  1
  P  P24  1  0.250000  0.423740  0.114194  1
  P  P25  1  0.250000  0.076260  0.614194  1
  P  P26  1  0.750000  0.579331  0.886876  1
  P  P27  1  0.750000  0.920669  0.386876  1
  P  P28  1  0.250000  0.266742  0.866468  1
  P  P29  1  0.250000  0.233258  0.366468  1
  P  P30  1  0.750000  0.731537  0.133297  1
  P  P31  1  0.750000  0.768463  0.633297  1
  P  P32  1  0.250000  0.598164  0.390894  1
  P  P33  1  0.250000  0.901836  0.890894  1
  P  P34  1  0.750000  0.400343  0.610499  1
  P  P35  1  0.750000  0.099657  0.110499  1
