# generated using pymatgen
data_Ho7Hg10
_symmetry_space_group_name_H-M   'P 1'
_cell_length_a   9.14020700
_cell_length_b   9.14020849
_cell_length_c   10.72780800
_cell_angle_alpha   90.00000000
_cell_angle_beta   90.00000000
_cell_angle_gamma   108.04801139
_symmetry_Int_Tables_number   1
_chemical_formula_structural   Ho7Hg10
_chemical_formula_sum   'Ho14 Hg20'
_cell_volume   852.14016877
_cell_formula_units_Z   2
loop_
 _symmetry_equiv_pos_site_id
 _symmetry_equiv_pos_as_xyz
  1  'x, y, z'
loop_
 _atom_site_type_symbol
 _atom_site_label
 _atom_site_symmetry_multiplicity
 _atom_site_fract_x
 _atom_site_fract_y
 _atom_site_fract_z
 _atom_site_occupancy
  Ho  Ho0  1  0.692363  0.307637  0.000000  1
  Ho  Ho1  1  0.307637  0.692363  0.000000  1
  Ho  Ho2  1  0.807637  0.192363  0.500000  1
  Ho  Ho3  1  0.192363  0.807637  0.500000  1
  Ho  Ho4  1  0.000000  0.000000  0.000000  1
  Ho  Ho5  1  0.500000  0.500000  0.500000  1
  Ho  Ho6  1  0.007478  0.507478  0.250000  1
  Ho  Ho7  1  0.992522  0.492522  0.750000  1
  Ho  Ho8  1  0.492522  0.992522  0.750000  1
  Ho  Ho9  1  0.507478  0.007478  0.250000  1
  Ho  Ho10  1  0.308565  0.308565  0.193057  1
  Ho  Ho11  1  0.691435  0.691435  0.806943  1
  Ho  Ho12  1  0.191435  0.191435  0.693057  1
  Ho  Ho13  1  0.808565  0.808565  0.306943  1
  Hg  Hg14  1  0.859457  0.149291  0.208952  1
  Hg  Hg15  1  0.140543  0.850709  0.791048  1
  Hg  Hg16  1  0.640543  0.350709  0.708952  1
  Hg  Hg17  1  0.649291  0.359457  0.291048  1
  Hg  Hg18  1  0.359457  0.649291  0.291048  1
  Hg  Hg19  1  0.350709  0.640543  0.708952  1
  Hg  Hg20  1  0.850709  0.140543  0.791048  1
  Hg  Hg21  1  0.149291  0.859457  0.208952  1
  Hg  Hg22  1  0.936198  0.645162  0.998583  1
  Hg  Hg23  1  0.063802  0.354838  0.001417  1
  Hg  Hg24  1  0.563802  0.854838  0.498583  1
  Hg  Hg25  1  0.145162  0.436198  0.501417  1
  Hg  Hg26  1  0.436198  0.145162  0.501417  1
  Hg  Hg27  1  0.854838  0.563802  0.498583  1
  Hg  Hg28  1  0.354838  0.063802  0.001417  1
  Hg  Hg29  1  0.645162  0.936198  0.998583  1
  Hg  Hg30  1  0.102460  0.102460  0.399950  1
  Hg  Hg31  1  0.897540  0.897540  0.600050  1
  Hg  Hg32  1  0.397540  0.397540  0.899950  1
  Hg  Hg33  1  0.602460  0.602460  0.100050  1
