# generated using pymatgen
data_Ho4ErZn2Bi
_symmetry_space_group_name_H-M   'P 1'
_cell_length_a   8.57327750
_cell_length_b   8.57327629
_cell_length_c   8.57327735
_cell_angle_alpha   123.46972721
_cell_angle_beta   123.46972475
_cell_angle_gamma   84.08847879
_symmetry_Int_Tables_number   1
_chemical_formula_structural   Ho4ErZn2Bi
_chemical_formula_sum   'Ho8 Er2 Zn4 Bi2'
_cell_volume   419.76661377
_cell_formula_units_Z   2
loop_
 _symmetry_equiv_pos_site_id
 _symmetry_equiv_pos_as_xyz
  1  'x, y, z'
loop_
 _atom_site_type_symbol
 _atom_site_label
 _atom_site_symmetry_multiplicity
 _atom_site_fract_x
 _atom_site_fract_y
 _atom_site_fract_z
 _atom_site_occupancy
  Ho  Ho0  1  0.510999  0.010999  0.805494  1
  Ho  Ho1  1  0.205503  0.705503  0.194506  1
  Ho  Ho2  1  0.010999  0.205503  0.500000  1
  Ho  Ho3  1  0.705503  0.510999  0.500000  1
  Ho  Ho4  1  0.489001  0.989001  0.194506  1
  Ho  Ho5  1  0.794497  0.294497  0.805494  1
  Ho  Ho6  1  0.989001  0.794497  0.500000  1
  Ho  Ho7  1  0.294497  0.489001  0.500000  1
  Er  Er8  1  0.500000  0.500000  0.000000  1
  Er  Er9  1  0.000000  0.000000  0.000000  1
  Zn  Zn10  1  0.139275  0.639275  0.778552  1
  Zn  Zn11  1  0.860725  0.360725  0.221448  1
  Zn  Zn12  1  0.639275  0.860725  0.500000  1
  Zn  Zn13  1  0.360725  0.139275  0.500000  1
  Bi  Bi14  1  0.250000  0.250000  0.000000  1
  Bi  Bi15  1  0.750000  0.750000  0.000000  1
