# generated using pymatgen
data_Th2MnSi4Tc
_symmetry_space_group_name_H-M   'P 1'
_cell_length_a   8.83858179
_cell_length_b   8.83858279
_cell_length_c   4.12731700
_cell_angle_alpha   90.00000000
_cell_angle_beta   90.00000000
_cell_angle_gamma   152.56386112
_symmetry_Int_Tables_number   1
_chemical_formula_structural   Th2MnSi4Tc
_chemical_formula_sum   'Th2 Mn1 Si4 Tc1'
_cell_volume   148.56192204
_cell_formula_units_Z   1
loop_
 _symmetry_equiv_pos_site_id
 _symmetry_equiv_pos_as_xyz
  1  'x, y, z'
loop_
 _atom_site_type_symbol
 _atom_site_label
 _atom_site_symmetry_multiplicity
 _atom_site_fract_x
 _atom_site_fract_y
 _atom_site_fract_z
 _atom_site_occupancy
  Th  Th0  1  0.102879  0.897121  0.250000  1
  Th  Th1  1  0.896572  0.103428  0.750000  1
  Mn  Mn2  1  0.750990  0.249010  0.250000  1
  Si  Si3  1  0.322282  0.677718  0.250000  1
  Si  Si4  1  0.677841  0.322159  0.750000  1
  Si  Si5  1  0.534649  0.465351  0.750000  1
  Si  Si6  1  0.465450  0.534550  0.250000  1
  Tc  Tc7  1  0.249337  0.750663  0.750000  1
