# generated using pymatgen
data_Sm5Si12Tc2Ir17
_symmetry_space_group_name_H-M   'P 1'
_cell_length_a   12.79682900
_cell_length_b   12.83389254
_cell_length_c   4.00682300
_cell_angle_alpha   90.00000000
_cell_angle_beta   90.00000000
_cell_angle_gamma   119.90451096
_symmetry_Int_Tables_number   1
_chemical_formula_structural   Sm5Si12Tc2Ir17
_chemical_formula_sum   'Sm5 Si12 Tc2 Ir17'
_cell_volume   570.43824384
_cell_formula_units_Z   1
loop_
 _symmetry_equiv_pos_site_id
 _symmetry_equiv_pos_as_xyz
  1  'x, y, z'
loop_
 _atom_site_type_symbol
 _atom_site_label
 _atom_site_symmetry_multiplicity
 _atom_site_fract_x
 _atom_site_fract_y
 _atom_site_fract_z
 _atom_site_occupancy
  Sm  Sm0  1  0.332049  0.663516  0.500000  1
  Sm  Sm1  1  0.668534  0.336484  0.500000  1
  Sm  Sm2  1  0.000078  0.812988  0.000000  1
  Sm  Sm3  1  0.187091  0.187012  0.000000  1
  Sm  Sm4  1  0.814381  0.000000  0.000000  1
  Si  Si5  1  0.000308  0.626771  0.500000  1
  Si  Si6  1  0.373537  0.373229  0.500000  1
  Si  Si7  1  0.629864  0.000000  0.500000  1
  Si  Si8  1  0.519600  0.685577  0.000000  1
  Si  Si9  1  0.310754  0.830801  0.000000  1
  Si  Si10  1  0.164031  0.477086  0.000000  1
  Si  Si11  1  0.479953  0.169199  0.000000  1
  Si  Si12  1  0.686944  0.522914  0.000000  1
  Si  Si13  1  0.834023  0.314423  0.000000  1
  Si  Si14  1  0.998750  0.181436  0.500000  1
  Si  Si15  1  0.817314  0.818564  0.500000  1
  Si  Si16  1  0.183524  0.000000  0.500000  1
  Tc  Tc17  1  0.999456  0.440872  0.500000  1
  Tc  Tc18  1  0.558584  0.559128  0.500000  1
  Ir  Ir19  1  0.511870  0.874029  0.000000  1
  Ir  Ir20  1  0.125777  0.638114  0.000000  1
  Ir  Ir21  1  0.359729  0.486320  0.000000  1
  Ir  Ir22  1  0.487663  0.361886  0.000000  1
  Ir  Ir23  1  0.873409  0.513680  0.000000  1
  Ir  Ir24  1  0.637841  0.125971  0.000000  1
  Ir  Ir25  1  0.445752  0.000000  0.500000  1
  Ir  Ir26  1  0.998255  0.279347  0.000000  1
  Ir  Ir27  1  0.718908  0.720653  0.000000  1
  Ir  Ir28  1  0.283268  0.000000  0.000000  1
  Ir  Ir29  1  0.621916  0.805761  0.500000  1
  Ir  Ir30  1  0.194607  0.817628  0.500000  1
  Ir  Ir31  1  0.181415  0.374480  0.500000  1
  Ir  Ir32  1  0.376977  0.182372  0.500000  1
  Ir  Ir33  1  0.806934  0.625520  0.500000  1
  Ir  Ir34  1  0.816154  0.194239  0.500000  1
  Ir  Ir35  1  0.000749  0.000000  0.500000  1
