# generated using pymatgen
data_Li3PRh
_symmetry_space_group_name_H-M   'P 1'
_cell_length_a   6.38331000
_cell_length_b   6.38331000
_cell_length_c   6.38331000
_cell_angle_alpha   90.00000000
_cell_angle_beta   90.00000000
_cell_angle_gamma   90.00000000
_symmetry_Int_Tables_number   1
_chemical_formula_structural   Li3PRh
_chemical_formula_sum   'Li12 P4 Rh4'
_cell_volume   260.09847643
_cell_formula_units_Z   4
loop_
 _symmetry_equiv_pos_site_id
 _symmetry_equiv_pos_as_xyz
  1  'x, y, z'
loop_
 _atom_site_type_symbol
 _atom_site_label
 _atom_site_symmetry_multiplicity
 _atom_site_fract_x
 _atom_site_fract_y
 _atom_site_fract_z
 _atom_site_occupancy
  Li  Li0  1  0.124892  0.204661  0.453113  1
  Li  Li1  1  0.375108  0.795339  0.953113  1
  Li  Li2  1  0.875108  0.704661  0.046887  1
  Li  Li3  1  0.453113  0.124892  0.204661  1
  Li  Li4  1  0.624892  0.295339  0.546887  1
  Li  Li5  1  0.953113  0.375108  0.795339  1
  Li  Li6  1  0.046887  0.875108  0.704661  1
  Li  Li7  1  0.546887  0.624892  0.295339  1
  Li  Li8  1  0.204661  0.453113  0.124892  1
  Li  Li9  1  0.704661  0.046887  0.875108  1
  Li  Li10  1  0.295339  0.546887  0.624892  1
  Li  Li11  1  0.795339  0.953113  0.375108  1
  P  P12  1  0.064554  0.064554  0.064554  1
  P  P13  1  0.435446  0.935446  0.564554  1
  P  P14  1  0.935446  0.564554  0.435446  1
  P  P15  1  0.564554  0.435446  0.935446  1
  Rh  Rh16  1  0.680783  0.680783  0.680783  1
  Rh  Rh17  1  0.819217  0.319217  0.180783  1
  Rh  Rh18  1  0.319217  0.180783  0.819217  1
  Rh  Rh19  1  0.180783  0.819217  0.319217  1
