# generated using pymatgen
data_Dy3Ho7(RuRh)2
_symmetry_space_group_name_H-M   'P 1'
_cell_length_a   6.36751951
_cell_length_b   7.23107213
_cell_length_c   8.50115903
_cell_angle_alpha   96.73634404
_cell_angle_beta   111.90446844
_cell_angle_gamma   90.01685674
_symmetry_Int_Tables_number   1
_chemical_formula_structural   Dy3Ho7(RuRh)2
_chemical_formula_sum   'Dy3 Ho7 Ru2 Rh2'
_cell_volume   360.24942247
_cell_formula_units_Z   1
loop_
 _symmetry_equiv_pos_site_id
 _symmetry_equiv_pos_as_xyz
  1  'x, y, z'
loop_
 _atom_site_type_symbol
 _atom_site_label
 _atom_site_symmetry_multiplicity
 _atom_site_fract_x
 _atom_site_fract_y
 _atom_site_fract_z
 _atom_site_occupancy
  Dy  Dy0  1  0.981518  0.918140  0.189088  1
  Dy  Dy1  1  0.792652  0.581866  0.811418  1
  Dy  Dy2  1  0.023777  0.085153  0.813842  1
  Ho  Ho3  1  0.209805  0.414487  0.186064  1
  Ho  Ho4  1  0.641830  0.816089  0.433819  1
  Ho  Ho5  1  0.207488  0.684170  0.565616  1
  Ho  Ho6  1  0.355415  0.187748  0.563251  1
  Ho  Ho7  1  0.792178  0.312407  0.436701  1
  Ho  Ho8  1  0.420731  0.749850  0.999928  1
  Ho  Ho9  1  0.576466  0.250048  0.000028  1
  Ru  Ru10  1  0.177382  0.425721  0.778788  1
  Ru  Ru11  1  0.397859  0.074985  0.220757  1
  Rh  Rh12  1  0.822854  0.575691  0.222467  1
  Rh  Rh13  1  0.600045  0.923644  0.778233  1
