# generated using pymatgen
data_Pr6NdSiBr12
_symmetry_space_group_name_H-M   'P 1'
_cell_length_a   9.54840885
_cell_length_b   9.54840900
_cell_length_c   9.54840910
_cell_angle_alpha   107.54314938
_cell_angle_beta   107.54315211
_cell_angle_gamma   107.54315089
_symmetry_Int_Tables_number   1
_chemical_formula_structural   Pr6NdSiBr12
_chemical_formula_sum   'Pr6 Nd1 Si1 Br12'
_cell_volume   713.98689534
_cell_formula_units_Z   1
loop_
 _symmetry_equiv_pos_site_id
 _symmetry_equiv_pos_as_xyz
  1  'x, y, z'
loop_
 _atom_site_type_symbol
 _atom_site_label
 _atom_site_symmetry_multiplicity
 _atom_site_fract_x
 _atom_site_fract_y
 _atom_site_fract_z
 _atom_site_occupancy
  Pr  Pr0  1  0.968741  0.892164  0.677502  1
  Pr  Pr1  1  0.031259  0.107836  0.322498  1
  Pr  Pr2  1  0.107836  0.322498  0.031259  1
  Pr  Pr3  1  0.322498  0.031259  0.107836  1
  Pr  Pr4  1  0.892164  0.677502  0.968741  1
  Pr  Pr5  1  0.677502  0.968741  0.892164  1
  Nd  Nd6  1  0.500000  0.500000  0.500000  1
  Si  Si7  1  0.000000  0.000000  0.000000  1
  Br  Br8  1  0.532261  0.612349  0.838265  1
  Br  Br9  1  0.467739  0.387651  0.161735  1
  Br  Br10  1  0.313190  0.925621  0.773558  1
  Br  Br11  1  0.387651  0.161735  0.467739  1
  Br  Br12  1  0.925621  0.773558  0.313190  1
  Br  Br13  1  0.686810  0.074379  0.226442  1
  Br  Br14  1  0.074379  0.226442  0.686810  1
  Br  Br15  1  0.773558  0.313190  0.925621  1
  Br  Br16  1  0.226442  0.686810  0.074379  1
  Br  Br17  1  0.838265  0.532261  0.612349  1
  Br  Br18  1  0.161735  0.467739  0.387651  1
  Br  Br19  1  0.612349  0.838265  0.532261  1
