# generated using pymatgen
data_KBa3(PRu)8
_symmetry_space_group_name_H-M   'P 1'
_cell_length_a   6.76902053
_cell_length_b   9.08438152
_cell_length_c   8.14203845
_cell_angle_alpha   63.30312690
_cell_angle_beta   72.62860175
_cell_angle_gamma   97.62976293
_symmetry_Int_Tables_number   1
_chemical_formula_structural   KBa3(PRu)8
_chemical_formula_sum   'K1 Ba3 P8 Ru8'
_cell_volume   405.44282468
_cell_formula_units_Z   1
loop_
 _symmetry_equiv_pos_site_id
 _symmetry_equiv_pos_as_xyz
  1  'x, y, z'
loop_
 _atom_site_type_symbol
 _atom_site_label
 _atom_site_symmetry_multiplicity
 _atom_site_fract_x
 _atom_site_fract_y
 _atom_site_fract_z
 _atom_site_occupancy
  K  K0  1  0.000000  0.000000  0.000000  1
  Ba  Ba1  1  0.999856  0.493359  0.753485  1
  Ba  Ba2  1  0.000000  0.000000  0.500000  1
  Ba  Ba3  1  0.000144  0.506641  0.246515  1
  P  P4  1  0.313641  0.329790  0.505819  1
  P  P5  1  0.313704  0.328321  0.007761  1
  P  P6  1  0.316709  0.828720  0.256705  1
  P  P7  1  0.314780  0.828229  0.756361  1
  P  P8  1  0.686359  0.670210  0.494181  1
  P  P9  1  0.686296  0.671679  0.992239  1
  P  P10  1  0.685220  0.171771  0.243639  1
  P  P11  1  0.683291  0.171280  0.743295  1
  Ru  Ru12  1  0.502543  0.625485  0.311672  1
  Ru  Ru13  1  0.501207  0.624948  0.812212  1
  Ru  Ru14  1  0.500631  0.125390  0.062416  1
  Ru  Ru15  1  0.499637  0.125180  0.562149  1
  Ru  Ru16  1  0.497457  0.374515  0.688328  1
  Ru  Ru17  1  0.498793  0.375052  0.187788  1
  Ru  Ru18  1  0.500363  0.874820  0.437851  1
  Ru  Ru19  1  0.499369  0.874610  0.937584  1
