# generated using pymatgen
data_Nd7Th3(Sb3C)2
_symmetry_space_group_name_H-M   'P 1'
_cell_length_a   9.29545000
_cell_length_b   9.29545064
_cell_length_c   6.57404000
_cell_angle_alpha   90.00000000
_cell_angle_beta   90.00000000
_cell_angle_gamma   120.00000484
_symmetry_Int_Tables_number   1
_chemical_formula_structural   Nd7Th3(Sb3C)2
_chemical_formula_sum   'Nd7 Th3 Sb6 C2'
_cell_volume   491.93058038
_cell_formula_units_Z   1
loop_
 _symmetry_equiv_pos_site_id
 _symmetry_equiv_pos_as_xyz
  1  'x, y, z'
loop_
 _atom_site_type_symbol
 _atom_site_label
 _atom_site_symmetry_multiplicity
 _atom_site_fract_x
 _atom_site_fract_y
 _atom_site_fract_z
 _atom_site_occupancy
  Nd  Nd0  1  0.666667  0.333333  0.500981  1
  Nd  Nd1  1  0.333333  0.666667  0.500981  1
  Nd  Nd2  1  0.333333  0.666667  0.999019  1
  Nd  Nd3  1  0.666667  0.333333  0.999019  1
  Nd  Nd4  1  0.776831  0.776831  0.250000  1
  Nd  Nd5  1  0.223169  0.000000  0.250000  1
  Nd  Nd6  1  0.000000  0.223169  0.250000  1
  Th  Th7  1  0.218016  0.218016  0.750000  1
  Th  Th8  1  0.781984  0.000000  0.750000  1
  Th  Th9  1  0.000000  0.781984  0.750000  1
  Sb  Sb10  1  0.399563  0.399563  0.250000  1
  Sb  Sb11  1  0.600437  0.000000  0.250000  1
  Sb  Sb12  1  0.000000  0.600437  0.250000  1
  Sb  Sb13  1  0.598870  0.598870  0.750000  1
  Sb  Sb14  1  0.401130  0.000000  0.750000  1
  Sb  Sb15  1  0.000000  0.401130  0.750000  1
  C  C16  1  0.000000  0.000000  0.513005  1
  C  C17  1  0.000000  0.000000  0.986995  1
