# generated using pymatgen
data_Ca8Ti3VO16
_symmetry_space_group_name_H-M   'P 1'
_cell_length_a   5.42670974
_cell_length_b   6.82708000
_cell_length_c   11.47644147
_cell_angle_alpha   90.00000000
_cell_angle_beta   90.22113151
_cell_angle_gamma   90.00000000
_symmetry_Int_Tables_number   1
_chemical_formula_structural   Ca8Ti3VO16
_chemical_formula_sum   'Ca8 Ti3 V1 O16'
_cell_volume   425.18271057
_cell_formula_units_Z   1
loop_
 _symmetry_equiv_pos_site_id
 _symmetry_equiv_pos_as_xyz
  1  'x, y, z'
loop_
 _atom_site_type_symbol
 _atom_site_label
 _atom_site_symmetry_multiplicity
 _atom_site_fract_x
 _atom_site_fract_y
 _atom_site_fract_z
 _atom_site_occupancy
  Ca  Ca0  1  0.006771  0.750000  0.721574  1
  Ca  Ca1  1  0.993972  0.250000  0.278157  1
  Ca  Ca2  1  0.502426  0.250000  0.777983  1
  Ca  Ca3  1  0.492813  0.750000  0.222180  1
  Ca  Ca4  1  0.500081  0.500871  0.500734  1
  Ca  Ca5  1  0.999442  0.000068  0.999914  1
  Ca  Ca6  1  0.999442  0.499932  0.999914  1
  Ca  Ca7  1  0.500081  0.999129  0.500734  1
  Ti  Ti8  1  0.434488  0.250000  0.096118  1
  Ti  Ti9  1  0.934812  0.750000  0.404668  1
  Ti  Ti10  1  0.565208  0.750000  0.904013  1
  V  V11  1  0.064120  0.250000  0.593712  1
  O  O12  1  0.783235  0.750000  0.548142  1
  O  O13  1  0.780993  0.539360  0.337433  1
  O  O14  1  0.718281  0.539791  0.836720  1
  O  O15  1  0.728169  0.250000  0.597109  1
  O  O16  1  0.716425  0.750000  0.048202  1
  O  O17  1  0.280651  0.460013  0.163399  1
  O  O18  1  0.218472  0.461999  0.660101  1
  O  O19  1  0.275578  0.750000  0.406745  1
  O  O20  1  0.780993  0.960640  0.337433  1
  O  O21  1  0.224270  0.750000  0.906856  1
  O  O22  1  0.223647  0.250000  0.452634  1
  O  O23  1  0.718281  0.960209  0.836720  1
  O  O24  1  0.218472  0.038001  0.660101  1
  O  O25  1  0.282851  0.250000  0.952149  1
  O  O26  1  0.280651  0.039987  0.163399  1
  O  O27  1  0.775376  0.250000  0.093156  1
