# generated using pymatgen
data_Th(FeB)4
_symmetry_space_group_name_H-M   'P 1'
_cell_length_a   7.08718900
_cell_length_b   7.08718900
_cell_length_c   3.80312600
_cell_angle_alpha   90.00000000
_cell_angle_beta   90.00000000
_cell_angle_gamma   90.00000000
_symmetry_Int_Tables_number   1
_chemical_formula_structural   Th(FeB)4
_chemical_formula_sum   'Th2 Fe8 B8'
_cell_volume   191.02435561
_cell_formula_units_Z   2
loop_
 _symmetry_equiv_pos_site_id
 _symmetry_equiv_pos_as_xyz
  1  'x, y, z'
loop_
 _atom_site_type_symbol
 _atom_site_label
 _atom_site_symmetry_multiplicity
 _atom_site_fract_x
 _atom_site_fract_y
 _atom_site_fract_z
 _atom_site_occupancy
  Th  Th0  1  0.000000  0.000000  0.000000  1
  Th  Th1  1  0.500000  0.500000  0.500000  1
  Fe  Fe2  1  0.867261  0.388436  0.102282  1
  Fe  Fe3  1  0.132739  0.611564  0.102282  1
  Fe  Fe4  1  0.888436  0.632739  0.602282  1
  Fe  Fe5  1  0.111564  0.367261  0.602282  1
  Fe  Fe6  1  0.632739  0.111564  0.397718  1
  Fe  Fe7  1  0.367261  0.888436  0.397718  1
  Fe  Fe8  1  0.611564  0.867261  0.897718  1
  Fe  Fe9  1  0.388436  0.132739  0.897718  1
  B  B10  1  0.335965  0.794879  0.897297  1
  B  B11  1  0.664035  0.205121  0.897297  1
  B  B12  1  0.294879  0.164035  0.397297  1
  B  B13  1  0.705121  0.835965  0.397297  1
  B  B14  1  0.164035  0.705121  0.602703  1
  B  B15  1  0.835965  0.294879  0.602703  1
  B  B16  1  0.205121  0.335965  0.102703  1
  B  B17  1  0.794879  0.664035  0.102703  1
