# generated using pymatgen
data_Er3Lu3Tc2
_symmetry_space_group_name_H-M   'P 1'
_cell_length_a   6.16154635
_cell_length_b   7.43684800
_cell_length_c   8.95717015
_cell_angle_alpha   90.00000000
_cell_angle_beta   90.31743661
_cell_angle_gamma   90.00000000
_symmetry_Int_Tables_number   1
_chemical_formula_structural   Er3Lu3Tc2
_chemical_formula_sum   'Er6 Lu6 Tc4'
_cell_volume   410.43348321
_cell_formula_units_Z   2
loop_
 _symmetry_equiv_pos_site_id
 _symmetry_equiv_pos_as_xyz
  1  'x, y, z'
loop_
 _atom_site_type_symbol
 _atom_site_label
 _atom_site_symmetry_multiplicity
 _atom_site_fract_x
 _atom_site_fract_y
 _atom_site_fract_z
 _atom_site_occupancy
  Er  Er0  1  0.349504  0.677066  0.062558  1
  Er  Er1  1  0.150496  0.177066  0.437442  1
  Er  Er2  1  0.874253  0.540315  0.250682  1
  Er  Er3  1  0.625747  0.040315  0.249318  1
  Er  Er4  1  0.124432  0.459813  0.750092  1
  Er  Er5  1  0.375568  0.959813  0.749908  1
  Lu  Lu6  1  0.652448  0.325795  0.562372  1
  Lu  Lu7  1  0.847552  0.825795  0.937628  1
  Lu  Lu8  1  0.649708  0.323998  0.936984  1
  Lu  Lu9  1  0.850292  0.823998  0.563016  1
  Lu  Lu10  1  0.349239  0.673631  0.438254  1
  Lu  Lu11  1  0.150761  0.173631  0.061746  1
  Tc  Tc12  1  0.045044  0.882046  0.250881  1
  Tc  Tc13  1  0.454956  0.382046  0.249119  1
  Tc  Tc14  1  0.953013  0.117334  0.752593  1
  Tc  Tc15  1  0.546987  0.617334  0.747407  1
