# generated using pymatgen
data_Y2Al3Re14C3
_symmetry_space_group_name_H-M   'P 1'
_cell_length_a   6.98083199
_cell_length_b   6.98083187
_cell_length_c   6.98083252
_cell_angle_alpha   82.37700173
_cell_angle_beta   82.37700309
_cell_angle_gamma   82.37699140
_symmetry_Int_Tables_number   1
_chemical_formula_structural   Y2Al3Re14C3
_chemical_formula_sum   'Y2 Al3 Re14 C3'
_cell_volume   331.90366088
_cell_formula_units_Z   1
loop_
 _symmetry_equiv_pos_site_id
 _symmetry_equiv_pos_as_xyz
  1  'x, y, z'
loop_
 _atom_site_type_symbol
 _atom_site_label
 _atom_site_symmetry_multiplicity
 _atom_site_fract_x
 _atom_site_fract_y
 _atom_site_fract_z
 _atom_site_occupancy
  Y  Y0  1  0.656704  0.656704  0.656704  1
  Y  Y1  1  0.343296  0.343296  0.343296  1
  Al  Al2  1  0.000000  0.000000  0.500000  1
  Al  Al3  1  0.500000  0.000000  0.000000  1
  Al  Al4  1  0.000000  0.500000  0.000000  1
  Re  Re5  1  0.721073  0.278927  0.000000  1
  Re  Re6  1  0.000000  0.721073  0.278927  1
  Re  Re7  1  0.278927  0.000000  0.721073  1
  Re  Re8  1  0.000000  0.278927  0.721073  1
  Re  Re9  1  0.721073  0.000000  0.278927  1
  Re  Re10  1  0.278927  0.721073  0.000000  1
  Re  Re11  1  0.349621  0.349621  0.849749  1
  Re  Re12  1  0.849749  0.349621  0.349621  1
  Re  Re13  1  0.349621  0.849749  0.349621  1
  Re  Re14  1  0.650379  0.650379  0.150251  1
  Re  Re15  1  0.150251  0.650379  0.650379  1
  Re  Re16  1  0.650379  0.150251  0.650379  1
  Re  Re17  1  0.903138  0.903138  0.903138  1
  Re  Re18  1  0.096862  0.096862  0.096862  1
  C  C19  1  0.500000  0.500000  0.000000  1
  C  C20  1  0.000000  0.500000  0.500000  1
  C  C21  1  0.500000  0.000000  0.500000  1
