# generated using pymatgen
data_Dy5Y3Tc2(B12Ir)2
_symmetry_space_group_name_H-M   'P 1'
_cell_length_a   3.67441100
_cell_length_b   9.16526793
_cell_length_c   11.55482709
_cell_angle_alpha   89.73224256
_cell_angle_beta   90.00000000
_cell_angle_gamma   90.00000000
_symmetry_Int_Tables_number   1
_chemical_formula_structural   Dy5Y3Tc2(B12Ir)2
_chemical_formula_sum   'Dy5 Y3 Tc2 B24 Ir2'
_cell_volume   389.12721580
_cell_formula_units_Z   1
loop_
 _symmetry_equiv_pos_site_id
 _symmetry_equiv_pos_as_xyz
  1  'x, y, z'
loop_
 _atom_site_type_symbol
 _atom_site_label
 _atom_site_symmetry_multiplicity
 _atom_site_fract_x
 _atom_site_fract_y
 _atom_site_fract_z
 _atom_site_occupancy
  Dy  Dy0  1  0.000000  0.182493  0.910082  1
  Dy  Dy1  1  0.000000  0.940803  0.373944  1
  Dy  Dy2  1  0.000000  0.059184  0.626009  1
  Dy  Dy3  1  0.000000  0.446251  0.128263  1
  Dy  Dy4  1  0.000000  0.553718  0.871737  1
  Y  Y5  1  0.000000  0.326523  0.417449  1
  Y  Y6  1  0.000000  0.673477  0.582558  1
  Y  Y7  1  0.000000  0.817232  0.089879  1
  Tc  Tc8  1  0.000000  0.638143  0.320086  1
  Tc  Tc9  1  0.000000  0.361710  0.680098  1
  B  B10  1  0.500000  0.553202  0.432631  1
  B  B11  1  0.500000  0.446739  0.567435  1
  B  B12  1  0.500000  0.054293  0.066082  1
  B  B13  1  0.500000  0.946084  0.933711  1
  B  B14  1  0.500000  0.747055  0.419003  1
  B  B15  1  0.500000  0.252940  0.581056  1
  B  B16  1  0.500000  0.249003  0.078992  1
  B  B17  1  0.500000  0.751085  0.920805  1
  B  B18  1  0.500000  0.791593  0.265899  1
  B  B19  1  0.500000  0.208351  0.734263  1
  B  B20  1  0.500000  0.290528  0.233853  1
  B  B21  1  0.500000  0.709496  0.766105  1
  B  B22  1  0.500000  0.631665  0.185583  1
  B  B23  1  0.500000  0.368148  0.814585  1
  B  B24  1  0.500000  0.131620  0.315666  1
  B  B25  1  0.500000  0.868447  0.684329  1
  B  B26  1  0.500000  0.982669  0.212711  1
  B  B27  1  0.500000  0.017531  0.787327  1
  B  B28  1  0.500000  0.483303  0.287108  1
  B  B29  1  0.500000  0.516630  0.712923  1
  B  B30  1  0.500000  0.608167  0.029339  1
  B  B31  1  0.500000  0.391729  0.970609  1
  B  B32  1  0.500000  0.107870  0.469644  1
  B  B33  1  0.500000  0.892152  0.530343  1
  Ir  Ir34  1  0.000000  0.136392  0.177451  1
  Ir  Ir35  1  0.000000  0.863773  0.822442  1
