# generated using pymatgen
data_Er2Zr2Re7W
_symmetry_space_group_name_H-M   'P 1'
_cell_length_a   5.39121000
_cell_length_b   5.39121016
_cell_length_c   8.73352700
_cell_angle_alpha   90.00000000
_cell_angle_beta   90.00000000
_cell_angle_gamma   119.99999903
_symmetry_Int_Tables_number   1
_chemical_formula_structural   Er2Zr2Re7W
_chemical_formula_sum   'Er2 Zr2 Re7 W1'
_cell_volume   219.83296312
_cell_formula_units_Z   1
loop_
 _symmetry_equiv_pos_site_id
 _symmetry_equiv_pos_as_xyz
  1  'x, y, z'
loop_
 _atom_site_type_symbol
 _atom_site_label
 _atom_site_symmetry_multiplicity
 _atom_site_fract_x
 _atom_site_fract_y
 _atom_site_fract_z
 _atom_site_occupancy
  Er  Er0  1  0.666667  0.333333  0.939338  1
  Er  Er1  1  0.333333  0.666667  0.060662  1
  Zr  Zr2  1  0.333333  0.666667  0.435627  1
  Zr  Zr3  1  0.666667  0.333333  0.564373  1
  Re  Re4  1  0.000000  0.000000  0.000000  1
  Re  Re5  1  0.829170  0.170830  0.254196  1
  Re  Re6  1  0.829170  0.658341  0.254196  1
  Re  Re7  1  0.341659  0.170830  0.254196  1
  Re  Re8  1  0.170830  0.829170  0.745804  1
  Re  Re9  1  0.170830  0.341659  0.745804  1
  Re  Re10  1  0.658341  0.829170  0.745804  1
  W  W11  1  0.000000  0.000000  0.500000  1
