# generated using pymatgen
data_Dy16Tl3HgPt4
_symmetry_space_group_name_H-M   'P 1'
_cell_length_a   9.71089756
_cell_length_b   9.75750841
_cell_length_c   9.75750800
_cell_angle_alpha   59.99999460
_cell_angle_beta   59.84108939
_cell_angle_gamma   59.84109111
_symmetry_Int_Tables_number   1
_chemical_formula_structural   Dy16Tl3HgPt4
_chemical_formula_sum   'Dy16 Tl3 Hg1 Pt4'
_cell_volume   652.19111828
_cell_formula_units_Z   1
loop_
 _symmetry_equiv_pos_site_id
 _symmetry_equiv_pos_as_xyz
  1  'x, y, z'
loop_
 _atom_site_type_symbol
 _atom_site_label
 _atom_site_symmetry_multiplicity
 _atom_site_fract_x
 _atom_site_fract_y
 _atom_site_fract_z
 _atom_site_occupancy
  Dy  Dy0  1  0.351011  0.352268  0.352268  1
  Dy  Dy1  1  0.351011  0.352268  0.944456  1
  Dy  Dy2  1  0.351011  0.944456  0.352268  1
  Dy  Dy3  1  0.946385  0.351206  0.351206  1
  Dy  Dy4  1  0.810417  0.189561  0.189561  1
  Dy  Dy5  1  0.189821  0.810448  0.810448  1
  Dy  Dy6  1  0.189821  0.810448  0.189282  1
  Dy  Dy7  1  0.810417  0.189561  0.810459  1
  Dy  Dy8  1  0.189821  0.189282  0.810448  1
  Dy  Dy9  1  0.810417  0.810459  0.189561  1
  Dy  Dy10  1  0.940813  0.562353  0.562353  1
  Dy  Dy11  1  0.563673  0.937229  0.937229  1
  Dy  Dy12  1  0.563673  0.937229  0.561871  1
  Dy  Dy13  1  0.940813  0.562352  0.934481  1
  Dy  Dy14  1  0.563673  0.561871  0.937229  1
  Dy  Dy15  1  0.940813  0.934481  0.562352  1
  Tl  Tl16  1  0.583244  0.586543  0.586543  1
  Tl  Tl17  1  0.583244  0.586543  0.243669  1
  Tl  Tl18  1  0.583244  0.243669  0.586543  1
  Hg  Hg19  1  0.234777  0.588407  0.588407  1
  Pt  Pt20  1  0.143838  0.142520  0.142520  1
  Pt  Pt21  1  0.143838  0.142520  0.571123  1
  Pt  Pt22  1  0.143838  0.571123  0.142520  1
  Pt  Pt23  1  0.570386  0.143205  0.143205  1
