# generated using pymatgen
data_Tb2CoNiC4
_symmetry_space_group_name_H-M   'P 1'
_cell_length_a   3.69350934
_cell_length_b   3.68701733
_cell_length_c   7.37846115
_cell_angle_alpha   97.66949460
_cell_angle_beta   97.82995157
_cell_angle_gamma   90.10671674
_symmetry_Int_Tables_number   1
_chemical_formula_structural   Tb2CoNiC4
_chemical_formula_sum   'Tb2 Co1 Ni1 C4'
_cell_volume   98.63229098
_cell_formula_units_Z   1
loop_
 _symmetry_equiv_pos_site_id
 _symmetry_equiv_pos_as_xyz
  1  'x, y, z'
loop_
 _atom_site_type_symbol
 _atom_site_label
 _atom_site_symmetry_multiplicity
 _atom_site_fract_x
 _atom_site_fract_y
 _atom_site_fract_z
 _atom_site_occupancy
  Tb  Tb0  1  0.073268  0.929732  0.995276  1
  Tb  Tb1  1  0.933617  0.069774  0.502362  1
  Co  Co2  1  0.491860  0.627251  0.693082  1
  Ni  Ni3  1  0.627526  0.484697  0.194427  1
  C  C4  1  0.142778  0.510314  0.277062  1
  C  C5  1  0.399624  0.558114  0.430838  1
  C  C6  1  0.510117  0.143010  0.774222  1
  C  C7  1  0.554199  0.410096  0.926533  1
