# generated using pymatgen
data_TbY2ZnPd5
_symmetry_space_group_name_H-M   'P 1'
_cell_length_a   8.23368028
_cell_length_b   8.23367992
_cell_length_c   13.14476500
_cell_angle_alpha   90.00000000
_cell_angle_beta   90.00000000
_cell_angle_gamma   127.47501372
_symmetry_Int_Tables_number   1
_chemical_formula_structural   TbY2ZnPd5
_chemical_formula_sum   'Tb4 Y8 Zn4 Pd20'
_cell_volume   707.21704727
_cell_formula_units_Z   4
loop_
 _symmetry_equiv_pos_site_id
 _symmetry_equiv_pos_as_xyz
  1  'x, y, z'
loop_
 _atom_site_type_symbol
 _atom_site_label
 _atom_site_symmetry_multiplicity
 _atom_site_fract_x
 _atom_site_fract_y
 _atom_site_fract_z
 _atom_site_occupancy
  Tb  Tb0  1  0.927958  0.072042  0.250000  1
  Tb  Tb1  1  0.072042  0.927958  0.750000  1
  Tb  Tb2  1  0.320656  0.679344  0.250000  1
  Tb  Tb3  1  0.679344  0.320656  0.750000  1
  Y  Y4  1  0.629773  0.370227  0.462626  1
  Y  Y5  1  0.370227  0.629773  0.537374  1
  Y  Y6  1  0.629773  0.370227  0.037374  1
  Y  Y7  1  0.370227  0.629773  0.962626  1
  Y  Y8  1  0.879570  0.120430  0.947523  1
  Y  Y9  1  0.120430  0.879570  0.052477  1
  Y  Y10  1  0.879570  0.120430  0.552477  1
  Y  Y11  1  0.120430  0.879570  0.447523  1
  Zn  Zn12  1  0.722737  0.277263  0.250000  1
  Zn  Zn13  1  0.277263  0.722737  0.750000  1
  Zn  Zn14  1  0.531594  0.468406  0.250000  1
  Zn  Zn15  1  0.468406  0.531594  0.750000  1
  Pd  Pd16  1  0.323576  0.069954  0.250000  1
  Pd  Pd17  1  0.069954  0.323576  0.750000  1
  Pd  Pd18  1  0.676424  0.930046  0.750000  1
  Pd  Pd19  1  0.930046  0.676424  0.250000  1
  Pd  Pd20  1  0.565325  0.000304  0.395885  1
  Pd  Pd21  1  0.000304  0.565325  0.604115  1
  Pd  Pd22  1  0.565325  0.000304  0.104115  1
  Pd  Pd23  1  0.000304  0.565325  0.895885  1
  Pd  Pd24  1  0.434675  0.999696  0.604115  1
  Pd  Pd25  1  0.999696  0.434675  0.395885  1
  Pd  Pd26  1  0.434675  0.999696  0.895885  1
  Pd  Pd27  1  0.999696  0.434675  0.104115  1
  Pd  Pd28  1  0.692286  0.747128  0.393335  1
  Pd  Pd29  1  0.747128  0.692286  0.606665  1
  Pd  Pd30  1  0.692286  0.747128  0.106665  1
  Pd  Pd31  1  0.747128  0.692286  0.893335  1
  Pd  Pd32  1  0.307714  0.252872  0.606665  1
  Pd  Pd33  1  0.252872  0.307714  0.393335  1
  Pd  Pd34  1  0.307714  0.252872  0.893335  1
  Pd  Pd35  1  0.252872  0.307714  0.106665  1
