# generated using pymatgen
data_Dy3YU2O12
_symmetry_space_group_name_H-M   'P 1'
_cell_length_a   6.50634528
_cell_length_b   6.50634559
_cell_length_c   6.65406206
_cell_angle_alpha   80.61885795
_cell_angle_beta   80.61886774
_cell_angle_gamma   120.60586944
_symmetry_Int_Tables_number   1
_chemical_formula_structural   Dy3YU2O12
_chemical_formula_sum   'Dy3 Y1 U2 O12'
_cell_volume   228.94350485
_cell_formula_units_Z   1
loop_
 _symmetry_equiv_pos_site_id
 _symmetry_equiv_pos_as_xyz
  1  'x, y, z'
loop_
 _atom_site_type_symbol
 _atom_site_label
 _atom_site_symmetry_multiplicity
 _atom_site_fract_x
 _atom_site_fract_y
 _atom_site_fract_z
 _atom_site_occupancy
  Dy  Dy0  1  0.249951  0.750049  0.750000  1
  Dy  Dy1  1  0.084964  0.915036  0.250000  1
  Dy  Dy2  1  0.750005  0.249995  0.250000  1
  Y  Y3  1  0.915108  0.084892  0.750000  1
  U  U4  1  0.585837  0.414163  0.750000  1
  U  U5  1  0.414188  0.585812  0.250000  1
  O  O6  1  0.933739  0.770214  0.628218  1
  O  O7  1  0.626839  0.141973  0.625293  1
  O  O8  1  0.689907  0.535079  0.379564  1
  O  O9  1  0.464921  0.310093  0.120436  1
  O  O10  1  0.310664  0.465449  0.620226  1
  O  O11  1  0.141876  0.627311  0.125504  1
  O  O12  1  0.372689  0.858124  0.374496  1
  O  O13  1  0.229786  0.066261  0.871782  1
  O  O14  1  0.066554  0.229605  0.371049  1
  O  O15  1  0.770395  0.933446  0.128951  1
  O  O16  1  0.858027  0.373161  0.874707  1
  O  O17  1  0.534551  0.689336  0.879774  1
