# generated using pymatgen
data_ErMg3Ge5AsIr7
_symmetry_space_group_name_H-M   'P 1'
_cell_length_a   7.15808432
_cell_length_b   7.15808564
_cell_length_c   7.14500015
_cell_angle_alpha   109.71258019
_cell_angle_beta   109.71258947
_cell_angle_gamma   110.13879849
_symmetry_Int_Tables_number   1
_chemical_formula_structural   ErMg3Ge5AsIr7
_chemical_formula_sum   'Er1 Mg3 Ge5 As1 Ir7'
_cell_volume   277.74479289
_cell_formula_units_Z   1
loop_
 _symmetry_equiv_pos_site_id
 _symmetry_equiv_pos_as_xyz
  1  'x, y, z'
loop_
 _atom_site_type_symbol
 _atom_site_label
 _atom_site_symmetry_multiplicity
 _atom_site_fract_x
 _atom_site_fract_y
 _atom_site_fract_z
 _atom_site_occupancy
  Er  Er0  1  0.501719  0.501719  0.500265  1
  Mg  Mg1  1  0.002108  0.002108  0.501379  1
  Mg  Mg2  1  0.002070  0.499977  0.000011  1
  Mg  Mg3  1  0.499977  0.002070  0.000011  1
  Ge  Ge4  1  0.309237  0.994590  0.308992  1
  Ge  Ge5  1  0.994590  0.309237  0.308992  1
  Ge  Ge6  1  0.302974  0.302974  0.992583  1
  Ge  Ge7  1  0.692299  0.008139  0.692321  1
  Ge  Ge8  1  0.008139  0.692299  0.692321  1
  As  As9  1  0.688166  0.688166  0.004709  1
  Ir  Ir10  1  0.752376  0.246965  0.498088  1
  Ir  Ir11  1  0.751430  0.500899  0.247480  1
  Ir  Ir12  1  0.500949  0.248443  0.753776  1
  Ir  Ir13  1  0.248443  0.500949  0.753776  1
  Ir  Ir14  1  0.246965  0.752376  0.498088  1
  Ir  Ir15  1  0.500899  0.751430  0.247480  1
  Ir  Ir16  1  0.997659  0.997659  0.999729  1
