# generated using pymatgen
data_Y20FeBi8Ru3
_symmetry_space_group_name_H-M   'P 1'
_cell_length_a   8.01813426
_cell_length_b   9.05515500
_cell_length_c   12.48821329
_cell_angle_alpha   90.00000000
_cell_angle_beta   90.16721552
_cell_angle_gamma   90.00000000
_symmetry_Int_Tables_number   1
_chemical_formula_structural   Y20FeBi8Ru3
_chemical_formula_sum   'Y20 Fe1 Bi8 Ru3'
_cell_volume   906.70846584
_cell_formula_units_Z   1
loop_
 _symmetry_equiv_pos_site_id
 _symmetry_equiv_pos_as_xyz
  1  'x, y, z'
loop_
 _atom_site_type_symbol
 _atom_site_label
 _atom_site_symmetry_multiplicity
 _atom_site_fract_x
 _atom_site_fract_y
 _atom_site_fract_z
 _atom_site_occupancy
  Y  Y0  1  0.845984  0.750000  0.799088  1
  Y  Y1  1  0.156307  0.250000  0.206846  1
  Y  Y2  1  0.343182  0.250000  0.707344  1
  Y  Y3  1  0.655861  0.750000  0.293404  1
  Y  Y4  1  0.377074  0.750000  0.693182  1
  Y  Y5  1  0.622612  0.250000  0.306966  1
  Y  Y6  1  0.876991  0.250000  0.807557  1
  Y  Y7  1  0.119330  0.750000  0.188727  1
  Y  Y8  1  0.946108  0.750000  0.504879  1
  Y  Y9  1  0.052838  0.250000  0.495800  1
  Y  Y10  1  0.448486  0.250000  0.996316  1
  Y  Y11  1  0.553708  0.750000  0.003948  1
  Y  Y12  1  0.675916  0.041154  0.564747  1
  Y  Y13  1  0.323266  0.958467  0.434853  1
  Y  Y14  1  0.176138  0.957865  0.935760  1
  Y  Y15  1  0.323266  0.541533  0.434853  1
  Y  Y16  1  0.825888  0.034085  0.062684  1
  Y  Y17  1  0.675916  0.458846  0.564747  1
  Y  Y18  1  0.825888  0.465915  0.062684  1
  Y  Y19  1  0.176138  0.542135  0.935760  1
  Fe  Fe20  1  0.929755  0.750000  0.010161  1
  Bi  Bi21  1  0.570667  0.492765  0.827919  1
  Bi  Bi22  1  0.429531  0.507537  0.171966  1
  Bi  Bi23  1  0.069647  0.507396  0.673030  1
  Bi  Bi24  1  0.429531  0.992463  0.171966  1
  Bi  Bi25  1  0.929629  0.493190  0.327193  1
  Bi  Bi26  1  0.570667  0.007235  0.827919  1
  Bi  Bi27  1  0.929629  0.006810  0.327193  1
  Bi  Bi28  1  0.069647  0.992604  0.673030  1
  Ru  Ru29  1  0.572647  0.750000  0.510941  1
  Ru  Ru30  1  0.425945  0.250000  0.488922  1
  Ru  Ru31  1  0.071805  0.250000  0.989613  1
