# generated using pymatgen
data_Mn4Cu2GePd9
_symmetry_space_group_name_H-M   'P 1'
_cell_length_a   6.75210306
_cell_length_b   6.75210291
_cell_length_c   6.75210221
_cell_angle_alpha   106.35063554
_cell_angle_beta   106.35063151
_cell_angle_gamma   115.91073967
_symmetry_Int_Tables_number   1
_chemical_formula_structural   Mn4Cu2GePd9
_chemical_formula_sum   'Mn4 Cu2 Ge1 Pd9'
_cell_volume   234.70133686
_cell_formula_units_Z   1
loop_
 _symmetry_equiv_pos_site_id
 _symmetry_equiv_pos_as_xyz
  1  'x, y, z'
loop_
 _atom_site_type_symbol
 _atom_site_label
 _atom_site_symmetry_multiplicity
 _atom_site_fract_x
 _atom_site_fract_y
 _atom_site_fract_z
 _atom_site_occupancy
  Mn  Mn0  1  0.233930  0.233930  0.467861  1
  Mn  Mn1  1  0.766070  0.766070  0.532139  1
  Mn  Mn2  1  0.233930  0.766070  0.000000  1
  Mn  Mn3  1  0.766070  0.233930  0.000000  1
  Cu  Cu4  1  0.500000  0.000000  0.500000  1
  Cu  Cu5  1  0.000000  0.500000  0.500000  1
  Ge  Ge6  1  0.500000  0.500000  0.000000  1
  Pd  Pd7  1  0.521444  0.269984  0.251459  1
  Pd  Pd8  1  0.478556  0.730016  0.748541  1
  Pd  Pd9  1  0.018525  0.269984  0.748541  1
  Pd  Pd10  1  0.269984  0.018525  0.748541  1
  Pd  Pd11  1  0.981475  0.730016  0.251459  1
  Pd  Pd12  1  0.730016  0.981475  0.251459  1
  Pd  Pd13  1  0.269984  0.521444  0.251459  1
  Pd  Pd14  1  0.730016  0.478556  0.748541  1
  Pd  Pd15  1  0.000000  0.000000  0.000000  1
