# generated using pymatgen
data_AcHfF7
_symmetry_space_group_name_H-M   'P 1'
_cell_length_a   6.04398500
_cell_length_b   6.48157972
_cell_length_c   8.75750056
_cell_angle_alpha   78.28003899
_cell_angle_beta   90.00000000
_cell_angle_gamma   90.00000000
_symmetry_Int_Tables_number   1
_chemical_formula_structural   AcHfF7
_chemical_formula_sum   'Ac2 Hf2 F14'
_cell_volume   335.91900843
_cell_formula_units_Z   2
loop_
 _symmetry_equiv_pos_site_id
 _symmetry_equiv_pos_as_xyz
  1  'x, y, z'
loop_
 _atom_site_type_symbol
 _atom_site_label
 _atom_site_symmetry_multiplicity
 _atom_site_fract_x
 _atom_site_fract_y
 _atom_site_fract_z
 _atom_site_occupancy
  Ac  Ac0  1  0.201139  0.662484  0.309648  1
  Ac  Ac1  1  0.701139  0.337516  0.690352  1
  Hf  Hf2  1  0.210478  0.809093  0.776641  1
  Hf  Hf3  1  0.710478  0.190907  0.223359  1
  F  F4  1  0.381634  0.442035  0.527434  1
  F  F5  1  0.881634  0.557965  0.472566  1
  F  F6  1  0.920550  0.949786  0.224603  1
  F  F7  1  0.420550  0.050214  0.775397  1
  F  F8  1  0.461771  0.979500  0.241119  1
  F  F9  1  0.961771  0.020500  0.758881  1
  F  F10  1  0.502384  0.434899  0.214257  1
  F  F11  1  0.002384  0.565101  0.785743  1
  F  F12  1  0.200875  0.758259  0.010413  1
  F  F13  1  0.700875  0.241741  0.989587  1
  F  F14  1  0.219563  0.855094  0.542941  1
  F  F15  1  0.719563  0.144906  0.457059  1
  F  F16  1  0.977965  0.378946  0.212702  1
  F  F17  1  0.477965  0.621054  0.787298  1
