# generated using pymatgen
data_Li2CeCl6
_symmetry_space_group_name_H-M   'P 1'
_cell_length_a   6.61882600
_cell_length_b   6.61882597
_cell_length_c   12.42232200
_cell_angle_alpha   90.00000000
_cell_angle_beta   90.00000000
_cell_angle_gamma   119.99999016
_symmetry_Int_Tables_number   1
_chemical_formula_structural   Li2CeCl6
_chemical_formula_sum   'Li4 Ce2 Cl12'
_cell_volume   471.29776859
_cell_formula_units_Z   2
loop_
 _symmetry_equiv_pos_site_id
 _symmetry_equiv_pos_as_xyz
  1  'x, y, z'
loop_
 _atom_site_type_symbol
 _atom_site_label
 _atom_site_symmetry_multiplicity
 _atom_site_fract_x
 _atom_site_fract_y
 _atom_site_fract_z
 _atom_site_occupancy
  Li  Li0  1  0.000000  0.000000  0.750000  1
  Li  Li1  1  0.666667  0.333333  0.750000  1
  Li  Li2  1  0.333333  0.666667  0.250000  1
  Li  Li3  1  0.000000  0.000000  0.250000  1
  Ce  Ce4  1  0.333333  0.666667  0.750000  1
  Ce  Ce5  1  0.666667  0.333333  0.250000  1
  Cl  Cl6  1  0.996442  0.329553  0.636378  1
  Cl  Cl7  1  0.333112  0.003558  0.636378  1
  Cl  Cl8  1  0.670447  0.666888  0.636378  1
  Cl  Cl9  1  0.670447  0.003558  0.863622  1
  Cl  Cl10  1  0.333112  0.329553  0.863622  1
  Cl  Cl11  1  0.996442  0.666888  0.863622  1
  Cl  Cl12  1  0.003558  0.333112  0.136378  1
  Cl  Cl13  1  0.329553  0.996442  0.136378  1
  Cl  Cl14  1  0.666888  0.670447  0.136378  1
  Cl  Cl15  1  0.666888  0.996442  0.363622  1
  Cl  Cl16  1  0.329553  0.333112  0.363622  1
  Cl  Cl17  1  0.003558  0.670447  0.363622  1
