# generated using pymatgen
data_Pr8Er12Si15Ag
_symmetry_space_group_name_H-M   'P 1'
_cell_length_a   7.51481184
_cell_length_b   7.77913915
_cell_length_c   14.82886614
_cell_angle_alpha   89.88171060
_cell_angle_beta   89.46051634
_cell_angle_gamma   90.23126765
_symmetry_Int_Tables_number   1
_chemical_formula_structural   Pr8Er12Si15Ag
_chemical_formula_sum   'Pr8 Er12 Si15 Ag1'
_cell_volume   866.82982602
_cell_formula_units_Z   1
loop_
 _symmetry_equiv_pos_site_id
 _symmetry_equiv_pos_as_xyz
  1  'x, y, z'
loop_
 _atom_site_type_symbol
 _atom_site_label
 _atom_site_symmetry_multiplicity
 _atom_site_fract_x
 _atom_site_fract_y
 _atom_site_fract_z
 _atom_site_occupancy
  Pr  Pr0  1  0.013254  0.172449  0.398605  1
  Pr  Pr1  1  0.518248  0.320468  0.398703  1
  Pr  Pr2  1  0.480441  0.678055  0.902369  1
  Pr  Pr3  1  0.489198  0.681116  0.601199  1
  Pr  Pr4  1  0.984028  0.830232  0.598584  1
  Pr  Pr5  1  0.980789  0.823997  0.902821  1
  Pr  Pr6  1  0.518101  0.322067  0.097841  1
  Pr  Pr7  1  0.019143  0.178514  0.099585  1
  Er  Er8  1  0.336545  0.173985  0.625128  1
  Er  Er9  1  0.668375  0.822205  0.375687  1
  Er  Er10  1  0.662711  0.990920  0.751093  1
  Er  Er11  1  0.170444  0.675055  0.374277  1
  Er  Er12  1  0.825325  0.320696  0.878007  1
  Er  Er13  1  0.824181  0.325423  0.622640  1
  Er  Er14  1  0.840700  0.491853  0.251787  1
  Er  Er15  1  0.340813  0.005003  0.248857  1
  Er  Er16  1  0.324413  0.177577  0.877358  1
  Er  Er17  1  0.173673  0.677485  0.122982  1
  Er  Er18  1  0.675311  0.822969  0.122871  1
  Er  Er19  1  0.160686  0.508044  0.751818  1
  Si  Si20  1  0.278182  0.881284  0.750931  1
  Si  Si21  1  0.466962  0.614174  0.247933  1
  Si  Si22  1  0.034551  0.120180  0.750966  1
  Si  Si23  1  0.534972  0.386448  0.752109  1
  Si  Si24  1  0.967029  0.883351  0.249388  1
  Si  Si25  1  0.719324  0.120818  0.248130  1
  Si  Si26  1  0.850998  0.533525  0.038873  1
  Si  Si27  1  0.350813  0.967140  0.039671  1
  Si  Si28  1  0.146923  0.467097  0.961786  1
  Si  Si29  1  0.653226  0.034278  0.537936  1
  Si  Si30  1  0.344722  0.964279  0.461238  1
  Si  Si31  1  0.839946  0.536124  0.458212  1
  Si  Si32  1  0.780739  0.620261  0.752523  1
  Si  Si33  1  0.222085  0.376662  0.248849  1
  Si  Si34  1  0.647392  0.032013  0.960572  1
  Ag  Ag35  1  0.155757  0.464254  0.538675  1
