# generated using pymatgen
data_Tb20Si3Ir4Au5
_symmetry_space_group_name_H-M   'P 1'
_cell_length_a   7.61173769
_cell_length_b   8.89940756
_cell_length_c   12.06791778
_cell_angle_alpha   91.26960566
_cell_angle_beta   89.98115388
_cell_angle_gamma   89.88979297
_symmetry_Int_Tables_number   1
_chemical_formula_structural   Tb20Si3Ir4Au5
_chemical_formula_sum   'Tb20 Si3 Ir4 Au5'
_cell_volume   817.27796222
_cell_formula_units_Z   1
loop_
 _symmetry_equiv_pos_site_id
 _symmetry_equiv_pos_as_xyz
  1  'x, y, z'
loop_
 _atom_site_type_symbol
 _atom_site_label
 _atom_site_symmetry_multiplicity
 _atom_site_fract_x
 _atom_site_fract_y
 _atom_site_fract_z
 _atom_site_occupancy
  Tb  Tb0  1  0.669204  0.737421  0.721209  1
  Tb  Tb1  1  0.335401  0.255250  0.275784  1
  Tb  Tb2  1  0.166268  0.261967  0.781749  1
  Tb  Tb3  1  0.830741  0.739669  0.219461  1
  Tb  Tb4  1  0.141126  0.737119  0.807330  1
  Tb  Tb5  1  0.856568  0.257625  0.192367  1
  Tb  Tb6  1  0.641377  0.263683  0.693517  1
  Tb  Tb7  1  0.360985  0.742942  0.306206  1
  Tb  Tb8  1  0.540929  0.740714  0.999937  1
  Tb  Tb9  1  0.460497  0.260512  0.997784  1
  Tb  Tb10  1  0.041010  0.253809  0.499259  1
  Tb  Tb11  1  0.957184  0.747690  0.503009  1
  Tb  Tb12  1  0.818740  0.465381  0.920914  1
  Tb  Tb13  1  0.181701  0.535456  0.079685  1
  Tb  Tb14  1  0.319732  0.533871  0.582786  1
  Tb  Tb15  1  0.175230  0.966110  0.085483  1
  Tb  Tb16  1  0.675612  0.467144  0.419599  1
  Tb  Tb17  1  0.824309  0.031957  0.911623  1
  Tb  Tb18  1  0.672881  0.032191  0.413378  1
  Tb  Tb19  1  0.325791  0.969701  0.590435  1
  Si  Si20  1  0.942555  0.494719  0.671699  1
  Si  Si21  1  0.560301  0.493786  0.167733  1
  Si  Si22  1  0.442291  0.504532  0.828781  1
  Ir  Ir23  1  0.929717  0.751216  0.995057  1
  Ir  Ir24  1  0.069231  0.249049  0.006004  1
  Ir  Ir25  1  0.429906  0.249994  0.503055  1
  Ir  Ir26  1  0.567632  0.751945  0.496144  1
  Au  Au27  1  0.935084  0.010200  0.667424  1
  Au  Au28  1  0.063776  0.988504  0.334522  1
  Au  Au29  1  0.434707  0.990369  0.837945  1
  Au  Au30  1  0.062557  0.506188  0.329394  1
  Au  Au31  1  0.566956  0.009286  0.160729  1
