# generated using pymatgen
data_TmLu7Sc12(Ga7Si)2
_symmetry_space_group_name_H-M   'P 1'
_cell_length_a   7.18962914
_cell_length_b   7.42600008
_cell_length_c   14.38442408
_cell_angle_alpha   90.01208305
_cell_angle_beta   90.00240110
_cell_angle_gamma   90.23384700
_symmetry_Int_Tables_number   1
_chemical_formula_structural   TmLu7Sc12(Ga7Si)2
_chemical_formula_sum   'Tm1 Lu7 Sc12 Ga14 Si2'
_cell_volume   767.98067151
_cell_formula_units_Z   1
loop_
 _symmetry_equiv_pos_site_id
 _symmetry_equiv_pos_as_xyz
  1  'x, y, z'
loop_
 _atom_site_type_symbol
 _atom_site_label
 _atom_site_symmetry_multiplicity
 _atom_site_fract_x
 _atom_site_fract_y
 _atom_site_fract_z
 _atom_site_occupancy
  Tm  Tm0  1  0.489206  0.677915  0.595467  1
  Lu  Lu1  1  0.013000  0.179179  0.096282  1
  Lu  Lu2  1  0.987003  0.820843  0.903739  1
  Lu  Lu3  1  0.489209  0.678067  0.904431  1
  Lu  Lu4  1  0.987019  0.820865  0.596298  1
  Lu  Lu5  1  0.510795  0.321959  0.095523  1
  Lu  Lu6  1  0.012960  0.179233  0.403678  1
  Lu  Lu7  1  0.510803  0.321893  0.404410  1
  Sc  Sc8  1  0.160879  0.504579  0.750067  1
  Sc  Sc9  1  0.839038  0.495315  0.249989  1
  Sc  Sc10  1  0.336668  0.006741  0.250014  1
  Sc  Sc11  1  0.663350  0.993419  0.750056  1
  Sc  Sc12  1  0.331144  0.174417  0.622933  1
  Sc  Sc13  1  0.668872  0.825569  0.377015  1
  Sc  Sc14  1  0.170673  0.671613  0.376195  1
  Sc  Sc15  1  0.668824  0.825531  0.122929  1
  Sc  Sc16  1  0.829431  0.328327  0.623795  1
  Sc  Sc17  1  0.331203  0.174481  0.877114  1
  Sc  Sc18  1  0.829319  0.328337  0.876252  1
  Sc  Sc19  1  0.170708  0.671611  0.123822  1
  Ga  Ga20  1  0.032417  0.117008  0.750009  1
  Ga  Ga21  1  0.967566  0.883038  0.249994  1
  Ga  Ga22  1  0.467393  0.611670  0.249990  1
  Ga  Ga23  1  0.532592  0.388218  0.750047  1
  Ga  Ga24  1  0.285426  0.870299  0.750071  1
  Ga  Ga25  1  0.714479  0.129817  0.250008  1
  Ga  Ga26  1  0.160044  0.465799  0.540479  1
  Ga  Ga27  1  0.839814  0.534078  0.459443  1
  Ga  Ga28  1  0.338151  0.965340  0.459093  1
  Ga  Ga29  1  0.839734  0.534042  0.040547  1
  Ga  Ga30  1  0.661895  0.034935  0.540803  1
  Ga  Ga31  1  0.160274  0.465917  0.959454  1
  Ga  Ga32  1  0.661832  0.034728  0.959157  1
  Ga  Ga33  1  0.338156  0.965260  0.040855  1
  Si  Si34  1  0.215074  0.372442  0.249978  1
  Si  Si35  1  0.785052  0.627513  0.750066  1
