# generated using pymatgen
data_SmGd4(TcB3)2
_symmetry_space_group_name_H-M   'P 1'
_cell_length_a   5.53346561
_cell_length_b   5.53346518
_cell_length_c   8.57720600
_cell_angle_alpha   71.18169982
_cell_angle_beta   71.18169041
_cell_angle_gamma   59.99999052
_symmetry_Int_Tables_number   1
_chemical_formula_structural   SmGd4(TcB3)2
_chemical_formula_sum   'Sm1 Gd4 Tc2 B6'
_cell_volume   211.07635551
_cell_formula_units_Z   1
loop_
 _symmetry_equiv_pos_site_id
 _symmetry_equiv_pos_as_xyz
  1  'x, y, z'
loop_
 _atom_site_type_symbol
 _atom_site_label
 _atom_site_symmetry_multiplicity
 _atom_site_fract_x
 _atom_site_fract_y
 _atom_site_fract_z
 _atom_site_occupancy
  Sm  Sm0  1  0.000000  0.000000  0.000000  1
  Gd  Gd1  1  0.248189  0.248189  0.255432  1
  Gd  Gd2  1  0.751811  0.751811  0.744568  1
  Gd  Gd3  1  0.418330  0.418330  0.745007  1
  Gd  Gd4  1  0.581670  0.581670  0.254993  1
  Tc  Tc5  1  0.112002  0.112002  0.663995  1
  Tc  Tc6  1  0.887998  0.887998  0.336005  1
  B  B7  1  0.170684  0.829316  0.500000  1
  B  B8  1  0.829316  0.500000  0.500000  1
  B  B9  1  0.500000  0.170684  0.500000  1
  B  B10  1  0.170684  0.500000  0.500000  1
  B  B11  1  0.500000  0.829316  0.500000  1
  B  B12  1  0.829316  0.170684  0.500000  1
