# generated using pymatgen
data_Nb4Co6ReSi
_symmetry_space_group_name_H-M   'P 1'
_cell_length_a   4.87580600
_cell_length_b   4.87580699
_cell_length_c   7.76404500
_cell_angle_alpha   90.00000000
_cell_angle_beta   90.00000000
_cell_angle_gamma   119.99999330
_symmetry_Int_Tables_number   1
_chemical_formula_structural   Nb4Co6ReSi
_chemical_formula_sum   'Nb4 Co6 Re1 Si1'
_cell_volume   159.84962719
_cell_formula_units_Z   1
loop_
 _symmetry_equiv_pos_site_id
 _symmetry_equiv_pos_as_xyz
  1  'x, y, z'
loop_
 _atom_site_type_symbol
 _atom_site_label
 _atom_site_symmetry_multiplicity
 _atom_site_fract_x
 _atom_site_fract_y
 _atom_site_fract_z
 _atom_site_occupancy
  Nb  Nb0  1  0.666667  0.333333  0.920333  1
  Nb  Nb1  1  0.333333  0.666667  0.452989  1
  Nb  Nb2  1  0.666667  0.333333  0.547011  1
  Nb  Nb3  1  0.333333  0.666667  0.079667  1
  Co  Co4  1  0.171597  0.828403  0.759792  1
  Co  Co5  1  0.656806  0.828403  0.759792  1
  Co  Co6  1  0.828403  0.171597  0.240208  1
  Co  Co7  1  0.171597  0.343194  0.759792  1
  Co  Co8  1  0.828403  0.656806  0.240208  1
  Co  Co9  1  0.343194  0.171597  0.240208  1
  Re  Re10  1  0.000000  0.000000  0.500000  1
  Si  Si11  1  0.000000  0.000000  0.000000  1
