# generated using pymatgen
data_Er3Al3CuSiPt
_symmetry_space_group_name_H-M   'P 1'
_cell_length_a   6.93555500
_cell_length_b   6.93555404
_cell_length_c   4.13227000
_cell_angle_alpha   90.00000000
_cell_angle_beta   90.00000000
_cell_angle_gamma   119.99999981
_symmetry_Int_Tables_number   1
_chemical_formula_structural   Er3Al3CuSiPt
_chemical_formula_sum   'Er3 Al3 Cu1 Si1 Pt1'
_cell_volume   172.13996208
_cell_formula_units_Z   1
loop_
 _symmetry_equiv_pos_site_id
 _symmetry_equiv_pos_as_xyz
  1  'x, y, z'
loop_
 _atom_site_type_symbol
 _atom_site_label
 _atom_site_symmetry_multiplicity
 _atom_site_fract_x
 _atom_site_fract_y
 _atom_site_fract_z
 _atom_site_occupancy
  Er  Er0  1  0.421687  0.003139  0.000000  1
  Er  Er1  1  0.996861  0.418546  0.000000  1
  Er  Er2  1  0.581453  0.578313  0.000000  1
  Al  Al3  1  0.764076  0.010265  0.499999  1
  Al  Al4  1  0.246190  0.235925  0.499999  1
  Al  Al5  1  0.989735  0.753810  0.499999  1
  Cu  Cu6  1  0.666667  0.333333  0.499999  1
  Si  Si7  1  0.333334  0.666667  0.499999  1
  Pt  Pt8  1  0.000000  0.000000  0.000000  1
