# generated using pymatgen
data_DyY(Lu2Rh9)2
_symmetry_space_group_name_H-M   'P 1'
_cell_length_a   5.24100500
_cell_length_b   5.24100607
_cell_length_c   17.47413300
_cell_angle_alpha   90.00000000
_cell_angle_beta   90.00000000
_cell_angle_gamma   119.99998691
_symmetry_Int_Tables_number   1
_chemical_formula_structural   DyY(Lu2Rh9)2
_chemical_formula_sum   'Dy1 Y1 Lu4 Rh18'
_cell_volume   415.67658641
_cell_formula_units_Z   1
loop_
 _symmetry_equiv_pos_site_id
 _symmetry_equiv_pos_as_xyz
  1  'x, y, z'
loop_
 _atom_site_type_symbol
 _atom_site_label
 _atom_site_symmetry_multiplicity
 _atom_site_fract_x
 _atom_site_fract_y
 _atom_site_fract_z
 _atom_site_occupancy
  Dy  Dy0  1  0.333333  0.666667  0.750000  1
  Y  Y1  1  0.666667  0.333333  0.250000  1
  Lu  Lu2  1  0.333333  0.666667  0.958754  1
  Lu  Lu3  1  0.666667  0.333333  0.041229  1
  Lu  Lu4  1  0.666667  0.333333  0.458771  1
  Lu  Lu5  1  0.333333  0.666667  0.541246  1
  Rh  Rh6  1  0.167605  0.832395  0.375613  1
  Rh  Rh7  1  0.167605  0.335210  0.375613  1
  Rh  Rh8  1  0.664790  0.832395  0.375613  1
  Rh  Rh9  1  0.832401  0.167599  0.624395  1
  Rh  Rh10  1  0.832401  0.664800  0.624395  1
  Rh  Rh11  1  0.335200  0.167599  0.624395  1
  Rh  Rh12  1  0.832401  0.167599  0.875605  1
  Rh  Rh13  1  0.832401  0.664800  0.875605  1
  Rh  Rh14  1  0.335200  0.167599  0.875605  1
  Rh  Rh15  1  0.167605  0.832395  0.124387  1
  Rh  Rh16  1  0.167605  0.335210  0.124387  1
  Rh  Rh17  1  0.664790  0.832395  0.124387  1
  Rh  Rh18  1  0.333333  0.666667  0.250000  1
  Rh  Rh19  1  0.666667  0.333333  0.750000  1
  Rh  Rh20  1  0.000000  0.000000  0.250000  1
  Rh  Rh21  1  0.000000  0.000000  0.750000  1
  Rh  Rh22  1  0.000000  0.000000  0.499998  1
  Rh  Rh23  1  0.000000  0.000000  0.000002  1
