# generated using pymatgen
data_Er3Tm(Si5Os3)2
_symmetry_space_group_name_H-M   'P 1'
_cell_length_a   8.12163528
_cell_length_b   8.12131027
_cell_length_c   5.77008406
_cell_angle_alpha   70.60260170
_cell_angle_beta   70.60207586
_cell_angle_gamma   94.13757231
_symmetry_Int_Tables_number   1
_chemical_formula_structural   Er3Tm(Si5Os3)2
_chemical_formula_sum   'Er3 Tm1 Si10 Os6'
_cell_volume   331.40761217
_cell_formula_units_Z   1
loop_
 _symmetry_equiv_pos_site_id
 _symmetry_equiv_pos_as_xyz
  1  'x, y, z'
loop_
 _atom_site_type_symbol
 _atom_site_label
 _atom_site_symmetry_multiplicity
 _atom_site_fract_x
 _atom_site_fract_y
 _atom_site_fract_z
 _atom_site_occupancy
  Er  Er0  1  0.869074  0.600878  0.753214  1
  Er  Er1  1  0.399106  0.130877  0.746843  1
  Er  Er2  1  0.130910  0.399123  0.246786  1
  Tm  Tm3  1  0.600979  0.869137  0.253161  1
  Si  Si4  1  0.068775  0.261859  0.833116  1
  Si  Si5  1  0.738080  0.931182  0.666952  1
  Si  Si6  1  0.931122  0.738160  0.166911  1
  Si  Si7  1  0.261886  0.068770  0.333101  1
  Si  Si8  1  0.205871  0.794123  0.750005  1
  Si  Si9  1  0.794084  0.205799  0.249989  1
  Si  Si10  1  0.512665  0.487367  0.749966  1
  Si  Si11  1  0.487364  0.512755  0.249992  1
  Si  Si12  1  0.775282  0.224647  0.750081  1
  Si  Si13  1  0.224730  0.775308  0.249999  1
  Os  Os14  1  0.255416  0.544387  0.630975  1
  Os  Os15  1  0.455819  0.744760  0.868798  1
  Os  Os16  1  0.744644  0.455724  0.368941  1
  Os  Os17  1  0.544315  0.255156  0.131120  1
  Os  Os18  1  0.002368  0.997574  0.750031  1
  Os  Os19  1  0.997509  0.002412  0.250017  1
