# generated using pymatgen
data_La19NdIr12
_symmetry_space_group_name_H-M   'P 1'
_cell_length_a   11.38737000
_cell_length_b   11.38737000
_cell_length_c   6.75350000
_cell_angle_alpha   90.00000000
_cell_angle_beta   90.00000000
_cell_angle_gamma   90.00000000
_symmetry_Int_Tables_number   1
_chemical_formula_structural   La19NdIr12
_chemical_formula_sum   'La19 Nd1 Ir12'
_cell_volume   875.74117242
_cell_formula_units_Z   1
loop_
 _symmetry_equiv_pos_site_id
 _symmetry_equiv_pos_as_xyz
  1  'x, y, z'
loop_
 _atom_site_type_symbol
 _atom_site_label
 _atom_site_symmetry_multiplicity
 _atom_site_fract_x
 _atom_site_fract_y
 _atom_site_fract_z
 _atom_site_occupancy
  La  La0  1  0.091358  0.292395  0.107981  1
  La  La1  1  0.793002  0.408437  0.106764  1
  La  La2  1  0.206998  0.591563  0.106764  1
  La  La3  1  0.908642  0.707605  0.107981  1
  La  La4  1  0.407460  0.792918  0.391945  1
  La  La5  1  0.592540  0.207082  0.391945  1
  La  La6  1  0.291947  0.092194  0.393914  1
  La  La7  1  0.708053  0.907806  0.393914  1
  La  La8  1  0.408437  0.206998  0.893236  1
  La  La9  1  0.707605  0.091358  0.892019  1
  La  La10  1  0.292395  0.908642  0.892019  1
  La  La11  1  0.591563  0.793002  0.893236  1
  La  La12  1  0.092194  0.708053  0.606086  1
  La  La13  1  0.907806  0.291947  0.606086  1
  La  La14  1  0.207082  0.407460  0.608055  1
  La  La15  1  0.792918  0.592540  0.608055  1
  La  La16  1  0.000000  0.000000  0.000000  1
  La  La17  1  0.500000  0.500000  0.000000  1
  La  La18  1  0.500000  0.500000  0.500000  1
  Nd  Nd19  1  0.000000  0.000000  0.500000  1
  Ir  Ir20  1  0.152935  0.846737  0.249615  1
  Ir  Ir21  1  0.346763  0.346693  0.250152  1
  Ir  Ir22  1  0.653237  0.653307  0.250152  1
  Ir  Ir23  1  0.847065  0.153263  0.249615  1
  Ir  Ir24  1  0.346693  0.653237  0.749848  1
  Ir  Ir25  1  0.153263  0.152935  0.750385  1
  Ir  Ir26  1  0.846737  0.847065  0.750385  1
  Ir  Ir27  1  0.653307  0.346763  0.749848  1
  Ir  Ir28  1  0.000000  0.500000  0.378223  1
  Ir  Ir29  1  0.500000  0.000000  0.122943  1
  Ir  Ir30  1  0.500000  0.000000  0.621777  1
  Ir  Ir31  1  0.000000  0.500000  0.877057  1
