# generated using pymatgen
data_Ce3InSn2Rh3
_symmetry_space_group_name_H-M   'P 1'
_cell_length_a   7.50419301
_cell_length_b   7.50419223
_cell_length_c   4.07499500
_cell_angle_alpha   90.00000000
_cell_angle_beta   90.00000000
_cell_angle_gamma   120.00516289
_symmetry_Int_Tables_number   1
_chemical_formula_structural   Ce3InSn2Rh3
_chemical_formula_sum   'Ce3 In1 Sn2 Rh3'
_cell_volume   198.72067862
_cell_formula_units_Z   1
loop_
 _symmetry_equiv_pos_site_id
 _symmetry_equiv_pos_as_xyz
  1  'x, y, z'
loop_
 _atom_site_type_symbol
 _atom_site_label
 _atom_site_symmetry_multiplicity
 _atom_site_fract_x
 _atom_site_fract_y
 _atom_site_fract_z
 _atom_site_occupancy
  Ce  Ce0  1  0.999463  0.412732  0.000000  1
  Ce  Ce1  1  0.587462  0.587462  0.000000  1
  Ce  Ce2  1  0.412732  0.999463  0.000000  1
  In  In3  1  0.252729  0.252729  0.500000  1
  Sn  Sn4  1  0.001999  0.748934  0.500000  1
  Sn  Sn5  1  0.748934  0.001999  0.500000  1
  Rh  Rh6  1  0.670823  0.334563  0.500000  1
  Rh  Rh7  1  0.334563  0.670823  0.500000  1
  Rh  Rh8  1  0.991296  0.991296  0.000000  1
