# generated using pymatgen
data_DyTm3Pt4F28
_symmetry_space_group_name_H-M   'P 1'
_cell_length_a   5.50603750
_cell_length_b   8.80923006
_cell_length_c   11.91238479
_cell_angle_alpha   62.55881484
_cell_angle_beta   90.04885825
_cell_angle_gamma   90.02063128
_symmetry_Int_Tables_number   1
_chemical_formula_structural   DyTm3Pt4F28
_chemical_formula_sum   'Dy1 Tm3 Pt4 F28'
_cell_volume   512.78625897
_cell_formula_units_Z   1
loop_
 _symmetry_equiv_pos_site_id
 _symmetry_equiv_pos_as_xyz
  1  'x, y, z'
loop_
 _atom_site_type_symbol
 _atom_site_label
 _atom_site_symmetry_multiplicity
 _atom_site_fract_x
 _atom_site_fract_y
 _atom_site_fract_z
 _atom_site_occupancy
  Dy  Dy0  1  0.738997  0.815204  0.264374  1
  Tm  Tm1  1  0.761070  0.815494  0.763958  1
  Tm  Tm2  1  0.261236  0.184599  0.736115  1
  Tm  Tm3  1  0.238815  0.186770  0.235755  1
  Pt  Pt4  1  0.759369  0.273183  0.956364  1
  Pt  Pt5  1  0.258827  0.727300  0.544202  1
  Pt  Pt6  1  0.241175  0.727415  0.041825  1
  Pt  Pt7  1  0.740845  0.271012  0.457607  1
  F  F8  1  0.438982  0.703160  0.913763  1
  F  F9  1  0.938787  0.296313  0.585391  1
  F  F10  1  0.561956  0.297058  0.084782  1
  F  F11  1  0.063428  0.702443  0.415730  1
  F  F12  1  0.438367  0.276714  0.544675  1
  F  F13  1  0.937348  0.722918  0.955142  1
  F  F14  1  0.560876  0.721340  0.458056  1
  F  F15  1  0.061899  0.277788  0.043950  1
  F  F16  1  0.774617  0.524321  0.857460  1
  F  F17  1  0.274242  0.475868  0.642823  1
  F  F18  1  0.225522  0.476410  0.141935  1
  F  F19  1  0.725237  0.521338  0.358276  1
  F  F20  1  0.754507  0.022785  0.049937  1
  F  F21  1  0.254845  0.978034  0.449121  1
  F  F22  1  0.245629  0.978224  0.948093  1
  F  F23  1  0.745511  0.020319  0.552077  1
  F  F24  1  0.963816  0.725679  0.637848  1
  F  F25  1  0.464702  0.274560  0.862255  1
  F  F26  1  0.035181  0.274336  0.362902  1
  F  F27  1  0.535269  0.724347  0.135959  1
  F  F28  1  0.052299  0.745196  0.175471  1
  F  F29  1  0.548810  0.253337  0.324077  1
  F  F30  1  0.951647  0.254000  0.823586  1
  F  F31  1  0.451159  0.746335  0.676881  1
  F  F32  1  0.412105  0.972937  0.232265  1
  F  F33  1  0.918334  0.033066  0.267350  1
  F  F34  1  0.582183  0.029044  0.767036  1
  F  F35  1  0.082408  0.971152  0.732961  1
