# generated using pymatgen
data_NdMnSiIrPt
_symmetry_space_group_name_H-M   'P 1'
_cell_length_a   4.13416400
_cell_length_b   4.13416400
_cell_length_c   10.65853000
_cell_angle_alpha   90.00000000
_cell_angle_beta   90.00000000
_cell_angle_gamma   90.00000000
_symmetry_Int_Tables_number   1
_chemical_formula_structural   NdMnSiIrPt
_chemical_formula_sum   'Nd2 Mn2 Si2 Ir2 Pt2'
_cell_volume   182.16826147
_cell_formula_units_Z   2
loop_
 _symmetry_equiv_pos_site_id
 _symmetry_equiv_pos_as_xyz
  1  'x, y, z'
loop_
 _atom_site_type_symbol
 _atom_site_label
 _atom_site_symmetry_multiplicity
 _atom_site_fract_x
 _atom_site_fract_y
 _atom_site_fract_z
 _atom_site_occupancy
  Nd  Nd0  1  0.000000  0.500000  0.240121  1
  Nd  Nd1  1  0.500000  0.000000  0.759879  1
  Mn  Mn2  1  0.000000  0.000000  0.500000  1
  Mn  Mn3  1  0.500000  0.500000  0.500000  1
  Si  Si4  1  0.000000  0.500000  0.878710  1
  Si  Si5  1  0.500000  0.000000  0.121290  1
  Ir  Ir6  1  0.000000  0.000000  0.000000  1
  Ir  Ir7  1  0.500000  0.500000  0.000000  1
  Pt  Pt8  1  0.000000  0.500000  0.649946  1
  Pt  Pt9  1  0.500000  0.000000  0.350054  1
