# generated using pymatgen
data_Tm12AlFe4Au
_symmetry_space_group_name_H-M   'P 1'
_cell_length_a   8.20417173
_cell_length_b   8.20417172
_cell_length_c   8.20417117
_cell_angle_alpha   110.82281364
_cell_angle_beta   110.79240651
_cell_angle_gamma   106.83027696
_symmetry_Int_Tables_number   1
_chemical_formula_structural   Tm12AlFe4Au
_chemical_formula_sum   'Tm12 Al1 Fe4 Au1'
_cell_volume   424.41798108
_cell_formula_units_Z   1
loop_
 _symmetry_equiv_pos_site_id
 _symmetry_equiv_pos_as_xyz
  1  'x, y, z'
loop_
 _atom_site_type_symbol
 _atom_site_label
 _atom_site_symmetry_multiplicity
 _atom_site_fract_x
 _atom_site_fract_y
 _atom_site_fract_z
 _atom_site_occupancy
  Tm  Tm0  1  0.569258  0.273314  0.295944  1
  Tm  Tm1  1  0.187755  0.211980  0.399734  1
  Tm  Tm2  1  0.187755  0.788020  0.975776  1
  Tm  Tm3  1  0.684958  0.483714  0.798756  1
  Tm  Tm4  1  0.684958  0.886201  0.201244  1
  Tm  Tm5  1  0.977370  0.273314  0.704056  1
  Tm  Tm6  1  0.022630  0.726686  0.295944  1
  Tm  Tm7  1  0.315042  0.113799  0.798756  1
  Tm  Tm8  1  0.315042  0.516286  0.201244  1
  Tm  Tm9  1  0.812245  0.211980  0.024224  1
  Tm  Tm10  1  0.812245  0.788020  0.600266  1
  Tm  Tm11  1  0.430742  0.726686  0.704056  1
  Al  Al12  1  0.500000  0.000000  0.500000  1
  Fe  Fe13  1  0.890337  0.890337  0.000000  1
  Fe  Fe14  1  0.382912  0.500000  0.882912  1
  Fe  Fe15  1  0.617088  0.500000  0.117088  1
  Fe  Fe16  1  0.109663  0.109663  0.000000  1
  Au  Au17  1  0.000000  0.500000  0.500000  1
