# generated using pymatgen
data_Nd3Al12NiRu2Pt
_symmetry_space_group_name_H-M   'P 1'
_cell_length_a   8.91162573
_cell_length_b   8.87692438
_cell_length_c   9.60505800
_cell_angle_alpha   90.00000000
_cell_angle_beta   90.00000000
_cell_angle_gamma   119.44047664
_symmetry_Int_Tables_number   1
_chemical_formula_structural   Nd3Al12NiRu2Pt
_chemical_formula_sum   'Nd6 Al24 Ni2 Ru4 Pt2'
_cell_volume   661.71530915
_cell_formula_units_Z   2
loop_
 _symmetry_equiv_pos_site_id
 _symmetry_equiv_pos_as_xyz
  1  'x, y, z'
loop_
 _atom_site_type_symbol
 _atom_site_label
 _atom_site_symmetry_multiplicity
 _atom_site_fract_x
 _atom_site_fract_y
 _atom_site_fract_z
 _atom_site_occupancy
  Nd  Nd0  1  0.188663  0.380331  0.250000  1
  Nd  Nd1  1  0.811337  0.619669  0.750000  1
  Nd  Nd2  1  0.619047  0.808890  0.250000  1
  Nd  Nd3  1  0.380953  0.191110  0.750000  1
  Nd  Nd4  1  0.189038  0.806388  0.250000  1
  Nd  Nd5  1  0.810962  0.193612  0.750000  1
  Al  Al6  1  0.331212  0.660095  0.022475  1
  Al  Al7  1  0.668788  0.339905  0.977525  1
  Al  Al8  1  0.668788  0.339905  0.522475  1
  Al  Al9  1  0.331212  0.660095  0.477525  1
  Al  Al10  1  0.162132  0.327507  0.575484  1
  Al  Al11  1  0.837868  0.672493  0.424516  1
  Al  Al12  1  0.674196  0.832536  0.573693  1
  Al  Al13  1  0.837868  0.672493  0.075484  1
  Al  Al14  1  0.325804  0.167464  0.426307  1
  Al  Al15  1  0.162132  0.327507  0.924516  1
  Al  Al16  1  0.158987  0.832040  0.576747  1
  Al  Al17  1  0.325804  0.167464  0.073693  1
  Al  Al18  1  0.841013  0.167960  0.423253  1
  Al  Al19  1  0.674196  0.832536  0.926307  1
  Al  Al20  1  0.841013  0.167960  0.076747  1
  Al  Al21  1  0.158987  0.832040  0.923253  1
  Al  Al22  1  0.565206  0.130202  0.250000  1
  Al  Al23  1  0.434794  0.869798  0.750000  1
  Al  Al24  1  0.873741  0.436827  0.250000  1
  Al  Al25  1  0.126259  0.563173  0.750000  1
  Al  Al26  1  0.560349  0.439666  0.250000  1
  Al  Al27  1  0.439651  0.560334  0.750000  1
  Al  Al28  1  0.995123  0.998098  0.250000  1
  Al  Al29  1  0.004877  0.001902  0.750000  1
  Ni  Ni30  1  0.500000  0.500000  0.000000  1
  Ni  Ni31  1  0.500000  0.500000  0.500000  1
  Ru  Ru32  1  0.000000  0.500000  0.000000  1
  Ru  Ru33  1  0.000000  0.500000  0.500000  1
  Ru  Ru34  1  0.000000  0.000000  0.000000  1
  Ru  Ru35  1  0.000000  0.000000  0.500000  1
  Pt  Pt36  1  0.500000  0.000000  0.000000  1
  Pt  Pt37  1  0.500000  0.000000  0.500000  1
