# generated using pymatgen
data_Pr4C5
_symmetry_space_group_name_H-M   'P 1'
_cell_length_a   3.91611000
_cell_length_b   7.00189200
_cell_length_c   12.54003200
_cell_angle_alpha   90.00000000
_cell_angle_beta   90.00000000
_cell_angle_gamma   90.00000000
_symmetry_Int_Tables_number   1
_chemical_formula_structural   Pr4C5
_chemical_formula_sum   'Pr8 C10'
_cell_volume   343.84992562
_cell_formula_units_Z   2
loop_
 _symmetry_equiv_pos_site_id
 _symmetry_equiv_pos_as_xyz
  1  'x, y, z'
loop_
 _atom_site_type_symbol
 _atom_site_label
 _atom_site_symmetry_multiplicity
 _atom_site_fract_x
 _atom_site_fract_y
 _atom_site_fract_z
 _atom_site_occupancy
  Pr  Pr0  1  0.000000  0.252337  0.541817  1
  Pr  Pr1  1  0.000000  0.747663  0.458183  1
  Pr  Pr2  1  0.000000  0.752337  0.958183  1
  Pr  Pr3  1  0.000000  0.247663  0.041817  1
  Pr  Pr4  1  0.500000  0.106172  0.802764  1
  Pr  Pr5  1  0.500000  0.893828  0.197236  1
  Pr  Pr6  1  0.500000  0.606172  0.697236  1
  Pr  Pr7  1  0.500000  0.393828  0.302764  1
  C  C8  1  0.500000  0.500000  0.500000  1
  C  C9  1  0.500000  0.000000  0.000000  1
  C  C10  1  0.000000  0.362088  0.737780  1
  C  C11  1  0.000000  0.637912  0.262220  1
  C  C12  1  0.000000  0.862088  0.762220  1
  C  C13  1  0.000000  0.137912  0.237780  1
  C  C14  1  0.000000  0.400738  0.840436  1
  C  C15  1  0.000000  0.599262  0.159564  1
  C  C16  1  0.000000  0.099262  0.340436  1
  C  C17  1  0.000000  0.900738  0.659564  1
