# generated using pymatgen
data_Y2Pu(SnIr)3
_symmetry_space_group_name_H-M   'P 1'
_cell_length_a   7.60140100
_cell_length_b   7.40040226
_cell_length_c   3.96061400
_cell_angle_alpha   90.00000000
_cell_angle_beta   90.00000000
_cell_angle_gamma   120.90260006
_symmetry_Int_Tables_number   1
_chemical_formula_structural   Y2Pu(SnIr)3
_chemical_formula_sum   'Y2 Pu1 Sn3 Ir3'
_cell_volume   191.17004103
_cell_formula_units_Z   1
loop_
 _symmetry_equiv_pos_site_id
 _symmetry_equiv_pos_as_xyz
  1  'x, y, z'
loop_
 _atom_site_type_symbol
 _atom_site_label
 _atom_site_symmetry_multiplicity
 _atom_site_fract_x
 _atom_site_fract_y
 _atom_site_fract_z
 _atom_site_occupancy
  Y  Y0  1  0.001418  0.407676  0.500001  1
  Y  Y1  1  0.593741  0.592323  0.500001  1
  Pu  Pu2  1  0.416343  0.000000  0.500001  1
  Sn  Sn3  1  0.754523  0.000000  0.000000  1
  Sn  Sn4  1  0.257625  0.268187  0.000000  1
  Sn  Sn5  1  0.989438  0.731812  0.000000  1
  Ir  Ir6  1  0.639111  0.302498  0.000000  1
  Ir  Ir7  1  0.336614  0.697503  0.000000  1
  Ir  Ir8  1  0.011183  0.000000  0.500001  1
