# generated using pymatgen
data_HoEr4AlPd4
_symmetry_space_group_name_H-M   'P 1'
_cell_length_a   7.74539900
_cell_length_b   7.74539900
_cell_length_c   3.69533600
_cell_angle_alpha   90.00000000
_cell_angle_beta   90.00000000
_cell_angle_gamma   90.00000000
_symmetry_Int_Tables_number   1
_chemical_formula_structural   HoEr4AlPd4
_chemical_formula_sum   'Ho1 Er4 Al1 Pd4'
_cell_volume   221.68766199
_cell_formula_units_Z   1
loop_
 _symmetry_equiv_pos_site_id
 _symmetry_equiv_pos_as_xyz
  1  'x, y, z'
loop_
 _atom_site_type_symbol
 _atom_site_label
 _atom_site_symmetry_multiplicity
 _atom_site_fract_x
 _atom_site_fract_y
 _atom_site_fract_z
 _atom_site_occupancy
  Ho  Ho0  1  0.000000  0.000000  0.000000  1
  Er  Er1  1  0.360954  0.810372  0.500000  1
  Er  Er2  1  0.810372  0.639046  0.500000  1
  Er  Er3  1  0.189628  0.360954  0.500000  1
  Er  Er4  1  0.639046  0.189628  0.500000  1
  Al  Al5  1  0.500000  0.500000  0.000000  1
  Pd  Pd6  1  0.358386  0.126657  0.000000  1
  Pd  Pd7  1  0.873343  0.358386  0.000000  1
  Pd  Pd8  1  0.126657  0.641614  0.000000  1
  Pd  Pd9  1  0.641614  0.873343  0.000000  1
