# generated using pymatgen
data_Ta2V10Si9As
_symmetry_space_group_name_H-M   'P 1'
_cell_length_a   9.21851030
_cell_length_b   9.21851048
_cell_length_c   7.59053953
_cell_angle_alpha   65.79160039
_cell_angle_beta   65.79160149
_cell_angle_gamma   30.63589934
_symmetry_Int_Tables_number   1
_chemical_formula_structural   Ta2V10Si9As
_chemical_formula_sum   'Ta2 V10 Si9 As1'
_cell_volume   297.51728103
_cell_formula_units_Z   1
loop_
 _symmetry_equiv_pos_site_id
 _symmetry_equiv_pos_as_xyz
  1  'x, y, z'
loop_
 _atom_site_type_symbol
 _atom_site_label
 _atom_site_symmetry_multiplicity
 _atom_site_fract_x
 _atom_site_fract_y
 _atom_site_fract_z
 _atom_site_occupancy
  Ta  Ta0  1  0.640419  0.640419  0.751528  1
  Ta  Ta1  1  0.359315  0.359315  0.249926  1
  V  V2  1  0.558597  0.061371  0.690149  1
  V  V3  1  0.941975  0.437627  0.311660  1
  V  V4  1  0.437627  0.941975  0.311660  1
  V  V5  1  0.061371  0.558597  0.690149  1
  V  V6  1  0.938026  0.938026  0.314521  1
  V  V7  1  0.062732  0.062732  0.683431  1
  V  V8  1  0.564861  0.564861  0.187388  1
  V  V9  1  0.435492  0.435492  0.810799  1
  V  V10  1  0.858282  0.858282  0.016482  1
  V  V11  1  0.141852  0.141852  0.980459  1
  Si  Si12  1  0.209391  0.209391  0.596683  1
  Si  Si13  1  0.715081  0.715081  0.994086  1
  Si  Si14  1  0.285220  0.285220  0.006586  1
  Si  Si15  1  0.246511  0.753219  0.999484  1
  Si  Si16  1  0.753219  0.246511  0.999484  1
  Si  Si17  1  0.562883  0.562883  0.520771  1
  Si  Si18  1  0.437510  0.437510  0.477854  1
  Si  Si19  1  0.935971  0.935971  0.651154  1
  Si  Si20  1  0.064272  0.064272  0.347591  1
  As  As21  1  0.789393  0.789393  0.408153  1
