# generated using pymatgen
data_Zr3Ga3OsPd2
_symmetry_space_group_name_H-M   'P 1'
_cell_length_a   7.41033900
_cell_length_b   7.41033890
_cell_length_c   6.69792900
_cell_angle_alpha   90.00000000
_cell_angle_beta   90.00000000
_cell_angle_gamma   119.99999597
_symmetry_Int_Tables_number   1
_chemical_formula_structural   Zr3Ga3OsPd2
_chemical_formula_sum   'Zr6 Ga6 Os2 Pd4'
_cell_volume   318.52779503
_cell_formula_units_Z   2
loop_
 _symmetry_equiv_pos_site_id
 _symmetry_equiv_pos_as_xyz
  1  'x, y, z'
loop_
 _atom_site_type_symbol
 _atom_site_label
 _atom_site_symmetry_multiplicity
 _atom_site_fract_x
 _atom_site_fract_y
 _atom_site_fract_z
 _atom_site_occupancy
  Zr  Zr0  1  0.599979  0.611898  0.250000  1
  Zr  Zr1  1  0.014349  0.400127  0.750000  1
  Zr  Zr2  1  0.388102  0.988081  0.250000  1
  Zr  Zr3  1  0.011919  0.400021  0.250000  1
  Zr  Zr4  1  0.385777  0.985651  0.750000  1
  Zr  Zr5  1  0.599873  0.614223  0.750000  1
  Ga  Ga6  1  0.276910  0.272212  0.499906  1
  Ga  Ga7  1  0.727788  0.004698  0.499906  1
  Ga  Ga8  1  0.995302  0.723090  0.499906  1
  Ga  Ga9  1  0.727788  0.004698  0.000094  1
  Ga  Ga10  1  0.276910  0.272212  0.000094  1
  Ga  Ga11  1  0.995302  0.723090  0.000094  1
  Os  Os12  1  0.333333  0.666667  0.499184  1
  Os  Os13  1  0.333333  0.666667  0.000816  1
  Pd  Pd14  1  0.000000  0.000000  0.750000  1
  Pd  Pd15  1  0.000000  0.000000  0.250000  1
  Pd  Pd16  1  0.666667  0.333333  0.503325  1
  Pd  Pd17  1  0.666667  0.333333  0.996675  1
