# generated using pymatgen
data_Tb3Tm2ThGa4
_symmetry_space_group_name_H-M   'P 1'
_cell_length_a   7.62667177
_cell_length_b   7.62667177
_cell_length_c   4.39592800
_cell_angle_alpha   90.00000000
_cell_angle_beta   90.00000000
_cell_angle_gamma   89.48583911
_symmetry_Int_Tables_number   1
_chemical_formula_structural   Tb3Tm2ThGa4
_chemical_formula_sum   'Tb3 Tm2 Th1 Ga4'
_cell_volume   255.68379034
_cell_formula_units_Z   1
loop_
 _symmetry_equiv_pos_site_id
 _symmetry_equiv_pos_as_xyz
  1  'x, y, z'
loop_
 _atom_site_type_symbol
 _atom_site_label
 _atom_site_symmetry_multiplicity
 _atom_site_fract_x
 _atom_site_fract_y
 _atom_site_fract_z
 _atom_site_occupancy
  Tb  Tb0  1  0.676416  0.176416  0.500000  1
  Tb  Tb1  1  0.175393  0.324923  0.500000  1
  Tb  Tb2  1  0.824923  0.675393  0.500000  1
  Tm  Tm3  1  0.997864  0.001985  0.000000  1
  Tm  Tm4  1  0.501985  0.497864  0.000000  1
  Th  Th5  1  0.325504  0.825504  0.500000  1
  Ga  Ga6  1  0.878559  0.378559  0.000000  1
  Ga  Ga7  1  0.378969  0.122485  0.000000  1
  Ga  Ga8  1  0.622485  0.878969  0.000000  1
  Ga  Ga9  1  0.117902  0.617902  0.000000  1
