# generated using pymatgen
data_Ca3ErRe2(TcB8)2
_symmetry_space_group_name_H-M   'P 1'
_cell_length_a   3.57398000
_cell_length_b   5.99870196
_cell_length_c   11.59265899
_cell_angle_alpha   89.88515635
_cell_angle_beta   90.00000000
_cell_angle_gamma   90.00000000
_symmetry_Int_Tables_number   1
_chemical_formula_structural   Ca3ErRe2(TcB8)2
_chemical_formula_sum   'Ca3 Er1 Re2 Tc2 B16'
_cell_volume   248.53730880
_cell_formula_units_Z   1
loop_
 _symmetry_equiv_pos_site_id
 _symmetry_equiv_pos_as_xyz
  1  'x, y, z'
loop_
 _atom_site_type_symbol
 _atom_site_label
 _atom_site_symmetry_multiplicity
 _atom_site_fract_x
 _atom_site_fract_y
 _atom_site_fract_z
 _atom_site_occupancy
  Ca  Ca0  1  0.500000  0.871590  0.150991  1
  Ca  Ca1  1  0.500000  0.127460  0.849832  1
  Ca  Ca2  1  0.500000  0.372324  0.348854  1
  Er  Er3  1  0.500000  0.628561  0.650234  1
  Re  Re4  1  0.500000  0.369241  0.083148  1
  Re  Re5  1  0.500000  0.629779  0.914975  1
  Tc  Tc6  1  0.500000  0.868907  0.418278  1
  Tc  Tc7  1  0.500000  0.129532  0.584617  1
  B  B8  1  0.000000  0.523025  0.192492  1
  B  B9  1  0.000000  0.477159  0.806463  1
  B  B10  1  0.000000  0.021866  0.308182  1
  B  B11  1  0.000000  0.976361  0.692409  1
  B  B12  1  0.000000  0.614439  0.046940  1
  B  B13  1  0.000000  0.386199  0.951823  1
  B  B14  1  0.000000  0.113627  0.452945  1
  B  B15  1  0.000000  0.887150  0.548021  1
  B  B16  1  0.000000  0.635679  0.469009  1
  B  B17  1  0.000000  0.364782  0.532222  1
  B  B18  1  0.000000  0.134945  0.031677  1
  B  B19  1  0.000000  0.865226  0.967705  1
  B  B20  1  0.000000  0.715924  0.315678  1
  B  B21  1  0.000000  0.286060  0.684306  1
  B  B22  1  0.000000  0.214106  0.184796  1
  B  B23  1  0.000000  0.786059  0.814402  1
