# generated using pymatgen
data_Np4Ta3WN8
_symmetry_space_group_name_H-M   'P 1'
_cell_length_a   3.22792100
_cell_length_b   5.65847865
_cell_length_c   10.95231726
_cell_angle_alpha   90.05496604
_cell_angle_beta   90.00000000
_cell_angle_gamma   90.00000000
_symmetry_Int_Tables_number   1
_chemical_formula_structural   Np4Ta3WN8
_chemical_formula_sum   'Np4 Ta3 W1 N8'
_cell_volume   200.04531960
_cell_formula_units_Z   1
loop_
 _symmetry_equiv_pos_site_id
 _symmetry_equiv_pos_as_xyz
  1  'x, y, z'
loop_
 _atom_site_type_symbol
 _atom_site_label
 _atom_site_symmetry_multiplicity
 _atom_site_fract_x
 _atom_site_fract_y
 _atom_site_fract_z
 _atom_site_occupancy
  Np  Np0  1  0.250000  0.578621  0.859962  1
  Np  Np1  1  0.750000  0.426306  0.140116  1
  Np  Np2  1  0.750000  0.918073  0.357728  1
  Np  Np3  1  0.250000  0.078023  0.640395  1
  Ta  Ta4  1  0.750000  0.075271  0.899069  1
  Ta  Ta5  1  0.750000  0.577106  0.604415  1
  Ta  Ta6  1  0.250000  0.420507  0.393902  1
  W  W7  1  0.250000  0.927002  0.104508  1
  N  N8  1  0.250000  0.663795  0.244334  1
  N  N9  1  0.750000  0.337306  0.756793  1
  N  N10  1  0.750000  0.838561  0.745366  1
  N  N11  1  0.250000  0.159896  0.252539  1
  N  N12  1  0.250000  0.752540  0.504538  1
  N  N13  1  0.750000  0.245500  0.494259  1
  N  N14  1  0.750000  0.745819  0.006562  1
  N  N15  1  0.250000  0.255671  0.995514  1
