# generated using pymatgen
data_Ho4Tm6Si5As
_symmetry_space_group_name_H-M   'P 1'
_cell_length_a   8.35597800
_cell_length_b   8.37409986
_cell_length_c   6.23039200
_cell_angle_alpha   90.00000000
_cell_angle_beta   90.00000000
_cell_angle_gamma   119.92844003
_symmetry_Int_Tables_number   1
_chemical_formula_structural   Ho4Tm6Si5As
_chemical_formula_sum   'Ho4 Tm6 Si5 As1'
_cell_volume   377.82799997
_cell_formula_units_Z   1
loop_
 _symmetry_equiv_pos_site_id
 _symmetry_equiv_pos_as_xyz
  1  'x, y, z'
loop_
 _atom_site_type_symbol
 _atom_site_label
 _atom_site_symmetry_multiplicity
 _atom_site_fract_x
 _atom_site_fract_y
 _atom_site_fract_z
 _atom_site_occupancy
  Ho  Ho0  1  0.996296  0.753417  0.750000  1
  Ho  Ho1  1  0.758447  0.000000  0.750000  1
  Ho  Ho2  1  0.242879  0.246583  0.750000  1
  Ho  Ho3  1  0.242981  0.000000  0.250000  1
  Tm  Tm4  1  0.000149  0.243998  0.250000  1
  Tm  Tm5  1  0.756151  0.756002  0.250000  1
  Tm  Tm6  1  0.333003  0.663767  0.498667  1
  Tm  Tm7  1  0.669237  0.336233  0.001333  1
  Tm  Tm8  1  0.669237  0.336233  0.498667  1
  Tm  Tm9  1  0.333003  0.663767  0.001333  1
  Si  Si10  1  0.394329  0.393625  0.250000  1
  Si  Si11  1  0.000704  0.606375  0.250000  1
  Si  Si12  1  0.999704  0.394458  0.750000  1
  Si  Si13  1  0.605246  0.605542  0.750000  1
  Si  Si14  1  0.607295  0.000000  0.250000  1
  As  As15  1  0.391340  0.000000  0.750000  1
