# generated using pymatgen
data_Sc2Mn3Cr2(NiP)7
_symmetry_space_group_name_H-M   'P 1'
_cell_length_a   9.04652807
_cell_length_b   9.06171871
_cell_length_c   3.58456400
_cell_angle_alpha   90.00000000
_cell_angle_beta   90.00000000
_cell_angle_gamma   119.72433074
_symmetry_Int_Tables_number   1
_chemical_formula_structural   Sc2Mn3Cr2(NiP)7
_chemical_formula_sum   'Sc2 Mn3 Cr2 Ni7 P7'
_cell_volume   255.18737660
_cell_formula_units_Z   1
loop_
 _symmetry_equiv_pos_site_id
 _symmetry_equiv_pos_as_xyz
  1  'x, y, z'
loop_
 _atom_site_type_symbol
 _atom_site_label
 _atom_site_symmetry_multiplicity
 _atom_site_fract_x
 _atom_site_fract_y
 _atom_site_fract_z
 _atom_site_occupancy
  Sc  Sc0  1  0.669382  0.333102  0.500000  1
  Sc  Sc1  1  0.331673  0.666196  0.000000  1
  Mn  Mn2  1  0.387204  0.432581  0.500000  1
  Mn  Mn3  1  0.048755  0.613704  0.500000  1
  Mn  Mn4  1  0.217308  0.093704  0.500000  1
  Cr  Cr5  1  0.877657  0.781770  0.500000  1
  Cr  Cr6  1  0.903355  0.126691  0.500000  1
  Ni  Ni7  1  0.715258  0.876912  0.000000  1
  Ni  Ni8  1  0.121529  0.842732  0.000000  1
  Ni  Ni9  1  0.158693  0.278322  0.000000  1
  Ni  Ni10  1  0.937767  0.371004  0.000000  1
  Ni  Ni11  1  0.633452  0.568069  0.000000  1
  Ni  Ni12  1  0.435480  0.066318  0.000000  1
  Ni  Ni13  1  0.559351  0.947776  0.500000  1
  P  P14  1  0.996336  0.999372  0.000000  1
  P  P15  1  0.417342  0.299986  0.000000  1
  P  P16  1  0.583463  0.705214  0.500000  1
  P  P17  1  0.286315  0.874227  0.500000  1
  P  P18  1  0.127411  0.416455  0.500000  1
  P  P19  1  0.705875  0.119417  0.000000  1
  P  P20  1  0.886395  0.586448  0.000000  1
