# generated using pymatgen
data_Sn(BiSe2)2
_symmetry_space_group_name_H-M   'P 1'
_cell_length_a   14.18987606
_cell_length_b   14.18987601
_cell_length_c   14.18987759
_cell_angle_alpha   17.08527024
_cell_angle_beta   17.08526992
_cell_angle_gamma   17.08526600
_symmetry_Int_Tables_number   1
_chemical_formula_structural   Sn(BiSe2)2
_chemical_formula_sum   'Sn1 Bi2 Se4'
_cell_volume   215.15914123
_cell_formula_units_Z   1
loop_
 _symmetry_equiv_pos_site_id
 _symmetry_equiv_pos_as_xyz
  1  'x, y, z'
loop_
 _atom_site_type_symbol
 _atom_site_label
 _atom_site_symmetry_multiplicity
 _atom_site_fract_x
 _atom_site_fract_y
 _atom_site_fract_z
 _atom_site_occupancy
  Sn  Sn0  1  0.000000  0.000000  0.000000  1
  Bi  Bi1  1  0.422448  0.422448  0.422448  1
  Bi  Bi2  1  0.577552  0.577552  0.577552  1
  Se  Se3  1  0.125271  0.125271  0.125271  1
  Se  Se4  1  0.291251  0.291251  0.291251  1
  Se  Se5  1  0.708749  0.708749  0.708749  1
  Se  Se6  1  0.874729  0.874729  0.874729  1
