# generated using pymatgen
data_TbHo7Sc11Si16Ru
_symmetry_space_group_name_H-M   'P 1'
_cell_length_a   6.99234501
_cell_length_b   7.34896850
_cell_length_c   13.87323019
_cell_angle_alpha   90.01824811
_cell_angle_beta   90.00571751
_cell_angle_gamma   90.10189760
_symmetry_Int_Tables_number   1
_chemical_formula_structural   TbHo7Sc11Si16Ru
_chemical_formula_sum   'Tb1 Ho7 Sc11 Si16 Ru1'
_cell_volume   712.89589858
_cell_formula_units_Z   1
loop_
 _symmetry_equiv_pos_site_id
 _symmetry_equiv_pos_as_xyz
  1  'x, y, z'
loop_
 _atom_site_type_symbol
 _atom_site_label
 _atom_site_symmetry_multiplicity
 _atom_site_fract_x
 _atom_site_fract_y
 _atom_site_fract_z
 _atom_site_occupancy
  Tb  Tb0  1  0.011974  0.178114  0.093301  1
  Ho  Ho1  1  0.992583  0.817934  0.901008  1
  Ho  Ho2  1  0.488622  0.673205  0.902327  1
  Ho  Ho3  1  0.992563  0.817952  0.598937  1
  Ho  Ho4  1  0.511209  0.323453  0.094819  1
  Ho  Ho5  1  0.012032  0.178348  0.406540  1
  Ho  Ho6  1  0.511247  0.323402  0.405196  1
  Ho  Ho7  1  0.488619  0.673171  0.597624  1
  Sc  Sc8  1  0.841199  0.496005  0.250058  1
  Sc  Sc9  1  0.341972  0.003507  0.250055  1
  Sc  Sc10  1  0.657531  0.995931  0.750004  1
  Sc  Sc11  1  0.325952  0.177045  0.627154  1
  Sc  Sc12  1  0.672064  0.824700  0.374383  1
  Sc  Sc13  1  0.172749  0.673940  0.376592  1
  Sc  Sc14  1  0.672089  0.824638  0.125651  1
  Sc  Sc15  1  0.826124  0.330944  0.628302  1
  Sc  Sc16  1  0.326002  0.176980  0.872810  1
  Sc  Sc17  1  0.826072  0.331039  0.871685  1
  Sc  Sc18  1  0.172750  0.673868  0.123445  1
  Si  Si19  1  0.028924  0.116436  0.749993  1
  Si  Si20  1  0.973066  0.885627  0.250082  1
  Si  Si21  1  0.469122  0.615209  0.250015  1
  Si  Si22  1  0.515809  0.395447  0.749989  1
  Si  Si23  1  0.284808  0.863265  0.750007  1
  Si  Si24  1  0.716291  0.129646  0.250151  1
  Si  Si25  1  0.215099  0.370963  0.250141  1
  Si  Si26  1  0.794450  0.629631  0.749994  1
  Si  Si27  1  0.157097  0.465449  0.547035  1
  Si  Si28  1  0.843041  0.535799  0.463291  1
  Si  Si29  1  0.344951  0.964791  0.463106  1
  Si  Si30  1  0.842973  0.536073  0.036649  1
  Si  Si31  1  0.658928  0.034447  0.539803  1
  Si  Si32  1  0.157128  0.465685  0.952895  1
  Si  Si33  1  0.658771  0.034393  0.960174  1
  Si  Si34  1  0.345353  0.964623  0.036811  1
  Ru  Ru35  1  0.150838  0.498341  0.749976  1
