# generated using pymatgen
data_NbVTe12
_symmetry_space_group_name_H-M   'P 1'
_cell_length_a   8.08088838
_cell_length_b   8.08088810
_cell_length_c   18.07605200
_cell_angle_alpha   90.00000000
_cell_angle_beta   90.00000000
_cell_angle_gamma   153.04015587
_symmetry_Int_Tables_number   1
_chemical_formula_structural   NbVTe12
_chemical_formula_sum   'Nb1 V1 Te12'
_cell_volume   535.14399652
_cell_formula_units_Z   1
loop_
 _symmetry_equiv_pos_site_id
 _symmetry_equiv_pos_as_xyz
  1  'x, y, z'
loop_
 _atom_site_type_symbol
 _atom_site_label
 _atom_site_symmetry_multiplicity
 _atom_site_fract_x
 _atom_site_fract_y
 _atom_site_fract_z
 _atom_site_occupancy
  Nb  Nb0  1  0.502603  0.497397  0.750000  1
  V  V1  1  0.498407  0.501593  0.250000  1
  Te  Te2  1  0.139555  0.860445  0.750000  1
  Te  Te3  1  0.868217  0.131783  0.250000  1
  Te  Te4  1  0.411681  0.588319  0.113397  1
  Te  Te5  1  0.589208  0.410792  0.892627  1
  Te  Te6  1  0.893119  0.106881  0.825802  1
  Te  Te7  1  0.101239  0.898761  0.175170  1
  Te  Te8  1  0.101239  0.898761  0.324830  1
  Te  Te9  1  0.893119  0.106881  0.674198  1
  Te  Te10  1  0.411681  0.588319  0.386603  1
  Te  Te11  1  0.589208  0.410792  0.607373  1
  Te  Te12  1  0.000361  0.999639  0.999027  1
  Te  Te13  1  0.000361  0.999639  0.500973  1
