# generated using pymatgen
data_Sc2Co12Si6As
_symmetry_space_group_name_H-M   'P 1'
_cell_length_a   9.13168633
_cell_length_b   9.14704768
_cell_length_c   3.60826900
_cell_angle_alpha   90.00000000
_cell_angle_beta   90.00000000
_cell_angle_gamma   120.25609569
_symmetry_Int_Tables_number   1
_chemical_formula_structural   Sc2Co12Si6As
_chemical_formula_sum   'Sc2 Co12 Si6 As1'
_cell_volume   260.33642511
_cell_formula_units_Z   1
loop_
 _symmetry_equiv_pos_site_id
 _symmetry_equiv_pos_as_xyz
  1  'x, y, z'
loop_
 _atom_site_type_symbol
 _atom_site_label
 _atom_site_symmetry_multiplicity
 _atom_site_fract_x
 _atom_site_fract_y
 _atom_site_fract_z
 _atom_site_occupancy
  Sc  Sc0  1  0.658818  0.326095  0.000000  1
  Sc  Sc1  1  0.001332  0.003775  0.500000  1
  Co  Co2  1  0.770648  0.047205  0.000000  1
  Co  Co3  1  0.952975  0.729294  0.000000  1
  Co  Co4  1  0.277094  0.229680  0.000000  1
  Co  Co5  1  0.486449  0.540897  0.000000  1
  Co  Co6  1  0.458487  0.944864  0.000000  1
  Co  Co7  1  0.058328  0.513006  0.000000  1
  Co  Co8  1  0.712755  0.616370  0.500000  1
  Co  Co9  1  0.387744  0.101416  0.500000  1
  Co  Co10  1  0.900246  0.281891  0.500000  1
  Co  Co11  1  0.562950  0.791730  0.500000  1
  Co  Co12  1  0.208867  0.773366  0.500000  1
  Co  Co13  1  0.230697  0.435483  0.500000  1
  Si  Si14  1  0.736235  0.785481  0.000000  1
  Si  Si15  1  0.217522  0.955596  0.000000  1
  Si  Si16  1  0.048250  0.263053  0.000000  1
  Si  Si17  1  0.446684  0.374075  0.500000  1
  Si  Si18  1  0.625819  0.070971  0.500000  1
  Si  Si19  1  0.335726  0.666874  0.000000  1
  As  As20  1  0.922373  0.548878  0.500000  1
