# generated using pymatgen
data_Er3UGe6Ru7
_symmetry_space_group_name_H-M   'P 1'
_cell_length_a   7.18128994
_cell_length_b   7.18128966
_cell_length_c   7.18128958
_cell_angle_alpha   109.21511306
_cell_angle_beta   109.21510656
_cell_angle_gamma   109.21510166
_symmetry_Int_Tables_number   1
_chemical_formula_structural   Er3UGe6Ru7
_chemical_formula_sum   'Er3 U1 Ge6 Ru7'
_cell_volume   287.76387481
_cell_formula_units_Z   1
loop_
 _symmetry_equiv_pos_site_id
 _symmetry_equiv_pos_as_xyz
  1  'x, y, z'
loop_
 _atom_site_type_symbol
 _atom_site_label
 _atom_site_symmetry_multiplicity
 _atom_site_fract_x
 _atom_site_fract_y
 _atom_site_fract_z
 _atom_site_occupancy
  Er  Er0  1  0.000000  0.000000  0.500000  1
  Er  Er1  1  0.000000  0.500000  0.000000  1
  Er  Er2  1  0.500000  0.000000  0.000000  1
  U  U3  1  0.500000  0.500000  0.500000  1
  Ge  Ge4  1  0.689777  0.689777  0.005055  1
  Ge  Ge5  1  0.310223  0.994945  0.310223  1
  Ge  Ge6  1  0.994945  0.310223  0.310223  1
  Ge  Ge7  1  0.310223  0.310223  0.994945  1
  Ge  Ge8  1  0.689777  0.005055  0.689777  1
  Ge  Ge9  1  0.005055  0.689777  0.689777  1
  Ru  Ru10  1  0.743220  0.256780  0.500000  1
  Ru  Ru11  1  0.743220  0.500000  0.256780  1
  Ru  Ru12  1  0.500000  0.256780  0.743220  1
  Ru  Ru13  1  0.256780  0.500000  0.743220  1
  Ru  Ru14  1  0.256780  0.743220  0.500000  1
  Ru  Ru15  1  0.500000  0.743220  0.256780  1
  Ru  Ru16  1  0.000000  0.000000  0.000000  1
