# generated using pymatgen
data_Y2Er10IrOs3
_symmetry_space_group_name_H-M   'P 1'
_cell_length_a   6.34200309
_cell_length_b   7.34380485
_cell_length_c   8.96998900
_cell_angle_alpha   90.00000000
_cell_angle_beta   90.00000000
_cell_angle_gamma   90.07952445
_symmetry_Int_Tables_number   1
_chemical_formula_structural   Y2Er10IrOs3
_chemical_formula_sum   'Y2 Er10 Ir1 Os3'
_cell_volume   417.77174965
_cell_formula_units_Z   1
loop_
 _symmetry_equiv_pos_site_id
 _symmetry_equiv_pos_as_xyz
  1  'x, y, z'
loop_
 _atom_site_type_symbol
 _atom_site_label
 _atom_site_symmetry_multiplicity
 _atom_site_fract_x
 _atom_site_fract_y
 _atom_site_fract_z
 _atom_site_occupancy
  Y  Y0  1  0.874014  0.537045  0.250000  1
  Y  Y1  1  0.627146  0.038217  0.250000  1
  Er  Er2  1  0.332289  0.673323  0.061282  1
  Er  Er3  1  0.170183  0.176324  0.438972  1
  Er  Er4  1  0.669513  0.325082  0.563365  1
  Er  Er5  1  0.827715  0.824645  0.934850  1
  Er  Er6  1  0.669513  0.325082  0.936635  1
  Er  Er7  1  0.827715  0.824645  0.565150  1
  Er  Er8  1  0.332289  0.673323  0.438718  1
  Er  Er9  1  0.170183  0.176324  0.061028  1
  Er  Er10  1  0.127564  0.461763  0.750000  1
  Er  Er11  1  0.370537  0.961423  0.750000  1
  Ir  Ir12  1  0.043208  0.885381  0.250000  1
  Os  Os13  1  0.458979  0.384514  0.250000  1
  Os  Os14  1  0.963282  0.115989  0.750000  1
  Os  Os15  1  0.535869  0.616921  0.750000  1
