# generated using pymatgen
data_Y10TlSn5Cl2
_symmetry_space_group_name_H-M   'P 1'
_cell_length_a   9.13142400
_cell_length_b   9.11190420
_cell_length_c   6.61154800
_cell_angle_alpha   90.00000000
_cell_angle_beta   90.00000000
_cell_angle_gamma   120.07089702
_symmetry_Int_Tables_number   1
_chemical_formula_structural   Y10TlSn5Cl2
_chemical_formula_sum   'Y10 Tl1 Sn5 Cl2'
_cell_volume   476.06991245
_cell_formula_units_Z   1
loop_
 _symmetry_equiv_pos_site_id
 _symmetry_equiv_pos_as_xyz
  1  'x, y, z'
loop_
 _atom_site_type_symbol
 _atom_site_label
 _atom_site_symmetry_multiplicity
 _atom_site_fract_x
 _atom_site_fract_y
 _atom_site_fract_z
 _atom_site_occupancy
  Y  Y0  1  0.260631  0.260329  0.750000  1
  Y  Y1  1  0.000301  0.739671  0.750000  1
  Y  Y2  1  0.739458  0.000000  0.750000  1
  Y  Y3  1  0.998700  0.260753  0.250000  1
  Y  Y4  1  0.333851  0.667404  0.500991  1
  Y  Y5  1  0.737947  0.739247  0.250000  1
  Y  Y6  1  0.666447  0.332596  0.500991  1
  Y  Y7  1  0.261496  0.000000  0.250000  1
  Y  Y8  1  0.333851  0.667404  0.999009  1
  Y  Y9  1  0.666447  0.332596  0.999009  1
  Tl  Tl10  1  0.608907  0.000000  0.250000  1
  Sn  Sn11  1  0.000222  0.391014  0.750000  1
  Sn  Sn12  1  0.391493  0.000000  0.750000  1
  Sn  Sn13  1  0.609209  0.608986  0.750000  1
  Sn  Sn14  1  0.999814  0.609667  0.250000  1
  Sn  Sn15  1  0.390147  0.390333  0.250000  1
  Cl  Cl16  1  0.000541  0.000000  0.999715  1
  Cl  Cl17  1  0.000541  0.000000  0.500285  1
