# generated using pymatgen
data_Zr10Ga2(SnSb)3
_symmetry_space_group_name_H-M   'P 1'
_cell_length_a   8.71662448
_cell_length_b   8.68633228
_cell_length_c   5.90017900
_cell_angle_alpha   90.00000000
_cell_angle_beta   90.00000000
_cell_angle_gamma   119.98662232
_symmetry_Int_Tables_number   1
_chemical_formula_structural   Zr10Ga2(SnSb)3
_chemical_formula_sum   'Zr10 Ga2 Sn3 Sb3'
_cell_volume   386.93598629
_cell_formula_units_Z   1
loop_
 _symmetry_equiv_pos_site_id
 _symmetry_equiv_pos_as_xyz
  1  'x, y, z'
loop_
 _atom_site_type_symbol
 _atom_site_label
 _atom_site_symmetry_multiplicity
 _atom_site_fract_x
 _atom_site_fract_y
 _atom_site_fract_z
 _atom_site_occupancy
  Zr  Zr0  1  0.999955  0.265667  0.250000  1
  Zr  Zr1  1  0.731046  0.999299  0.750000  1
  Zr  Zr2  1  0.732244  0.733658  0.250000  1
  Zr  Zr3  1  0.665257  0.332027  0.500375  1
  Zr  Zr4  1  0.000730  0.733808  0.750000  1
  Zr  Zr5  1  0.267905  0.266653  0.750000  1
  Zr  Zr6  1  0.334301  0.667471  0.999638  1
  Zr  Zr7  1  0.665257  0.332027  0.999625  1
  Zr  Zr8  1  0.334301  0.667471  0.500362  1
  Zr  Zr9  1  0.268281  0.001096  0.250000  1
  Ga  Ga10  1  0.999479  0.999532  0.999206  1
  Ga  Ga11  1  0.999479  0.999532  0.500794  1
  Sn  Sn12  1  0.999475  0.611148  0.250000  1
  Sn  Sn13  1  0.000019  0.388556  0.750000  1
  Sn  Sn14  1  0.612824  0.612332  0.750000  1
  Sb  Sb15  1  0.611458  0.000040  0.250000  1
  Sb  Sb16  1  0.388321  0.999427  0.750000  1
  Sb  Sb17  1  0.389670  0.390255  0.250000  1
