# generated using pymatgen
data_CePa3Ge4Ir3Pt
_symmetry_space_group_name_H-M   'P 1'
_cell_length_a   4.37392900
_cell_length_b   7.05439060
_cell_length_c   7.63556572
_cell_angle_alpha   90.07815791
_cell_angle_beta   90.00000000
_cell_angle_gamma   90.00000000
_symmetry_Int_Tables_number   1
_chemical_formula_structural   CePa3Ge4Ir3Pt
_chemical_formula_sum   'Ce1 Pa3 Ge4 Ir3 Pt1'
_cell_volume   235.59824290
_cell_formula_units_Z   1
loop_
 _symmetry_equiv_pos_site_id
 _symmetry_equiv_pos_as_xyz
  1  'x, y, z'
loop_
 _atom_site_type_symbol
 _atom_site_label
 _atom_site_symmetry_multiplicity
 _atom_site_fract_x
 _atom_site_fract_y
 _atom_site_fract_z
 _atom_site_occupancy
  Ce  Ce0  1  0.250000  0.495494  0.206760  1
  Pa  Pa1  1  0.750000  0.514557  0.792433  1
  Pa  Pa2  1  0.250000  0.991629  0.296513  1
  Pa  Pa3  1  0.750000  0.001811  0.702036  1
  Ge  Ge4  1  0.250000  0.811561  0.916642  1
  Ge  Ge5  1  0.250000  0.323429  0.584125  1
  Ge  Ge6  1  0.750000  0.189971  0.087337  1
  Ge  Ge7  1  0.750000  0.686685  0.411795  1
  Ir  Ir8  1  0.250000  0.731246  0.587171  1
  Ir  Ir9  1  0.750000  0.258504  0.423177  1
  Ir  Ir10  1  0.750000  0.782384  0.082745  1
  Pt  Pt11  1  0.250000  0.212731  0.909266  1
