# generated using pymatgen
data_Ho12Co2Ni2SnPt
_symmetry_space_group_name_H-M   'P 1'
_cell_length_a   8.29753067
_cell_length_b   8.29753043
_cell_length_c   8.29753048
_cell_angle_alpha   111.57484704
_cell_angle_beta   109.14375771
_cell_angle_gamma   107.71871972
_symmetry_Int_Tables_number   1
_chemical_formula_structural   Ho12Co2Ni2SnPt
_chemical_formula_sum   'Ho12 Co2 Ni2 Sn1 Pt1'
_cell_volume   439.25723148
_cell_formula_units_Z   1
loop_
 _symmetry_equiv_pos_site_id
 _symmetry_equiv_pos_as_xyz
  1  'x, y, z'
loop_
 _atom_site_type_symbol
 _atom_site_label
 _atom_site_symmetry_multiplicity
 _atom_site_fract_x
 _atom_site_fract_y
 _atom_site_fract_z
 _atom_site_occupancy
  Ho  Ho0  1  0.414531  0.219280  0.195252  1
  Ho  Ho1  1  0.585469  0.780720  0.804748  1
  Ho  Ho2  1  0.024027  0.219280  0.804748  1
  Ho  Ho3  1  0.975973  0.780720  0.195252  1
  Ho  Ho4  1  0.181417  0.287902  0.469318  1
  Ho  Ho5  1  0.818583  0.712098  0.530682  1
  Ho  Ho6  1  0.181417  0.712098  0.893514  1
  Ho  Ho7  1  0.818583  0.287902  0.106486  1
  Ho  Ho8  1  0.319340  0.628654  0.309314  1
  Ho  Ho9  1  0.680660  0.371346  0.690686  1
  Ho  Ho10  1  0.319340  0.010026  0.690686  1
  Ho  Ho11  1  0.680660  0.989974  0.309314  1
  Co  Co12  1  0.114270  0.614270  0.500000  1
  Co  Co13  1  0.885730  0.385730  0.500000  1
  Ni  Ni14  1  0.361855  0.000000  0.361855  1
  Ni  Ni15  1  0.638145  0.000000  0.638145  1
  Sn  Sn16  1  0.500000  0.500000  0.000000  1
  Pt  Pt17  1  0.000000  0.000000  0.000000  1
