# generated using pymatgen
data_Zr3Ti3Si2(Ge2Os3)2
_symmetry_space_group_name_H-M   'P 1'
_cell_length_a   6.70594872
_cell_length_b   7.23353964
_cell_length_c   7.61621975
_cell_angle_alpha   118.35137327
_cell_angle_beta   116.11168602
_cell_angle_gamma   89.99999740
_symmetry_Int_Tables_number   1
_chemical_formula_structural   Zr3Ti3Si2(Ge2Os3)2
_chemical_formula_sum   'Zr3 Ti3 Si2 Ge4 Os6'
_cell_volume   281.55145933
_cell_formula_units_Z   1
loop_
 _symmetry_equiv_pos_site_id
 _symmetry_equiv_pos_as_xyz
  1  'x, y, z'
loop_
 _atom_site_type_symbol
 _atom_site_label
 _atom_site_symmetry_multiplicity
 _atom_site_fract_x
 _atom_site_fract_y
 _atom_site_fract_z
 _atom_site_occupancy
  Zr  Zr0  1  0.246544  0.469436  0.438872  1
  Zr  Zr1  1  0.801927  0.532138  0.564274  1
  Zr  Zr2  1  0.657534  0.742403  0.984805  1
  Ti  Ti3  1  0.671604  0.256341  0.012683  1
  Ti  Ti4  1  0.854145  0.051242  0.602484  1
  Ti  Ti5  1  0.231306  0.941460  0.382920  1
  Si  Si6  1  0.314829  0.283891  0.067783  1
  Si  Si7  1  0.211529  0.727902  0.955801  1
  Ge  Ge8  1  0.576752  0.857583  0.664682  1
  Ge  Ge9  1  0.911530  0.156297  0.332761  1
  Ge  Ge10  1  0.911530  0.676464  0.332761  1
  Ge  Ge11  1  0.576752  0.307099  0.664682  1
  Os  Os12  1  0.000718  0.030024  0.997090  1
  Os  Os13  1  0.000718  0.467066  0.997090  1
  Os  Os14  1  0.492794  0.663492  0.247493  1
  Os  Os15  1  0.243697  0.341337  0.753163  1
  Os  Os16  1  0.243697  0.911825  0.753163  1
  Os  Os17  1  0.492794  0.084002  0.247493  1
