# generated using pymatgen
data_Nd5(CSe2)2
_symmetry_space_group_name_H-M   'P 1'
_cell_length_a   3.98753835
_cell_length_b   9.09532844
_cell_length_c   9.55888800
_cell_angle_alpha   92.65179653
_cell_angle_beta   77.75186152
_cell_angle_gamma   49.08414058
_symmetry_Int_Tables_number   1
_chemical_formula_structural   Nd5(CSe2)2
_chemical_formula_sum   'Nd5 C2 Se4'
_cell_volume   247.83171291
_cell_formula_units_Z   1
loop_
 _symmetry_equiv_pos_site_id
 _symmetry_equiv_pos_as_xyz
  1  'x, y, z'
loop_
 _atom_site_type_symbol
 _atom_site_label
 _atom_site_symmetry_multiplicity
 _atom_site_fract_x
 _atom_site_fract_y
 _atom_site_fract_z
 _atom_site_occupancy
  Nd  Nd0  1  0.428638  0.932207  0.820009  1
  Nd  Nd1  1  0.313586  0.800181  0.447870  1
  Nd  Nd2  1  0.501064  0.286782  0.608780  1
  Nd  Nd3  1  0.386530  0.154771  0.236735  1
  Nd  Nd4  1  0.407939  0.543540  0.027372  1
  C  C5  1  0.396032  0.072295  0.463805  1
  C  C6  1  0.418060  0.014948  0.593032  1
  Se  Se7  1  0.456184  0.613184  0.721740  1
  Se  Se8  1  0.401248  0.847115  0.129254  1
  Se  Se9  1  0.359208  0.473941  0.333641  1
  Se  Se10  1  0.413857  0.239564  0.927446  1
