# generated using pymatgen
data_Tb3DyTmIn3
_symmetry_space_group_name_H-M   'P 1'
_cell_length_a   6.02746516
_cell_length_b   9.20843119
_cell_length_c   9.21255100
_cell_angle_alpha   83.66588774
_cell_angle_beta   70.81310757
_cell_angle_gamma   70.80809524
_symmetry_Int_Tables_number   1
_chemical_formula_structural   Tb3DyTmIn3
_chemical_formula_sum   'Tb6 Dy2 Tm2 In6'
_cell_volume   456.08417703
_cell_formula_units_Z   2
loop_
 _symmetry_equiv_pos_site_id
 _symmetry_equiv_pos_as_xyz
  1  'x, y, z'
loop_
 _atom_site_type_symbol
 _atom_site_label
 _atom_site_symmetry_multiplicity
 _atom_site_fract_x
 _atom_site_fract_y
 _atom_site_fract_z
 _atom_site_occupancy
  Tb  Tb0  1  0.719799  0.862799  0.697097  1
  Tb  Tb1  1  0.280201  0.137201  0.302903  1
  Tb  Tb2  1  0.780286  0.302692  0.137353  1
  Tb  Tb3  1  0.219714  0.697308  0.862647  1
  Tb  Tb4  1  0.581478  0.697788  0.137865  1
  Tb  Tb5  1  0.418522  0.302212  0.862135  1
  Dy  Dy6  1  0.081296  0.137490  0.698484  1
  Dy  Dy7  1  0.918704  0.862510  0.301516  1
  Tm  Tm8  1  0.749987  0.499757  0.500340  1
  Tm  Tm9  1  0.250013  0.500243  0.499660  1
  In  In10  1  0.160627  0.500357  0.178318  1
  In  In11  1  0.839373  0.499643  0.821682  1
  In  In12  1  0.339196  0.822183  0.499792  1
  In  In13  1  0.660804  0.177817  0.500208  1
  In  In14  1  0.250073  0.999860  0.000180  1
  In  In15  1  0.749927  0.000140  0.999820  1
