# generated using pymatgen
data_Y11HoPb10
_symmetry_space_group_name_H-M   'P 1'
_cell_length_a   11.78766579
_cell_length_b   11.78766495
_cell_length_c   11.78795052
_cell_angle_alpha   146.86230857
_cell_angle_beta   132.76326748
_cell_angle_gamma   58.91113999
_symmetry_Int_Tables_number   1
_chemical_formula_structural   Y11HoPb10
_chemical_formula_sum   'Y11 Ho1 Pb10'
_cell_volume   651.77539133
_cell_formula_units_Z   1
loop_
 _symmetry_equiv_pos_site_id
 _symmetry_equiv_pos_as_xyz
  1  'x, y, z'
loop_
 _atom_site_type_symbol
 _atom_site_label
 _atom_site_symmetry_multiplicity
 _atom_site_fract_x
 _atom_site_fract_y
 _atom_site_fract_z
 _atom_site_occupancy
  Y  Y0  1  0.696228  0.946228  0.250000  1
  Y  Y1  1  0.250529  0.637747  0.612743  1
  Y  Y2  1  0.680473  0.941219  0.739268  1
  Y  Y3  1  0.025005  0.137785  0.887257  1
  Y  Y4  1  0.974953  0.862116  0.112695  1
  Y  Y5  1  0.798041  0.558761  0.239147  1
  Y  Y6  1  0.201951  0.441204  0.760732  1
  Y  Y7  1  0.303754  0.053754  0.750000  1
  Y  Y8  1  0.319613  0.058894  0.260853  1
  Y  Y9  1  0.303762  0.553762  0.250000  1
  Y  Y10  1  0.749421  0.362259  0.387305  1
  Ho  Ho11  1  0.696208  0.446208  0.750000  1
  Pb  Pb12  1  0.480523  0.574112  0.905496  1
  Pb  Pb13  1  0.598633  0.793708  0.804050  1
  Pb  Pb14  1  0.668616  0.075028  0.594504  1
  Pb  Pb15  1  0.000005  0.750005  0.750000  1
  Pb  Pb16  1  0.989657  0.294583  0.695950  1
  Pb  Pb17  1  0.519735  0.425546  0.094115  1
  Pb  Pb18  1  0.009793  0.705384  0.303701  1
  Pb  Pb19  1  0.401683  0.206092  0.196299  1
  Pb  Pb20  1  0.331430  0.925618  0.405885  1
  Pb  Pb21  1  0.999986  0.249986  0.250000  1
