# generated using pymatgen
data_CeNd3Ni2(B8Ir)2
_symmetry_space_group_name_H-M   'P 1'
_cell_length_a   7.01283258
_cell_length_b   7.01283209
_cell_length_c   7.01283285
_cell_angle_alpha   111.50489378
_cell_angle_beta   113.04171160
_cell_angle_gamma   104.00568784
_symmetry_Int_Tables_number   1
_chemical_formula_structural   CeNd3Ni2(B8Ir)2
_chemical_formula_sum   'Ce1 Nd3 Ni2 B16 Ir2'
_cell_volume   263.65498682
_cell_formula_units_Z   1
loop_
 _symmetry_equiv_pos_site_id
 _symmetry_equiv_pos_as_xyz
  1  'x, y, z'
loop_
 _atom_site_type_symbol
 _atom_site_label
 _atom_site_symmetry_multiplicity
 _atom_site_fract_x
 _atom_site_fract_y
 _atom_site_fract_z
 _atom_site_occupancy
  Ce  Ce0  1  0.246539  0.746539  0.500000  1
  Nd  Nd1  1  0.791084  0.791084  0.000000  1
  Nd  Nd2  1  0.207988  0.207988  0.000000  1
  Nd  Nd3  1  0.751744  0.251744  0.500000  1
  Ni  Ni4  1  0.499058  0.741598  0.242540  1
  Ni  Ni5  1  0.499058  0.256519  0.757460  1
  B  B6  1  0.273891  0.108608  0.383842  1
  B  B7  1  0.724766  0.890048  0.616158  1
  B  B8  1  0.273891  0.890048  0.165283  1
  B  B9  1  0.724766  0.108608  0.834717  1
  B  B10  1  0.111990  0.730746  0.841630  1
  B  B11  1  0.889117  0.270360  0.158370  1
  B  B12  1  0.111990  0.270360  0.381242  1
  B  B13  1  0.889117  0.730746  0.618758  1
  B  B14  1  0.115609  0.109877  0.528449  1
  B  B15  1  0.581429  0.587160  0.471551  1
  B  B16  1  0.115609  0.587160  0.005732  1
  B  B17  1  0.581429  0.109877  0.994268  1
  B  B18  1  0.886991  0.890134  0.473261  1
  B  B19  1  0.416873  0.413730  0.526739  1
  B  B20  1  0.886991  0.413730  0.996858  1
  B  B21  1  0.416873  0.890134  0.003142  1
  Ir  Ir22  1  0.276820  0.501601  0.775219  1
  Ir  Ir23  1  0.726381  0.501601  0.224781  1
