# generated using pymatgen
data_Y2Mn9Fe3P7
_symmetry_space_group_name_H-M   'P 1'
_cell_length_a   9.26075600
_cell_length_b   9.26075604
_cell_length_c   3.57975300
_cell_angle_alpha   90.00000000
_cell_angle_beta   90.00000000
_cell_angle_gamma   119.99999986
_symmetry_Int_Tables_number   1
_chemical_formula_structural   Y2Mn9Fe3P7
_chemical_formula_sum   'Y2 Mn9 Fe3 P7'
_cell_volume   265.87443453
_cell_formula_units_Z   1
loop_
 _symmetry_equiv_pos_site_id
 _symmetry_equiv_pos_as_xyz
  1  'x, y, z'
loop_
 _atom_site_type_symbol
 _atom_site_label
 _atom_site_symmetry_multiplicity
 _atom_site_fract_x
 _atom_site_fract_y
 _atom_site_fract_z
 _atom_site_occupancy
  Y  Y0  1  0.666667  0.333333  0.000000  1
  Y  Y1  1  0.333333  0.666667  0.500000  1
  Mn  Mn2  1  0.049806  0.621996  0.000000  1
  Mn  Mn3  1  0.572188  0.950194  0.000000  1
  Mn  Mn4  1  0.378004  0.427812  0.000000  1
  Mn  Mn5  1  0.436645  0.045091  0.500000  1
  Mn  Mn6  1  0.608446  0.563355  0.500000  1
  Mn  Mn7  1  0.954909  0.391554  0.500000  1
  Mn  Mn8  1  0.103768  0.874212  0.500000  1
  Mn  Mn9  1  0.770444  0.896232  0.500000  1
  Mn  Mn10  1  0.125788  0.229556  0.500000  1
  Fe  Fe11  1  0.273129  0.117923  0.000000  1
  Fe  Fe12  1  0.844795  0.726871  0.000000  1
  Fe  Fe13  1  0.882077  0.155205  0.000000  1
  P  P14  1  0.288606  0.881210  0.000000  1
  P  P15  1  0.592604  0.711394  0.000000  1
  P  P16  1  0.118790  0.407396  0.000000  1
  P  P17  1  0.404758  0.279454  0.500000  1
  P  P18  1  0.874695  0.595242  0.500000  1
  P  P19  1  0.720546  0.125305  0.500000  1
  P  P20  1  0.000000  0.000000  0.000000  1
