# generated using pymatgen
data_Nd4HfPd3F28
_symmetry_space_group_name_H-M   'P 1'
_cell_length_a   5.65969600
_cell_length_b   9.13195432
_cell_length_c   12.23834200
_cell_angle_alpha   62.06353621
_cell_angle_beta   89.99827901
_cell_angle_gamma   90.02752178
_symmetry_Int_Tables_number   1
_chemical_formula_structural   Nd4HfPd3F28
_chemical_formula_sum   'Nd4 Hf1 Pd3 F28'
_cell_volume   558.81751015
_cell_formula_units_Z   1
loop_
 _symmetry_equiv_pos_site_id
 _symmetry_equiv_pos_as_xyz
  1  'x, y, z'
loop_
 _atom_site_type_symbol
 _atom_site_label
 _atom_site_symmetry_multiplicity
 _atom_site_fract_x
 _atom_site_fract_y
 _atom_site_fract_z
 _atom_site_occupancy
  Nd  Nd0  1  0.260295  0.811545  0.261192  1
  Nd  Nd1  1  0.739148  0.184809  0.737636  1
  Nd  Nd2  1  0.761426  0.190808  0.235066  1
  Nd  Nd3  1  0.240830  0.810065  0.769178  1
  Hf  Hf4  1  0.745508  0.726136  0.542315  1
  Pd  Pd5  1  0.756744  0.725789  0.043322  1
  Pd  Pd6  1  0.242699  0.272830  0.957336  1
  Pd  Pd7  1  0.258523  0.273348  0.457325  1
  F  F8  1  0.946505  0.710793  0.414252  1
  F  F9  1  0.070860  0.293676  0.583180  1
  F  F10  1  0.429088  0.292933  0.083255  1
  F  F11  1  0.573202  0.705141  0.916998  1
  F  F12  1  0.466239  0.726570  0.127621  1
  F  F13  1  0.531255  0.272579  0.870741  1
  F  F14  1  0.971392  0.275691  0.369120  1
  F  F15  1  0.032902  0.730448  0.636252  1
  F  F16  1  0.935487  0.740373  0.173553  1
  F  F17  1  0.058829  0.259159  0.827487  1
  F  F18  1  0.439368  0.259279  0.327005  1
  F  F19  1  0.552055  0.745447  0.672784  1
  F  F20  1  0.766783  0.485509  0.138740  1
  F  F21  1  0.231834  0.513502  0.862759  1
  F  F22  1  0.273883  0.513882  0.360366  1
  F  F23  1  0.727865  0.478704  0.639045  1
  F  F24  1  0.949559  0.281152  0.038060  1
  F  F25  1  0.052058  0.716843  0.964713  1
  F  F26  1  0.445267  0.720538  0.456100  1
  F  F27  1  0.551316  0.279129  0.539807  1
  F  F28  1  0.738598  0.973318  0.444740  1
  F  F29  1  0.256568  0.032407  0.549231  1
  F  F30  1  0.243079  0.032092  0.046390  1
  F  F31  1  0.757709  0.966484  0.953002  1
  F  F32  1  0.595560  0.967027  0.230245  1
  F  F33  1  0.401265  0.035052  0.772228  1
  F  F34  1  0.094154  0.033735  0.268288  1
  F  F35  1  0.902148  0.963208  0.730665  1
