# generated using pymatgen
data_NdY7Al8
_symmetry_space_group_name_H-M   'P 1'
_cell_length_a   5.63992900
_cell_length_b   5.88939268
_cell_length_c   11.51672343
_cell_angle_alpha   89.94398879
_cell_angle_beta   90.00000000
_cell_angle_gamma   90.00000000
_symmetry_Int_Tables_number   1
_chemical_formula_structural   NdY7Al8
_chemical_formula_sum   'Nd1 Y7 Al8'
_cell_volume   382.53649889
_cell_formula_units_Z   1
loop_
 _symmetry_equiv_pos_site_id
 _symmetry_equiv_pos_as_xyz
  1  'x, y, z'
loop_
 _atom_site_type_symbol
 _atom_site_label
 _atom_site_symmetry_multiplicity
 _atom_site_fract_x
 _atom_site_fract_y
 _atom_site_fract_z
 _atom_site_occupancy
  Nd  Nd0  1  0.250000  0.834622  0.987997  1
  Y  Y1  1  0.750000  0.163982  0.015920  1
  Y  Y2  1  0.750000  0.398491  0.332794  1
  Y  Y3  1  0.750000  0.839374  0.514858  1
  Y  Y4  1  0.750000  0.600485  0.830726  1
  Y  Y5  1  0.250000  0.398649  0.168291  1
  Y  Y6  1  0.250000  0.161715  0.484397  1
  Y  Y7  1  0.250000  0.601882  0.666188  1
  Al  Al8  1  0.501306  0.932724  0.251827  1
  Al  Al9  1  0.500264  0.068602  0.748507  1
  Al  Al10  1  0.750000  0.660206  0.100855  1
  Al  Al11  1  0.750000  0.339133  0.598114  1
  Al  Al12  1  0.998694  0.932724  0.251827  1
  Al  Al13  1  0.999736  0.068602  0.748507  1
  Al  Al14  1  0.250000  0.661424  0.401101  1
  Al  Al15  1  0.250000  0.337383  0.898091  1
