# generated using pymatgen
data_Pr7(NdPb2)3
_symmetry_space_group_name_H-M   'P 1'
_cell_length_a   9.47005400
_cell_length_b   9.47002191
_cell_length_c   6.94730300
_cell_angle_alpha   89.99993020
_cell_angle_beta   89.99993676
_cell_angle_gamma   120.00018809
_symmetry_Int_Tables_number   1
_chemical_formula_structural   Pr7(NdPb2)3
_chemical_formula_sum   'Pr7 Nd3 Pb6'
_cell_volume   539.57210368
_cell_formula_units_Z   1
loop_
 _symmetry_equiv_pos_site_id
 _symmetry_equiv_pos_as_xyz
  1  'x, y, z'
loop_
 _atom_site_type_symbol
 _atom_site_label
 _atom_site_symmetry_multiplicity
 _atom_site_fract_x
 _atom_site_fract_y
 _atom_site_fract_z
 _atom_site_occupancy
  Pr  Pr0  1  0.666667  0.333334  0.000001  1
  Pr  Pr1  1  0.760059  0.760130  0.250082  1
  Pr  Pr2  1  0.239874  0.999927  0.250080  1
  Pr  Pr3  1  0.000071  0.239945  0.250082  1
  Pr  Pr4  1  0.239868  0.239942  0.749917  1
  Pr  Pr5  1  0.760053  0.999928  0.749919  1
  Pr  Pr6  1  0.000071  0.760127  0.749918  1
  Nd  Nd7  1  0.333335  0.666666  0.000001  1
  Nd  Nd8  1  0.666665  0.333333  0.500001  1
  Nd  Nd9  1  0.333333  0.666666  0.499999  1
  Pb  Pb10  1  0.605024  0.999649  0.250301  1
  Pb  Pb11  1  0.000349  0.605373  0.250300  1
  Pb  Pb12  1  0.394626  0.394976  0.250310  1
  Pb  Pb13  1  0.394627  0.999651  0.749694  1
  Pb  Pb14  1  0.000351  0.394979  0.749693  1
  Pb  Pb15  1  0.605026  0.605375  0.749701  1
