# generated using pymatgen
data_Y7PuSiPd24
_symmetry_space_group_name_H-M   'P 1'
_cell_length_a   8.35964264
_cell_length_b   8.35964226
_cell_length_c   8.35964300
_cell_angle_alpha   89.93346276
_cell_angle_beta   90.06653724
_cell_angle_gamma   90.06653222
_symmetry_Int_Tables_number   1
_chemical_formula_structural   Y7PuSiPd24
_chemical_formula_sum   'Y7 Pu1 Si1 Pd24'
_cell_volume   584.20094953
_cell_formula_units_Z   1
loop_
 _symmetry_equiv_pos_site_id
 _symmetry_equiv_pos_as_xyz
  1  'x, y, z'
loop_
 _atom_site_type_symbol
 _atom_site_label
 _atom_site_symmetry_multiplicity
 _atom_site_fract_x
 _atom_site_fract_y
 _atom_site_fract_z
 _atom_site_occupancy
  Y  Y0  1  0.252412  0.253406  0.253406  1
  Y  Y1  1  0.746521  0.746312  0.746312  1
  Y  Y2  1  0.746594  0.747588  0.253406  1
  Y  Y3  1  0.746594  0.253406  0.747588  1
  Y  Y4  1  0.253688  0.253479  0.746312  1
  Y  Y5  1  0.253688  0.746312  0.253479  1
  Y  Y6  1  0.253687  0.746313  0.746313  1
  Pu  Pu7  1  0.746777  0.253223  0.253223  1
  Si  Si8  1  0.000238  0.999762  0.999762  1
  Pd  Pd9  1  0.257407  0.499994  0.999809  1
  Pd  Pd10  1  0.742704  0.500110  0.000704  1
  Pd  Pd11  1  0.999296  0.257296  0.500110  1
  Pd  Pd12  1  0.499890  0.257296  0.000704  1
  Pd  Pd13  1  0.000191  0.742593  0.499994  1
  Pd  Pd14  1  0.500006  0.742593  0.999809  1
  Pd  Pd15  1  0.499890  0.000704  0.257296  1
  Pd  Pd16  1  0.257407  0.999809  0.499994  1
  Pd  Pd17  1  0.500006  0.999809  0.742593  1
  Pd  Pd18  1  0.742704  0.000704  0.500110  1
  Pd  Pd19  1  0.999296  0.500110  0.257296  1
  Pd  Pd20  1  0.000191  0.499994  0.742593  1
  Pd  Pd21  1  0.252084  0.499912  0.499912  1
  Pd  Pd22  1  0.747556  0.500038  0.500038  1
  Pd  Pd23  1  0.499962  0.252444  0.500038  1
  Pd  Pd24  1  0.500088  0.747916  0.499912  1
  Pd  Pd25  1  0.499962  0.500038  0.252444  1
  Pd  Pd26  1  0.500088  0.499912  0.747916  1
  Pd  Pd27  1  0.280270  0.999689  0.999689  1
  Pd  Pd28  1  0.720061  0.999940  0.999940  1
  Pd  Pd29  1  0.000060  0.279939  0.999940  1
  Pd  Pd30  1  0.000311  0.719730  0.999689  1
  Pd  Pd31  1  0.000060  0.999940  0.279939  1
  Pd  Pd32  1  0.000311  0.999689  0.719730  1
