# generated using pymatgen
data_Mn3Zn(SiRu3)2
_symmetry_space_group_name_H-M   'P 1'
_cell_length_a   4.19291300
_cell_length_b   5.94562200
_cell_length_c   12.58063600
_cell_angle_alpha   90.00000000
_cell_angle_beta   90.00300605
_cell_angle_gamma   90.00000000
_symmetry_Int_Tables_number   1
_chemical_formula_structural   Mn3Zn(SiRu3)2
_chemical_formula_sum   'Mn6 Zn2 Si4 Ru12'
_cell_volume   313.62866020
_cell_formula_units_Z   2
loop_
 _symmetry_equiv_pos_site_id
 _symmetry_equiv_pos_as_xyz
  1  'x, y, z'
loop_
 _atom_site_type_symbol
 _atom_site_label
 _atom_site_symmetry_multiplicity
 _atom_site_fract_x
 _atom_site_fract_y
 _atom_site_fract_z
 _atom_site_occupancy
  Mn  Mn0  1  0.000032  0.500000  0.004317  1
  Mn  Mn1  1  0.499811  0.000000  0.162442  1
  Mn  Mn2  1  0.999858  0.500000  0.329958  1
  Mn  Mn3  1  0.500002  0.000000  0.501239  1
  Mn  Mn4  1  0.000114  0.500000  0.665261  1
  Mn  Mn5  1  0.500168  0.000000  0.836638  1
  Zn  Zn6  1  0.000038  0.000000  0.998383  1
  Zn  Zn7  1  0.499794  0.500000  0.168300  1
  Si  Si8  1  0.999848  0.000000  0.334419  1
  Si  Si9  1  0.500003  0.500000  0.499300  1
  Si  Si10  1  0.000145  0.000000  0.667375  1
  Si  Si11  1  0.500188  0.500000  0.832270  1
  Ru  Ru12  1  0.500045  0.255361  0.995154  1
  Ru  Ru13  1  0.500045  0.744639  0.995154  1
  Ru  Ru14  1  0.999790  0.244605  0.171530  1
  Ru  Ru15  1  0.999790  0.755395  0.171530  1
  Ru  Ru16  1  0.499845  0.242998  0.338952  1
  Ru  Ru17  1  0.499845  0.757002  0.338952  1
  Ru  Ru18  1  0.999994  0.249843  0.500876  1
  Ru  Ru19  1  0.999994  0.750157  0.500876  1
  Ru  Ru20  1  0.500132  0.250056  0.665787  1
  Ru  Ru21  1  0.500132  0.749944  0.665787  1
  Ru  Ru22  1  0.000192  0.256964  0.827749  1
  Ru  Ru23  1  0.000192  0.743036  0.827749  1
