# generated using pymatgen
data_Tb2Tm3Ir2
_symmetry_space_group_name_H-M   'P 1'
_cell_length_a   6.47047016
_cell_length_b   7.19609628
_cell_length_c   8.45370495
_cell_angle_alpha   96.66709502
_cell_angle_beta   112.50104263
_cell_angle_gamma   89.99999680
_symmetry_Int_Tables_number   1
_chemical_formula_structural   Tb2Tm3Ir2
_chemical_formula_sum   'Tb4 Tm6 Ir4'
_cell_volume   360.77411003
_cell_formula_units_Z   2
loop_
 _symmetry_equiv_pos_site_id
 _symmetry_equiv_pos_as_xyz
  1  'x, y, z'
loop_
 _atom_site_type_symbol
 _atom_site_label
 _atom_site_symmetry_multiplicity
 _atom_site_fract_x
 _atom_site_fract_y
 _atom_site_fract_z
 _atom_site_occupancy
  Tb  Tb0  1  0.970231  0.919705  0.184480  1
  Tb  Tb1  1  0.785750  0.580295  0.815520  1
  Tb  Tb2  1  0.029769  0.080295  0.815520  1
  Tb  Tb3  1  0.214250  0.419705  0.184480  1
  Tm  Tm4  1  0.652252  0.817986  0.440962  1
  Tm  Tm5  1  0.211290  0.682014  0.559038  1
  Tm  Tm6  1  0.347748  0.182014  0.559038  1
  Tm  Tm7  1  0.788710  0.317986  0.440962  1
  Tm  Tm8  1  0.427764  0.750000  0.000000  1
  Tm  Tm9  1  0.572236  0.250000  0.000000  1
  Ir  Ir10  1  0.822417  0.572825  0.220381  1
  Ir  Ir11  1  0.602036  0.927175  0.779619  1
  Ir  Ir12  1  0.177584  0.427175  0.779619  1
  Ir  Ir13  1  0.397964  0.072825  0.220381  1
