# generated using pymatgen
data_Ho3Lu3Al18(Si3Os4)2
_symmetry_space_group_name_H-M   'P 1'
_cell_length_a   8.68180600
_cell_length_b   8.65782138
_cell_length_c   9.50362600
_cell_angle_alpha   90.00000000
_cell_angle_beta   90.00000000
_cell_angle_gamma   120.08892658
_symmetry_Int_Tables_number   1
_chemical_formula_structural   Ho3Lu3Al18(Si3Os4)2
_chemical_formula_sum   'Ho3 Lu3 Al18 Si6 Os8'
_cell_volume   618.08585630
_cell_formula_units_Z   1
loop_
 _symmetry_equiv_pos_site_id
 _symmetry_equiv_pos_as_xyz
  1  'x, y, z'
loop_
 _atom_site_type_symbol
 _atom_site_label
 _atom_site_symmetry_multiplicity
 _atom_site_fract_x
 _atom_site_fract_y
 _atom_site_fract_z
 _atom_site_occupancy
  Ho  Ho0  1  0.390148  0.192592  0.750000  1
  Ho  Ho1  1  0.197659  0.807647  0.250000  1
  Ho  Ho2  1  0.802671  0.192448  0.750000  1
  Lu  Lu3  1  0.195252  0.390074  0.250000  1
  Lu  Lu4  1  0.805215  0.610286  0.750000  1
  Lu  Lu5  1  0.606514  0.805771  0.250000  1
  Al  Al6  1  0.165095  0.330154  0.578354  1
  Al  Al7  1  0.834958  0.670357  0.421048  1
  Al  Al8  1  0.670860  0.834584  0.576780  1
  Al  Al9  1  0.834958  0.670357  0.078952  1
  Al  Al10  1  0.329364  0.165565  0.422225  1
  Al  Al11  1  0.165095  0.330154  0.921646  1
  Al  Al12  1  0.163785  0.834406  0.577370  1
  Al  Al13  1  0.329364  0.165565  0.077775  1
  Al  Al14  1  0.836160  0.165042  0.422007  1
  Al  Al15  1  0.670860  0.834584  0.923220  1
  Al  Al16  1  0.836160  0.165042  0.077993  1
  Al  Al17  1  0.163785  0.834406  0.922630  1
  Al  Al18  1  0.872890  0.432935  0.250000  1
  Al  Al19  1  0.127012  0.567023  0.750000  1
  Al  Al20  1  0.560156  0.433857  0.250000  1
  Al  Al21  1  0.440337  0.567106  0.750000  1
  Al  Al22  1  0.998242  0.999992  0.250000  1
  Al  Al23  1  0.999516  0.998904  0.750000  1
  Si  Si24  1  0.332414  0.663909  0.040901  1
  Si  Si25  1  0.668534  0.336660  0.959947  1
  Si  Si26  1  0.668534  0.336660  0.540053  1
  Si  Si27  1  0.332414  0.663909  0.459099  1
  Si  Si28  1  0.563950  0.126438  0.250000  1
  Si  Si29  1  0.436613  0.872971  0.750000  1
  Os  Os30  1  0.500238  0.999670  0.000526  1
  Os  Os31  1  0.000212  0.500079  0.000079  1
  Os  Os32  1  0.500238  0.999670  0.499474  1
  Os  Os33  1  0.500212  0.500518  0.000464  1
  Os  Os34  1  0.000212  0.500079  0.499921  1
  Os  Os35  1  0.500212  0.500518  0.499536  1
  Os  Os36  1  0.000080  0.000033  0.000002  1
  Os  Os37  1  0.000080  0.000033  0.499998  1
