# generated using pymatgen
data_Er4GaIr6Ru
_symmetry_space_group_name_H-M   'P 1'
_cell_length_a   5.43926600
_cell_length_b   5.43926640
_cell_length_c   8.34925800
_cell_angle_alpha   90.00000000
_cell_angle_beta   90.00000000
_cell_angle_gamma   119.99999755
_symmetry_Int_Tables_number   1
_chemical_formula_structural   Er4GaIr6Ru
_chemical_formula_sum   'Er4 Ga1 Ir6 Ru1'
_cell_volume   213.92382334
_cell_formula_units_Z   1
loop_
 _symmetry_equiv_pos_site_id
 _symmetry_equiv_pos_as_xyz
  1  'x, y, z'
loop_
 _atom_site_type_symbol
 _atom_site_label
 _atom_site_symmetry_multiplicity
 _atom_site_fract_x
 _atom_site_fract_y
 _atom_site_fract_z
 _atom_site_occupancy
  Er  Er0  1  0.333333  0.666667  0.438949  1
  Er  Er1  1  0.666667  0.333333  0.561051  1
  Er  Er2  1  0.666667  0.333333  0.930732  1
  Er  Er3  1  0.333333  0.666667  0.069268  1
  Ga  Ga4  1  0.000000  0.000000  0.000000  1
  Ir  Ir5  1  0.170334  0.340668  0.751652  1
  Ir  Ir6  1  0.170334  0.829666  0.751652  1
  Ir  Ir7  1  0.340668  0.170334  0.248348  1
  Ir  Ir8  1  0.829666  0.659332  0.248348  1
  Ir  Ir9  1  0.659332  0.829666  0.751652  1
  Ir  Ir10  1  0.829666  0.170334  0.248348  1
  Ru  Ru11  1  0.000000  0.000000  0.500000  1
