# generated using pymatgen
data_Y2Al2PdRh
_symmetry_space_group_name_H-M   'P 1'
_cell_length_a   4.36596900
_cell_length_b   6.91635200
_cell_length_c   7.86981100
_cell_angle_alpha   90.00000000
_cell_angle_beta   90.00000000
_cell_angle_gamma   90.00000000
_symmetry_Int_Tables_number   1
_chemical_formula_structural   Y2Al2PdRh
_chemical_formula_sum   'Y4 Al4 Pd2 Rh2'
_cell_volume   237.64136505
_cell_formula_units_Z   2
loop_
 _symmetry_equiv_pos_site_id
 _symmetry_equiv_pos_as_xyz
  1  'x, y, z'
loop_
 _atom_site_type_symbol
 _atom_site_label
 _atom_site_symmetry_multiplicity
 _atom_site_fract_x
 _atom_site_fract_y
 _atom_site_fract_z
 _atom_site_occupancy
  Y  Y0  1  0.250000  0.033887  0.322216  1
  Y  Y1  1  0.250000  0.533887  0.177784  1
  Y  Y2  1  0.750000  0.972588  0.682557  1
  Y  Y3  1  0.750000  0.472588  0.817443  1
  Al  Al4  1  0.250000  0.140326  0.934606  1
  Al  Al5  1  0.250000  0.640326  0.565394  1
  Al  Al6  1  0.750000  0.855444  0.059755  1
  Al  Al7  1  0.750000  0.355444  0.440245  1
  Pd  Pd8  1  0.750000  0.726434  0.379450  1
  Pd  Pd9  1  0.750000  0.226434  0.120550  1
  Rh  Rh10  1  0.250000  0.271322  0.616893  1
  Rh  Rh11  1  0.250000  0.771322  0.883107  1
