# generated using pymatgen
data_ErPa2(ZnPt)3
_symmetry_space_group_name_H-M   'P 1'
_cell_length_a   7.29628228
_cell_length_b   7.29628316
_cell_length_c   3.84684600
_cell_angle_alpha   90.00000000
_cell_angle_beta   90.00000000
_cell_angle_gamma   119.54082775
_symmetry_Int_Tables_number   1
_chemical_formula_structural   ErPa2(ZnPt)3
_chemical_formula_sum   'Er1 Pa2 Zn3 Pt3'
_cell_volume   178.16797710
_cell_formula_units_Z   1
loop_
 _symmetry_equiv_pos_site_id
 _symmetry_equiv_pos_as_xyz
  1  'x, y, z'
loop_
 _atom_site_type_symbol
 _atom_site_label
 _atom_site_symmetry_multiplicity
 _atom_site_fract_x
 _atom_site_fract_y
 _atom_site_fract_z
 _atom_site_occupancy
  Er  Er0  1  0.400885  0.400885  0.000000  1
  Pa  Pa1  1  0.592839  0.001982  0.000000  1
  Pa  Pa2  1  0.001982  0.592839  0.000000  1
  Zn  Zn3  1  0.252713  0.011711  0.500000  1
  Zn  Zn4  1  0.011711  0.252713  0.500000  1
  Zn  Zn5  1  0.738036  0.738036  0.500000  1
  Pt  Pt6  1  0.989520  0.989520  0.000000  1
  Pt  Pt7  1  0.331945  0.680368  0.500000  1
  Pt  Pt8  1  0.680368  0.331945  0.500000  1
