# generated using pymatgen
data_Tb19ErSi15Pt
_symmetry_space_group_name_H-M   'P 1'
_cell_length_a   7.41315600
_cell_length_b   7.73843658
_cell_length_c   14.66733400
_cell_angle_alpha   90.00000000
_cell_angle_beta   90.00000000
_cell_angle_gamma   90.09911068
_symmetry_Int_Tables_number   1
_chemical_formula_structural   Tb19ErSi15Pt
_chemical_formula_sum   'Tb19 Er1 Si15 Pt1'
_cell_volume   841.40850756
_cell_formula_units_Z   1
loop_
 _symmetry_equiv_pos_site_id
 _symmetry_equiv_pos_as_xyz
  1  'x, y, z'
loop_
 _atom_site_type_symbol
 _atom_site_label
 _atom_site_symmetry_multiplicity
 _atom_site_fract_x
 _atom_site_fract_y
 _atom_site_fract_z
 _atom_site_occupancy
  Tb  Tb0  1  0.680137  0.179458  0.623454  1
  Tb  Tb1  1  0.186825  0.323965  0.876032  1
  Tb  Tb2  1  0.317882  0.819717  0.123055  1
  Tb  Tb3  1  0.817368  0.678295  0.376633  1
  Tb  Tb4  1  0.317882  0.819717  0.376945  1
  Tb  Tb5  1  0.817368  0.678295  0.123367  1
  Tb  Tb6  1  0.680137  0.179458  0.876546  1
  Tb  Tb7  1  0.186825  0.323965  0.623968  1
  Tb  Tb8  1  0.525028  0.680661  0.594411  1
  Tb  Tb9  1  0.026873  0.817453  0.904172  1
  Tb  Tb10  1  0.472835  0.315478  0.097519  1
  Tb  Tb11  1  0.972956  0.183028  0.402698  1
  Tb  Tb12  1  0.472835  0.315478  0.402481  1
  Tb  Tb13  1  0.972956  0.183028  0.097302  1
  Tb  Tb14  1  0.525028  0.680661  0.905589  1
  Tb  Tb15  1  0.026873  0.817453  0.595828  1
  Tb  Tb16  1  0.356315  0.982033  0.750000  1
  Tb  Tb17  1  0.148133  0.485029  0.250000  1
  Tb  Tb18  1  0.648154  0.013380  0.250000  1
  Er  Er19  1  0.844233  0.511657  0.750000  1
  Si  Si20  1  0.646051  0.971449  0.459670  1
  Si  Si21  1  0.145915  0.528082  0.039752  1
  Si  Si22  1  0.352608  0.027184  0.960525  1
  Si  Si23  1  0.853552  0.472397  0.540110  1
  Si  Si24  1  0.352608  0.027184  0.539475  1
  Si  Si25  1  0.853552  0.472397  0.959890  1
  Si  Si26  1  0.646051  0.971449  0.040330  1
  Si  Si27  1  0.145915  0.528082  0.460248  1
  Si  Si28  1  0.980263  0.101886  0.750000  1
  Si  Si29  1  0.522273  0.601918  0.250000  1
  Si  Si30  1  0.021857  0.896199  0.250000  1
  Si  Si31  1  0.743064  0.874627  0.750000  1
  Si  Si32  1  0.225602  0.630780  0.750000  1
  Si  Si33  1  0.265291  0.125927  0.250000  1
  Si  Si34  1  0.765109  0.373513  0.250000  1
  Pt  Pt35  1  0.483637  0.408721  0.750000  1
