# generated using pymatgen
data_U(BrO)2
_symmetry_space_group_name_H-M   'P 1'
_cell_length_a   5.85004500
_cell_length_b   8.18305200
_cell_length_c   5.97666810
_cell_angle_alpha   71.09946292
_cell_angle_beta   90.00000000
_cell_angle_gamma   90.00000000
_symmetry_Int_Tables_number   1
_chemical_formula_structural   U(BrO)2
_chemical_formula_sum   'U2 Br4 O4'
_cell_volume   270.68399935
_cell_formula_units_Z   2
loop_
 _symmetry_equiv_pos_site_id
 _symmetry_equiv_pos_as_xyz
  1  'x, y, z'
loop_
 _atom_site_type_symbol
 _atom_site_label
 _atom_site_symmetry_multiplicity
 _atom_site_fract_x
 _atom_site_fract_y
 _atom_site_fract_z
 _atom_site_occupancy
  U  U0  1  0.500000  0.000000  0.500000  1
  U  U1  1  0.000000  0.000000  0.000000  1
  Br  Br2  1  0.516642  0.343159  0.343217  1
  Br  Br3  1  0.016642  0.656841  0.156783  1
  Br  Br4  1  0.483358  0.656841  0.656783  1
  Br  Br5  1  0.983358  0.343159  0.843217  1
  O  O6  1  0.249809  0.006794  0.205428  1
  O  O7  1  0.749809  0.993206  0.294572  1
  O  O8  1  0.750191  0.993206  0.794572  1
  O  O9  1  0.250191  0.006794  0.705428  1
