# generated using pymatgen
data_PrNd3Sn7GePt4
_symmetry_space_group_name_H-M   'P 1'
_cell_length_a   10.29789337
_cell_length_b   10.37138978
_cell_length_c   10.37138968
_cell_angle_alpha   154.35956659
_cell_angle_beta   125.45534974
_cell_angle_gamma   61.25626649
_symmetry_Int_Tables_number   1
_chemical_formula_structural   PrNd3Sn7GePt4
_chemical_formula_sum   'Pr1 Nd3 Sn7 Ge1 Pt4'
_cell_volume   387.65491600
_cell_formula_units_Z   1
loop_
 _symmetry_equiv_pos_site_id
 _symmetry_equiv_pos_as_xyz
  1  'x, y, z'
loop_
 _atom_site_type_symbol
 _atom_site_label
 _atom_site_symmetry_multiplicity
 _atom_site_fract_x
 _atom_site_fract_y
 _atom_site_fract_z
 _atom_site_occupancy
  Pr  Pr0  1  0.763577  0.998567  0.765009  1
  Nd  Nd1  1  0.230675  0.999760  0.230914  1
  Nd  Nd2  1  0.213120  0.206553  0.006568  1
  Nd  Nd3  1  0.793375  0.797080  0.996296  1
  Sn  Sn4  1  0.421298  0.419931  0.001367  1
  Sn  Sn5  1  0.578790  0.580888  0.997902  1
  Sn  Sn6  1  0.916285  0.421669  0.494617  1
  Sn  Sn7  1  0.076390  0.577679  0.498711  1
  Sn  Sn8  1  0.860522  0.201075  0.659446  1
  Sn  Sn9  1  0.152815  0.802501  0.350313  1
  Sn  Sn10  1  0.545215  0.198224  0.346990  1
  Ge  Ge11  1  0.459233  0.796993  0.662240  1
  Pt  Pt12  1  0.098359  0.352796  0.745565  1
  Pt  Pt13  1  0.903473  0.649705  0.253768  1
  Pt  Pt14  1  0.590515  0.344823  0.245692  1
  Pt  Pt15  1  0.396358  0.651755  0.744603  1
