# generated using pymatgen
data_Tb5Nb3(Si3Ir4)4
_symmetry_space_group_name_H-M   'P 1'
_cell_length_a   12.95140600
_cell_length_b   12.95140584
_cell_length_c   4.01342300
_cell_angle_alpha   90.00000000
_cell_angle_beta   90.00000000
_cell_angle_gamma   119.99999531
_symmetry_Int_Tables_number   1
_chemical_formula_structural   Tb5Nb3(Si3Ir4)4
_chemical_formula_sum   'Tb5 Nb3 Si12 Ir16'
_cell_volume   583.01458256
_cell_formula_units_Z   1
loop_
 _symmetry_equiv_pos_site_id
 _symmetry_equiv_pos_as_xyz
  1  'x, y, z'
loop_
 _atom_site_type_symbol
 _atom_site_label
 _atom_site_symmetry_multiplicity
 _atom_site_fract_x
 _atom_site_fract_y
 _atom_site_fract_z
 _atom_site_occupancy
  Tb  Tb0  1  0.333333  0.666667  0.500000  1
  Tb  Tb1  1  0.666667  0.333333  0.500000  1
  Tb  Tb2  1  0.000000  0.812981  0.000000  1
  Tb  Tb3  1  0.187019  0.187019  0.000000  1
  Tb  Tb4  1  0.812981  0.000000  0.000000  1
  Nb  Nb5  1  0.000000  0.438078  0.500000  1
  Nb  Nb6  1  0.561922  0.561922  0.500000  1
  Nb  Nb7  1  0.438078  0.000000  0.500000  1
  Si  Si8  1  0.000000  0.636649  0.500000  1
  Si  Si9  1  0.363351  0.363351  0.500000  1
  Si  Si10  1  0.636649  0.000000  0.500000  1
  Si  Si11  1  0.519639  0.690608  0.000000  1
  Si  Si12  1  0.309392  0.829031  0.000000  1
  Si  Si13  1  0.170969  0.480361  0.000000  1
  Si  Si14  1  0.480361  0.170969  0.000000  1
  Si  Si15  1  0.690608  0.519639  0.000000  1
  Si  Si16  1  0.829031  0.309392  0.000000  1
  Si  Si17  1  0.000000  0.181152  0.500000  1
  Si  Si18  1  0.818848  0.818848  0.500000  1
  Si  Si19  1  0.181152  0.000000  0.500000  1
  Ir  Ir20  1  0.512177  0.874128  0.000000  1
  Ir  Ir21  1  0.125872  0.638052  0.000000  1
  Ir  Ir22  1  0.361948  0.487823  0.000000  1
  Ir  Ir23  1  0.487823  0.361948  0.000000  1
  Ir  Ir24  1  0.874128  0.512177  0.000000  1
  Ir  Ir25  1  0.638052  0.125872  0.000000  1
  Ir  Ir26  1  0.000000  0.280014  0.000000  1
  Ir  Ir27  1  0.719986  0.719986  0.000000  1
  Ir  Ir28  1  0.280014  0.000000  0.000000  1
  Ir  Ir29  1  0.625048  0.806480  0.500000  1
  Ir  Ir30  1  0.193520  0.818568  0.500000  1
  Ir  Ir31  1  0.181432  0.374952  0.500000  1
  Ir  Ir32  1  0.374952  0.181432  0.500000  1
  Ir  Ir33  1  0.806480  0.625048  0.500000  1
  Ir  Ir34  1  0.818568  0.193520  0.500000  1
  Ir  Ir35  1  0.000000  0.000000  0.500000  1
