# generated using pymatgen
data_Hf4TiNb3P4
_symmetry_space_group_name_H-M   'P 1'
_cell_length_a   3.52690100
_cell_length_b   6.86017585
_cell_length_c   8.30576022
_cell_angle_alpha   90.24643085
_cell_angle_beta   90.00000000
_cell_angle_gamma   90.00000000
_symmetry_Int_Tables_number   1
_chemical_formula_structural   Hf4TiNb3P4
_chemical_formula_sum   'Hf4 Ti1 Nb3 P4'
_cell_volume   200.95734758
_cell_formula_units_Z   1
loop_
 _symmetry_equiv_pos_site_id
 _symmetry_equiv_pos_as_xyz
  1  'x, y, z'
loop_
 _atom_site_type_symbol
 _atom_site_label
 _atom_site_symmetry_multiplicity
 _atom_site_fract_x
 _atom_site_fract_y
 _atom_site_fract_z
 _atom_site_occupancy
  Hf  Hf0  1  0.250000  0.031659  0.669240  1
  Hf  Hf1  1  0.250000  0.532889  0.833294  1
  Hf  Hf2  1  0.750000  0.467557  0.166008  1
  Hf  Hf3  1  0.750000  0.966646  0.331778  1
  Ti  Ti4  1  0.750000  0.862279  0.940032  1
  Nb  Nb5  1  0.250000  0.641370  0.440511  1
  Nb  Nb6  1  0.750000  0.359381  0.560314  1
  Nb  Nb7  1  0.250000  0.138663  0.059492  1
  P  P8  1  0.250000  0.262987  0.355493  1
  P  P9  1  0.250000  0.763087  0.137772  1
  P  P10  1  0.750000  0.738271  0.648530  1
  P  P11  1  0.750000  0.235211  0.857536  1
