# generated using pymatgen
data_Tb11YB2(CCl6)2
_symmetry_space_group_name_H-M   'P 1'
_cell_length_a   9.36363301
_cell_length_b   9.36363190
_cell_length_c   9.44158072
_cell_angle_alpha   109.50048566
_cell_angle_beta   109.50047711
_cell_angle_gamma   109.07751145
_symmetry_Int_Tables_number   1
_chemical_formula_structural   Tb11YB2(CCl6)2
_chemical_formula_sum   'Tb11 Y1 B2 C2 Cl12'
_cell_volume   639.86628780
_cell_formula_units_Z   1
loop_
 _symmetry_equiv_pos_site_id
 _symmetry_equiv_pos_as_xyz
  1  'x, y, z'
loop_
 _atom_site_type_symbol
 _atom_site_label
 _atom_site_symmetry_multiplicity
 _atom_site_fract_x
 _atom_site_fract_y
 _atom_site_fract_z
 _atom_site_occupancy
  Tb  Tb0  1  0.467839  0.479211  0.236037  1
  Tb  Tb1  1  0.743280  0.231754  0.264072  1
  Tb  Tb2  1  0.744224  0.014278  0.479370  1
  Tb  Tb3  1  0.235224  0.465086  0.479460  1
  Tb  Tb4  1  0.268246  0.756720  0.235928  1
  Tb  Tb5  1  0.034914  0.264776  0.020540  1
  Tb  Tb6  1  0.020789  0.032161  0.263963  1
  Tb  Tb7  1  0.485722  0.755776  0.020630  1
  Tb  Tb8  1  0.481067  0.231029  0.461987  1
  Tb  Tb9  1  0.014207  0.485793  0.750000  1
  Tb  Tb10  1  0.268971  0.018933  0.038013  1
  Y  Y11  1  0.235427  0.264573  0.750000  1
  B  B12  1  0.999483  0.249361  0.498837  1
  B  B13  1  0.250639  0.500517  0.001163  1
  C  C14  1  0.249632  0.250368  0.250000  1
  C  C15  1  0.500387  0.999613  0.250000  1
  Cl  Cl16  1  0.252169  0.758712  0.746455  1
  Cl  Cl17  1  0.512214  0.505533  0.753528  1
  Cl  Cl18  1  0.988097  0.745977  0.994243  1
  Cl  Cl19  1  0.741288  0.247831  0.753545  1
  Cl  Cl20  1  0.994467  0.987786  0.746472  1
  Cl  Cl21  1  0.251786  0.994133  0.506120  1
  Cl  Cl22  1  0.754023  0.511903  0.505757  1
  Cl  Cl23  1  0.505867  0.248214  0.993880  1
  Cl  Cl24  1  0.755544  0.744456  0.250000  1
  Cl  Cl25  1  0.744379  0.994363  0.988725  1
  Cl  Cl26  1  0.994476  0.505524  0.250000  1
  Cl  Cl27  1  0.505637  0.755621  0.511275  1
