# generated using pymatgen
data_PrCr4(CuO4)3
_symmetry_space_group_name_H-M   'P 1'
_cell_length_a   6.44756971
_cell_length_b   6.44755853
_cell_length_c   6.44757643
_cell_angle_alpha   70.53160344
_cell_angle_beta   70.51635364
_cell_angle_gamma   109.46218138
_symmetry_Int_Tables_number   1
_chemical_formula_structural   PrCr4(CuO4)3
_chemical_formula_sum   'Pr1 Cr4 Cu3 O12'
_cell_volume   206.33025808
_cell_formula_units_Z   1
loop_
 _symmetry_equiv_pos_site_id
 _symmetry_equiv_pos_as_xyz
  1  'x, y, z'
loop_
 _atom_site_type_symbol
 _atom_site_label
 _atom_site_symmetry_multiplicity
 _atom_site_fract_x
 _atom_site_fract_y
 _atom_site_fract_z
 _atom_site_occupancy
  Pr  Pr0  1  0.999999  0.999997  0.000002  1
  Cr  Cr1  1  0.000003  0.500000  0.999999  1
  Cr  Cr2  1  0.499996  0.500001  0.500002  1
  Cr  Cr3  1  0.500006  0.000005  0.999999  1
  Cr  Cr4  1  0.999997  0.000000  0.500004  1
  Cu  Cu5  1  0.499999  0.000001  0.500001  1
  Cu  Cu6  1  0.500000  0.500000  0.999997  1
  Cu  Cu7  1  0.000001  0.499999  0.499998  1
  O  O8  1  0.857847  0.689887  0.832042  1
  O  O9  1  0.478070  0.310112  0.832036  1
  O  O10  1  0.521928  0.689889  0.167959  1
  O  O11  1  0.142152  0.310108  0.167962  1
  O  O12  1  0.832295  0.142197  0.690094  1
  O  O13  1  0.832297  0.522399  0.309897  1
  O  O14  1  0.167699  0.477599  0.690104  1
  O  O15  1  0.167709  0.857803  0.309902  1
  O  O16  1  0.310390  0.168049  0.521560  1
  O  O17  1  0.689605  0.168051  0.142345  1
  O  O18  1  0.310399  0.831953  0.857655  1
  O  O19  1  0.689606  0.831949  0.478441  1
