# generated using pymatgen
data_CaY6Sn23Rh6
_symmetry_space_group_name_H-M   'P 1'
_cell_length_a   9.89184100
_cell_length_b   9.89184297
_cell_length_c   10.11099500
_cell_angle_alpha   90.00000000
_cell_angle_beta   90.00000000
_cell_angle_gamma   120.00000346
_symmetry_Int_Tables_number   1
_chemical_formula_structural   CaY6Sn23Rh6
_chemical_formula_sum   'Ca1 Y6 Sn23 Rh6'
_cell_volume   856.79880560
_cell_formula_units_Z   1
loop_
 _symmetry_equiv_pos_site_id
 _symmetry_equiv_pos_as_xyz
  1  'x, y, z'
loop_
 _atom_site_type_symbol
 _atom_site_label
 _atom_site_symmetry_multiplicity
 _atom_site_fract_x
 _atom_site_fract_y
 _atom_site_fract_z
 _atom_site_occupancy
  Ca  Ca0  1  0.000000  0.000000  0.000000  1
  Y  Y1  1  0.042889  0.521445  0.307949  1
  Y  Y2  1  0.478555  0.957111  0.307949  1
  Y  Y3  1  0.478555  0.521445  0.307949  1
  Y  Y4  1  0.957111  0.478555  0.692051  1
  Y  Y5  1  0.521445  0.042889  0.692051  1
  Y  Y6  1  0.521445  0.478555  0.692051  1
  Sn  Sn7  1  0.000000  0.000000  0.500000  1
  Sn  Sn8  1  0.118283  0.881717  0.278682  1
  Sn  Sn9  1  0.763433  0.881717  0.278682  1
  Sn  Sn10  1  0.118283  0.236567  0.278682  1
  Sn  Sn11  1  0.881717  0.118283  0.721318  1
  Sn  Sn12  1  0.236567  0.118283  0.721318  1
  Sn  Sn13  1  0.881717  0.763433  0.721318  1
  Sn  Sn14  1  0.350899  0.000000  0.000000  1
  Sn  Sn15  1  0.649101  0.649101  0.000000  1
  Sn  Sn16  1  0.000000  0.350899  0.000000  1
  Sn  Sn17  1  0.350899  0.350899  0.000000  1
  Sn  Sn18  1  0.000000  0.649101  0.000000  1
  Sn  Sn19  1  0.649101  0.000000  0.000000  1
  Sn  Sn20  1  0.779367  0.558733  0.454960  1
  Sn  Sn21  1  0.779367  0.220633  0.454960  1
  Sn  Sn22  1  0.441267  0.220633  0.454960  1
  Sn  Sn23  1  0.220633  0.441267  0.545040  1
  Sn  Sn24  1  0.220633  0.779367  0.545040  1
  Sn  Sn25  1  0.558733  0.779367  0.545040  1
  Sn  Sn26  1  0.666667  0.333333  0.183699  1
  Sn  Sn27  1  0.333333  0.666667  0.816301  1
  Sn  Sn28  1  0.666667  0.333333  0.881537  1
  Sn  Sn29  1  0.333333  0.666667  0.118463  1
  Rh  Rh30  1  0.169371  0.830629  0.800824  1
  Rh  Rh31  1  0.661259  0.830629  0.800824  1
  Rh  Rh32  1  0.169371  0.338741  0.800824  1
  Rh  Rh33  1  0.830629  0.169371  0.199176  1
  Rh  Rh34  1  0.338741  0.169371  0.199176  1
  Rh  Rh35  1  0.830629  0.661259  0.199176  1
