# generated using pymatgen
data_Gd6TmScO12
_symmetry_space_group_name_H-M   'P 1'
_cell_length_a   6.74197747
_cell_length_b   6.74197765
_cell_length_c   6.74197817
_cell_angle_alpha   92.51750488
_cell_angle_beta   92.51750564
_cell_angle_gamma   92.51749766
_symmetry_Int_Tables_number   1
_chemical_formula_structural   Gd6TmScO12
_chemical_formula_sum   'Gd6 Tm1 Sc1 O12'
_cell_volume   305.53741649
_cell_formula_units_Z   1
loop_
 _symmetry_equiv_pos_site_id
 _symmetry_equiv_pos_as_xyz
  1  'x, y, z'
loop_
 _atom_site_type_symbol
 _atom_site_label
 _atom_site_symmetry_multiplicity
 _atom_site_fract_x
 _atom_site_fract_y
 _atom_site_fract_z
 _atom_site_occupancy
  Gd  Gd0  1  0.743793  0.930726  0.439666  1
  Gd  Gd1  1  0.439666  0.743793  0.930726  1
  Gd  Gd2  1  0.069274  0.560334  0.256207  1
  Gd  Gd3  1  0.930726  0.439666  0.743793  1
  Gd  Gd4  1  0.560334  0.256207  0.069274  1
  Gd  Gd5  1  0.256207  0.069274  0.560334  1
  Tm  Tm6  1  0.000000  0.000000  0.000000  1
  Sc  Sc7  1  0.500000  0.500000  0.500000  1
  O  O8  1  0.067360  0.909601  0.311781  1
  O  O9  1  0.688219  0.932640  0.090399  1
  O  O10  1  0.463771  0.803101  0.591406  1
  O  O11  1  0.090399  0.688219  0.932640  1
  O  O12  1  0.803101  0.591406  0.463771  1
  O  O13  1  0.408594  0.536229  0.196899  1
  O  O14  1  0.591406  0.463771  0.803101  1
  O  O15  1  0.196899  0.408594  0.536229  1
  O  O16  1  0.909601  0.311781  0.067360  1
  O  O17  1  0.536229  0.196899  0.408594  1
  O  O18  1  0.311781  0.067360  0.909601  1
  O  O19  1  0.932640  0.090399  0.688219  1
