# generated using pymatgen
data_Dy4HfTa5Si8
_symmetry_space_group_name_H-M   'P 1'
_cell_length_a   7.08790656
_cell_length_b   7.08790541
_cell_length_c   13.03014957
_cell_angle_alpha   89.98395969
_cell_angle_beta   90.01603731
_cell_angle_gamma   89.99173687
_symmetry_Int_Tables_number   1
_chemical_formula_structural   Dy4HfTa5Si8
_chemical_formula_sum   'Dy8 Hf2 Ta10 Si16'
_cell_volume   654.61395554
_cell_formula_units_Z   2
loop_
 _symmetry_equiv_pos_site_id
 _symmetry_equiv_pos_as_xyz
  1  'x, y, z'
loop_
 _atom_site_type_symbol
 _atom_site_label
 _atom_site_symmetry_multiplicity
 _atom_site_fract_x
 _atom_site_fract_y
 _atom_site_fract_z
 _atom_site_occupancy
  Dy  Dy0  1  0.998541  0.657557  0.033666  1
  Dy  Dy1  1  0.002218  0.341204  0.531236  1
  Dy  Dy2  1  0.657557  0.998541  0.966334  1
  Dy  Dy3  1  0.157676  0.501644  0.781455  1
  Dy  Dy4  1  0.842099  0.498119  0.283781  1
  Dy  Dy5  1  0.501644  0.157676  0.218545  1
  Dy  Dy6  1  0.498119  0.842099  0.716219  1
  Dy  Dy7  1  0.341204  0.002218  0.468764  1
  Hf  Hf8  1  0.495476  0.651017  0.123587  1
  Hf  Hf9  1  0.651017  0.495476  0.876413  1
  Ta  Ta10  1  0.346711  0.509454  0.375794  1
  Ta  Ta11  1  0.848697  0.993201  0.375613  1
  Ta  Ta12  1  0.008978  0.151915  0.127302  1
  Ta  Ta13  1  0.993201  0.848697  0.624387  1
  Ta  Ta14  1  0.509454  0.346711  0.624206  1
  Ta  Ta15  1  0.151915  0.008978  0.872698  1
  Ta  Ta16  1  0.672527  0.672527  0.500000  1
  Ta  Ta17  1  0.830679  0.169519  0.748878  1
  Ta  Ta18  1  0.169519  0.830679  0.251122  1
  Ta  Ta19  1  0.323344  0.323344  0.000000  1
  Si  Si20  1  0.046132  0.706177  0.436206  1
  Si  Si21  1  0.956993  0.292865  0.936366  1
  Si  Si22  1  0.706177  0.046132  0.563794  1
  Si  Si23  1  0.203104  0.451472  0.186659  1
  Si  Si24  1  0.795587  0.546910  0.683957  1
  Si  Si25  1  0.451472  0.203104  0.813341  1
  Si  Si26  1  0.546910  0.795587  0.316043  1
  Si  Si27  1  0.292865  0.956993  0.063634  1
  Si  Si28  1  0.798689  0.867285  0.183306  1
  Si  Si29  1  0.296851  0.632598  0.568430  1
  Si  Si30  1  0.707397  0.359745  0.069111  1
  Si  Si31  1  0.632598  0.296851  0.431570  1
  Si  Si32  1  0.359745  0.707397  0.930889  1
  Si  Si33  1  0.133831  0.203788  0.318835  1
  Si  Si34  1  0.203788  0.133831  0.681165  1
  Si  Si35  1  0.867285  0.798689  0.816694  1
