# generated using pymatgen
data_Mg2SiGeRh2
_symmetry_space_group_name_H-M   'P 1'
_cell_length_a   6.65844200
_cell_length_b   4.09374700
_cell_length_c   7.13508800
_cell_angle_alpha   90.00000000
_cell_angle_beta   90.00000000
_cell_angle_gamma   90.00000000
_symmetry_Int_Tables_number   1
_chemical_formula_structural   Mg2SiGeRh2
_chemical_formula_sum   'Mg4 Si2 Ge2 Rh4'
_cell_volume   194.48806433
_cell_formula_units_Z   2
loop_
 _symmetry_equiv_pos_site_id
 _symmetry_equiv_pos_as_xyz
  1  'x, y, z'
loop_
 _atom_site_type_symbol
 _atom_site_label
 _atom_site_symmetry_multiplicity
 _atom_site_fract_x
 _atom_site_fract_y
 _atom_site_fract_z
 _atom_site_occupancy
  Mg  Mg0  1  0.989247  0.750000  0.171706  1
  Mg  Mg1  1  0.489247  0.750000  0.328294  1
  Mg  Mg2  1  0.507143  0.249999  0.674971  1
  Mg  Mg3  1  0.007143  0.249999  0.825030  1
  Si  Si4  1  0.205949  0.750000  0.629647  1
  Si  Si5  1  0.705949  0.750000  0.870354  1
  Ge  Ge6  1  0.289100  0.249999  0.127028  1
  Ge  Ge7  1  0.789100  0.249999  0.372972  1
  Rh  Rh8  1  0.659200  0.249999  0.039971  1
  Rh  Rh9  1  0.159200  0.249999  0.460029  1
  Rh  Rh10  1  0.849362  0.750000  0.560535  1
  Rh  Rh11  1  0.349362  0.750000  0.939467  1
