# generated using pymatgen
data_Tb5CrFeO12
_symmetry_space_group_name_H-M   'P 1'
_cell_length_a   6.76672211
_cell_length_b   6.76672183
_cell_length_c   7.31732516
_cell_angle_alpha   74.37198440
_cell_angle_beta   74.37198516
_cell_angle_gamma   51.53035860
_symmetry_Int_Tables_number   1
_chemical_formula_structural   Tb5CrFeO12
_chemical_formula_sum   'Tb5 Cr1 Fe1 O12'
_cell_volume   250.31189163
_cell_formula_units_Z   1
loop_
 _symmetry_equiv_pos_site_id
 _symmetry_equiv_pos_as_xyz
  1  'x, y, z'
loop_
 _atom_site_type_symbol
 _atom_site_label
 _atom_site_symmetry_multiplicity
 _atom_site_fract_x
 _atom_site_fract_y
 _atom_site_fract_z
 _atom_site_occupancy
  Tb  Tb0  1  0.309939  0.304372  0.358701  1
  Tb  Tb1  1  0.695628  0.690061  0.641299  1
  Tb  Tb2  1  0.311582  0.307503  0.830312  1
  Tb  Tb3  1  0.692497  0.688418  0.169688  1
  Tb  Tb4  1  0.006365  0.993635  0.500000  1
  Cr  Cr5  1  0.228167  0.771833  0.000000  1
  Fe  Fe6  1  0.744587  0.255413  0.000000  1
  O  O7  1  0.899105  0.421851  0.921397  1
  O  O8  1  0.419884  0.893115  0.922705  1
  O  O9  1  0.106885  0.580116  0.077295  1
  O  O10  1  0.578149  0.100895  0.078603  1
  O  O11  1  0.097693  0.593516  0.577818  1
  O  O12  1  0.598673  0.093329  0.578655  1
  O  O13  1  0.906671  0.401327  0.421345  1
  O  O14  1  0.406484  0.902307  0.422182  1
  O  O15  1  0.010441  0.991960  0.821759  1
  O  O16  1  0.008040  0.989559  0.178241  1
  O  O17  1  0.489170  0.509961  0.815757  1
  O  O18  1  0.490039  0.510830  0.184243  1
