# generated using pymatgen
data_Ho10Pt17Rh
_symmetry_space_group_name_H-M   'P 1'
_cell_length_a   9.72699851
_cell_length_b   9.72699851
_cell_length_c   5.78106077
_cell_angle_alpha   90.20235706
_cell_angle_beta   89.79764294
_cell_angle_gamma   90.07636713
_symmetry_Int_Tables_number   1
_chemical_formula_structural   Ho10Pt17Rh
_chemical_formula_sum   'Ho10 Pt17 Rh1'
_cell_volume   546.96487530
_cell_formula_units_Z   1
loop_
 _symmetry_equiv_pos_site_id
 _symmetry_equiv_pos_as_xyz
  1  'x, y, z'
loop_
 _atom_site_type_symbol
 _atom_site_label
 _atom_site_symmetry_multiplicity
 _atom_site_fract_x
 _atom_site_fract_y
 _atom_site_fract_z
 _atom_site_occupancy
  Ho  Ho0  1  0.450682  0.809663  0.001694  1
  Ho  Ho1  1  0.547045  0.191136  0.999868  1
  Ho  Ho2  1  0.190337  0.549318  0.001694  1
  Ho  Ho3  1  0.808864  0.452955  0.999868  1
  Ho  Ho4  1  0.499936  0.500064  0.500013  1
  Ho  Ho5  1  0.307412  0.045824  0.498304  1
  Ho  Ho6  1  0.690291  0.952459  0.500151  1
  Ho  Ho7  1  0.954176  0.692588  0.498304  1
  Ho  Ho8  1  0.047541  0.309709  0.500151  1
  Ho  Ho9  1  0.001160  0.998840  0.001398  1
  Pt  Pt10  1  0.808379  0.191621  0.749026  1
  Pt  Pt11  1  0.807988  0.192012  0.250299  1
  Pt  Pt12  1  0.192523  0.807477  0.749332  1
  Pt  Pt13  1  0.439682  0.781389  0.498868  1
  Pt  Pt14  1  0.558834  0.218034  0.500226  1
  Pt  Pt15  1  0.218611  0.560318  0.498868  1
  Pt  Pt16  1  0.781966  0.441166  0.500226  1
  Pt  Pt17  1  0.307541  0.307979  0.249338  1
  Pt  Pt18  1  0.691986  0.691649  0.750593  1
  Pt  Pt19  1  0.692021  0.692459  0.249338  1
  Pt  Pt20  1  0.308351  0.308014  0.750593  1
  Pt  Pt21  1  0.281381  0.058772  0.000355  1
  Pt  Pt22  1  0.718287  0.940634  0.999671  1
  Pt  Pt23  1  0.941228  0.718619  0.000355  1
  Pt  Pt24  1  0.059366  0.281713  0.999671  1
  Pt  Pt25  1  0.000877  0.999123  0.499023  1
  Pt  Pt26  1  0.500177  0.499823  0.999958  1
  Rh  Rh27  1  0.193358  0.806642  0.252816  1
