# generated using pymatgen
data_ScCoH6
_symmetry_space_group_name_H-M   'P 1'
_cell_length_a   4.41039434
_cell_length_b   4.41027309
_cell_length_c   4.42158946
_cell_angle_alpha   120.09682366
_cell_angle_beta   90.05777597
_cell_angle_gamma   119.80112548
_symmetry_Int_Tables_number   1
_chemical_formula_structural   ScCoH6
_chemical_formula_sum   'Sc1 Co1 H6'
_cell_volume   60.87707627
_cell_formula_units_Z   1
loop_
 _symmetry_equiv_pos_site_id
 _symmetry_equiv_pos_as_xyz
  1  'x, y, z'
loop_
 _atom_site_type_symbol
 _atom_site_label
 _atom_site_symmetry_multiplicity
 _atom_site_fract_x
 _atom_site_fract_y
 _atom_site_fract_z
 _atom_site_occupancy
  Sc  Sc0  1  0.376888  0.031149  0.892353  1
  Co  Co1  1  0.127599  0.534305  0.143934  1
  H  H2  1  0.366370  0.523559  0.385616  1
  H  H3  1  0.885180  0.546796  0.391380  1
  H  H4  1  0.363875  0.522313  0.889953  1
  H  H5  1  0.878450  0.043754  0.898839  1
  H  H6  1  0.884352  0.548811  0.911286  1
  H  H7  1  0.387009  0.023354  0.388367  1
