# generated using pymatgen
data_NaNb6BiS12
_symmetry_space_group_name_H-M   'P 1'
_cell_length_a   5.85752900
_cell_length_b   5.85752882
_cell_length_c   14.50383200
_cell_angle_alpha   90.00000000
_cell_angle_beta   90.00000000
_cell_angle_gamma   119.99999536
_symmetry_Int_Tables_number   1
_chemical_formula_structural   NaNb6BiS12
_chemical_formula_sum   'Na1 Nb6 Bi1 S12'
_cell_volume   430.96529079
_cell_formula_units_Z   1
loop_
 _symmetry_equiv_pos_site_id
 _symmetry_equiv_pos_as_xyz
  1  'x, y, z'
loop_
 _atom_site_type_symbol
 _atom_site_label
 _atom_site_symmetry_multiplicity
 _atom_site_fract_x
 _atom_site_fract_y
 _atom_site_fract_z
 _atom_site_occupancy
  Na  Na0  1  0.000000  0.000000  0.500000  1
  Nb  Nb1  1  0.000000  0.000000  0.753720  1
  Nb  Nb2  1  0.000000  0.000000  0.246280  1
  Nb  Nb3  1  0.333333  0.666667  0.246184  1
  Nb  Nb4  1  0.666667  0.333333  0.753816  1
  Nb  Nb5  1  0.666667  0.333333  0.246184  1
  Nb  Nb6  1  0.333333  0.666667  0.753816  1
  Bi  Bi7  1  0.000000  0.000000  0.000000  1
  S  S8  1  0.337837  0.000000  0.138323  1
  S  S9  1  0.000000  0.337837  0.138323  1
  S  S10  1  0.662163  0.662163  0.138323  1
  S  S11  1  0.335247  0.335247  0.646647  1
  S  S12  1  0.664753  0.664753  0.353353  1
  S  S13  1  0.664753  0.000000  0.646647  1
  S  S14  1  0.000000  0.664753  0.646647  1
  S  S15  1  0.000000  0.662163  0.861677  1
  S  S16  1  0.337837  0.337837  0.861677  1
  S  S17  1  0.000000  0.335247  0.353353  1
  S  S18  1  0.335247  0.000000  0.353353  1
  S  S19  1  0.662163  0.000000  0.861677  1
