# generated using pymatgen
data_La8CdIr6
_symmetry_space_group_name_H-M   'P 1'
_cell_length_a   7.78586810
_cell_length_b   7.78586753
_cell_length_c   7.78586907
_cell_angle_alpha   69.53953709
_cell_angle_beta   69.53953941
_cell_angle_gamma   69.53953011
_symmetry_Int_Tables_number   1
_chemical_formula_structural   La8CdIr6
_chemical_formula_sum   'La8 Cd1 Ir6'
_cell_volume   400.16584321
_cell_formula_units_Z   1
loop_
 _symmetry_equiv_pos_site_id
 _symmetry_equiv_pos_as_xyz
  1  'x, y, z'
loop_
 _atom_site_type_symbol
 _atom_site_label
 _atom_site_symmetry_multiplicity
 _atom_site_fract_x
 _atom_site_fract_y
 _atom_site_fract_z
 _atom_site_occupancy
  La  La0  1  0.811440  0.811440  0.811440  1
  La  La1  1  0.188560  0.188560  0.188560  1
  La  La2  1  0.138597  0.383930  0.685591  1
  La  La3  1  0.685591  0.138597  0.383930  1
  La  La4  1  0.383930  0.685591  0.138597  1
  La  La5  1  0.861403  0.616070  0.314409  1
  La  La6  1  0.314409  0.861403  0.616070  1
  La  La7  1  0.616070  0.314409  0.861403  1
  Cd  Cd8  1  0.000000  0.000000  0.000000  1
  Ir  Ir9  1  0.948030  0.186594  0.573183  1
  Ir  Ir10  1  0.573183  0.948030  0.186594  1
  Ir  Ir11  1  0.186594  0.573183  0.948030  1
  Ir  Ir12  1  0.051970  0.813406  0.426817  1
  Ir  Ir13  1  0.426817  0.051970  0.813406  1
  Ir  Ir14  1  0.813406  0.426817  0.051970  1
