# generated using pymatgen
data_Y11Th(TcRh)2
_symmetry_space_group_name_H-M   'P 1'
_cell_length_a   6.41989655
_cell_length_b   7.34276204
_cell_length_c   9.39686700
_cell_angle_alpha   90.00000000
_cell_angle_beta   90.00000000
_cell_angle_gamma   89.32065739
_symmetry_Int_Tables_number   1
_chemical_formula_structural   Y11Th(TcRh)2
_chemical_formula_sum   'Y11 Th1 Tc2 Rh2'
_cell_volume   442.93503782
_cell_formula_units_Z   1
loop_
 _symmetry_equiv_pos_site_id
 _symmetry_equiv_pos_as_xyz
  1  'x, y, z'
loop_
 _atom_site_type_symbol
 _atom_site_label
 _atom_site_symmetry_multiplicity
 _atom_site_fract_x
 _atom_site_fract_y
 _atom_site_fract_z
 _atom_site_occupancy
  Y  Y0  1  0.360127  0.959238  0.750000  1
  Y  Y1  1  0.138008  0.457936  0.750000  1
  Y  Y2  1  0.869976  0.539498  0.250000  1
  Y  Y3  1  0.171453  0.177115  0.067925  1
  Y  Y4  1  0.832910  0.822212  0.936038  1
  Y  Y5  1  0.668842  0.327049  0.936370  1
  Y  Y6  1  0.832910  0.822212  0.563962  1
  Y  Y7  1  0.327264  0.676296  0.068219  1
  Y  Y8  1  0.171453  0.177115  0.432075  1
  Y  Y9  1  0.327264  0.676296  0.431781  1
  Y  Y10  1  0.668842  0.327049  0.563630  1
  Th  Th11  1  0.641894  0.046013  0.250000  1
  Tc  Tc12  1  0.476504  0.370585  0.250000  1
  Tc  Tc13  1  0.015724  0.888130  0.250000  1
  Rh  Rh14  1  0.545102  0.616785  0.750000  1
  Rh  Rh15  1  0.951727  0.116472  0.750000  1
