# generated using pymatgen
data_Ac4La2GaSn9
_symmetry_space_group_name_H-M   'P 1'
_cell_length_a   6.80092372
_cell_length_b   6.80092191
_cell_length_c   10.88175219
_cell_angle_alpha   89.49946915
_cell_angle_beta   89.49946612
_cell_angle_gamma   102.35383521
_symmetry_Int_Tables_number   1
_chemical_formula_structural   Ac4La2GaSn9
_chemical_formula_sum   'Ac4 La2 Ga1 Sn9'
_cell_volume   491.60693914
_cell_formula_units_Z   1
loop_
 _symmetry_equiv_pos_site_id
 _symmetry_equiv_pos_as_xyz
  1  'x, y, z'
loop_
 _atom_site_type_symbol
 _atom_site_label
 _atom_site_symmetry_multiplicity
 _atom_site_fract_x
 _atom_site_fract_y
 _atom_site_fract_z
 _atom_site_occupancy
  Ac  Ac0  1  0.201157  0.797623  0.498994  1
  Ac  Ac1  1  0.203916  0.800584  0.000160  1
  Ac  Ac2  1  0.797623  0.201157  0.498994  1
  Ac  Ac3  1  0.800584  0.203916  0.000160  1
  La  La4  1  0.636862  0.636862  0.247564  1
  La  La5  1  0.362930  0.362930  0.758919  1
  Ga  Ga6  1  0.312351  0.312351  0.048983  1
  Sn  Sn7  1  0.029077  0.029077  0.247692  1
  Sn  Sn8  1  0.973930  0.973930  0.749791  1
  Sn  Sn9  1  0.677125  0.677125  0.953054  1
  Sn  Sn10  1  0.323953  0.323953  0.453740  1
  Sn  Sn11  1  0.674052  0.674052  0.550026  1
  Sn  Sn12  1  0.486191  0.084892  0.245348  1
  Sn  Sn13  1  0.923691  0.511664  0.750615  1
  Sn  Sn14  1  0.511664  0.923691  0.750615  1
  Sn  Sn15  1  0.084892  0.486191  0.245348  1
