# generated using pymatgen
data_Sm9Er(Sn3Cl)2
_symmetry_space_group_name_H-M   'P 1'
_cell_length_a   9.30578700
_cell_length_b   9.30578766
_cell_length_c   6.66382800
_cell_angle_alpha   90.00000000
_cell_angle_beta   90.00000000
_cell_angle_gamma   119.99999408
_symmetry_Int_Tables_number   1
_chemical_formula_structural   Sm9Er(Sn3Cl)2
_chemical_formula_sum   'Sm9 Er1 Sn6 Cl2'
_cell_volume   499.75906805
_cell_formula_units_Z   1
loop_
 _symmetry_equiv_pos_site_id
 _symmetry_equiv_pos_as_xyz
  1  'x, y, z'
loop_
 _atom_site_type_symbol
 _atom_site_label
 _atom_site_symmetry_multiplicity
 _atom_site_fract_x
 _atom_site_fract_y
 _atom_site_fract_z
 _atom_site_occupancy
  Sm  Sm0  1  0.666667  0.333333  0.000000  1
  Sm  Sm1  1  0.333333  0.666667  0.500000  1
  Sm  Sm2  1  0.666667  0.333333  0.500000  1
  Sm  Sm3  1  0.738695  0.999775  0.750359  1
  Sm  Sm4  1  0.738695  0.738920  0.249641  1
  Sm  Sm5  1  0.000225  0.261305  0.249641  1
  Sm  Sm6  1  0.000225  0.738920  0.750359  1
  Sm  Sm7  1  0.261080  0.261305  0.750359  1
  Sm  Sm8  1  0.261080  0.999775  0.249641  1
  Er  Er9  1  0.333333  0.666667  0.000000  1
  Sn  Sn10  1  0.609705  0.611466  0.751225  1
  Sn  Sn11  1  0.001761  0.611466  0.248775  1
  Sn  Sn12  1  0.609705  0.998239  0.248775  1
  Sn  Sn13  1  0.388534  0.998239  0.751225  1
  Sn  Sn14  1  0.001761  0.390295  0.751225  1
  Sn  Sn15  1  0.388534  0.390295  0.248775  1
  Cl  Cl16  1  0.000000  0.000000  0.500000  1
  Cl  Cl17  1  0.000000  0.000000  0.000000  1
