# generated using pymatgen
data_Ho7C3I6N
_symmetry_space_group_name_H-M   'P 1'
_cell_length_a   3.85051700
_cell_length_b   11.46341500
_cell_length_c   22.51602700
_cell_angle_alpha   90.00000000
_cell_angle_beta   90.00000000
_cell_angle_gamma   90.00000000
_symmetry_Int_Tables_number   1
_chemical_formula_structural   Ho7C3I6N
_chemical_formula_sum   'Ho14 C6 I12 N2'
_cell_volume   993.85910552
_cell_formula_units_Z   2
loop_
 _symmetry_equiv_pos_site_id
 _symmetry_equiv_pos_as_xyz
  1  'x, y, z'
loop_
 _atom_site_type_symbol
 _atom_site_label
 _atom_site_symmetry_multiplicity
 _atom_site_fract_x
 _atom_site_fract_y
 _atom_site_fract_z
 _atom_site_occupancy
  Ho  Ho0  1  0.500000  0.637881  0.969148  1
  Ho  Ho1  1  0.000000  0.702346  0.668762  1
  Ho  Ho2  1  0.500000  0.509438  0.750000  1
  Ho  Ho3  1  0.000000  0.442012  0.607021  1
  Ho  Ho4  1  0.000000  0.297654  0.168762  1
  Ho  Ho5  1  0.500000  0.490562  0.250000  1
  Ho  Ho6  1  0.500000  0.362119  0.469148  1
  Ho  Ho7  1  0.000000  0.442012  0.892979  1
  Ho  Ho8  1  0.000000  0.557988  0.107021  1
  Ho  Ho9  1  0.000000  0.702346  0.831238  1
  Ho  Ho10  1  0.500000  0.637881  0.530852  1
  Ho  Ho11  1  0.500000  0.362119  0.030852  1
  Ho  Ho12  1  0.000000  0.297654  0.331238  1
  Ho  Ho13  1  0.000000  0.557988  0.392979  1
  C  C14  1  0.500000  0.424336  0.132768  1
  C  C15  1  0.500000  0.575664  0.632768  1
  C  C16  1  0.000000  0.500000  0.000000  1
  C  C17  1  0.500000  0.575664  0.867232  1
  C  C18  1  0.000000  0.500000  0.500000  1
  C  C19  1  0.500000  0.424336  0.367232  1
  I  I20  1  0.500000  0.121527  0.250000  1
  I  I21  1  0.000000  0.702674  0.250000  1
  I  I22  1  0.000000  0.145360  0.056783  1
  I  I23  1  0.500000  0.230818  0.906746  1
  I  I24  1  0.500000  0.769182  0.406746  1
  I  I25  1  0.000000  0.854640  0.943217  1
  I  I26  1  0.000000  0.145360  0.443217  1
  I  I27  1  0.500000  0.769182  0.093254  1
  I  I28  1  0.000000  0.854640  0.556783  1
  I  I29  1  0.000000  0.297326  0.750000  1
  I  I30  1  0.500000  0.230818  0.593254  1
  I  I31  1  0.500000  0.878473  0.750000  1
  N  N32  1  0.000000  0.604914  0.750000  1
  N  N33  1  0.000000  0.395086  0.250000  1
