# generated using pymatgen
data_PrCd4Ag
_symmetry_space_group_name_H-M   'P 1'
_cell_length_a   10.49627700
_cell_length_b   10.49627666
_cell_length_c   4.49521700
_cell_angle_alpha   90.00000000
_cell_angle_beta   90.00000000
_cell_angle_gamma   119.99999162
_symmetry_Int_Tables_number   1
_chemical_formula_structural   PrCd4Ag
_chemical_formula_sum   'Pr3 Cd12 Ag3'
_cell_volume   428.89588799
_cell_formula_units_Z   3
loop_
 _symmetry_equiv_pos_site_id
 _symmetry_equiv_pos_as_xyz
  1  'x, y, z'
loop_
 _atom_site_type_symbol
 _atom_site_label
 _atom_site_symmetry_multiplicity
 _atom_site_fract_x
 _atom_site_fract_y
 _atom_site_fract_z
 _atom_site_occupancy
  Pr  Pr0  1  0.000000  0.403173  0.000000  1
  Pr  Pr1  1  0.403173  0.000000  0.000000  1
  Pr  Pr2  1  0.596827  0.596827  0.000000  1
  Cd  Cd3  1  0.526628  0.822505  0.500000  1
  Cd  Cd4  1  0.295876  0.473372  0.500000  1
  Cd  Cd5  1  0.473372  0.295876  0.500000  1
  Cd  Cd6  1  0.704124  0.177495  0.500000  1
  Cd  Cd7  1  0.822877  0.822877  0.500000  1
  Cd  Cd8  1  0.000000  0.177123  0.500000  1
  Cd  Cd9  1  0.177123  0.000000  0.500000  1
  Cd  Cd10  1  0.177495  0.704124  0.500000  1
  Cd  Cd11  1  0.000000  0.731501  0.000000  1
  Cd  Cd12  1  0.822505  0.526628  0.500000  1
  Cd  Cd13  1  0.268499  0.268499  0.000000  1
  Cd  Cd14  1  0.731501  0.000000  0.000000  1
  Ag  Ag15  1  0.000000  0.000000  0.000000  1
  Ag  Ag16  1  0.666667  0.333333  0.000000  1
  Ag  Ag17  1  0.333333  0.666667  0.000000  1
