# generated using pymatgen
data_TbHo3Al15(SiIr2)3
_symmetry_space_group_name_H-M   'P 1'
_cell_length_a   7.53645554
_cell_length_b   7.51939052
_cell_length_c   9.31763600
_cell_angle_alpha   90.00004647
_cell_angle_beta   89.91486733
_cell_angle_gamma   119.74679016
_symmetry_Int_Tables_number   1
_chemical_formula_structural   TbHo3Al15(SiIr2)3
_chemical_formula_sum   'Tb1 Ho3 Al15 Si3 Ir6'
_cell_volume   458.44578113
_cell_formula_units_Z   1
loop_
 _symmetry_equiv_pos_site_id
 _symmetry_equiv_pos_as_xyz
  1  'x, y, z'
loop_
 _atom_site_type_symbol
 _atom_site_label
 _atom_site_symmetry_multiplicity
 _atom_site_fract_x
 _atom_site_fract_y
 _atom_site_fract_z
 _atom_site_occupancy
  Tb  Tb0  1  0.993825  0.668735  0.248402  1
  Ho  Ho1  1  0.004957  0.325535  0.753248  1
  Ho  Ho2  1  0.679255  0.000350  0.248051  1
  Ho  Ho3  1  0.325901  0.005568  0.749512  1
  Al  Al4  1  0.998116  0.668521  0.921789  1
  Al  Al5  1  0.999155  0.664188  0.575614  1
  Al  Al6  1  0.336246  0.000292  0.424552  1
  Al  Al7  1  0.001695  0.336027  0.428747  1
  Al  Al8  1  0.663467  0.999093  0.575491  1
  Al  Al9  1  0.659260  0.994229  0.922266  1
  Al  Al10  1  0.335883  0.000367  0.075811  1
  Al  Al11  1  0.335738  0.335280  0.558599  1
  Al  Al12  1  0.664793  0.665588  0.441643  1
  Al  Al13  1  0.664182  0.665192  0.059522  1
  Al  Al14  1  0.338665  0.335339  0.941335  1
  Al  Al15  1  0.334650  0.546607  0.250346  1
  Al  Al16  1  0.665607  0.451279  0.750134  1
  Al  Al17  1  0.545792  0.335220  0.250261  1
  Al  Al18  1  0.450404  0.663283  0.749398  1
  Si  Si19  1  0.132042  0.127734  0.250895  1
  Si  Si20  1  0.871207  0.872650  0.749744  1
  Si  Si21  1  0.001131  0.337620  0.072917  1
  Ir  Ir22  1  0.679126  0.328354  0.001499  1
  Ir  Ir23  1  0.320171  0.664013  0.999964  1
  Ir  Ir24  1  0.328002  0.671324  0.499544  1
  Ir  Ir25  1  0.671996  0.328339  0.499308  1
  Ir  Ir26  1  0.999095  0.008494  0.001805  1
  Ir  Ir27  1  0.999638  0.000780  0.499604  1
