# generated using pymatgen
data_La4Ga4IrPt2Rh
_symmetry_space_group_name_H-M   'P 1'
_cell_length_a   4.51843000
_cell_length_b   7.18034675
_cell_length_c   7.95245547
_cell_angle_alpha   90.15704517
_cell_angle_beta   90.00000000
_cell_angle_gamma   90.00000000
_symmetry_Int_Tables_number   1
_chemical_formula_structural   La4Ga4IrPt2Rh
_chemical_formula_sum   'La4 Ga4 Ir1 Pt2 Rh1'
_cell_volume   258.00765413
_cell_formula_units_Z   1
loop_
 _symmetry_equiv_pos_site_id
 _symmetry_equiv_pos_as_xyz
  1  'x, y, z'
loop_
 _atom_site_type_symbol
 _atom_site_label
 _atom_site_symmetry_multiplicity
 _atom_site_fract_x
 _atom_site_fract_y
 _atom_site_fract_z
 _atom_site_occupancy
  La  La0  1  0.250000  0.035376  0.683934  1
  La  La1  1  0.250000  0.535750  0.816363  1
  La  La2  1  0.750000  0.971762  0.306985  1
  La  La3  1  0.750000  0.470297  0.193937  1
  Ga  Ga4  1  0.250000  0.150718  0.072762  1
  Ga  Ga5  1  0.250000  0.650330  0.428049  1
  Ga  Ga6  1  0.750000  0.844747  0.930997  1
  Ga  Ga7  1  0.750000  0.344485  0.568963  1
  Ir  Ir8  1  0.250000  0.276548  0.392674  1
  Pt  Pt9  1  0.750000  0.721727  0.608666  1
  Pt  Pt10  1  0.750000  0.222113  0.891156  1
  Rh  Rh11  1  0.250000  0.776146  0.105516  1
