# generated using pymatgen
data_Gd6IrO12
_symmetry_space_group_name_H-M   'P 1'
_cell_length_a   6.57575194
_cell_length_b   6.57575157
_cell_length_c   6.57575045
_cell_angle_alpha   98.64538333
_cell_angle_beta   98.64537988
_cell_angle_gamma   98.64537950
_symmetry_Int_Tables_number   1
_chemical_formula_structural   Gd6IrO12
_chemical_formula_sum   'Gd6 Ir1 O12'
_cell_volume   273.53039235
_cell_formula_units_Z   1
loop_
 _symmetry_equiv_pos_site_id
 _symmetry_equiv_pos_as_xyz
  1  'x, y, z'
loop_
 _atom_site_type_symbol
 _atom_site_label
 _atom_site_symmetry_multiplicity
 _atom_site_fract_x
 _atom_site_fract_y
 _atom_site_fract_z
 _atom_site_occupancy
  Gd  Gd0  1  0.856907  0.390120  0.689494  1
  Gd  Gd1  1  0.609880  0.310506  0.143093  1
  Gd  Gd2  1  0.310506  0.143093  0.609880  1
  Gd  Gd3  1  0.689494  0.856907  0.390120  1
  Gd  Gd4  1  0.390120  0.689494  0.856907  1
  Gd  Gd5  1  0.143093  0.609880  0.310506  1
  Ir  Ir6  1  0.000000  0.000000  0.000000  1
  O  O7  1  0.929405  0.034499  0.705181  1
  O  O8  1  0.965501  0.294819  0.070595  1
  O  O9  1  0.590741  0.177378  0.435202  1
  O  O10  1  0.822622  0.564798  0.409259  1
  O  O11  1  0.294819  0.070595  0.965501  1
  O  O12  1  0.564798  0.409259  0.822622  1
  O  O13  1  0.435202  0.590741  0.177378  1
  O  O14  1  0.705181  0.929405  0.034499  1
  O  O15  1  0.177378  0.435202  0.590741  1
  O  O16  1  0.409259  0.822622  0.564798  1
  O  O17  1  0.034499  0.705181  0.929405  1
  O  O18  1  0.070595  0.965501  0.294819  1
