# generated using pymatgen
data_Nd2Ga9RuPt2
_symmetry_space_group_name_H-M   'P 1'
_cell_length_a   7.71624825
_cell_length_b   7.71624778
_cell_length_c   9.63177200
_cell_angle_alpha   90.00000000
_cell_angle_beta   90.00000000
_cell_angle_gamma   119.72850381
_symmetry_Int_Tables_number   1
_chemical_formula_structural   Nd2Ga9RuPt2
_chemical_formula_sum   'Nd4 Ga18 Ru2 Pt4'
_cell_volume   498.00169946
_cell_formula_units_Z   2
loop_
 _symmetry_equiv_pos_site_id
 _symmetry_equiv_pos_as_xyz
  1  'x, y, z'
loop_
 _atom_site_type_symbol
 _atom_site_label
 _atom_site_symmetry_multiplicity
 _atom_site_fract_x
 _atom_site_fract_y
 _atom_site_fract_z
 _atom_site_occupancy
  Nd  Nd0  1  0.997710  0.666916  0.250000  1
  Nd  Nd1  1  0.002290  0.333084  0.750000  1
  Nd  Nd2  1  0.666916  0.997710  0.250000  1
  Nd  Nd3  1  0.333084  0.002290  0.750000  1
  Ga  Ga4  1  0.122200  0.122200  0.250000  1
  Ga  Ga5  1  0.877800  0.877800  0.750000  1
  Ga  Ga6  1  0.001454  0.328706  0.079042  1
  Ga  Ga7  1  0.998546  0.671294  0.920958  1
  Ga  Ga8  1  0.998546  0.671294  0.579042  1
  Ga  Ga9  1  0.328706  0.001454  0.420958  1
  Ga  Ga10  1  0.001454  0.328706  0.420958  1
  Ga  Ga11  1  0.671294  0.998546  0.579042  1
  Ga  Ga12  1  0.671294  0.998546  0.920958  1
  Ga  Ga13  1  0.328706  0.001454  0.079042  1
  Ga  Ga14  1  0.326665  0.326665  0.562201  1
  Ga  Ga15  1  0.673335  0.673335  0.437799  1
  Ga  Ga16  1  0.673335  0.673335  0.062201  1
  Ga  Ga17  1  0.326665  0.326665  0.937799  1
  Ga  Ga18  1  0.343272  0.542943  0.250000  1
  Ga  Ga19  1  0.656728  0.457057  0.750000  1
  Ga  Ga20  1  0.542943  0.343272  0.250000  1
  Ga  Ga21  1  0.457057  0.656728  0.750000  1
  Ru  Ru22  1  0.000000  0.000000  0.000000  1
  Ru  Ru23  1  0.000000  0.000000  0.500000  1
  Pt  Pt24  1  0.671099  0.328901  0.000000  1
  Pt  Pt25  1  0.328901  0.671099  0.000000  1
  Pt  Pt26  1  0.328901  0.671099  0.500000  1
  Pt  Pt27  1  0.671099  0.328901  0.500000  1
