# generated using pymatgen
data_Mg3Be2B4Ir10W
_symmetry_space_group_name_H-M   'P 1'
_cell_length_a   9.31001393
_cell_length_b   9.31001393
_cell_length_c   2.87651900
_cell_angle_alpha   90.00000000
_cell_angle_beta   90.00000000
_cell_angle_gamma   88.87090577
_symmetry_Int_Tables_number   1
_chemical_formula_structural   Mg3Be2B4Ir10W
_chemical_formula_sum   'Mg3 Be2 B4 Ir10 W1'
_cell_volume   249.27778421
_cell_formula_units_Z   1
loop_
 _symmetry_equiv_pos_site_id
 _symmetry_equiv_pos_as_xyz
  1  'x, y, z'
loop_
 _atom_site_type_symbol
 _atom_site_label
 _atom_site_symmetry_multiplicity
 _atom_site_fract_x
 _atom_site_fract_y
 _atom_site_fract_z
 _atom_site_occupancy
  Mg  Mg0  1  0.178388  0.326987  0.000000  1
  Mg  Mg1  1  0.826987  0.678388  0.000000  1
  Mg  Mg2  1  0.321617  0.821617  0.000000  1
  Be  Be3  1  0.998245  0.000074  0.000000  1
  Be  Be4  1  0.500074  0.498245  0.000000  1
  B  B5  1  0.363018  0.128286  0.000000  1
  B  B6  1  0.877259  0.377259  0.000000  1
  B  B7  1  0.130747  0.630746  0.000000  1
  B  B8  1  0.628285  0.863018  0.000000  1
  Ir  Ir9  1  0.501062  0.001062  0.500001  1
  Ir  Ir10  1  0.203362  0.068870  0.500001  1
  Ir  Ir11  1  0.925853  0.206361  0.500001  1
  Ir  Ir12  1  0.441088  0.289048  0.500001  1
  Ir  Ir13  1  0.706362  0.425854  0.500001  1
  Ir  Ir14  1  0.001106  0.501106  0.500001  1
  Ir  Ir15  1  0.295216  0.566604  0.500001  1
  Ir  Ir16  1  0.568870  0.703363  0.500001  1
  Ir  Ir17  1  0.066604  0.795216  0.500001  1
  Ir  Ir18  1  0.789048  0.941087  0.500001  1
  W  W19  1  0.676813  0.176813  0.000000  1
