# generated using pymatgen
data_YTh13(TcRh)3
_symmetry_space_group_name_H-M   'P 1'
_cell_length_a   10.00284600
_cell_length_b   10.00284535
_cell_length_c   6.33863100
_cell_angle_alpha   90.00000000
_cell_angle_beta   90.00000000
_cell_angle_gamma   120.00000214
_symmetry_Int_Tables_number   1
_chemical_formula_structural   YTh13(TcRh)3
_chemical_formula_sum   'Y1 Th13 Tc3 Rh3'
_cell_volume   549.25400180
_cell_formula_units_Z   1
loop_
 _symmetry_equiv_pos_site_id
 _symmetry_equiv_pos_as_xyz
  1  'x, y, z'
loop_
 _atom_site_type_symbol
 _atom_site_label
 _atom_site_symmetry_multiplicity
 _atom_site_fract_x
 _atom_site_fract_y
 _atom_site_fract_z
 _atom_site_occupancy
  Y  Y0  1  0.666667  0.333333  0.551468  1
  Th  Th1  1  0.333333  0.666667  0.027258  1
  Th  Th2  1  0.874078  0.748156  0.755565  1
  Th  Th3  1  0.251844  0.125922  0.755565  1
  Th  Th4  1  0.874078  0.125922  0.755565  1
  Th  Th5  1  0.126083  0.252166  0.254204  1
  Th  Th6  1  0.747834  0.873917  0.254204  1
  Th  Th7  1  0.126083  0.873917  0.254204  1
  Th  Th8  1  0.458238  0.916477  0.550052  1
  Th  Th9  1  0.083523  0.541762  0.550052  1
  Th  Th10  1  0.458238  0.541762  0.550052  1
  Th  Th11  1  0.536835  0.073669  0.054570  1
  Th  Th12  1  0.926331  0.463165  0.054570  1
  Th  Th13  1  0.536835  0.463165  0.054570  1
  Tc  Tc14  1  0.183392  0.366784  0.795802  1
  Tc  Tc15  1  0.633216  0.816608  0.795802  1
  Tc  Tc16  1  0.183392  0.816608  0.795802  1
  Rh  Rh17  1  0.813768  0.627535  0.291067  1
  Rh  Rh18  1  0.372465  0.186232  0.291067  1
  Rh  Rh19  1  0.813768  0.186232  0.291067  1
