# generated using pymatgen
data_YMnSb3
_symmetry_space_group_name_H-M   'P 1'
_cell_length_a   6.02914700
_cell_length_b   6.20688700
_cell_length_c   12.81974100
_cell_angle_alpha   90.00000000
_cell_angle_beta   90.00000000
_cell_angle_gamma   90.00000000
_symmetry_Int_Tables_number   1
_chemical_formula_structural   YMnSb3
_chemical_formula_sum   'Y4 Mn4 Sb12'
_cell_volume   479.74334926
_cell_formula_units_Z   4
loop_
 _symmetry_equiv_pos_site_id
 _symmetry_equiv_pos_as_xyz
  1  'x, y, z'
loop_
 _atom_site_type_symbol
 _atom_site_label
 _atom_site_symmetry_multiplicity
 _atom_site_fract_x
 _atom_site_fract_y
 _atom_site_fract_z
 _atom_site_occupancy
  Y  Y0  1  0.250000  0.504798  0.309052  1
  Y  Y1  1  0.750000  0.495202  0.690948  1
  Y  Y2  1  0.250000  0.004798  0.690948  1
  Y  Y3  1  0.750000  0.995202  0.309052  1
  Mn  Mn4  1  0.000000  0.750000  0.904120  1
  Mn  Mn5  1  0.000000  0.250000  0.095880  1
  Mn  Mn6  1  0.500000  0.250000  0.095880  1
  Mn  Mn7  1  0.500000  0.750000  0.904120  1
  Sb  Sb8  1  0.000000  0.750000  0.502627  1
  Sb  Sb9  1  0.000000  0.250000  0.497373  1
  Sb  Sb10  1  0.500000  0.250000  0.497373  1
  Sb  Sb11  1  0.500000  0.750000  0.502627  1
  Sb  Sb12  1  0.250000  0.602923  0.063684  1
  Sb  Sb13  1  0.750000  0.397077  0.936316  1
  Sb  Sb14  1  0.250000  0.102923  0.936316  1
  Sb  Sb15  1  0.750000  0.897077  0.063684  1
  Sb  Sb16  1  0.250000  0.000024  0.228844  1
  Sb  Sb17  1  0.750000  0.999976  0.771156  1
  Sb  Sb18  1  0.250000  0.500024  0.771156  1
  Sb  Sb19  1  0.750000  0.499976  0.228844  1
