# generated using pymatgen
data_CsNd(DyTe2)2
_symmetry_space_group_name_H-M   'P 1'
_cell_length_a   4.43240100
_cell_length_b   4.43240087
_cell_length_c   16.35295700
_cell_angle_alpha   90.00000000
_cell_angle_beta   90.00000000
_cell_angle_gamma   119.99999353
_symmetry_Int_Tables_number   1
_chemical_formula_structural   CsNd(DyTe2)2
_chemical_formula_sum   'Cs1 Nd1 Dy2 Te4'
_cell_volume   278.23068824
_cell_formula_units_Z   1
loop_
 _symmetry_equiv_pos_site_id
 _symmetry_equiv_pos_as_xyz
  1  'x, y, z'
loop_
 _atom_site_type_symbol
 _atom_site_label
 _atom_site_symmetry_multiplicity
 _atom_site_fract_x
 _atom_site_fract_y
 _atom_site_fract_z
 _atom_site_occupancy
  Cs  Cs0  1  0.666667  0.333333  0.750000  1
  Nd  Nd1  1  0.333333  0.666667  0.250000  1
  Dy  Dy2  1  0.000000  0.000000  0.024676  1
  Dy  Dy3  1  0.000000  0.000000  0.475324  1
  Te  Te4  1  0.333333  0.666667  0.580369  1
  Te  Te5  1  0.666667  0.333333  0.131190  1
  Te  Te6  1  0.666667  0.333333  0.368810  1
  Te  Te7  1  0.333333  0.666667  0.919631  1
