# generated using pymatgen
data_Li2HoEr(SiO4)2
_symmetry_space_group_name_H-M   'P 1'
_cell_length_a   6.20142733
_cell_length_b   5.42239602
_cell_length_c   10.88816568
_cell_angle_alpha   66.31365760
_cell_angle_beta   90.06294408
_cell_angle_gamma   90.06250206
_symmetry_Int_Tables_number   1
_chemical_formula_structural   Li2HoEr(SiO4)2
_chemical_formula_sum   'Li4 Ho2 Er2 Si4 O16'
_cell_volume   335.28810169
_cell_formula_units_Z   2
loop_
 _symmetry_equiv_pos_site_id
 _symmetry_equiv_pos_as_xyz
  1  'x, y, z'
loop_
 _atom_site_type_symbol
 _atom_site_label
 _atom_site_symmetry_multiplicity
 _atom_site_fract_x
 _atom_site_fract_y
 _atom_site_fract_z
 _atom_site_occupancy
  Li  Li0  1  0.134029  0.918660  0.430580  1
  Li  Li1  1  0.633941  0.080871  0.069607  1
  Li  Li2  1  0.865971  0.081340  0.569420  1
  Li  Li3  1  0.366059  0.919129  0.930393  1
  Ho  Ho4  1  0.116704  0.446463  0.847246  1
  Ho  Ho5  1  0.883296  0.553537  0.152754  1
  Er  Er6  1  0.616342  0.553608  0.652154  1
  Er  Er7  1  0.383658  0.446392  0.347846  1
  Si  Si8  1  0.650751  0.903312  0.359873  1
  Si  Si9  1  0.349249  0.096688  0.640127  1
  Si  Si10  1  0.152358  0.095866  0.141077  1
  Si  Si11  1  0.847642  0.904134  0.858923  1
  O  O12  1  0.858005  0.232939  0.775738  1
  O  O13  1  0.639947  0.231973  0.277125  1
  O  O14  1  0.163897  0.187481  0.522593  1
  O  O15  1  0.836622  0.757485  0.751915  1
  O  O16  1  0.141995  0.767061  0.224262  1
  O  O17  1  0.572624  0.230301  0.553980  1
  O  O18  1  0.661265  0.757384  0.252619  1
  O  O19  1  0.427376  0.769699  0.446020  1
  O  O20  1  0.072048  0.772530  0.944694  1
  O  O21  1  0.663101  0.813207  0.976775  1
  O  O22  1  0.163378  0.242515  0.248085  1
  O  O23  1  0.927952  0.227470  0.055306  1
  O  O24  1  0.336899  0.186793  0.023225  1
  O  O25  1  0.338735  0.242616  0.747381  1
  O  O26  1  0.360053  0.768027  0.722875  1
  O  O27  1  0.836103  0.812519  0.477407  1
