# generated using pymatgen
data_Y2HoIn3RhAu2
_symmetry_space_group_name_H-M   'P 1'
_cell_length_a   7.75665557
_cell_length_b   7.76179282
_cell_length_c   3.89440100
_cell_angle_alpha   90.00000000
_cell_angle_beta   90.00000000
_cell_angle_gamma   120.02191272
_symmetry_Int_Tables_number   1
_chemical_formula_structural   Y2HoIn3RhAu2
_chemical_formula_sum   'Y2 Ho1 In3 Rh1 Au2'
_cell_volume   203.00742175
_cell_formula_units_Z   1
loop_
 _symmetry_equiv_pos_site_id
 _symmetry_equiv_pos_as_xyz
  1  'x, y, z'
loop_
 _atom_site_type_symbol
 _atom_site_label
 _atom_site_symmetry_multiplicity
 _atom_site_fract_x
 _atom_site_fract_y
 _atom_site_fract_z
 _atom_site_occupancy
  Y  Y0  1  0.400344  0.400537  0.500000  1
  Y  Y1  1  0.599656  0.000193  0.500000  1
  Ho  Ho2  1  0.000000  0.600549  0.500000  1
  In  In3  1  0.744610  0.744995  0.000000  1
  In  In4  1  0.255390  0.000385  0.000000  1
  In  In5  1  0.000000  0.254508  0.000000  1
  Rh  Rh6  1  0.000000  0.997179  0.500000  1
  Au  Au7  1  0.669625  0.335640  0.000000  1
  Au  Au8  1  0.330375  0.666016  0.000000  1
