# generated using pymatgen
data_K8Li4Tm3LuAs8
_symmetry_space_group_name_H-M   'P 1'
_cell_length_a   10.27962313
_cell_length_b   10.27962395
_cell_length_c   6.70245106
_cell_angle_alpha   90.01149370
_cell_angle_beta   89.98851059
_cell_angle_gamma   98.58061794
_symmetry_Int_Tables_number   1
_chemical_formula_structural   K8Li4Tm3LuAs8
_chemical_formula_sum   'K8 Li4 Tm3 Lu1 As8'
_cell_volume   700.32486976
_cell_formula_units_Z   1
loop_
 _symmetry_equiv_pos_site_id
 _symmetry_equiv_pos_as_xyz
  1  'x, y, z'
loop_
 _atom_site_type_symbol
 _atom_site_label
 _atom_site_symmetry_multiplicity
 _atom_site_fract_x
 _atom_site_fract_y
 _atom_site_fract_z
 _atom_site_occupancy
  K  K0  1  0.068351  0.431559  0.750055  1
  K  K1  1  0.677645  0.322377  0.789294  1
  K  K2  1  0.322377  0.677645  0.210706  1
  K  K3  1  0.568350  0.931639  0.750020  1
  K  K4  1  0.431559  0.068351  0.249945  1
  K  K5  1  0.931639  0.568350  0.249980  1
  K  K6  1  0.822441  0.177628  0.289233  1
  K  K7  1  0.177628  0.822441  0.710767  1
  Li  Li8  1  0.118664  0.118664  0.500000  1
  Li  Li9  1  0.881361  0.881361  0.500000  1
  Li  Li10  1  0.381247  0.381247  0.000000  1
  Li  Li11  1  0.618655  0.618655  0.000000  1
  Tm  Tm12  1  0.868617  0.868617  0.000000  1
  Tm  Tm13  1  0.368340  0.368340  0.500000  1
  Tm  Tm14  1  0.631622  0.631622  0.500000  1
  Lu  Lu15  1  0.131496  0.131496  0.000000  1
  As  As16  1  0.847151  0.652854  0.749966  1
  As  As17  1  0.095264  0.905482  0.234517  1
  As  As18  1  0.404858  0.595112  0.735094  1
  As  As19  1  0.595112  0.404858  0.264906  1
  As  As20  1  0.652854  0.847151  0.250034  1
  As  As21  1  0.152810  0.346475  0.249189  1
  As  As22  1  0.346475  0.152810  0.750811  1
  As  As23  1  0.905482  0.095264  0.765483  1
