# generated using pymatgen
data_Tb3Dy9Co4OsPb
_symmetry_space_group_name_H-M   'P 1'
_cell_length_a   8.33929800
_cell_length_b   8.33929672
_cell_length_c   8.33858950
_cell_angle_alpha   111.57619144
_cell_angle_beta   110.48414481
_cell_angle_gamma   106.40197246
_symmetry_Int_Tables_number   1
_chemical_formula_structural   Tb3Dy9Co4OsPb
_chemical_formula_sum   'Tb3 Dy9 Co4 Os1 Pb1'
_cell_volume   445.38739926
_cell_formula_units_Z   1
loop_
 _symmetry_equiv_pos_site_id
 _symmetry_equiv_pos_as_xyz
  1  'x, y, z'
loop_
 _atom_site_type_symbol
 _atom_site_label
 _atom_site_symmetry_multiplicity
 _atom_site_fract_x
 _atom_site_fract_y
 _atom_site_fract_z
 _atom_site_occupancy
  Tb  Tb0  1  0.817757  0.715698  0.533454  1
  Tb  Tb1  1  0.182039  0.284261  0.466300  1
  Tb  Tb2  1  0.182320  0.715790  0.898110  1
  Dy  Dy3  1  0.817958  0.284041  0.102000  1
  Dy  Dy4  1  0.686748  0.379075  0.692524  1
  Dy  Dy5  1  0.313118  0.620808  0.307518  1
  Dy  Dy6  1  0.686710  0.994399  0.307518  1
  Dy  Dy7  1  0.313449  0.005776  0.692524  1
  Dy  Dy8  1  0.591590  0.786252  0.805642  1
  Dy  Dy9  1  0.408621  0.213983  0.194484  1
  Dy  Dy10  1  0.980501  0.785863  0.194484  1
  Dy  Dy11  1  0.019390  0.214053  0.805642  1
  Co  Co12  1  0.621049  0.000119  0.621168  1
  Co  Co13  1  0.379014  0.999980  0.378994  1
  Co  Co14  1  0.111044  0.610990  0.499762  1
  Co  Co15  1  0.888771  0.388719  0.499762  1
  Os  Os16  1  0.999883  0.000219  0.000103  1
  Pb  Pb17  1  0.500038  0.499975  0.000013  1
