# generated using pymatgen
data_LaSm2PuO7
_symmetry_space_group_name_H-M   'P 1'
_cell_length_a   6.73439100
_cell_length_b   6.73439200
_cell_length_c   7.94392400
_cell_angle_alpha   90.00000000
_cell_angle_beta   90.00000000
_cell_angle_gamma   109.33805048
_symmetry_Int_Tables_number   1
_chemical_formula_structural   LaSm2PuO7
_chemical_formula_sum   'La2 Sm4 Pu2 O14'
_cell_volume   339.94691319
_cell_formula_units_Z   2
loop_
 _symmetry_equiv_pos_site_id
 _symmetry_equiv_pos_as_xyz
  1  'x, y, z'
loop_
 _atom_site_type_symbol
 _atom_site_label
 _atom_site_symmetry_multiplicity
 _atom_site_fract_x
 _atom_site_fract_y
 _atom_site_fract_z
 _atom_site_occupancy
  La  La0  1  0.499600  0.499600  0.000000  1
  La  La1  1  0.500400  0.500400  0.500000  1
  Sm  Sm2  1  0.465650  0.996984  0.250825  1
  Sm  Sm3  1  0.003016  0.534350  0.249175  1
  Sm  Sm4  1  0.534350  0.003016  0.750825  1
  Sm  Sm5  1  0.996984  0.465650  0.749175  1
  Pu  Pu6  1  0.999390  0.999390  0.500000  1
  Pu  Pu7  1  0.000610  0.000610  0.000000  1
  O  O8  1  0.912742  0.087258  0.750000  1
  O  O9  1  0.636355  0.363645  0.750000  1
  O  O10  1  0.326630  0.075478  0.531130  1
  O  O11  1  0.924522  0.673370  0.968870  1
  O  O12  1  0.635437  0.364563  0.250000  1
  O  O13  1  0.922520  0.671596  0.529462  1
  O  O14  1  0.328404  0.077480  0.970538  1
  O  O15  1  0.077480  0.328404  0.029462  1
  O  O16  1  0.671596  0.922520  0.470538  1
  O  O17  1  0.364563  0.635437  0.750000  1
  O  O18  1  0.673370  0.924522  0.031130  1
  O  O19  1  0.075478  0.326630  0.468870  1
  O  O20  1  0.363645  0.636355  0.250000  1
  O  O21  1  0.087258  0.912742  0.250000  1
