# generated using pymatgen
data_KMnBe3F9
_symmetry_space_group_name_H-M   'P 1'
_cell_length_a   6.76631300
_cell_length_b   6.76631143
_cell_length_c   9.97175800
_cell_angle_alpha   90.00000000
_cell_angle_beta   90.00000000
_cell_angle_gamma   119.99999301
_symmetry_Int_Tables_number   1
_chemical_formula_structural   KMnBe3F9
_chemical_formula_sum   'K2 Mn2 Be6 F18'
_cell_volume   395.37250037
_cell_formula_units_Z   2
loop_
 _symmetry_equiv_pos_site_id
 _symmetry_equiv_pos_as_xyz
  1  'x, y, z'
loop_
 _atom_site_type_symbol
 _atom_site_label
 _atom_site_symmetry_multiplicity
 _atom_site_fract_x
 _atom_site_fract_y
 _atom_site_fract_z
 _atom_site_occupancy
  K  K0  1  0.666667  0.333333  0.000000  1
  K  K1  1  0.666667  0.333333  0.500000  1
  Mn  Mn2  1  0.333333  0.666667  0.000000  1
  Mn  Mn3  1  0.333333  0.666667  0.500000  1
  Be  Be4  1  0.217644  0.946390  0.250000  1
  Be  Be5  1  0.217644  0.271255  0.750000  1
  Be  Be6  1  0.728745  0.946390  0.750000  1
  Be  Be7  1  0.053610  0.782356  0.750000  1
  Be  Be8  1  0.053610  0.271255  0.250000  1
  Be  Be9  1  0.728745  0.782356  0.250000  1
  F  F10  1  0.070159  0.663632  0.621440  1
  F  F11  1  0.593474  0.929841  0.621440  1
  F  F12  1  0.336368  0.406526  0.621440  1
  F  F13  1  0.336368  0.929841  0.378560  1
  F  F14  1  0.236907  0.191096  0.250000  1
  F  F15  1  0.954189  0.763093  0.250000  1
  F  F16  1  0.808904  0.045811  0.250000  1
  F  F17  1  0.808904  0.763093  0.750000  1
  F  F18  1  0.954189  0.191096  0.750000  1
  F  F19  1  0.236907  0.045811  0.750000  1
  F  F20  1  0.336368  0.929841  0.121439  1
  F  F21  1  0.593474  0.663632  0.378560  1
  F  F22  1  0.070159  0.406526  0.378560  1
  F  F23  1  0.070159  0.406526  0.121439  1
  F  F24  1  0.593474  0.663632  0.121439  1
  F  F25  1  0.070159  0.663632  0.878560  1
  F  F26  1  0.593474  0.929841  0.878560  1
  F  F27  1  0.336368  0.406526  0.878560  1
