# generated using pymatgen
data_Pa2AlReB8
_symmetry_space_group_name_H-M   'P 1'
_cell_length_a   3.65334600
_cell_length_b   5.95251113
_cell_length_c   5.95251114
_cell_angle_alpha   104.13551885
_cell_angle_beta   90.00000000
_cell_angle_gamma   90.00000000
_symmetry_Int_Tables_number   1
_chemical_formula_structural   Pa2AlReB8
_chemical_formula_sum   'Pa2 Al1 Re1 B8'
_cell_volume   125.52723215
_cell_formula_units_Z   1
loop_
 _symmetry_equiv_pos_site_id
 _symmetry_equiv_pos_as_xyz
  1  'x, y, z'
loop_
 _atom_site_type_symbol
 _atom_site_label
 _atom_site_symmetry_multiplicity
 _atom_site_fract_x
 _atom_site_fract_y
 _atom_site_fract_z
 _atom_site_occupancy
  Pa  Pa0  1  0.000000  0.302070  0.700002  1
  Pa  Pa1  1  0.000000  0.700002  0.302070  1
  Al  Al2  1  0.000000  0.817187  0.817187  1
  Re  Re3  1  0.000000  0.170080  0.170080  1
  B  B4  1  0.500000  0.938335  0.618747  1
  B  B5  1  0.500000  0.066952  0.382431  1
  B  B6  1  0.500000  0.618747  0.938335  1
  B  B7  1  0.500000  0.382431  0.066952  1
  B  B8  1  0.500000  0.620245  0.620245  1
  B  B9  1  0.500000  0.376188  0.376188  1
  B  B10  1  0.500000  0.096340  0.911422  1
  B  B11  1  0.500000  0.911422  0.096340  1
