# generated using pymatgen
data_Dy3Ho(ZnSi3)2
_symmetry_space_group_name_H-M   'P 1'
_cell_length_a   4.08324500
_cell_length_b   4.10906200
_cell_length_c   13.98197700
_cell_angle_alpha   90.00000000
_cell_angle_beta   90.00000000
_cell_angle_gamma   90.00000000
_symmetry_Int_Tables_number   1
_chemical_formula_structural   Dy3Ho(ZnSi3)2
_chemical_formula_sum   'Dy3 Ho1 Zn2 Si6'
_cell_volume   234.59390070
_cell_formula_units_Z   1
loop_
 _symmetry_equiv_pos_site_id
 _symmetry_equiv_pos_as_xyz
  1  'x, y, z'
loop_
 _atom_site_type_symbol
 _atom_site_label
 _atom_site_symmetry_multiplicity
 _atom_site_fract_x
 _atom_site_fract_y
 _atom_site_fract_z
 _atom_site_occupancy
  Dy  Dy0  1  0.000000  0.000000  0.505974  1
  Dy  Dy1  1  0.500000  0.000000  0.744943  1
  Dy  Dy2  1  0.000000  0.500000  0.245906  1
  Ho  Ho3  1  0.500000  0.500000  0.005981  1
  Zn  Zn4  1  0.000000  0.000000  0.915106  1
  Zn  Zn5  1  0.500000  0.500000  0.415390  1
  Si  Si6  1  0.000000  0.500000  0.833070  1
  Si  Si7  1  0.500000  0.000000  0.333683  1
  Si  Si8  1  0.000000  0.000000  0.083203  1
  Si  Si9  1  0.500000  0.500000  0.583214  1
  Si  Si10  1  0.500000  0.000000  0.167029  1
  Si  Si11  1  0.000000  0.500000  0.666501  1
