# generated using pymatgen
data_Ba4AlSi6Pd
_symmetry_space_group_name_H-M   'P 1'
_cell_length_a   8.81836994
_cell_length_b   8.47745249
_cell_length_c   6.44750400
_cell_angle_alpha   70.95353523
_cell_angle_beta   65.32781277
_cell_angle_gamma   43.71864850
_symmetry_Int_Tables_number   1
_chemical_formula_structural   Ba4AlSi6Pd
_chemical_formula_sum   'Ba4 Al1 Si6 Pd1'
_cell_volume   302.47427260
_cell_formula_units_Z   1
loop_
 _symmetry_equiv_pos_site_id
 _symmetry_equiv_pos_as_xyz
  1  'x, y, z'
loop_
 _atom_site_type_symbol
 _atom_site_label
 _atom_site_symmetry_multiplicity
 _atom_site_fract_x
 _atom_site_fract_y
 _atom_site_fract_z
 _atom_site_occupancy
  Ba  Ba0  1  0.246396  0.748684  0.251317  1
  Ba  Ba1  1  0.252929  0.252930  0.247071  1
  Ba  Ba2  1  0.752928  0.752930  0.747071  1
  Ba  Ba3  1  0.748683  0.246398  0.753603  1
  Al  Al4  1  0.665781  0.665783  0.334218  1
  Si  Si5  1  0.840887  0.840888  0.159113  1
  Si  Si6  1  0.840482  0.318508  0.159518  1
  Si  Si7  1  0.663454  0.168883  0.336545  1
  Si  Si8  1  0.318507  0.840483  0.681493  1
  Si  Si9  1  0.168882  0.663455  0.831117  1
  Si  Si10  1  0.168032  0.168033  0.831967  1
  Pd  Pd11  1  0.333028  0.333030  0.666971  1
