# generated using pymatgen
data_Lu2BeSi13Ir6
_symmetry_space_group_name_H-M   'P 1'
_cell_length_a   7.94695061
_cell_length_b   7.94695149
_cell_length_c   7.94695114
_cell_angle_alpha   57.33009695
_cell_angle_beta   57.33009535
_cell_angle_gamma   57.33009421
_symmetry_Int_Tables_number   1
_chemical_formula_structural   Lu2BeSi13Ir6
_chemical_formula_sum   'Lu2 Be1 Si13 Ir6'
_cell_volume   333.07300735
_cell_formula_units_Z   1
loop_
 _symmetry_equiv_pos_site_id
 _symmetry_equiv_pos_as_xyz
  1  'x, y, z'
loop_
 _atom_site_type_symbol
 _atom_site_label
 _atom_site_symmetry_multiplicity
 _atom_site_fract_x
 _atom_site_fract_y
 _atom_site_fract_z
 _atom_site_occupancy
  Lu  Lu0  1  0.998723  0.998723  0.998723  1
  Lu  Lu1  1  0.501277  0.501277  0.501277  1
  Be  Be2  1  0.750000  0.750000  0.750000  1
  Si  Si3  1  0.250000  0.250000  0.250000  1
  Si  Si4  1  0.846927  0.056369  0.674337  1
  Si  Si5  1  0.674337  0.846927  0.056369  1
  Si  Si6  1  0.056369  0.674337  0.846927  1
  Si  Si7  1  0.653073  0.825663  0.443631  1
  Si  Si8  1  0.443631  0.653073  0.825663  1
  Si  Si9  1  0.825663  0.443631  0.653073  1
  Si  Si10  1  0.169267  0.563580  0.356217  1
  Si  Si11  1  0.563580  0.356217  0.169267  1
  Si  Si12  1  0.356217  0.169267  0.563580  1
  Si  Si13  1  0.936420  0.330733  0.143783  1
  Si  Si14  1  0.330733  0.143783  0.936420  1
  Si  Si15  1  0.143783  0.936420  0.330733  1
  Ir  Ir16  1  0.079911  0.420089  0.750000  1
  Ir  Ir17  1  0.250000  0.925063  0.574937  1
  Ir  Ir18  1  0.574937  0.250000  0.925063  1
  Ir  Ir19  1  0.925063  0.574937  0.250000  1
  Ir  Ir20  1  0.420089  0.750000  0.079911  1
  Ir  Ir21  1  0.750000  0.079911  0.420089  1
