# generated using pymatgen
data_CeNd3Lu4(B6Ru)4
_symmetry_space_group_name_H-M   'P 1'
_cell_length_a   3.67849600
_cell_length_b   9.14699720
_cell_length_c   11.55572426
_cell_angle_alpha   90.02426826
_cell_angle_beta   90.00000000
_cell_angle_gamma   90.00000000
_symmetry_Int_Tables_number   1
_chemical_formula_structural   CeNd3Lu4(B6Ru)4
_chemical_formula_sum   'Ce1 Nd3 Lu4 B24 Ru4'
_cell_volume   388.81764526
_cell_formula_units_Z   1
loop_
 _symmetry_equiv_pos_site_id
 _symmetry_equiv_pos_as_xyz
  1  'x, y, z'
loop_
 _atom_site_type_symbol
 _atom_site_label
 _atom_site_symmetry_multiplicity
 _atom_site_fract_x
 _atom_site_fract_y
 _atom_site_fract_z
 _atom_site_occupancy
  Ce  Ce0  1  0.000000  0.322948  0.414457  1
  Nd  Nd1  1  0.000000  0.678321  0.585824  1
  Nd  Nd2  1  0.000000  0.822250  0.085223  1
  Nd  Nd3  1  0.000000  0.177641  0.914385  1
  Lu  Lu4  1  0.000000  0.944651  0.372999  1
  Lu  Lu5  1  0.000000  0.054730  0.627034  1
  Lu  Lu6  1  0.000000  0.444795  0.127167  1
  Lu  Lu7  1  0.000000  0.555624  0.872703  1
  B  B8  1  0.500000  0.555216  0.430069  1
  B  B9  1  0.500000  0.442763  0.568607  1
  B  B10  1  0.500000  0.057159  0.070672  1
  B  B11  1  0.500000  0.943216  0.930033  1
  B  B12  1  0.500000  0.751376  0.417168  1
  B  B13  1  0.500000  0.248783  0.581431  1
  B  B14  1  0.500000  0.251750  0.083141  1
  B  B15  1  0.500000  0.748443  0.917154  1
  B  B16  1  0.500000  0.791762  0.266450  1
  B  B17  1  0.500000  0.207974  0.733503  1
  B  B18  1  0.500000  0.292794  0.234976  1
  B  B19  1  0.500000  0.707979  0.766213  1
  B  B20  1  0.500000  0.630209  0.184146  1
  B  B21  1  0.500000  0.369308  0.815558  1
  B  B22  1  0.500000  0.131681  0.316743  1
  B  B23  1  0.500000  0.869558  0.684140  1
  B  B24  1  0.500000  0.985548  0.215128  1
  B  B25  1  0.500000  0.014733  0.784962  1
  B  B26  1  0.500000  0.484512  0.285862  1
  B  B27  1  0.500000  0.514122  0.714622  1
  B  B28  1  0.500000  0.601519  0.027361  1
  B  B29  1  0.500000  0.398270  0.972540  1
  B  B30  1  0.500000  0.103040  0.472193  1
  B  B31  1  0.500000  0.897797  0.527303  1
  Ru  Ru32  1  0.000000  0.638654  0.319309  1
  Ru  Ru33  1  0.000000  0.359320  0.679109  1
  Ru  Ru34  1  0.000000  0.141884  0.183427  1
  Ru  Ru35  1  0.000000  0.859669  0.818388  1
