# generated using pymatgen
data_Ta12Al8PtAu3C4
_symmetry_space_group_name_H-M   'P 1'
_cell_length_a   8.41469995
_cell_length_b   8.41469945
_cell_length_c   8.41469744
_cell_angle_alpha   59.84285391
_cell_angle_beta   59.84285531
_cell_angle_gamma   59.84285637
_symmetry_Int_Tables_number   1
_chemical_formula_structural   Ta12Al8PtAu3C4
_chemical_formula_sum   'Ta12 Al8 Pt1 Au3 C4'
_cell_volume   419.80646917
_cell_formula_units_Z   1
loop_
 _symmetry_equiv_pos_site_id
 _symmetry_equiv_pos_as_xyz
  1  'x, y, z'
loop_
 _atom_site_type_symbol
 _atom_site_label
 _atom_site_symmetry_multiplicity
 _atom_site_fract_x
 _atom_site_fract_y
 _atom_site_fract_z
 _atom_site_occupancy
  Ta  Ta0  1  0.571134  0.929180  0.571134  1
  Ta  Ta1  1  0.320820  0.678866  0.678866  1
  Ta  Ta2  1  0.681318  0.319328  0.319328  1
  Ta  Ta3  1  0.319328  0.681318  0.319328  1
  Ta  Ta4  1  0.678866  0.678866  0.320820  1
  Ta  Ta5  1  0.319328  0.319328  0.681318  1
  Ta  Ta6  1  0.571134  0.571134  0.929180  1
  Ta  Ta7  1  0.929180  0.571134  0.571134  1
  Ta  Ta8  1  0.568682  0.930672  0.930672  1
  Ta  Ta9  1  0.930672  0.930672  0.568682  1
  Ta  Ta10  1  0.678866  0.320820  0.678866  1
  Ta  Ta11  1  0.930672  0.568682  0.930672  1
  Al  Al12  1  0.913437  0.913437  0.913437  1
  Al  Al13  1  0.994482  0.332840  0.332840  1
  Al  Al14  1  0.332840  0.994482  0.332840  1
  Al  Al15  1  0.332840  0.332840  0.994482  1
  Al  Al16  1  0.917160  0.255518  0.917160  1
  Al  Al17  1  0.917160  0.917160  0.255518  1
  Al  Al18  1  0.255518  0.917160  0.917160  1
  Al  Al19  1  0.336563  0.336563  0.336563  1
  Pt  Pt20  1  0.125000  0.125000  0.125000  1
  Au  Au21  1  0.625000  0.125000  0.125000  1
  Au  Au22  1  0.125000  0.625000  0.125000  1
  Au  Au23  1  0.125000  0.125000  0.625000  1
  C  C24  1  0.625000  0.625000  0.625000  1
  C  C25  1  0.125000  0.625000  0.625000  1
  C  C26  1  0.625000  0.125000  0.625000  1
  C  C27  1  0.625000  0.625000  0.125000  1
