# generated using pymatgen
data_Pr2Er2Zn4Si3Ge
_symmetry_space_group_name_H-M   'P 1'
_cell_length_a   4.21804200
_cell_length_b   4.21804228
_cell_length_c   16.09392900
_cell_angle_alpha   90.00000000
_cell_angle_beta   90.00000000
_cell_angle_gamma   119.99996646
_symmetry_Int_Tables_number   1
_chemical_formula_structural   Pr2Er2Zn4Si3Ge
_chemical_formula_sum   'Pr2 Er2 Zn4 Si3 Ge1'
_cell_volume   247.97887622
_cell_formula_units_Z   1
loop_
 _symmetry_equiv_pos_site_id
 _symmetry_equiv_pos_as_xyz
  1  'x, y, z'
loop_
 _atom_site_type_symbol
 _atom_site_label
 _atom_site_symmetry_multiplicity
 _atom_site_fract_x
 _atom_site_fract_y
 _atom_site_fract_z
 _atom_site_occupancy
  Pr  Pr0  1  0.000000  0.000000  0.001808  1
  Pr  Pr1  1  0.000000  0.000000  0.499432  1
  Er  Er2  1  0.000000  0.000000  0.250590  1
  Er  Er3  1  0.000000  0.000000  0.748223  1
  Zn  Zn4  1  0.333333  0.666667  0.148123  1
  Zn  Zn5  1  0.666667  0.333333  0.848871  1
  Zn  Zn6  1  0.666667  0.333333  0.645848  1
  Zn  Zn7  1  0.333333  0.666667  0.353391  1
  Si  Si8  1  0.333333  0.666667  0.622398  1
  Si  Si9  1  0.666667  0.333333  0.376968  1
  Si  Si10  1  0.666667  0.333333  0.123847  1
  Ge  Ge11  1  0.333333  0.666667  0.880503  1
