# generated using pymatgen
data_Ca3(Hg2Au)2
_symmetry_space_group_name_H-M   'P 1'
_cell_length_a   8.20571800
_cell_length_b   8.20571965
_cell_length_c   3.86306300
_cell_angle_alpha   90.00000000
_cell_angle_beta   90.00000000
_cell_angle_gamma   120.00000946
_symmetry_Int_Tables_number   1
_chemical_formula_structural   Ca3(Hg2Au)2
_chemical_formula_sum   'Ca3 Hg4 Au2'
_cell_volume   225.26599837
_cell_formula_units_Z   1
loop_
 _symmetry_equiv_pos_site_id
 _symmetry_equiv_pos_as_xyz
  1  'x, y, z'
loop_
 _atom_site_type_symbol
 _atom_site_label
 _atom_site_symmetry_multiplicity
 _atom_site_fract_x
 _atom_site_fract_y
 _atom_site_fract_z
 _atom_site_occupancy
  Ca  Ca0  1  0.601618  0.000000  0.000000  1
  Ca  Ca1  1  0.000000  0.601618  0.000000  1
  Ca  Ca2  1  0.398382  0.398382  0.000000  1
  Hg  Hg3  1  0.285542  0.000000  0.500000  1
  Hg  Hg4  1  0.000000  0.285542  0.500000  1
  Hg  Hg5  1  0.714458  0.714458  0.500000  1
  Hg  Hg6  1  0.000000  0.000000  0.000000  1
  Au  Au7  1  0.333333  0.666667  0.500000  1
  Au  Au8  1  0.666667  0.333333  0.500000  1
