# generated using pymatgen
data_La3Pr5MgCdIr2
_symmetry_space_group_name_H-M   'P 1'
_cell_length_a   10.08297123
_cell_length_b   10.12982782
_cell_length_c   10.11897917
_cell_angle_alpha   59.72942038
_cell_angle_beta   60.18876610
_cell_angle_gamma   60.19332897
_symmetry_Int_Tables_number   1
_chemical_formula_structural   La3Pr5MgCdIr2
_chemical_formula_sum   'La6 Pr10 Mg2 Cd2 Ir4'
_cell_volume   731.40740421
_cell_formula_units_Z   2
loop_
 _symmetry_equiv_pos_site_id
 _symmetry_equiv_pos_as_xyz
  1  'x, y, z'
loop_
 _atom_site_type_symbol
 _atom_site_label
 _atom_site_symmetry_multiplicity
 _atom_site_fract_x
 _atom_site_fract_y
 _atom_site_fract_z
 _atom_site_occupancy
  La  La0  1  0.345875  0.347474  0.347411  1
  La  La1  1  0.347474  0.345875  0.959240  1
  La  La2  1  0.347304  0.959686  0.345804  1
  La  La3  1  0.959686  0.347304  0.347204  1
  La  La4  1  0.811745  0.187817  0.188702  1
  La  La5  1  0.187817  0.811745  0.811736  1
  Pr  Pr6  1  0.189936  0.809756  0.190727  1
  Pr  Pr7  1  0.809756  0.189936  0.809581  1
  Pr  Pr8  1  0.191667  0.191667  0.808333  1
  Pr  Pr9  1  0.810641  0.810641  0.189359  1
  Pr  Pr10  1  0.939257  0.561760  0.562343  1
  Pr  Pr11  1  0.561760  0.939257  0.936638  1
  Pr  Pr12  1  0.561558  0.939675  0.561822  1
  Pr  Pr13  1  0.939675  0.561558  0.936944  1
  Pr  Pr14  1  0.563080  0.563080  0.936920  1
  Pr  Pr15  1  0.939118  0.939118  0.560882  1
  Mg  Mg16  1  0.576691  0.575389  0.579193  1
  Mg  Mg17  1  0.575389  0.576691  0.268727  1
  Cd  Cd18  1  0.581165  0.257703  0.581047  1
  Cd  Cd19  1  0.257703  0.581165  0.580084  1
  Ir  Ir20  1  0.139512  0.144088  0.142073  1
  Ir  Ir21  1  0.144088  0.139512  0.574326  1
  Ir  Ir22  1  0.143985  0.575116  0.138068  1
  Ir  Ir23  1  0.575116  0.143985  0.142829  1
