# generated using pymatgen
data_TmLu2Al12(IrOs)2
_symmetry_space_group_name_H-M   'P 1'
_cell_length_a   8.80257101
_cell_length_b   8.80257120
_cell_length_c   9.48133400
_cell_angle_alpha   90.00000000
_cell_angle_beta   90.00000000
_cell_angle_gamma   120.27147715
_symmetry_Int_Tables_number   1
_chemical_formula_structural   TmLu2Al12(IrOs)2
_chemical_formula_sum   'Tm2 Lu4 Al24 Ir4 Os4'
_cell_volume   634.48973491
_cell_formula_units_Z   2
loop_
 _symmetry_equiv_pos_site_id
 _symmetry_equiv_pos_as_xyz
  1  'x, y, z'
loop_
 _atom_site_type_symbol
 _atom_site_label
 _atom_site_symmetry_multiplicity
 _atom_site_fract_x
 _atom_site_fract_y
 _atom_site_fract_z
 _atom_site_occupancy
  Tm  Tm0  1  0.194553  0.805447  0.250000  1
  Tm  Tm1  1  0.805447  0.194553  0.750000  1
  Lu  Lu2  1  0.200156  0.391363  0.250000  1
  Lu  Lu3  1  0.799844  0.608637  0.750000  1
  Lu  Lu4  1  0.608637  0.799844  0.250000  1
  Lu  Lu5  1  0.391363  0.200156  0.750000  1
  Al  Al6  1  0.333884  0.666116  0.027670  1
  Al  Al7  1  0.666116  0.333884  0.972330  1
  Al  Al8  1  0.666116  0.333884  0.527670  1
  Al  Al9  1  0.333884  0.666116  0.472330  1
  Al  Al10  1  0.163928  0.327206  0.575942  1
  Al  Al11  1  0.836072  0.672794  0.424058  1
  Al  Al12  1  0.672794  0.836072  0.575942  1
  Al  Al13  1  0.836072  0.672794  0.075942  1
  Al  Al14  1  0.327206  0.163928  0.424058  1
  Al  Al15  1  0.163928  0.327206  0.924058  1
  Al  Al16  1  0.162628  0.837372  0.577353  1
  Al  Al17  1  0.327206  0.163928  0.075942  1
  Al  Al18  1  0.837372  0.162628  0.422647  1
  Al  Al19  1  0.672794  0.836072  0.924058  1
  Al  Al20  1  0.837372  0.162628  0.077353  1
  Al  Al21  1  0.162628  0.837372  0.922647  1
  Al  Al22  1  0.562264  0.122488  0.250000  1
  Al  Al23  1  0.437736  0.877512  0.750000  1
  Al  Al24  1  0.877512  0.437736  0.250000  1
  Al  Al25  1  0.122488  0.562264  0.750000  1
  Al  Al26  1  0.562730  0.437270  0.250000  1
  Al  Al27  1  0.437270  0.562730  0.750000  1
  Al  Al28  1  0.001197  0.998803  0.250000  1
  Al  Al29  1  0.998803  0.001197  0.750000  1
  Ir  Ir30  1  0.500000  0.000000  0.000000  1
  Ir  Ir31  1  0.000000  0.500000  0.000000  1
  Ir  Ir32  1  0.500000  0.000000  0.500000  1
  Ir  Ir33  1  0.000000  0.500000  0.500000  1
  Os  Os34  1  0.500000  0.500000  0.000000  1
  Os  Os35  1  0.500000  0.500000  0.500000  1
  Os  Os36  1  0.000000  0.000000  0.000000  1
  Os  Os37  1  0.000000  0.000000  0.500000  1
