# generated using pymatgen
data_Zr20Si15Se
_symmetry_space_group_name_H-M   'P 1'
_cell_length_a   7.17837735
_cell_length_b   7.15919323
_cell_length_c   13.07913090
_cell_angle_alpha   89.98582700
_cell_angle_beta   89.48117794
_cell_angle_gamma   89.97417643
_symmetry_Int_Tables_number   1
_chemical_formula_structural   Zr20Si15Se
_chemical_formula_sum   'Zr20 Si15 Se1'
_cell_volume   672.12707916
_cell_formula_units_Z   1
loop_
 _symmetry_equiv_pos_site_id
 _symmetry_equiv_pos_as_xyz
  1  'x, y, z'
loop_
 _atom_site_type_symbol
 _atom_site_label
 _atom_site_symmetry_multiplicity
 _atom_site_fract_x
 _atom_site_fract_y
 _atom_site_fract_z
 _atom_site_occupancy
  Zr  Zr0  1  0.351335  0.502190  0.379240  1
  Zr  Zr1  1  0.850817  0.001917  0.371067  1
  Zr  Zr2  1  0.001469  0.146406  0.127119  1
  Zr  Zr3  1  0.003663  0.854083  0.624914  1
  Zr  Zr4  1  0.647018  0.499306  0.877198  1
  Zr  Zr5  1  0.505069  0.351094  0.623515  1
  Zr  Zr6  1  0.498322  0.646130  0.122764  1
  Zr  Zr7  1  0.145508  0.000988  0.873386  1
  Zr  Zr8  1  0.998809  0.648363  0.035715  1
  Zr  Zr9  1  0.001373  0.345142  0.534905  1
  Zr  Zr10  1  0.650000  0.998730  0.963825  1
  Zr  Zr11  1  0.151024  0.501453  0.784134  1
  Zr  Zr12  1  0.839961  0.494093  0.279734  1
  Zr  Zr13  1  0.500022  0.151313  0.214668  1
  Zr  Zr14  1  0.503742  0.853023  0.717313  1
  Zr  Zr15  1  0.355488  0.006092  0.466980  1
  Zr  Zr16  1  0.670878  0.677223  0.499905  1
  Zr  Zr17  1  0.825639  0.175963  0.749895  1
  Zr  Zr18  1  0.175101  0.824439  0.249284  1
  Zr  Zr19  1  0.323627  0.324285  0.999965  1
  Si  Si20  1  0.948374  0.300404  0.937772  1
  Si  Si21  1  0.703417  0.050623  0.562507  1
  Si  Si22  1  0.199495  0.448685  0.188295  1
  Si  Si23  1  0.800963  0.552187  0.687589  1
  Si  Si24  1  0.448043  0.201318  0.813044  1
  Si  Si25  1  0.550029  0.800475  0.311371  1
  Si  Si26  1  0.300144  0.948859  0.061889  1
  Si  Si27  1  0.855380  0.795325  0.821576  1
  Si  Si28  1  0.147586  0.203910  0.322446  1
  Si  Si29  1  0.793746  0.853817  0.176449  1
  Si  Si30  1  0.307421  0.646244  0.584245  1
  Si  Si31  1  0.704989  0.353224  0.072539  1
  Si  Si32  1  0.644408  0.295814  0.426907  1
  Si  Si33  1  0.352795  0.704778  0.927245  1
  Si  Si34  1  0.205681  0.146609  0.678012  1
  Se  Se35  1  0.038665  0.695495  0.432587  1
