# generated using pymatgen
data_PrTm3Zr4F28
_symmetry_space_group_name_H-M   'P 1'
_cell_length_a   5.74731414
_cell_length_b   9.09984747
_cell_length_c   12.24209051
_cell_angle_alpha   62.45904258
_cell_angle_beta   89.94576583
_cell_angle_gamma   90.03865792
_symmetry_Int_Tables_number   1
_chemical_formula_structural   PrTm3Zr4F28
_chemical_formula_sum   'Pr1 Tm3 Zr4 F28'
_cell_volume   567.70310548
_cell_formula_units_Z   1
loop_
 _symmetry_equiv_pos_site_id
 _symmetry_equiv_pos_as_xyz
  1  'x, y, z'
loop_
 _atom_site_type_symbol
 _atom_site_label
 _atom_site_symmetry_multiplicity
 _atom_site_fract_x
 _atom_site_fract_y
 _atom_site_fract_z
 _atom_site_occupancy
  Pr  Pr0  1  0.757082  0.817901  0.766626  1
  Tm  Tm1  1  0.744250  0.819475  0.265995  1
  Tm  Tm2  1  0.243880  0.184096  0.234074  1
  Tm  Tm3  1  0.258355  0.190849  0.732944  1
  Zr  Zr4  1  0.743072  0.279921  0.451189  1
  Zr  Zr5  1  0.244375  0.724865  0.052356  1
  Zr  Zr6  1  0.254534  0.725647  0.537963  1
  Zr  Zr7  1  0.755403  0.267534  0.958111  1
  F  F8  1  0.459331  0.707320  0.927168  1
  F  F9  1  0.967241  0.289385  0.576622  1
  F  F10  1  0.529161  0.285221  0.079691  1
  F  F11  1  0.028822  0.710487  0.416034  1
  F  F12  1  0.453880  0.281420  0.549802  1
  F  F13  1  0.953357  0.714138  0.960685  1
  F  F14  1  0.550042  0.720726  0.445172  1
  F  F15  1  0.045116  0.275708  0.054383  1
  F  F16  1  0.772051  0.517421  0.860837  1
  F  F17  1  0.268187  0.473070  0.638336  1
  F  F18  1  0.236293  0.471599  0.145967  1
  F  F19  1  0.732560  0.530637  0.354709  1
  F  F20  1  0.758948  0.016990  0.061363  1
  F  F21  1  0.258079  0.977055  0.437858  1
  F  F22  1  0.240228  0.974263  0.943453  1
  F  F23  1  0.739376  0.028773  0.551425  1
  F  F24  1  0.982509  0.730189  0.642095  1
  F  F25  1  0.483093  0.265654  0.851198  1
  F  F26  1  0.010536  0.264709  0.346108  1
  F  F27  1  0.514390  0.736381  0.156279  1
  F  F28  1  0.030505  0.748035  0.178009  1
  F  F29  1  0.526466  0.254367  0.326199  1
  F  F30  1  0.970349  0.248405  0.829722  1
  F  F31  1  0.456598  0.742365  0.669041  1
  F  F32  1  0.437205  0.978222  0.236762  1
  F  F33  1  0.937831  0.023893  0.263677  1
  F  F34  1  0.567061  0.041394  0.765745  1
  F  F35  1  0.089838  0.981883  0.732404  1
