# generated using pymatgen
data_Tm16Cd3AgIr4
_symmetry_space_group_name_H-M   'P 1'
_cell_length_a   9.52858503
_cell_length_b   9.52858449
_cell_length_c   9.52858429
_cell_angle_alpha   59.51607602
_cell_angle_beta   59.51607624
_cell_angle_gamma   59.51607186
_symmetry_Int_Tables_number   1
_chemical_formula_structural   Tm16Cd3AgIr4
_chemical_formula_sum   'Tm16 Cd3 Ag1 Ir4'
_cell_volume   605.01259980
_cell_formula_units_Z   1
loop_
 _symmetry_equiv_pos_site_id
 _symmetry_equiv_pos_as_xyz
  1  'x, y, z'
loop_
 _atom_site_type_symbol
 _atom_site_label
 _atom_site_symmetry_multiplicity
 _atom_site_fract_x
 _atom_site_fract_y
 _atom_site_fract_z
 _atom_site_occupancy
  Tm  Tm0  1  0.599788  0.599788  0.599788  1
  Tm  Tm1  1  0.600320  0.600320  0.202129  1
  Tm  Tm2  1  0.600320  0.202129  0.600320  1
  Tm  Tm3  1  0.202129  0.600320  0.600320  1
  Tm  Tm4  1  0.059585  0.439599  0.439599  1
  Tm  Tm5  1  0.437542  0.059495  0.059495  1
  Tm  Tm6  1  0.439599  0.059585  0.439599  1
  Tm  Tm7  1  0.059495  0.437542  0.059495  1
  Tm  Tm8  1  0.439599  0.439599  0.059585  1
  Tm  Tm9  1  0.059495  0.059495  0.437542  1
  Tm  Tm10  1  0.187047  0.811411  0.811411  1
  Tm  Tm11  1  0.812030  0.186611  0.186611  1
  Tm  Tm12  1  0.811411  0.187047  0.811411  1
  Tm  Tm13  1  0.186611  0.812030  0.186611  1
  Tm  Tm14  1  0.811411  0.811411  0.187047  1
  Tm  Tm15  1  0.186611  0.186611  0.812030  1
  Cd  Cd16  1  0.831634  0.831634  0.506908  1
  Cd  Cd17  1  0.831634  0.506908  0.831634  1
  Cd  Cd18  1  0.506908  0.831634  0.831634  1
  Ag  Ag19  1  0.833108  0.833108  0.833108  1
  Ir  Ir20  1  0.392023  0.392023  0.392023  1
  Ir  Ir21  1  0.392984  0.392984  0.825727  1
  Ir  Ir22  1  0.392984  0.825727  0.392984  1
  Ir  Ir23  1  0.825727  0.392984  0.392984  1
