# generated using pymatgen
data_Dy2Er4TcRu
_symmetry_space_group_name_H-M   'P 1'
_cell_length_a   6.26193000
_cell_length_b   7.33679800
_cell_length_c   9.05449300
_cell_angle_alpha   90.00000000
_cell_angle_beta   90.00000000
_cell_angle_gamma   90.00000000
_symmetry_Int_Tables_number   1
_chemical_formula_structural   Dy2Er4TcRu
_chemical_formula_sum   'Dy4 Er8 Tc2 Ru2'
_cell_volume   415.98618500
_cell_formula_units_Z   2
loop_
 _symmetry_equiv_pos_site_id
 _symmetry_equiv_pos_as_xyz
  1  'x, y, z'
loop_
 _atom_site_type_symbol
 _atom_site_label
 _atom_site_symmetry_multiplicity
 _atom_site_fract_x
 _atom_site_fract_y
 _atom_site_fract_z
 _atom_site_occupancy
  Dy  Dy0  1  0.874742  0.539434  0.250000  1
  Dy  Dy1  1  0.625258  0.039434  0.250000  1
  Dy  Dy2  1  0.130872  0.457382  0.750000  1
  Dy  Dy3  1  0.369128  0.957382  0.750000  1
  Er  Er4  1  0.334384  0.676217  0.063498  1
  Er  Er5  1  0.165616  0.176217  0.436502  1
  Er  Er6  1  0.664150  0.324220  0.562869  1
  Er  Er7  1  0.835850  0.824220  0.937131  1
  Er  Er8  1  0.664150  0.324220  0.937131  1
  Er  Er9  1  0.835850  0.824220  0.562869  1
  Er  Er10  1  0.334384  0.676217  0.436502  1
  Er  Er11  1  0.165616  0.176217  0.063498  1
  Tc  Tc12  1  0.038725  0.885811  0.250000  1
  Tc  Tc13  1  0.461275  0.385811  0.250000  1
  Ru  Ru14  1  0.959900  0.116500  0.750000  1
  Ru  Ru15  1  0.540100  0.616500  0.750000  1
