# generated using pymatgen
data_Bi2Te4Pd3
_symmetry_space_group_name_H-M   'P 1'
_cell_length_a   6.74556323
_cell_length_b   6.75163525
_cell_length_c   20.19824582
_cell_angle_alpha   89.32826346
_cell_angle_beta   88.68083649
_cell_angle_gamma   89.32967859
_symmetry_Int_Tables_number   1
_chemical_formula_structural   Bi2Te4Pd3
_chemical_formula_sum   'Bi8 Te16 Pd12'
_cell_volume   919.53336233
_cell_formula_units_Z   4
loop_
 _symmetry_equiv_pos_site_id
 _symmetry_equiv_pos_as_xyz
  1  'x, y, z'
loop_
 _atom_site_type_symbol
 _atom_site_label
 _atom_site_symmetry_multiplicity
 _atom_site_fract_x
 _atom_site_fract_y
 _atom_site_fract_z
 _atom_site_occupancy
  Bi  Bi0  1  0.367959  0.873949  0.711087  1
  Bi  Bi1  1  0.366967  0.872735  0.378101  1
  Bi  Bi2  1  0.366358  0.872464  0.043676  1
  Bi  Bi3  1  0.132490  0.369510  0.957203  1
  Bi  Bi4  1  0.133655  0.367887  0.624273  1
  Bi  Bi5  1  0.136477  0.369493  0.290941  1
  Bi  Bi6  1  0.874448  0.133100  0.790123  1
  Bi  Bi7  1  0.873031  0.134948  0.455417  1
  Te  Te8  1  0.876466  0.130603  0.123323  1
  Te  Te9  1  0.628515  0.630288  0.876259  1
  Te  Te10  1  0.628382  0.629626  0.542816  1
  Te  Te11  1  0.625692  0.629373  0.210297  1
  Te  Te12  1  0.625750  0.127217  0.956271  1
  Te  Te13  1  0.630535  0.127221  0.623592  1
  Te  Te14  1  0.628014  0.125433  0.290700  1
  Te  Te15  1  0.870322  0.627281  0.709315  1
  Te  Te16  1  0.872091  0.627721  0.375862  1
  Te  Te17  1  0.867875  0.626168  0.041970  1
  Te  Te18  1  0.125162  0.871961  0.878428  1
  Te  Te19  1  0.123872  0.872509  0.542046  1
  Te  Te20  1  0.127190  0.867471  0.206889  1
  Te  Te21  1  0.371707  0.371402  0.790331  1
  Te  Te22  1  0.370328  0.369250  0.457086  1
  Te  Te23  1  0.375058  0.371043  0.123607  1
  Pd  Pd24  1  0.001137  0.506666  0.832922  1
  Pd  Pd25  1  0.000715  0.506664  0.499919  1
  Pd  Pd26  1  0.999739  0.501291  0.165212  1
  Pd  Pd27  1  0.497192  0.000977  0.835152  1
  Pd  Pd28  1  0.498235  0.001185  0.502681  1
  Pd  Pd29  1  0.503500  0.001578  0.167123  1
  Pd  Pd30  1  0.505509  0.498788  0.666738  1
  Pd  Pd31  1  0.507718  0.498377  0.334042  1
  Pd  Pd32  1  0.504413  0.498648  0.999999  1
  Pd  Pd33  1  0.991111  0.998134  0.000937  1
  Pd  Pd34  1  0.996226  0.994766  0.665674  1
  Pd  Pd35  1  0.996163  0.994275  0.329990  1
