# generated using pymatgen
data_V10Mo5Pd
_symmetry_space_group_name_H-M   'P 1'
_cell_length_a   6.09806400
_cell_length_b   6.09806400
_cell_length_c   6.11152300
_cell_angle_alpha   90.00000000
_cell_angle_beta   90.00000000
_cell_angle_gamma   90.00000000
_symmetry_Int_Tables_number   1
_chemical_formula_structural   V10Mo5Pd
_chemical_formula_sum   'V10 Mo5 Pd1'
_cell_volume   227.26544445
_cell_formula_units_Z   1
loop_
 _symmetry_equiv_pos_site_id
 _symmetry_equiv_pos_as_xyz
  1  'x, y, z'
loop_
 _atom_site_type_symbol
 _atom_site_label
 _atom_site_symmetry_multiplicity
 _atom_site_fract_x
 _atom_site_fract_y
 _atom_site_fract_z
 _atom_site_occupancy
  V  V0  1  0.253364  0.253364  0.255057  1
  V  V1  1  0.746636  0.253364  0.255057  1
  V  V2  1  0.253364  0.746636  0.255057  1
  V  V3  1  0.746636  0.746636  0.255057  1
  V  V4  1  0.000000  0.000000  0.500001  1
  V  V5  1  0.500001  0.500001  0.500001  1
  V  V6  1  0.253364  0.253364  0.744943  1
  V  V7  1  0.746636  0.253364  0.744943  1
  V  V8  1  0.253364  0.746636  0.744943  1
  V  V9  1  0.746636  0.746636  0.744943  1
  Mo  Mo10  1  0.500001  0.000000  0.000000  1
  Mo  Mo11  1  0.000000  0.500001  0.000000  1
  Mo  Mo12  1  0.500001  0.500001  0.000000  1
  Mo  Mo13  1  0.500001  0.000000  0.500001  1
  Mo  Mo14  1  0.000000  0.500001  0.500001  1
  Pd  Pd15  1  0.000000  0.000000  0.000000  1
