# generated using pymatgen
data_Yb12Cu7Si8Pd
_symmetry_space_group_name_H-M   'P 1'
_cell_length_a   5.47213505
_cell_length_b   7.98998016
_cell_length_c   12.92065353
_cell_angle_alpha   90.06246320
_cell_angle_beta   89.80084052
_cell_angle_gamma   89.72499451
_symmetry_Int_Tables_number   1
_chemical_formula_structural   Yb12Cu7Si8Pd
_chemical_formula_sum   'Yb12 Cu7 Si8 Pd1'
_cell_volume   564.90978340
_cell_formula_units_Z   1
loop_
 _symmetry_equiv_pos_site_id
 _symmetry_equiv_pos_as_xyz
  1  'x, y, z'
loop_
 _atom_site_type_symbol
 _atom_site_label
 _atom_site_symmetry_multiplicity
 _atom_site_fract_x
 _atom_site_fract_y
 _atom_site_fract_z
 _atom_site_occupancy
  Yb  Yb0  1  0.661041  0.247213  0.251213  1
  Yb  Yb1  1  0.338840  0.753975  0.749527  1
  Yb  Yb2  1  0.342685  0.745096  0.250329  1
  Yb  Yb3  1  0.660547  0.254089  0.749561  1
  Yb  Yb4  1  0.137736  0.387995  0.102979  1
  Yb  Yb5  1  0.862928  0.614895  0.897433  1
  Yb  Yb6  1  0.864088  0.613100  0.602460  1
  Yb  Yb7  1  0.865866  0.887224  0.398486  1
  Yb  Yb8  1  0.138164  0.387140  0.397957  1
  Yb  Yb9  1  0.136216  0.113156  0.602390  1
  Yb  Yb10  1  0.135309  0.110636  0.896665  1
  Yb  Yb11  1  0.861644  0.886611  0.103558  1
  Cu  Cu12  1  0.381738  0.032681  0.088560  1
  Cu  Cu13  1  0.614199  0.966689  0.909910  1
  Cu  Cu14  1  0.615003  0.967292  0.588427  1
  Cu  Cu15  1  0.616581  0.533660  0.412020  1
  Cu  Cu16  1  0.385369  0.032932  0.411650  1
  Cu  Cu17  1  0.385517  0.467262  0.588852  1
  Cu  Cu18  1  0.381628  0.466310  0.909155  1
  Si  Si19  1  0.177328  0.093068  0.250407  1
  Si  Si20  1  0.823268  0.906480  0.748784  1
  Si  Si21  1  0.831656  0.595392  0.253705  1
  Si  Si22  1  0.174819  0.405967  0.749940  1
  Si  Si23  1  0.633983  0.244192  0.999201  1
  Si  Si24  1  0.357232  0.754922  0.996924  1
  Si  Si25  1  0.359126  0.750072  0.501028  1
  Si  Si26  1  0.639387  0.249808  0.500396  1
  Pd  Pd27  1  0.618102  0.532145  0.088482  1
