# generated using pymatgen
data_Pr18Sm2Si15Se
_symmetry_space_group_name_H-M   'P 1'
_cell_length_a   7.93873649
_cell_length_b   7.89598078
_cell_length_c   15.34300931
_cell_angle_alpha   89.74952188
_cell_angle_beta   89.26875387
_cell_angle_gamma   89.99205662
_symmetry_Int_Tables_number   1
_chemical_formula_structural   Pr18Sm2Si15Se
_chemical_formula_sum   'Pr18 Sm2 Si15 Se1'
_cell_volume   961.67537410
_cell_formula_units_Z   1
loop_
 _symmetry_equiv_pos_site_id
 _symmetry_equiv_pos_as_xyz
  1  'x, y, z'
loop_
 _atom_site_type_symbol
 _atom_site_label
 _atom_site_symmetry_multiplicity
 _atom_site_fract_x
 _atom_site_fract_y
 _atom_site_fract_z
 _atom_site_occupancy
  Pr  Pr0  1  0.801427  0.190586  0.751639  1
  Pr  Pr1  1  0.687080  0.688986  0.497508  1
  Pr  Pr2  1  0.380614  0.006974  0.443217  1
  Pr  Pr3  1  0.491547  0.875590  0.698401  1
  Pr  Pr4  1  0.510216  0.121231  0.196236  1
  Pr  Pr5  1  0.876721  0.486935  0.301346  1
  Pr  Pr6  1  0.123295  0.510622  0.803443  1
  Pr  Pr7  1  0.629260  0.985860  0.950112  1
  Pr  Pr8  1  0.001182  0.380141  0.548591  1
  Pr  Pr9  1  0.990954  0.622058  0.053508  1
  Pr  Pr10  1  0.136717  0.987988  0.873574  1
  Pr  Pr11  1  0.518345  0.628898  0.126149  1
  Pr  Pr12  1  0.477849  0.370502  0.630583  1
  Pr  Pr13  1  0.631456  0.521505  0.875709  1
  Pr  Pr14  1  0.370520  0.478364  0.373940  1
  Pr  Pr15  1  0.871502  0.019081  0.376336  1
  Pr  Pr16  1  0.982649  0.128475  0.124477  1
  Pr  Pr17  1  0.015792  0.868414  0.621718  1
  Sm  Sm18  1  0.311515  0.310223  0.000194  1
  Sm  Sm19  1  0.188220  0.808994  0.249458  1
  Si  Si20  1  0.330074  0.695702  0.951699  1
  Si  Si21  1  0.664059  0.304660  0.454275  1
  Si  Si22  1  0.698727  0.334020  0.049246  1
  Si  Si23  1  0.303847  0.667567  0.548710  1
  Si  Si24  1  0.805645  0.831735  0.202907  1
  Si  Si25  1  0.168718  0.193305  0.296649  1
  Si  Si26  1  0.840184  0.803653  0.796980  1
  Si  Si27  1  0.286152  0.922587  0.059325  1
  Si  Si28  1  0.575938  0.786861  0.308413  1
  Si  Si29  1  0.446945  0.211431  0.824255  1
  Si  Si30  1  0.788827  0.578814  0.688986  1
  Si  Si31  1  0.212125  0.424192  0.190114  1
  Si  Si32  1  0.704291  0.075729  0.560557  1
  Si  Si33  1  0.927821  0.290092  0.940852  1
  Si  Si34  1  0.078358  0.711848  0.439269  1
  Se  Se35  1  0.171427  0.176376  0.691623  1
