# generated using pymatgen
data_Cr3Bi5F28
_symmetry_space_group_name_H-M   'P 1'
_cell_length_a   5.59847160
_cell_length_b   9.09401975
_cell_length_c   12.00239400
_cell_angle_alpha   62.13411392
_cell_angle_beta   90.13953298
_cell_angle_gamma   89.95418057
_symmetry_Int_Tables_number   1
_chemical_formula_structural   Cr3Bi5F28
_chemical_formula_sum   'Cr3 Bi5 F28'
_cell_volume   540.21276271
_cell_formula_units_Z   1
loop_
 _symmetry_equiv_pos_site_id
 _symmetry_equiv_pos_as_xyz
  1  'x, y, z'
loop_
 _atom_site_type_symbol
 _atom_site_label
 _atom_site_symmetry_multiplicity
 _atom_site_fract_x
 _atom_site_fract_y
 _atom_site_fract_z
 _atom_site_occupancy
  Cr  Cr0  1  0.756424  0.274225  0.958222  1
  Cr  Cr1  1  0.261468  0.724751  0.543484  1
  Cr  Cr2  1  0.241732  0.724816  0.043975  1
  Bi  Bi3  1  0.773364  0.804842  0.764289  1
  Bi  Bi4  1  0.264108  0.182403  0.747584  1
  Bi  Bi5  1  0.232579  0.184443  0.230854  1
  Bi  Bi6  1  0.727445  0.816915  0.260129  1
  Bi  Bi7  1  0.746350  0.268516  0.464713  1
  F  F8  1  0.422678  0.713499  0.921414  1
  F  F9  1  0.938122  0.306749  0.604668  1
  F  F10  1  0.574765  0.289842  0.078409  1
  F  F11  1  0.075862  0.709828  0.423657  1
  F  F12  1  0.402552  0.279848  0.543973  1
  F  F13  1  0.955408  0.719791  0.959445  1
  F  F14  1  0.546469  0.725869  0.454100  1
  F  F15  1  0.047110  0.282394  0.039182  1
  F  F16  1  0.767189  0.500088  0.865262  1
  F  F17  1  0.284241  0.498681  0.636080  1
  F  F18  1  0.232755  0.498837  0.133675  1
  F  F19  1  0.727354  0.532127  0.351896  1
  F  F20  1  0.758264  0.044148  0.047446  1
  F  F21  1  0.256573  0.955714  0.451996  1
  F  F22  1  0.241567  0.957060  0.954186  1
  F  F23  1  0.734675  0.999838  0.553591  1
  F  F24  1  0.985914  0.719488  0.638253  1
  F  F25  1  0.475029  0.271087  0.872515  1
  F  F26  1  0.068047  0.276273  0.363114  1
  F  F27  1  0.523260  0.733172  0.129802  1
  F  F28  1  0.061312  0.744784  0.165204  1
  F  F29  1  0.562497  0.255621  0.312151  1
  F  F30  1  0.936250  0.254008  0.837919  1
  F  F31  1  0.441064  0.742048  0.667237  1
  F  F32  1  0.387387  0.965819  0.218695  1
  F  F33  1  0.894412  0.034934  0.276806  1
  F  F34  1  0.602245  0.033068  0.764182  1
  F  F35  1  0.093527  0.974474  0.721893  1
