# generated using pymatgen
data_Er3Tm7Tl7InPt4
_symmetry_space_group_name_H-M   'P 1'
_cell_length_a   3.56858000
_cell_length_b   8.20984406
_cell_length_c   18.29573390
_cell_angle_alpha   89.91744756
_cell_angle_beta   90.00000000
_cell_angle_gamma   90.00000000
_symmetry_Int_Tables_number   1
_chemical_formula_structural   Er3Tm7Tl7InPt4
_chemical_formula_sum   'Er3 Tm7 Tl7 In1 Pt4'
_cell_volume   536.01843911
_cell_formula_units_Z   1
loop_
 _symmetry_equiv_pos_site_id
 _symmetry_equiv_pos_as_xyz
  1  'x, y, z'
loop_
 _atom_site_type_symbol
 _atom_site_label
 _atom_site_symmetry_multiplicity
 _atom_site_fract_x
 _atom_site_fract_y
 _atom_site_fract_z
 _atom_site_occupancy
  Er  Er0  1  0.000000  0.114549  0.413700  1
  Er  Er1  1  0.000000  0.999812  0.999988  1
  Er  Er2  1  0.000000  0.501854  0.499827  1
  Tm  Tm3  1  0.000000  0.884722  0.586293  1
  Tm  Tm4  1  0.000000  0.385261  0.912720  1
  Tm  Tm5  1  0.000000  0.614742  0.087205  1
  Tm  Tm6  1  0.000000  0.244122  0.221209  1
  Tm  Tm7  1  0.000000  0.756126  0.779090  1
  Tm  Tm8  1  0.000000  0.255200  0.720797  1
  Tm  Tm9  1  0.000000  0.744344  0.279226  1
  Tl  Tl10  1  0.500000  0.423768  0.353223  1
  Tl  Tl11  1  0.500000  0.579318  0.647112  1
  Tl  Tl12  1  0.500000  0.078853  0.852920  1
  Tl  Tl13  1  0.500000  0.921307  0.147178  1
  Tl  Tl14  1  0.500000  0.292833  0.064717  1
  Tl  Tl15  1  0.500000  0.706895  0.935198  1
  Tl  Tl16  1  0.500000  0.207118  0.565145  1
  In  In17  1  0.500000  0.793314  0.433902  1
  Pt  Pt18  1  0.500000  0.023993  0.303916  1
  Pt  Pt19  1  0.500000  0.972739  0.696838  1
  Pt  Pt20  1  0.500000  0.472949  0.803051  1
  Pt  Pt21  1  0.500000  0.526179  0.196744  1
