# generated using pymatgen
data_EuFe2Sb12RuRh
_symmetry_space_group_name_H-M   'P 1'
_cell_length_a   8.04498387
_cell_length_b   8.02187461
_cell_length_c   8.05867477
_cell_angle_alpha   109.42237487
_cell_angle_beta   109.55570117
_cell_angle_gamma   109.32417062
_symmetry_Int_Tables_number   1
_chemical_formula_structural   EuFe2Sb12RuRh
_chemical_formula_sum   'Eu1 Fe2 Sb12 Ru1 Rh1'
_cell_volume   400.90102981
_cell_formula_units_Z   1
loop_
 _symmetry_equiv_pos_site_id
 _symmetry_equiv_pos_as_xyz
  1  'x, y, z'
loop_
 _atom_site_type_symbol
 _atom_site_label
 _atom_site_symmetry_multiplicity
 _atom_site_fract_x
 _atom_site_fract_y
 _atom_site_fract_z
 _atom_site_occupancy
  Eu  Eu0  1  0.000000  0.000000  0.000000  1
  Fe  Fe1  1  0.500000  0.500000  0.500000  1
  Fe  Fe2  1  0.000000  0.000000  0.500000  1
  Sb  Sb3  1  0.665712  0.837760  0.503000  1
  Sb  Sb4  1  0.334288  0.162240  0.497000  1
  Sb  Sb5  1  0.847596  0.179332  0.344811  1
  Sb  Sb6  1  0.823665  0.668103  0.165868  1
  Sb  Sb7  1  0.834205  0.502765  0.657843  1
  Sb  Sb8  1  0.176335  0.331897  0.834132  1
  Sb  Sb9  1  0.152404  0.820668  0.655189  1
  Sb  Sb10  1  0.502361  0.654824  0.833947  1
  Sb  Sb11  1  0.497639  0.345176  0.166053  1
  Sb  Sb12  1  0.165795  0.497235  0.342157  1
  Sb  Sb13  1  0.340689  0.842689  0.185532  1
  Sb  Sb14  1  0.659311  0.157311  0.814468  1
  Ru  Ru15  1  0.000000  0.500000  0.000000  1
  Rh  Rh16  1  0.500000  0.000000  0.000000  1
