# generated using pymatgen
data_NaCa3(PPt3)8
_symmetry_space_group_name_H-M   'P 1'
_cell_length_a   8.55071250
_cell_length_b   8.55071298
_cell_length_c   8.55071300
_cell_angle_alpha   89.93503668
_cell_angle_beta   89.93503668
_cell_angle_gamma   89.93503677
_symmetry_Int_Tables_number   1
_chemical_formula_structural   NaCa3(PPt3)8
_chemical_formula_sum   'Na1 Ca3 P8 Pt24'
_cell_volume   625.18151134
_cell_formula_units_Z   1
loop_
 _symmetry_equiv_pos_site_id
 _symmetry_equiv_pos_as_xyz
  1  'x, y, z'
loop_
 _atom_site_type_symbol
 _atom_site_label
 _atom_site_symmetry_multiplicity
 _atom_site_fract_x
 _atom_site_fract_y
 _atom_site_fract_z
 _atom_site_occupancy
  Na  Na0  1  0.000000  0.000000  0.000000  1
  Ca  Ca1  1  0.500000  0.500000  0.000000  1
  Ca  Ca2  1  0.500000  0.000000  0.500000  1
  Ca  Ca3  1  0.000000  0.500000  0.500000  1
  P  P4  1  0.806101  0.304189  0.193558  1
  P  P5  1  0.193558  0.806101  0.304189  1
  P  P6  1  0.694709  0.694709  0.694709  1
  P  P7  1  0.304189  0.193558  0.806101  1
  P  P8  1  0.193899  0.695811  0.806442  1
  P  P9  1  0.806442  0.193899  0.695811  1
  P  P10  1  0.305291  0.305291  0.305291  1
  P  P11  1  0.695811  0.806442  0.193899  1
  Pt  Pt12  1  0.423508  0.841923  0.158118  1
  Pt  Pt13  1  0.577009  0.342358  0.341747  1
  Pt  Pt14  1  0.076775  0.158721  0.656720  1
  Pt  Pt15  1  0.923380  0.656830  0.841443  1
  Pt  Pt16  1  0.158118  0.423508  0.841923  1
  Pt  Pt17  1  0.341747  0.577009  0.342358  1
  Pt  Pt18  1  0.656720  0.076775  0.158721  1
  Pt  Pt19  1  0.841443  0.923380  0.656830  1
  Pt  Pt20  1  0.841923  0.158118  0.423508  1
  Pt  Pt21  1  0.342358  0.341747  0.577009  1
  Pt  Pt22  1  0.158721  0.656720  0.076775  1
  Pt  Pt23  1  0.656830  0.841443  0.923380  1
  Pt  Pt24  1  0.576492  0.158077  0.841882  1
  Pt  Pt25  1  0.422991  0.657642  0.658253  1
  Pt  Pt26  1  0.923225  0.841279  0.343280  1
  Pt  Pt27  1  0.076620  0.343170  0.158557  1
  Pt  Pt28  1  0.841882  0.576492  0.158077  1
  Pt  Pt29  1  0.658253  0.422991  0.657642  1
  Pt  Pt30  1  0.343280  0.923225  0.841279  1
  Pt  Pt31  1  0.158557  0.076620  0.343170  1
  Pt  Pt32  1  0.158077  0.841882  0.576492  1
  Pt  Pt33  1  0.657642  0.658253  0.422991  1
  Pt  Pt34  1  0.841279  0.343280  0.923225  1
  Pt  Pt35  1  0.343170  0.158557  0.076620  1
