# generated using pymatgen
data_Ho6Er4In8PdPt3
_symmetry_space_group_name_H-M   'P 1'
_cell_length_a   3.60628600
_cell_length_b   8.14637086
_cell_length_c   18.20269992
_cell_angle_alpha   90.05259055
_cell_angle_beta   90.00000000
_cell_angle_gamma   90.00000000
_symmetry_Int_Tables_number   1
_chemical_formula_structural   Ho6Er4In8PdPt3
_chemical_formula_sum   'Ho6 Er4 In8 Pd1 Pt3'
_cell_volume   534.76129908
_cell_formula_units_Z   1
loop_
 _symmetry_equiv_pos_site_id
 _symmetry_equiv_pos_as_xyz
  1  'x, y, z'
loop_
 _atom_site_type_symbol
 _atom_site_label
 _atom_site_symmetry_multiplicity
 _atom_site_fract_x
 _atom_site_fract_y
 _atom_site_fract_z
 _atom_site_occupancy
  Ho  Ho0  1  0.000000  0.245069  0.219429  1
  Ho  Ho1  1  0.000000  0.757103  0.779894  1
  Ho  Ho2  1  0.000000  0.257195  0.720164  1
  Ho  Ho3  1  0.000000  0.740513  0.279754  1
  Ho  Ho4  1  0.000000  0.999782  0.999926  1
  Ho  Ho5  1  0.000000  0.499975  0.500128  1
  Er  Er6  1  0.000000  0.117383  0.415280  1
  Er  Er7  1  0.000000  0.883015  0.585402  1
  Er  Er8  1  0.000000  0.383266  0.914592  1
  Er  Er9  1  0.000000  0.616803  0.085295  1
  In  In10  1  0.500000  0.422180  0.351221  1
  In  In11  1  0.500000  0.577212  0.648798  1
  In  In12  1  0.500000  0.077138  0.851207  1
  In  In13  1  0.500000  0.923325  0.149118  1
  In  In14  1  0.500000  0.292924  0.066304  1
  In  In15  1  0.500000  0.706946  0.933743  1
  In  In16  1  0.500000  0.206906  0.566189  1
  In  In17  1  0.500000  0.793420  0.433422  1
  Pd  Pd18  1  0.500000  0.024715  0.303669  1
  Pt  Pt19  1  0.500000  0.975062  0.696284  1
  Pt  Pt20  1  0.500000  0.475084  0.803685  1
  Pt  Pt21  1  0.500000  0.524985  0.196497  1
