# generated using pymatgen
data_Ho12MgTc2Ni2Sn
_symmetry_space_group_name_H-M   'P 1'
_cell_length_a   8.40900898
_cell_length_b   8.40900988
_cell_length_c   8.40900944
_cell_angle_alpha   113.97670205
_cell_angle_beta   110.23043362
_cell_angle_gamma   104.34962951
_symmetry_Int_Tables_number   1
_chemical_formula_structural   Ho12MgTc2Ni2Sn
_chemical_formula_sum   'Ho12 Mg1 Tc2 Ni2 Sn1'
_cell_volume   454.48673532
_cell_formula_units_Z   1
loop_
 _symmetry_equiv_pos_site_id
 _symmetry_equiv_pos_as_xyz
  1  'x, y, z'
loop_
 _atom_site_type_symbol
 _atom_site_label
 _atom_site_symmetry_multiplicity
 _atom_site_fract_x
 _atom_site_fract_y
 _atom_site_fract_z
 _atom_site_occupancy
  Ho  Ho0  1  0.435692  0.238755  0.196936  1
  Ho  Ho1  1  0.564308  0.761245  0.803064  1
  Ho  Ho2  1  0.041818  0.238755  0.803064  1
  Ho  Ho3  1  0.958182  0.761245  0.196936  1
  Ho  Ho4  1  0.184586  0.286020  0.470607  1
  Ho  Ho5  1  0.815414  0.713980  0.529393  1
  Ho  Ho6  1  0.184586  0.713980  0.898568  1
  Ho  Ho7  1  0.815414  0.286020  0.101432  1
  Ho  Ho8  1  0.329109  0.643927  0.314818  1
  Ho  Ho9  1  0.670891  0.356073  0.685182  1
  Ho  Ho10  1  0.329109  0.014291  0.685182  1
  Ho  Ho11  1  0.670891  0.985709  0.314818  1
  Mg  Mg12  1  0.000000  0.000000  0.000000  1
  Tc  Tc13  1  0.322783  0.000000  0.322783  1
  Tc  Tc14  1  0.677217  0.000000  0.677217  1
  Ni  Ni15  1  0.116856  0.616856  0.500000  1
  Ni  Ni16  1  0.883144  0.383144  0.500000  1
  Sn  Sn17  1  0.500000  0.500000  0.000000  1
