# generated using pymatgen
data_BiTeRhO6
_symmetry_space_group_name_H-M   'P 1'
_cell_length_a   5.30275101
_cell_length_b   9.18502706
_cell_length_c   10.05341101
_cell_angle_alpha   89.99846818
_cell_angle_beta   90.00043834
_cell_angle_gamma   90.00330812
_symmetry_Int_Tables_number   1
_chemical_formula_structural   BiTeRhO6
_chemical_formula_sum   'Bi4 Te4 Rh4 O24'
_cell_volume   489.66054524
_cell_formula_units_Z   4
loop_
 _symmetry_equiv_pos_site_id
 _symmetry_equiv_pos_as_xyz
  1  'x, y, z'
loop_
 _atom_site_type_symbol
 _atom_site_label
 _atom_site_symmetry_multiplicity
 _atom_site_fract_x
 _atom_site_fract_y
 _atom_site_fract_z
 _atom_site_occupancy
  Bi  Bi0  1  0.000000  0.000000  0.500000  1
  Bi  Bi1  1  0.500000  0.500000  0.500000  1
  Bi  Bi2  1  0.000000  0.000000  0.000000  1
  Bi  Bi3  1  0.500000  0.500000  0.000000  1
  Te  Te4  1  0.500043  0.166686  0.749999  1
  Te  Te5  1  0.000043  0.666686  0.749999  1
  Te  Te6  1  0.999957  0.333314  0.250001  1
  Te  Te7  1  0.499957  0.833314  0.250001  1
  Rh  Rh8  1  0.499984  0.833346  0.750004  1
  Rh  Rh9  1  0.500016  0.166654  0.249996  1
  Rh  Rh10  1  0.999984  0.333346  0.750004  1
  Rh  Rh11  1  0.000016  0.666654  0.249996  1
  O  O12  1  0.634767  0.004537  0.640326  1
  O  O13  1  0.134767  0.504537  0.640326  1
  O  O14  1  0.675930  0.315136  0.640317  1
  O  O15  1  0.175930  0.815136  0.640317  1
  O  O16  1  0.189431  0.180385  0.640325  1
  O  O17  1  0.689431  0.680385  0.640325  1
  O  O18  1  0.175845  0.184878  0.140310  1
  O  O19  1  0.675845  0.684878  0.140310  1
  O  O20  1  0.134705  0.495477  0.140328  1
  O  O21  1  0.634705  0.995477  0.140328  1
  O  O22  1  0.689352  0.319617  0.140327  1
  O  O23  1  0.189352  0.819617  0.140327  1
  O  O24  1  0.865233  0.495463  0.359674  1
  O  O25  1  0.365233  0.995463  0.359674  1
  O  O26  1  0.824070  0.184864  0.359683  1
  O  O27  1  0.324070  0.684864  0.359683  1
  O  O28  1  0.310569  0.319615  0.359675  1
  O  O29  1  0.810569  0.819615  0.359675  1
  O  O30  1  0.324155  0.315122  0.859690  1
  O  O31  1  0.824155  0.815122  0.859690  1
  O  O32  1  0.365295  0.004523  0.859672  1
  O  O33  1  0.865295  0.504523  0.859672  1
  O  O34  1  0.810648  0.180383  0.859673  1
  O  O35  1  0.310648  0.680383  0.859673  1
