# generated using pymatgen
data_NdTh(BeGe)2
_symmetry_space_group_name_H-M   'P 1'
_cell_length_a   3.98581700
_cell_length_b   3.98581608
_cell_length_c   8.54748200
_cell_angle_alpha   90.00000000
_cell_angle_beta   90.00000000
_cell_angle_gamma   119.99999936
_symmetry_Int_Tables_number   1
_chemical_formula_structural   NdTh(BeGe)2
_chemical_formula_sum   'Nd1 Th1 Be2 Ge2'
_cell_volume   117.59894866
_cell_formula_units_Z   1
loop_
 _symmetry_equiv_pos_site_id
 _symmetry_equiv_pos_as_xyz
  1  'x, y, z'
loop_
 _atom_site_type_symbol
 _atom_site_label
 _atom_site_symmetry_multiplicity
 _atom_site_fract_x
 _atom_site_fract_y
 _atom_site_fract_z
 _atom_site_occupancy
  Nd  Nd0  1  0.000000  0.000000  0.500001  1
  Th  Th1  1  0.000000  0.000000  0.000000  1
  Be  Be2  1  0.666668  0.333334  0.248221  1
  Be  Be3  1  0.333334  0.666667  0.751779  1
  Ge  Ge4  1  0.333334  0.666667  0.250621  1
  Ge  Ge5  1  0.666668  0.333334  0.749379  1
