# generated using pymatgen
data_PaNi21B6As
_symmetry_space_group_name_H-M   'P 1'
_cell_length_a   7.49087708
_cell_length_b   7.49197590
_cell_length_c   7.49135700
_cell_angle_alpha   60.00272820
_cell_angle_beta   59.99787623
_cell_angle_gamma   59.99791839
_symmetry_Int_Tables_number   1
_chemical_formula_structural   PaNi21B6As
_chemical_formula_sum   'Pa1 Ni21 B6 As1'
_cell_volume   297.28273491
_cell_formula_units_Z   1
loop_
 _symmetry_equiv_pos_site_id
 _symmetry_equiv_pos_as_xyz
  1  'x, y, z'
loop_
 _atom_site_type_symbol
 _atom_site_label
 _atom_site_symmetry_multiplicity
 _atom_site_fract_x
 _atom_site_fract_y
 _atom_site_fract_z
 _atom_site_occupancy
  Pa  Pa0  1  0.250102  0.249997  0.249951  1
  Ni  Ni1  1  0.999983  0.999969  0.000024  1
  Ni  Ni2  1  0.623903  0.623858  0.128335  1
  Ni  Ni3  1  0.623879  0.128333  0.623894  1
  Ni  Ni4  1  0.128359  0.623842  0.623900  1
  Ni  Ni5  1  0.623903  0.623858  0.623905  1
  Ni  Ni6  1  0.392505  0.392602  0.822378  1
  Ni  Ni7  1  0.392532  0.822373  0.392548  1
  Ni  Ni8  1  0.822444  0.392544  0.392506  1
  Ni  Ni9  1  0.392505  0.392602  0.392515  1
  Ni  Ni10  1  0.002208  0.002209  0.336095  1
  Ni  Ni11  1  0.659501  0.002232  0.336056  1
  Ni  Ni12  1  0.002218  0.659463  0.336115  1
  Ni  Ni13  1  0.659434  0.336163  0.002202  1
  Ni  Ni14  1  0.002224  0.336053  0.002287  1
  Ni  Ni15  1  0.002224  0.336053  0.659437  1
  Ni  Ni16  1  0.336117  0.659450  0.002216  1
  Ni  Ni17  1  0.336042  0.002196  0.659505  1
  Ni  Ni18  1  0.336042  0.002196  0.002257  1
  Ni  Ni19  1  0.002208  0.002209  0.659489  1
  Ni  Ni20  1  0.002218  0.659463  0.002205  1
  Ni  Ni21  1  0.659501  0.002232  0.002211  1
  B  B22  1  0.731420  0.731372  0.268604  1
  B  B23  1  0.268574  0.731401  0.268588  1
  B  B24  1  0.731418  0.268602  0.268556  1
  B  B25  1  0.268590  0.268628  0.731391  1
  B  B26  1  0.731418  0.268602  0.731423  1
  B  B27  1  0.268574  0.731401  0.731437  1
  As  As28  1  0.749957  0.750101  0.749971  1
