# generated using pymatgen
data_In11Hg(IrRh)2
_symmetry_space_group_name_H-M   'P 1'
_cell_length_a   7.11143254
_cell_length_b   7.15584146
_cell_length_c   7.23121000
_cell_angle_alpha   90.00000000
_cell_angle_beta   90.00000000
_cell_angle_gamma   89.63179286
_symmetry_Int_Tables_number   1
_chemical_formula_structural   In11Hg(IrRh)2
_chemical_formula_sum   'In11 Hg1 Ir2 Rh2'
_cell_volume   367.97626794
_cell_formula_units_Z   1
loop_
 _symmetry_equiv_pos_site_id
 _symmetry_equiv_pos_as_xyz
  1  'x, y, z'
loop_
 _atom_site_type_symbol
 _atom_site_label
 _atom_site_symmetry_multiplicity
 _atom_site_fract_x
 _atom_site_fract_y
 _atom_site_fract_z
 _atom_site_occupancy
  In  In0  1  0.500000  0.000000  0.000000  1
  In  In1  1  0.500000  0.000000  0.500000  1
  In  In2  1  0.000000  0.500000  0.000000  1
  In  In3  1  0.345880  0.652726  0.244478  1
  In  In4  1  0.654120  0.347274  0.244478  1
  In  In5  1  0.150002  0.158068  0.736885  1
  In  In6  1  0.849998  0.841932  0.736885  1
  In  In7  1  0.654120  0.347274  0.755522  1
  In  In8  1  0.345880  0.652726  0.755522  1
  In  In9  1  0.849998  0.841932  0.263115  1
  In  In10  1  0.150002  0.158068  0.263115  1
  Hg  Hg11  1  0.000000  0.500000  0.500000  1
  Ir  Ir12  1  0.343594  0.344072  0.000000  1
  Ir  Ir13  1  0.656406  0.655928  0.000000  1
  Rh  Rh14  1  0.158828  0.851859  0.500000  1
  Rh  Rh15  1  0.841172  0.148141  0.500000  1
