# generated using pymatgen
data_Na2CoF6
_symmetry_space_group_name_H-M   'P 1'
_cell_length_a   9.19374800
_cell_length_b   9.19374859
_cell_length_c   5.16336600
_cell_angle_alpha   90.00000000
_cell_angle_beta   90.00000000
_cell_angle_gamma   119.99999789
_symmetry_Int_Tables_number   1
_chemical_formula_structural   Na2CoF6
_chemical_formula_sum   'Na6 Co3 F18'
_cell_volume   377.96255004
_cell_formula_units_Z   3
loop_
 _symmetry_equiv_pos_site_id
 _symmetry_equiv_pos_as_xyz
  1  'x, y, z'
loop_
 _atom_site_type_symbol
 _atom_site_label
 _atom_site_symmetry_multiplicity
 _atom_site_fract_x
 _atom_site_fract_y
 _atom_site_fract_z
 _atom_site_occupancy
  Na  Na0  1  0.625377  0.625377  0.000000  1
  Na  Na1  1  0.000000  0.374623  0.000000  1
  Na  Na2  1  0.374623  0.000000  0.000000  1
  Na  Na3  1  0.292938  0.292938  0.500000  1
  Na  Na4  1  0.000000  0.707062  0.500000  1
  Na  Na5  1  0.707062  0.000000  0.500000  1
  Co  Co6  1  0.666667  0.333333  0.505040  1
  Co  Co7  1  0.333333  0.666667  0.494960  1
  Co  Co8  1  0.000000  0.000000  0.000000  1
  F  F9  1  0.088344  0.188056  0.197326  1
  F  F10  1  0.811944  0.900289  0.197326  1
  F  F11  1  0.099711  0.911656  0.197326  1
  F  F12  1  0.900289  0.811944  0.802674  1
  F  F13  1  0.911656  0.099711  0.802674  1
  F  F14  1  0.188056  0.088344  0.802674  1
  F  F15  1  0.554469  0.406777  0.705303  1
  F  F16  1  0.593223  0.147691  0.705303  1
  F  F17  1  0.852309  0.445531  0.705303  1
  F  F18  1  0.479651  0.224504  0.305180  1
  F  F19  1  0.775496  0.255147  0.305180  1
  F  F20  1  0.744853  0.520349  0.305180  1
  F  F21  1  0.255147  0.775496  0.694820  1
  F  F22  1  0.520349  0.744853  0.694820  1
  F  F23  1  0.224504  0.479651  0.694820  1
  F  F24  1  0.406777  0.554469  0.294697  1
  F  F25  1  0.445531  0.852309  0.294697  1
  F  F26  1  0.147691  0.593223  0.294697  1
