# generated using pymatgen
data_YErTm14(In3Co)2
_symmetry_space_group_name_H-M   'P 1'
_cell_length_a   10.22011200
_cell_length_b   10.23164350
_cell_length_c   6.94933600
_cell_angle_alpha   90.02057831
_cell_angle_beta   90.00000000
_cell_angle_gamma   119.96271180
_symmetry_Int_Tables_number   1
_chemical_formula_structural   YErTm14(In3Co)2
_chemical_formula_sum   'Y1 Er1 Tm14 In6 Co2'
_cell_volume   629.56129335
_cell_formula_units_Z   1
loop_
 _symmetry_equiv_pos_site_id
 _symmetry_equiv_pos_as_xyz
  1  'x, y, z'
loop_
 _atom_site_type_symbol
 _atom_site_label
 _atom_site_symmetry_multiplicity
 _atom_site_fract_x
 _atom_site_fract_y
 _atom_site_fract_z
 _atom_site_occupancy
  Y  Y0  1  0.534281  0.068563  0.790996  1
  Er  Er1  1  0.999905  0.999810  0.279448  1
  Tm  Tm2  1  0.929438  0.464612  0.791329  1
  Tm  Tm3  1  0.535175  0.464612  0.791329  1
  Tm  Tm4  1  0.464269  0.928539  0.291578  1
  Tm  Tm5  1  0.070594  0.535510  0.292150  1
  Tm  Tm6  1  0.464917  0.535510  0.292150  1
  Tm  Tm7  1  0.821743  0.643487  0.498361  1
  Tm  Tm8  1  0.357096  0.179246  0.496957  1
  Tm  Tm9  1  0.822151  0.179246  0.496957  1
  Tm  Tm10  1  0.178687  0.357375  0.999090  1
  Tm  Tm11  1  0.643146  0.820633  0.999276  1
  Tm  Tm12  1  0.177488  0.820633  0.999276  1
  Tm  Tm13  1  0.666954  0.333906  0.182678  1
  Tm  Tm14  1  0.332956  0.665913  0.683039  1
  Tm  Tm15  1  0.000112  0.000224  0.779419  1
  In  In16  1  0.836645  0.673290  0.038834  1
  In  In17  1  0.325232  0.162408  0.039563  1
  In  In18  1  0.837175  0.162408  0.039563  1
  In  In19  1  0.163343  0.326686  0.540836  1
  In  In20  1  0.674476  0.837542  0.540558  1
  In  In21  1  0.163067  0.837542  0.540558  1
  Co  Co22  1  0.667753  0.335505  0.564829  1
  Co  Co23  1  0.333396  0.666794  0.067133  1
