# generated using pymatgen
data_Pr11Cd9Ni4
_symmetry_space_group_name_H-M   'P 1'
_cell_length_a   13.48912932
_cell_length_b   13.49428115
_cell_length_c   3.75635300
_cell_angle_alpha   90.00000000
_cell_angle_beta   90.00000000
_cell_angle_gamma   112.33522927
_symmetry_Int_Tables_number   1
_chemical_formula_structural   Pr11Cd9Ni4
_chemical_formula_sum   'Pr11 Cd9 Ni4'
_cell_volume   632.45647381
_cell_formula_units_Z   1
loop_
 _symmetry_equiv_pos_site_id
 _symmetry_equiv_pos_as_xyz
  1  'x, y, z'
loop_
 _atom_site_type_symbol
 _atom_site_label
 _atom_site_symmetry_multiplicity
 _atom_site_fract_x
 _atom_site_fract_y
 _atom_site_fract_z
 _atom_site_occupancy
  Pr  Pr0  1  0.500000  0.500000  0.500000  1
  Pr  Pr1  1  0.812377  0.812364  0.500000  1
  Pr  Pr2  1  0.187623  0.187636  0.500000  1
  Pr  Pr3  1  0.580544  0.919007  0.500000  1
  Pr  Pr4  1  0.419456  0.080993  0.500000  1
  Pr  Pr5  1  0.919014  0.580530  0.500000  1
  Pr  Pr6  1  0.080986  0.419470  0.500000  1
  Pr  Pr7  1  0.125501  0.874482  0.500000  1
  Pr  Pr8  1  0.874499  0.125518  0.500000  1
  Pr  Pr9  1  0.337370  0.662623  0.500000  1
  Pr  Pr10  1  0.662630  0.337377  0.500000  1
  Cd  Cd11  1  0.335961  0.865217  0.000000  1
  Cd  Cd12  1  0.664039  0.134783  0.000000  1
  Cd  Cd13  1  0.865201  0.335962  0.000000  1
  Cd  Cd14  1  0.134799  0.664038  0.000000  1
  Cd  Cd15  1  0.578612  0.718265  0.000000  1
  Cd  Cd16  1  0.421388  0.281735  0.000000  1
  Cd  Cd17  1  0.718256  0.578600  0.000000  1
  Cd  Cd18  1  0.281744  0.421400  0.000000  1
  Cd  Cd19  1  0.000000  0.000000  0.000000  1
  Ni  Ni20  1  0.748593  0.951111  0.000000  1
  Ni  Ni21  1  0.251407  0.048889  0.000000  1
  Ni  Ni22  1  0.951111  0.748584  0.000000  1
  Ni  Ni23  1  0.048889  0.251416  0.000000  1
