# generated using pymatgen
data_BaAs5Pd9
_symmetry_space_group_name_H-M   'P 1'
_cell_length_a   7.24558900
_cell_length_b   7.24558913
_cell_length_c   12.57763000
_cell_angle_alpha   90.00000000
_cell_angle_beta   90.00000000
_cell_angle_gamma   120.00000398
_symmetry_Int_Tables_number   1
_chemical_formula_structural   BaAs5Pd9
_chemical_formula_sum   'Ba2 As10 Pd18'
_cell_volume   571.84302428
_cell_formula_units_Z   2
loop_
 _symmetry_equiv_pos_site_id
 _symmetry_equiv_pos_as_xyz
  1  'x, y, z'
loop_
 _atom_site_type_symbol
 _atom_site_label
 _atom_site_symmetry_multiplicity
 _atom_site_fract_x
 _atom_site_fract_y
 _atom_site_fract_z
 _atom_site_occupancy
  Ba  Ba0  1  0.000000  0.000000  0.000000  1
  Ba  Ba1  1  0.000000  0.000000  0.500000  1
  As  As2  1  0.821482  0.178518  0.250000  1
  As  As3  1  0.642963  0.821482  0.750000  1
  As  As4  1  0.178518  0.357037  0.750000  1
  As  As5  1  0.821482  0.642963  0.250000  1
  As  As6  1  0.357037  0.178518  0.250000  1
  As  As7  1  0.178518  0.821482  0.750000  1
  As  As8  1  0.333333  0.666667  0.058130  1
  As  As9  1  0.666667  0.333333  0.558130  1
  As  As10  1  0.666667  0.333333  0.941870  1
  As  As11  1  0.333333  0.666667  0.441870  1
  Pd  Pd12  1  0.533816  0.466184  0.105667  1
  Pd  Pd13  1  0.067631  0.533816  0.605667  1
  Pd  Pd14  1  0.466184  0.932369  0.605667  1
  Pd  Pd15  1  0.533816  0.067631  0.105667  1
  Pd  Pd16  1  0.932369  0.466184  0.105667  1
  Pd  Pd17  1  0.067631  0.533816  0.894333  1
  Pd  Pd18  1  0.466184  0.932369  0.894333  1
  Pd  Pd19  1  0.466184  0.533816  0.605667  1
  Pd  Pd20  1  0.466184  0.533816  0.894333  1
  Pd  Pd21  1  0.533816  0.466184  0.394333  1
  Pd  Pd22  1  0.932369  0.466184  0.394333  1
  Pd  Pd23  1  0.533816  0.067631  0.394333  1
  Pd  Pd24  1  0.202142  0.797858  0.250000  1
  Pd  Pd25  1  0.404284  0.202142  0.750000  1
  Pd  Pd26  1  0.797858  0.595716  0.750000  1
  Pd  Pd27  1  0.202142  0.404284  0.250000  1
  Pd  Pd28  1  0.595716  0.797858  0.250000  1
  Pd  Pd29  1  0.797858  0.202142  0.750000  1
