# generated using pymatgen
data_Sr3LuCoO6
_symmetry_space_group_name_H-M   'P 1'
_cell_length_a   6.73806987
_cell_length_b   6.72739649
_cell_length_c   6.72898418
_cell_angle_alpha   92.91763568
_cell_angle_beta   92.98849877
_cell_angle_gamma   92.98073246
_symmetry_Int_Tables_number   1
_chemical_formula_structural   Sr3LuCoO6
_chemical_formula_sum   'Sr6 Lu2 Co2 O12'
_cell_volume   303.75582614
_cell_formula_units_Z   2
loop_
 _symmetry_equiv_pos_site_id
 _symmetry_equiv_pos_as_xyz
  1  'x, y, z'
loop_
 _atom_site_type_symbol
 _atom_site_label
 _atom_site_symmetry_multiplicity
 _atom_site_fract_x
 _atom_site_fract_y
 _atom_site_fract_z
 _atom_site_occupancy
  Sr  Sr0  1  0.882308  0.249631  0.617877  1
  Sr  Sr1  1  0.249795  0.618466  0.881507  1
  Sr  Sr2  1  0.617796  0.881784  0.250359  1
  Sr  Sr3  1  0.750231  0.381650  0.118185  1
  Sr  Sr4  1  0.382055  0.118141  0.749375  1
  Sr  Sr5  1  0.117811  0.750609  0.381889  1
  Lu  Lu6  1  0.749721  0.749627  0.750391  1
  Lu  Lu7  1  0.250123  0.250282  0.249347  1
  Co  Co8  1  0.999927  0.000340  0.000194  1
  Co  Co9  1  0.500277  0.499921  0.500206  1
  O  O10  1  0.218464  0.410430  0.540298  1
  O  O11  1  0.410795  0.541459  0.218295  1
  O  O12  1  0.540586  0.218078  0.410559  1
  O  O13  1  0.910474  0.718387  0.041501  1
  O  O14  1  0.717943  0.040297  0.911133  1
  O  O15  1  0.040005  0.910872  0.718286  1
  O  O16  1  0.781955  0.589129  0.459872  1
  O  O17  1  0.589628  0.458437  0.781730  1
  O  O18  1  0.459365  0.781401  0.589572  1
  O  O19  1  0.089194  0.281885  0.958591  1
  O  O20  1  0.281677  0.959708  0.089092  1
  O  O21  1  0.959869  0.089468  0.281742  1
