# generated using pymatgen
data_LiHo16Cd3CoIr3
_symmetry_space_group_name_H-M   'P 1'
_cell_length_a   9.58280395
_cell_length_b   9.58280387
_cell_length_c   9.58280474
_cell_angle_alpha   59.91791892
_cell_angle_beta   59.91792057
_cell_angle_gamma   59.91792273
_symmetry_Int_Tables_number   1
_chemical_formula_structural   LiHo16Cd3CoIr3
_chemical_formula_sum   'Li1 Ho16 Cd3 Co1 Ir3'
_cell_volume   621.08848424
_cell_formula_units_Z   1
loop_
 _symmetry_equiv_pos_site_id
 _symmetry_equiv_pos_as_xyz
  1  'x, y, z'
loop_
 _atom_site_type_symbol
 _atom_site_label
 _atom_site_symmetry_multiplicity
 _atom_site_fract_x
 _atom_site_fract_y
 _atom_site_fract_z
 _atom_site_occupancy
  Li  Li0  1  0.821857  0.821857  0.821857  1
  Ho  Ho1  1  0.600651  0.600651  0.600651  1
  Ho  Ho2  1  0.593662  0.593662  0.210696  1
  Ho  Ho3  1  0.593662  0.210696  0.593662  1
  Ho  Ho4  1  0.210696  0.593662  0.593662  1
  Ho  Ho5  1  0.065597  0.439214  0.439214  1
  Ho  Ho6  1  0.435506  0.062388  0.062388  1
  Ho  Ho7  1  0.439214  0.065597  0.439214  1
  Ho  Ho8  1  0.062388  0.435506  0.062388  1
  Ho  Ho9  1  0.439214  0.439214  0.065597  1
  Ho  Ho10  1  0.062388  0.062388  0.435506  1
  Ho  Ho11  1  0.189719  0.810680  0.810680  1
  Ho  Ho12  1  0.814176  0.185820  0.185820  1
  Ho  Ho13  1  0.810680  0.189719  0.810680  1
  Ho  Ho14  1  0.185820  0.814176  0.185820  1
  Ho  Ho15  1  0.810680  0.810680  0.189719  1
  Ho  Ho16  1  0.185820  0.185820  0.814176  1
  Cd  Cd17  1  0.833187  0.833187  0.506806  1
  Cd  Cd18  1  0.833187  0.506806  0.833187  1
  Cd  Cd19  1  0.506806  0.833187  0.833187  1
  Co  Co20  1  0.391121  0.391121  0.391121  1
  Ir  Ir21  1  0.394086  0.394086  0.825799  1
  Ir  Ir22  1  0.394086  0.825799  0.394086  1
  Ir  Ir23  1  0.825799  0.394086  0.394086  1
