# generated using pymatgen
data_ErAl5GaFe6
_symmetry_space_group_name_H-M   'P 1'
_cell_length_a   4.97984268
_cell_length_b   6.56559427
_cell_length_c   6.56559499
_cell_angle_alpha   80.85660704
_cell_angle_beta   67.71353898
_cell_angle_gamma   67.71353140
_symmetry_Int_Tables_number   1
_chemical_formula_structural   ErAl5GaFe6
_chemical_formula_sum   'Er1 Al5 Ga1 Fe6'
_cell_volume   183.76416890
_cell_formula_units_Z   1
loop_
 _symmetry_equiv_pos_site_id
 _symmetry_equiv_pos_as_xyz
  1  'x, y, z'
loop_
 _atom_site_type_symbol
 _atom_site_label
 _atom_site_symmetry_multiplicity
 _atom_site_fract_x
 _atom_site_fract_y
 _atom_site_fract_z
 _atom_site_occupancy
  Er  Er0  1  0.000961  0.999039  0.999039  1
  Al  Al1  1  0.001279  0.662151  0.335290  1
  Al  Al2  1  0.001279  0.335290  0.662151  1
  Al  Al3  1  0.347526  0.652474  0.652474  1
  Al  Al4  1  0.654678  0.345322  0.345322  1
  Al  Al5  1  0.309025  0.190975  0.190975  1
  Ga  Ga6  1  0.684069  0.815931  0.815931  1
  Fe  Fe7  1  0.499220  0.242680  0.758880  1
  Fe  Fe8  1  0.499220  0.758880  0.242680  1
  Fe  Fe9  1  0.000809  0.499302  0.999326  1
  Fe  Fe10  1  0.500563  0.499302  0.999326  1
  Fe  Fe11  1  0.000809  0.999326  0.499302  1
  Fe  Fe12  1  0.500563  0.999326  0.499302  1
