# generated using pymatgen
data_Zr(Nb2N3)2
_symmetry_space_group_name_H-M   'P 1'
_cell_length_a   5.30836500
_cell_length_b   5.30836443
_cell_length_c   10.53802400
_cell_angle_alpha   90.00000000
_cell_angle_beta   90.00000000
_cell_angle_gamma   120.00000976
_symmetry_Int_Tables_number   1
_chemical_formula_structural   Zr(Nb2N3)2
_chemical_formula_sum   'Zr2 Nb8 N12'
_cell_volume   257.16465597
_cell_formula_units_Z   2
loop_
 _symmetry_equiv_pos_site_id
 _symmetry_equiv_pos_as_xyz
  1  'x, y, z'
loop_
 _atom_site_type_symbol
 _atom_site_label
 _atom_site_symmetry_multiplicity
 _atom_site_fract_x
 _atom_site_fract_y
 _atom_site_fract_z
 _atom_site_occupancy
  Zr  Zr0  1  0.333333  0.666667  0.500000  1
  Zr  Zr1  1  0.666667  0.333333  0.000000  1
  Nb  Nb2  1  0.666667  0.333333  0.500000  1
  Nb  Nb3  1  0.333333  0.666667  0.000000  1
  Nb  Nb4  1  0.675646  0.000000  0.750000  1
  Nb  Nb5  1  0.675646  0.675646  0.250000  1
  Nb  Nb6  1  0.000000  0.324354  0.250000  1
  Nb  Nb7  1  0.000000  0.675646  0.750000  1
  Nb  Nb8  1  0.324354  0.324354  0.750000  1
  Nb  Nb9  1  0.324354  0.000000  0.250000  1
  N  N10  1  0.344749  0.337357  0.375759  1
  N  N11  1  0.662643  0.007391  0.375759  1
  N  N12  1  0.992609  0.655251  0.375759  1
  N  N13  1  0.007391  0.344749  0.875759  1
  N  N14  1  0.655251  0.992609  0.124241  1
  N  N15  1  0.655251  0.662643  0.875759  1
  N  N16  1  0.337357  0.992609  0.875759  1
  N  N17  1  0.662643  0.655251  0.624241  1
  N  N18  1  0.992609  0.337357  0.624241  1
  N  N19  1  0.007391  0.662643  0.124241  1
  N  N20  1  0.344749  0.007391  0.624241  1
  N  N21  1  0.337357  0.344749  0.124241  1
