# generated using pymatgen
data_Ba3CoNi2N3
_symmetry_space_group_name_H-M   'P 1'
_cell_length_a   5.45886900
_cell_length_b   9.72027400
_cell_length_c   13.79399300
_cell_angle_alpha   90.00000000
_cell_angle_beta   90.00000000
_cell_angle_gamma   90.00000000
_symmetry_Int_Tables_number   1
_chemical_formula_structural   Ba3CoNi2N3
_chemical_formula_sum   'Ba12 Co4 Ni8 N12'
_cell_volume   731.93275161
_cell_formula_units_Z   4
loop_
 _symmetry_equiv_pos_site_id
 _symmetry_equiv_pos_as_xyz
  1  'x, y, z'
loop_
 _atom_site_type_symbol
 _atom_site_label
 _atom_site_symmetry_multiplicity
 _atom_site_fract_x
 _atom_site_fract_y
 _atom_site_fract_z
 _atom_site_occupancy
  Ba  Ba0  1  0.478153  0.507896  0.750000  1
  Ba  Ba1  1  0.978153  0.992104  0.250000  1
  Ba  Ba2  1  0.021847  0.007896  0.750000  1
  Ba  Ba3  1  0.521847  0.492104  0.250000  1
  Ba  Ba4  1  0.969090  0.325193  0.414194  1
  Ba  Ba5  1  0.469090  0.174807  0.585806  1
  Ba  Ba6  1  0.530910  0.825193  0.085806  1
  Ba  Ba7  1  0.030910  0.674807  0.914194  1
  Ba  Ba8  1  0.030910  0.674807  0.585806  1
  Ba  Ba9  1  0.530910  0.825193  0.414194  1
  Ba  Ba10  1  0.469090  0.174807  0.914194  1
  Ba  Ba11  1  0.969090  0.325193  0.085806  1
  Co  Co12  1  0.000000  0.000000  0.000000  1
  Co  Co13  1  0.500000  0.500000  0.000000  1
  Co  Co14  1  0.500000  0.500000  0.500000  1
  Co  Co15  1  0.000000  0.000000  0.500000  1
  Ni  Ni16  1  0.437140  0.142082  0.159393  1
  Ni  Ni17  1  0.937140  0.357918  0.840607  1
  Ni  Ni18  1  0.062860  0.642082  0.340607  1
  Ni  Ni19  1  0.562860  0.857918  0.659393  1
  Ni  Ni20  1  0.562860  0.857918  0.840607  1
  Ni  Ni21  1  0.062860  0.642082  0.159393  1
  Ni  Ni22  1  0.937140  0.357918  0.659393  1
  Ni  Ni23  1  0.437140  0.142082  0.340607  1
  N  N24  1  0.356479  0.786122  0.750000  1
  N  N25  1  0.856479  0.713878  0.250000  1
  N  N26  1  0.143521  0.286122  0.750000  1
  N  N27  1  0.643521  0.213878  0.250000  1
  N  N28  1  0.220249  0.068225  0.424905  1
  N  N29  1  0.720249  0.431775  0.575095  1
  N  N30  1  0.279751  0.568225  0.075095  1
  N  N31  1  0.779751  0.931775  0.924905  1
  N  N32  1  0.779751  0.931775  0.575095  1
  N  N33  1  0.279751  0.568225  0.424905  1
  N  N34  1  0.720249  0.431775  0.924905  1
  N  N35  1  0.220249  0.068225  0.075095  1
