# generated using pymatgen
data_Gd5Dy3Sb20
_symmetry_space_group_name_H-M   'P 1'
_cell_length_a   4.34895000
_cell_length_b   13.40465436
_cell_length_c   14.86592900
_cell_angle_alpha   77.83945912
_cell_angle_beta   90.00000000
_cell_angle_gamma   90.00000000
_symmetry_Int_Tables_number   1
_chemical_formula_structural   Gd5Dy3Sb20
_chemical_formula_sum   'Gd5 Dy3 Sb20'
_cell_volume   847.18068329
_cell_formula_units_Z   1
loop_
 _symmetry_equiv_pos_site_id
 _symmetry_equiv_pos_as_xyz
  1  'x, y, z'
loop_
 _atom_site_type_symbol
 _atom_site_label
 _atom_site_symmetry_multiplicity
 _atom_site_fract_x
 _atom_site_fract_y
 _atom_site_fract_z
 _atom_site_occupancy
  Gd  Gd0  1  0.250000  0.398495  0.771286  1
  Gd  Gd1  1  0.750000  0.600859  0.228836  1
  Gd  Gd2  1  0.250000  0.665570  0.854264  1
  Gd  Gd3  1  0.750000  0.334318  0.146128  1
  Gd  Gd4  1  0.250000  0.671439  0.576131  1
  Dy  Dy5  1  0.750000  0.328382  0.423594  1
  Dy  Dy6  1  0.250000  0.950938  0.362813  1
  Dy  Dy7  1  0.750000  0.049813  0.636926  1
  Sb  Sb8  1  0.250000  0.145686  0.773371  1
  Sb  Sb9  1  0.750000  0.854422  0.226778  1
  Sb  Sb10  1  0.250000  0.143697  0.481527  1
  Sb  Sb11  1  0.750000  0.857644  0.518103  1
  Sb  Sb12  1  0.250000  0.150616  0.181390  1
  Sb  Sb13  1  0.750000  0.849762  0.818693  1
  Sb  Sb14  1  0.250000  0.420334  0.976662  1
  Sb  Sb15  1  0.750000  0.579588  0.023497  1
  Sb  Sb16  1  0.750000  0.035744  0.886179  1
  Sb  Sb17  1  0.250000  0.964569  0.113993  1
  Sb  Sb18  1  0.750000  0.135510  0.326680  1
  Sb  Sb19  1  0.250000  0.865278  0.673628  1
  Sb  Sb20  1  0.750000  0.285435  0.939051  1
  Sb  Sb21  1  0.250000  0.714276  0.061176  1
  Sb  Sb22  1  0.750000  0.294615  0.646460  1
  Sb  Sb23  1  0.250000  0.704733  0.352662  1
  Sb  Sb24  1  0.750000  0.578672  0.734269  1
  Sb  Sb25  1  0.250000  0.420253  0.266703  1
  Sb  Sb26  1  0.750000  0.574905  0.445564  1
  Sb  Sb27  1  0.250000  0.424446  0.553638  1
