# generated using pymatgen
data_Hf5ZrAl2(Ga2Pt3)2
_symmetry_space_group_name_H-M   'P 1'
_cell_length_a   7.11458802
_cell_length_b   7.17080886
_cell_length_c   7.18307400
_cell_angle_alpha   90.00000000
_cell_angle_beta   90.00000000
_cell_angle_gamma   119.95144234
_symmetry_Int_Tables_number   1
_chemical_formula_structural   Hf5ZrAl2(Ga2Pt3)2
_chemical_formula_sum   'Hf5 Zr1 Al2 Ga4 Pt6'
_cell_volume   317.52005938
_cell_formula_units_Z   1
loop_
 _symmetry_equiv_pos_site_id
 _symmetry_equiv_pos_as_xyz
  1  'x, y, z'
loop_
 _atom_site_type_symbol
 _atom_site_label
 _atom_site_symmetry_multiplicity
 _atom_site_fract_x
 _atom_site_fract_y
 _atom_site_fract_z
 _atom_site_occupancy
  Hf  Hf0  1  0.592131  0.976217  0.750000  1
  Hf  Hf1  1  0.388853  0.411979  0.750000  1
  Hf  Hf2  1  0.023862  0.610594  0.750000  1
  Hf  Hf3  1  0.975865  0.587403  0.250000  1
  Hf  Hf4  1  0.615850  0.024117  0.250000  1
  Zr  Zr5  1  0.413541  0.389800  0.250000  1
  Al  Al6  1  0.261110  0.000355  0.999911  1
  Al  Al7  1  0.261110  0.000355  0.500089  1
  Ga  Ga8  1  0.002685  0.267621  0.499757  1
  Ga  Ga9  1  0.002685  0.267621  0.000243  1
  Ga  Ga10  1  0.734155  0.731720  0.999040  1
  Ga  Ga11  1  0.734155  0.731720  0.500960  1
  Pt  Pt12  1  0.661831  0.327078  0.535516  1
  Pt  Pt13  1  0.004570  0.998980  0.750000  1
  Pt  Pt14  1  0.661831  0.327078  0.964484  1
  Pt  Pt15  1  0.331801  0.675261  0.031151  1
  Pt  Pt16  1  0.331801  0.675261  0.468849  1
  Pt  Pt17  1  0.002166  0.996839  0.250000  1
