# generated using pymatgen
data_Y8BePd24
_symmetry_space_group_name_H-M   'P 1'
_cell_length_a   8.32551903
_cell_length_b   8.32552007
_cell_length_c   8.32552000
_cell_angle_alpha   89.95107624
_cell_angle_beta   90.04891688
_cell_angle_gamma   90.04892422
_symmetry_Int_Tables_number   1
_chemical_formula_structural   Y8BePd24
_chemical_formula_sum   'Y8 Be1 Pd24'
_cell_volume   577.07675851
_cell_formula_units_Z   1
loop_
 _symmetry_equiv_pos_site_id
 _symmetry_equiv_pos_as_xyz
  1  'x, y, z'
loop_
 _atom_site_type_symbol
 _atom_site_label
 _atom_site_symmetry_multiplicity
 _atom_site_fract_x
 _atom_site_fract_y
 _atom_site_fract_z
 _atom_site_occupancy
  Y  Y0  1  0.748532  0.251468  0.251468  1
  Y  Y1  1  0.250166  0.250612  0.250612  1
  Y  Y2  1  0.749458  0.749521  0.749521  1
  Y  Y3  1  0.749388  0.749834  0.250612  1
  Y  Y4  1  0.749388  0.250612  0.749834  1
  Y  Y5  1  0.250479  0.250542  0.749521  1
  Y  Y6  1  0.250479  0.749521  0.250542  1
  Y  Y7  1  0.250955  0.749045  0.749045  1
  Be  Be8  1  0.001115  0.998885  0.998885  1
  Pd  Pd9  1  0.253798  0.499622  0.000066  1
  Pd  Pd10  1  0.746182  0.499965  0.000503  1
  Pd  Pd11  1  0.999497  0.253818  0.499965  1
  Pd  Pd12  1  0.500035  0.253818  0.000503  1
  Pd  Pd13  1  0.999934  0.746202  0.499622  1
  Pd  Pd14  1  0.500378  0.746202  0.000066  1
  Pd  Pd15  1  0.500035  0.000503  0.253818  1
  Pd  Pd16  1  0.253798  0.000066  0.499622  1
  Pd  Pd17  1  0.500378  0.000066  0.746202  1
  Pd  Pd18  1  0.746182  0.000503  0.499965  1
  Pd  Pd19  1  0.999497  0.499965  0.253818  1
  Pd  Pd20  1  0.999934  0.499622  0.746202  1
  Pd  Pd21  1  0.250427  0.499789  0.499789  1
  Pd  Pd22  1  0.749220  0.500373  0.500373  1
  Pd  Pd23  1  0.499627  0.250780  0.500373  1
  Pd  Pd24  1  0.500211  0.749573  0.499789  1
  Pd  Pd25  1  0.499627  0.500373  0.250780  1
  Pd  Pd26  1  0.500211  0.499789  0.749573  1
  Pd  Pd27  1  0.269103  0.999798  0.999798  1
  Pd  Pd28  1  0.732648  0.000542  0.000542  1
  Pd  Pd29  1  0.999458  0.267352  0.000542  1
  Pd  Pd30  1  0.000202  0.730897  0.999798  1
  Pd  Pd31  1  0.999458  0.000542  0.267352  1
  Pd  Pd32  1  0.000202  0.999798  0.730897  1
