# generated using pymatgen
data_Ba12Ge3AsBr8
_symmetry_space_group_name_H-M   'P 1'
_cell_length_a   15.96169289
_cell_length_b   15.22734414
_cell_length_c   8.33430400
_cell_angle_alpha   79.43062075
_cell_angle_beta   69.68649029
_cell_angle_gamma   31.19012300
_symmetry_Int_Tables_number   1
_chemical_formula_structural   Ba12Ge3AsBr8
_chemical_formula_sum   'Ba12 Ge3 As1 Br8'
_cell_volume   956.55084175
_cell_formula_units_Z   1
loop_
 _symmetry_equiv_pos_site_id
 _symmetry_equiv_pos_as_xyz
  1  'x, y, z'
loop_
 _atom_site_type_symbol
 _atom_site_label
 _atom_site_symmetry_multiplicity
 _atom_site_fract_x
 _atom_site_fract_y
 _atom_site_fract_z
 _atom_site_occupancy
  Ba  Ba0  1  0.389521  0.934557  0.584240  1
  Ba  Ba1  1  0.587423  0.090856  0.389136  1
  Ba  Ba2  1  0.316199  0.859816  0.160901  1
  Ba  Ba3  1  0.934557  0.389521  0.091683  1
  Ba  Ba4  1  0.472791  0.026789  0.026508  1
  Ba  Ba5  1  0.859816  0.316199  0.663083  1
  Ba  Ba6  1  0.090856  0.587423  0.932585  1
  Ba  Ba7  1  0.663887  0.158843  0.859503  1
  Ba  Ba8  1  0.776102  0.223359  0.224738  1
  Ba  Ba9  1  0.223359  0.776102  0.775801  1
  Ba  Ba10  1  0.158843  0.663887  0.317766  1
  Ba  Ba11  1  0.026789  0.472791  0.473912  1
  Ge  Ge12  1  0.918008  0.918008  0.081992  1
  Ge  Ge13  1  0.164638  0.164638  0.335362  1
  Ge  Ge14  1  0.333660  0.333660  0.166340  1
  As  As15  1  0.084170  0.084170  0.915830  1
  Br  Br16  1  0.668659  0.668659  0.831341  1
  Br  Br17  1  0.746557  0.746557  0.253443  1
  Br  Br18  1  0.250609  0.250609  0.749391  1
  Br  Br19  1  0.580084  0.580084  0.419916  1
  Br  Br20  1  0.998937  0.998937  0.501063  1
  Br  Br21  1  0.828594  0.828594  0.671406  1
  Br  Br22  1  0.422386  0.422386  0.577614  1
  Br  Br23  1  0.503556  0.503556  0.996444  1
