# generated using pymatgen
data_HfMnBr6
_symmetry_space_group_name_H-M   'P 1'
_cell_length_a   6.81339000
_cell_length_b   6.81339015
_cell_length_c   13.93461600
_cell_angle_alpha   90.00000000
_cell_angle_beta   90.00000000
_cell_angle_gamma   119.99999927
_symmetry_Int_Tables_number   1
_chemical_formula_structural   HfMnBr6
_chemical_formula_sum   'Hf2 Mn2 Br12'
_cell_volume   560.21166450
_cell_formula_units_Z   2
loop_
 _symmetry_equiv_pos_site_id
 _symmetry_equiv_pos_as_xyz
  1  'x, y, z'
loop_
 _atom_site_type_symbol
 _atom_site_label
 _atom_site_symmetry_multiplicity
 _atom_site_fract_x
 _atom_site_fract_y
 _atom_site_fract_z
 _atom_site_occupancy
  Hf  Hf0  1  0.333333  0.666667  0.250000  1
  Hf  Hf1  1  0.666667  0.333333  0.750000  1
  Mn  Mn2  1  0.000000  0.000000  0.250000  1
  Mn  Mn3  1  0.000000  0.000000  0.750000  1
  Br  Br4  1  0.658603  0.966202  0.139964  1
  Br  Br5  1  0.033798  0.692400  0.139964  1
  Br  Br6  1  0.307600  0.341397  0.139964  1
  Br  Br7  1  0.033798  0.341397  0.360036  1
  Br  Br8  1  0.341397  0.307600  0.639964  1
  Br  Br9  1  0.692400  0.033798  0.639964  1
  Br  Br10  1  0.966202  0.658603  0.639964  1
  Br  Br11  1  0.692400  0.658603  0.860036  1
  Br  Br12  1  0.966202  0.307600  0.860036  1
  Br  Br13  1  0.341397  0.033798  0.860036  1
  Br  Br14  1  0.658603  0.692400  0.360036  1
  Br  Br15  1  0.307600  0.966202  0.360036  1
