# generated using pymatgen
data_Cs12RbZr2(In3As5)2
_symmetry_space_group_name_H-M   'P 1'
_cell_length_a   10.06712434
_cell_length_b   10.09786810
_cell_length_c   14.18568433
_cell_angle_alpha   81.46032194
_cell_angle_beta   78.53574299
_cell_angle_gamma   62.84685213
_symmetry_Int_Tables_number   1
_chemical_formula_structural   Cs12RbZr2(In3As5)2
_chemical_formula_sum   'Cs12 Rb1 Zr2 In6 As10'
_cell_volume   1254.77233285
_cell_formula_units_Z   1
loop_
 _symmetry_equiv_pos_site_id
 _symmetry_equiv_pos_as_xyz
  1  'x, y, z'
loop_
 _atom_site_type_symbol
 _atom_site_label
 _atom_site_symmetry_multiplicity
 _atom_site_fract_x
 _atom_site_fract_y
 _atom_site_fract_z
 _atom_site_occupancy
  Cs  Cs0  1  0.495661  0.865105  0.354101  1
  Cs  Cs1  1  0.504339  0.134895  0.645899  1
  Cs  Cs2  1  0.853508  0.586723  0.884361  1
  Cs  Cs3  1  0.146492  0.413277  0.115639  1
  Cs  Cs4  1  0.093882  0.788815  0.428957  1
  Cs  Cs5  1  0.906118  0.211185  0.571043  1
  Cs  Cs6  1  0.750954  0.681142  0.594703  1
  Cs  Cs7  1  0.249046  0.318858  0.405297  1
  Cs  Cs8  1  0.320978  0.929389  0.090238  1
  Cs  Cs9  1  0.679022  0.070611  0.909762  1
  Cs  Cs10  1  0.892504  0.854138  0.161433  1
  Cs  Cs11  1  0.107496  0.145862  0.838567  1
  Rb  Rb12  1  0.500000  0.500000  0.000000  1
  Zr  Zr13  1  0.377368  0.737249  0.774504  1
  Zr  Zr14  1  0.622632  0.262751  0.225496  1
  In  In15  1  0.037269  0.804988  0.707789  1
  In  In16  1  0.962731  0.195012  0.292211  1
  In  In17  1  0.596840  0.444336  0.409669  1
  In  In18  1  0.403160  0.555664  0.590331  1
  In  In19  1  0.722566  0.554777  0.172397  1
  In  In20  1  0.277434  0.445223  0.827603  1
  As  As21  1  0.437413  0.551230  0.254090  1
  As  As22  1  0.562587  0.448770  0.745910  1
  As  As23  1  0.131322  0.742376  0.892173  1
  As  As24  1  0.868678  0.257624  0.107827  1
  As  As25  1  0.713047  0.136377  0.394726  1
  As  As26  1  0.286953  0.863623  0.605274  1
  As  As27  1  0.849825  0.498954  0.351474  1
  As  As28  1  0.150175  0.501046  0.648526  1
  As  As29  1  0.499549  0.865095  0.842660  1
  As  As30  1  0.500451  0.134905  0.157340  1
