# generated using pymatgen
data_La18Pr2Si15P
_symmetry_space_group_name_H-M   'P 1'
_cell_length_a   8.00826040
_cell_length_b   8.01959936
_cell_length_c   15.52976700
_cell_angle_alpha   89.91074411
_cell_angle_beta   89.65831646
_cell_angle_gamma   90.12295777
_symmetry_Int_Tables_number   1
_chemical_formula_structural   La18Pr2Si15P
_chemical_formula_sum   'La18 Pr2 Si15 P1'
_cell_volume   997.34758508
_cell_formula_units_Z   1
loop_
 _symmetry_equiv_pos_site_id
 _symmetry_equiv_pos_as_xyz
  1  'x, y, z'
loop_
 _atom_site_type_symbol
 _atom_site_label
 _atom_site_symmetry_multiplicity
 _atom_site_fract_x
 _atom_site_fract_y
 _atom_site_fract_z
 _atom_site_occupancy
  La  La0  1  0.310442  0.310043  0.998519  1
  La  La1  1  0.191510  0.808832  0.250182  1
  La  La2  1  0.809927  0.190123  0.751190  1
  La  La3  1  0.689874  0.686741  0.498043  1
  La  La4  1  0.377991  0.009612  0.446458  1
  La  La5  1  0.488617  0.878171  0.698125  1
  La  La6  1  0.510685  0.121348  0.196860  1
  La  La7  1  0.877334  0.487862  0.300687  1
  La  La8  1  0.123144  0.508652  0.801380  1
  La  La9  1  0.625358  0.988507  0.948122  1
  La  La10  1  0.006280  0.377841  0.553294  1
  La  La11  1  0.990007  0.621783  0.052447  1
  La  La12  1  0.131085  0.985877  0.874345  1
  La  La13  1  0.517958  0.628882  0.125846  1
  La  La14  1  0.475311  0.367081  0.628291  1
  La  La15  1  0.629014  0.517730  0.873998  1
  La  La16  1  0.370300  0.480728  0.373866  1
  La  La17  1  0.873202  0.018932  0.377053  1
  Pr  Pr18  1  0.981894  0.127683  0.123990  1
  Pr  Pr19  1  0.021659  0.877839  0.624371  1
  Si  Si20  1  0.331557  0.698697  0.951924  1
  Si  Si21  1  0.665968  0.302258  0.454790  1
  Si  Si22  1  0.700065  0.332459  0.048693  1
  Si  Si23  1  0.300546  0.668277  0.548982  1
  Si  Si24  1  0.804778  0.833374  0.202685  1
  Si  Si25  1  0.167720  0.196464  0.295381  1
  Si  Si26  1  0.836090  0.802392  0.795905  1
  Si  Si27  1  0.287406  0.921836  0.058477  1
  Si  Si28  1  0.579975  0.789825  0.308562  1
  Si  Si29  1  0.429142  0.208575  0.812148  1
  Si  Si30  1  0.790032  0.581628  0.689237  1
  Si  Si31  1  0.209553  0.421113  0.189936  1
  Si  Si32  1  0.707180  0.075747  0.560399  1
  Si  Si33  1  0.923097  0.288573  0.941744  1
  Si  Si34  1  0.078643  0.712065  0.442287  1
  P  P35  1  0.186659  0.172448  0.701783  1
