# generated using pymatgen
data_Eu3SiGePd2
_symmetry_space_group_name_H-M   'P 1'
_cell_length_a   5.80669600
_cell_length_b   8.21079700
_cell_length_c   13.58062200
_cell_angle_alpha   90.00000000
_cell_angle_beta   90.00000000
_cell_angle_gamma   90.00000000
_symmetry_Int_Tables_number   1
_chemical_formula_structural   Eu3SiGePd2
_chemical_formula_sum   'Eu12 Si4 Ge4 Pd8'
_cell_volume   647.49149194
_cell_formula_units_Z   4
loop_
 _symmetry_equiv_pos_site_id
 _symmetry_equiv_pos_as_xyz
  1  'x, y, z'
loop_
 _atom_site_type_symbol
 _atom_site_label
 _atom_site_symmetry_multiplicity
 _atom_site_fract_x
 _atom_site_fract_y
 _atom_site_fract_z
 _atom_site_occupancy
  Eu  Eu0  1  0.130348  0.386695  0.601833  1
  Eu  Eu1  1  0.869652  0.613305  0.101833  1
  Eu  Eu2  1  0.130348  0.113305  0.398167  1
  Eu  Eu3  1  0.869652  0.886695  0.898167  1
  Eu  Eu4  1  0.869652  0.613305  0.398167  1
  Eu  Eu5  1  0.130348  0.386695  0.898167  1
  Eu  Eu6  1  0.869652  0.886695  0.601833  1
  Eu  Eu7  1  0.130348  0.113305  0.101833  1
  Eu  Eu8  1  0.652796  0.242956  0.750000  1
  Eu  Eu9  1  0.347204  0.757044  0.250000  1
  Eu  Eu10  1  0.652796  0.257044  0.250000  1
  Eu  Eu11  1  0.347204  0.742956  0.750000  1
  Si  Si12  1  0.626408  0.250000  0.500000  1
  Si  Si13  1  0.373592  0.750000  0.000000  1
  Si  Si14  1  0.373592  0.750000  0.500000  1
  Si  Si15  1  0.626408  0.250000  0.000000  1
  Ge  Ge16  1  0.160445  0.097861  0.750000  1
  Ge  Ge17  1  0.839555  0.902139  0.250000  1
  Ge  Ge18  1  0.160445  0.402139  0.250000  1
  Ge  Ge19  1  0.839555  0.597861  0.750000  1
  Pd  Pd20  1  0.384498  0.031587  0.587868  1
  Pd  Pd21  1  0.615502  0.968413  0.087868  1
  Pd  Pd22  1  0.384498  0.468413  0.412132  1
  Pd  Pd23  1  0.615502  0.531587  0.912132  1
  Pd  Pd24  1  0.615502  0.968413  0.412132  1
  Pd  Pd25  1  0.384498  0.031587  0.912132  1
  Pd  Pd26  1  0.615502  0.531587  0.587868  1
  Pd  Pd27  1  0.384498  0.468413  0.087868  1
