# generated using pymatgen
data_Tb15Dy5(SiBi2)4
_symmetry_space_group_name_H-M   'P 1'
_cell_length_a   12.13841601
_cell_length_b   9.20827400
_cell_length_c   8.08530501
_cell_angle_alpha   90.00228582
_cell_angle_beta   89.99579011
_cell_angle_gamma   90.00114363
_symmetry_Int_Tables_number   1
_chemical_formula_structural   Tb15Dy5(SiBi2)4
_chemical_formula_sum   'Tb15 Dy5 Si4 Bi8'
_cell_volume   903.72575113
_cell_formula_units_Z   1
loop_
 _symmetry_equiv_pos_site_id
 _symmetry_equiv_pos_as_xyz
  1  'x, y, z'
loop_
 _atom_site_type_symbol
 _atom_site_label
 _atom_site_symmetry_multiplicity
 _atom_site_fract_x
 _atom_site_fract_y
 _atom_site_fract_z
 _atom_site_occupancy
  Tb  Tb0  1  0.563378  0.948181  0.680091  1
  Tb  Tb1  1  0.936606  0.051834  0.180116  1
  Tb  Tb2  1  0.436601  0.448173  0.319897  1
  Tb  Tb3  1  0.936630  0.448196  0.180121  1
  Tb  Tb4  1  0.436608  0.051818  0.319880  1
  Tb  Tb5  1  0.063390  0.948105  0.819846  1
  Tb  Tb6  1  0.563390  0.551824  0.680114  1
  Tb  Tb7  1  0.211531  0.749950  0.165045  1
  Tb  Tb8  1  0.711556  0.749998  0.334861  1
  Tb  Tb9  1  0.788452  0.250002  0.834892  1
  Tb  Tb10  1  0.288435  0.250017  0.665142  1
  Tb  Tb11  1  0.295272  0.749959  0.635489  1
  Tb  Tb12  1  0.795401  0.749950  0.864507  1
  Tb  Tb13  1  0.704669  0.249981  0.364553  1
  Tb  Tb14  1  0.204647  0.249996  0.135444  1
  Dy  Dy15  1  0.063373  0.551881  0.820086  1
  Dy  Dy16  1  0.001042  0.750001  0.459881  1
  Dy  Dy17  1  0.501020  0.749993  0.040215  1
  Dy  Dy18  1  0.998977  0.250035  0.540230  1
  Dy  Dy19  1  0.498962  0.250005  0.959809  1
  Si  Si20  1  0.479848  0.750002  0.413880  1
  Si  Si21  1  0.979891  0.749803  0.085958  1
  Si  Si22  1  0.520156  0.249995  0.586130  1
  Si  Si23  1  0.020224  0.250329  0.913808  1
  Bi  Bi24  1  0.325968  0.510938  0.931878  1
  Bi  Bi25  1  0.826052  0.989043  0.568066  1
  Bi  Bi26  1  0.673961  0.010931  0.068064  1
  Bi  Bi27  1  0.173909  0.489073  0.432024  1
  Bi  Bi28  1  0.673966  0.489066  0.068055  1
  Bi  Bi29  1  0.173948  0.010917  0.431932  1
  Bi  Bi30  1  0.326045  0.989054  0.931933  1
  Bi  Bi31  1  0.826094  0.510950  0.568049  1
