# generated using pymatgen
data_DyHfAu8
_symmetry_space_group_name_H-M   'P 1'
_cell_length_a   5.20253217
_cell_length_b   5.20253116
_cell_length_c   9.52537443
_cell_angle_alpha   89.80910347
_cell_angle_beta   89.80910355
_cell_angle_gamma   47.36210638
_symmetry_Int_Tables_number   1
_chemical_formula_structural   DyHfAu8
_chemical_formula_sum   'Dy1 Hf1 Au8'
_cell_volume   189.66161754
_cell_formula_units_Z   1
loop_
 _symmetry_equiv_pos_site_id
 _symmetry_equiv_pos_as_xyz
  1  'x, y, z'
loop_
 _atom_site_type_symbol
 _atom_site_label
 _atom_site_symmetry_multiplicity
 _atom_site_fract_x
 _atom_site_fract_y
 _atom_site_fract_z
 _atom_site_occupancy
  Dy  Dy0  1  0.000000  0.000000  0.000000  1
  Hf  Hf1  1  0.500000  0.500000  0.500000  1
  Au  Au2  1  0.700300  0.700300  0.899109  1
  Au  Au3  1  0.200047  0.200047  0.404927  1
  Au  Au4  1  0.799953  0.799953  0.595073  1
  Au  Au5  1  0.299700  0.299700  0.100891  1
  Au  Au6  1  0.400176  0.400176  0.793072  1
  Au  Au7  1  0.904972  0.904972  0.306271  1
  Au  Au8  1  0.095028  0.095028  0.693729  1
  Au  Au9  1  0.599824  0.599824  0.206928  1
