# generated using pymatgen
data_Sr6Al6Si5Ge
_symmetry_space_group_name_H-M   'P 1'
_cell_length_a   4.28527500
_cell_length_b   4.28527351
_cell_length_c   28.39515000
_cell_angle_alpha   90.00000000
_cell_angle_beta   90.00000000
_cell_angle_gamma   120.00001924
_symmetry_Int_Tables_number   1
_chemical_formula_structural   Sr6Al6Si5Ge
_chemical_formula_sum   'Sr6 Al6 Si5 Ge1'
_cell_volume   451.57714959
_cell_formula_units_Z   1
loop_
 _symmetry_equiv_pos_site_id
 _symmetry_equiv_pos_as_xyz
  1  'x, y, z'
loop_
 _atom_site_type_symbol
 _atom_site_label
 _atom_site_symmetry_multiplicity
 _atom_site_fract_x
 _atom_site_fract_y
 _atom_site_fract_z
 _atom_site_occupancy
  Sr  Sr0  1  0.000000  0.000000  0.332390  1
  Sr  Sr1  1  0.000000  0.000000  0.832512  1
  Sr  Sr2  1  0.000000  0.000000  0.167564  1
  Sr  Sr3  1  0.000000  0.000000  0.000413  1
  Sr  Sr4  1  0.000000  0.000000  0.668083  1
  Sr  Sr5  1  0.000000  0.000000  0.499271  1
  Al  Al6  1  0.333333  0.666667  0.409563  1
  Al  Al7  1  0.333333  0.666667  0.251434  1
  Al  Al8  1  0.333333  0.666667  0.088267  1
  Al  Al9  1  0.666667  0.333333  0.913235  1
  Al  Al10  1  0.666667  0.333333  0.745463  1
  Al  Al11  1  0.666667  0.333333  0.594106  1
  Si  Si12  1  0.333333  0.666667  0.919287  1
  Si  Si13  1  0.333333  0.666667  0.753326  1
  Si  Si14  1  0.666667  0.333333  0.248652  1
  Si  Si15  1  0.666667  0.333333  0.080722  1
  Si  Si16  1  0.666667  0.333333  0.419805  1
  Ge  Ge17  1  0.333333  0.666667  0.575906  1
