# generated using pymatgen
data_TbHoBe23Cu3
_symmetry_space_group_name_H-M   'P 1'
_cell_length_a   7.29953397
_cell_length_b   7.34712606
_cell_length_c   7.27779162
_cell_angle_alpha   59.88428781
_cell_angle_beta   60.04636101
_cell_angle_gamma   59.58736302
_symmetry_Int_Tables_number   1
_chemical_formula_structural   TbHoBe23Cu3
_chemical_formula_sum   'Tb1 Ho1 Be23 Cu3'
_cell_volume   274.97701799
_cell_formula_units_Z   1
loop_
 _symmetry_equiv_pos_site_id
 _symmetry_equiv_pos_as_xyz
  1  'x, y, z'
loop_
 _atom_site_type_symbol
 _atom_site_label
 _atom_site_symmetry_multiplicity
 _atom_site_fract_x
 _atom_site_fract_y
 _atom_site_fract_z
 _atom_site_occupancy
  Tb  Tb0  1  0.252162  0.248445  0.251365  1
  Ho  Ho1  1  0.748582  0.752062  0.747863  1
  Be  Be2  1  0.500035  0.499989  0.499982  1
  Be  Be3  1  0.999179  0.999581  0.000876  1
  Be  Be4  1  0.436712  0.204777  0.563897  1
  Be  Be5  1  0.284739  0.936837  0.715771  1
  Be  Be6  1  0.714841  0.069735  0.285530  1
  Be  Be7  1  0.931819  0.278482  0.067893  1
  Be  Be8  1  0.069879  0.721723  0.929832  1
  Be  Be9  1  0.201707  0.799661  0.560639  1
  Be  Be10  1  0.794747  0.199339  0.441604  1
  Be  Be11  1  0.439652  0.562315  0.798073  1
  Be  Be12  1  0.558756  0.435993  0.204904  1
  Be  Be13  1  0.712270  0.284917  0.935675  1
  Be  Be14  1  0.286642  0.714680  0.065843  1
  Be  Be15  1  0.064159  0.932733  0.287971  1
  Be  Be16  1  0.934049  0.066990  0.713600  1
  Be  Be17  1  0.566456  0.206067  0.791088  1
  Be  Be18  1  0.433306  0.792442  0.205912  1
  Be  Be19  1  0.793826  0.431781  0.567108  1
  Be  Be20  1  0.208611  0.563986  0.433703  1
  Be  Be21  1  0.940493  0.710324  0.289421  1
  Be  Be22  1  0.063708  0.287968  0.709346  1
  Be  Be23  1  0.291030  0.060812  0.935959  1
  Be  Be24  1  0.710969  0.939783  0.059172  1
  Cu  Cu25  1  0.805989  0.555680  0.193068  1
  Cu  Cu26  1  0.195846  0.441528  0.803013  1
  Cu  Cu27  1  0.559837  0.801369  0.440890  1
