# generated using pymatgen
data_Th4ZnCd4Cu19
_symmetry_space_group_name_H-M   'P 1'
_cell_length_a   5.09611818
_cell_length_b   8.33013590
_cell_length_c   10.61029826
_cell_angle_alpha   90.10894669
_cell_angle_beta   90.00274911
_cell_angle_gamma   90.00643403
_symmetry_Int_Tables_number   1
_chemical_formula_structural   Th4ZnCd4Cu19
_chemical_formula_sum   'Th4 Zn1 Cd4 Cu19'
_cell_volume   450.42074151
_cell_formula_units_Z   1
loop_
 _symmetry_equiv_pos_site_id
 _symmetry_equiv_pos_as_xyz
  1  'x, y, z'
loop_
 _atom_site_type_symbol
 _atom_site_label
 _atom_site_symmetry_multiplicity
 _atom_site_fract_x
 _atom_site_fract_y
 _atom_site_fract_z
 _atom_site_occupancy
  Th  Th0  1  0.748973  0.247594  0.933627  1
  Th  Th1  1  0.251179  0.752078  0.058824  1
  Th  Th2  1  0.750536  0.749550  0.562770  1
  Th  Th3  1  0.250502  0.249944  0.441651  1
  Zn  Zn4  1  0.998597  0.431068  0.186950  1
  Cd  Cd5  1  0.750425  0.364203  0.635531  1
  Cd  Cd6  1  0.252282  0.637855  0.364781  1
  Cd  Cd7  1  0.750924  0.863106  0.864162  1
  Cd  Cd8  1  0.253644  0.134374  0.135752  1
  Cu  Cu9  1  0.502860  0.567993  0.813395  1
  Cu  Cu10  1  0.497614  0.933390  0.313291  1
  Cu  Cu11  1  0.998261  0.067783  0.686681  1
  Cu  Cu12  1  0.997918  0.567999  0.813263  1
  Cu  Cu13  1  0.494013  0.432440  0.187584  1
  Cu  Cu14  1  0.502777  0.067688  0.686931  1
  Cu  Cu15  1  0.003083  0.932356  0.313177  1
  Cu  Cu16  1  0.745400  0.440660  0.392703  1
  Cu  Cu17  1  0.250689  0.559999  0.608874  1
  Cu  Cu18  1  0.751036  0.940565  0.108012  1
  Cu  Cu19  1  0.249875  0.060273  0.891170  1
  Cu  Cu20  1  0.750352  0.181639  0.256114  1
  Cu  Cu21  1  0.250188  0.818446  0.744363  1
  Cu  Cu22  1  0.747484  0.683856  0.245292  1
  Cu  Cu23  1  0.250155  0.318438  0.754812  1
  Cu  Cu24  1  0.750428  0.085972  0.484357  1
  Cu  Cu25  1  0.250596  0.913007  0.516154  1
  Cu  Cu26  1  0.749063  0.584875  0.016460  1
  Cu  Cu27  1  0.251145  0.412849  0.983314  1
