# generated using pymatgen
data_Dy9Th3Co3Si8Ni
_symmetry_space_group_name_H-M   'P 1'
_cell_length_a   4.16073600
_cell_length_b   11.32813051
_cell_length_c   11.31744550
_cell_angle_alpha   89.67719859
_cell_angle_beta   90.00000000
_cell_angle_gamma   90.00000000
_symmetry_Int_Tables_number   1
_chemical_formula_structural   Dy9Th3Co3Si8Ni
_chemical_formula_sum   'Dy9 Th3 Co3 Si8 Ni1'
_cell_volume   533.42077209
_cell_formula_units_Z   1
loop_
 _symmetry_equiv_pos_site_id
 _symmetry_equiv_pos_as_xyz
  1  'x, y, z'
loop_
 _atom_site_type_symbol
 _atom_site_label
 _atom_site_symmetry_multiplicity
 _atom_site_fract_x
 _atom_site_fract_y
 _atom_site_fract_z
 _atom_site_occupancy
  Dy  Dy0  1  0.750000  0.559702  0.614997  1
  Dy  Dy1  1  0.250000  0.122489  0.561876  1
  Dy  Dy2  1  0.250000  0.381183  0.058746  1
  Dy  Dy3  1  0.750000  0.874126  0.439908  1
  Dy  Dy4  1  0.750000  0.623388  0.937337  1
  Dy  Dy5  1  0.250000  0.800026  0.713080  1
  Dy  Dy6  1  0.250000  0.694014  0.212953  1
  Dy  Dy7  1  0.750000  0.197943  0.291281  1
  Dy  Dy8  1  0.750000  0.308842  0.788262  1
  Th  Th9  1  0.250000  0.058644  0.881039  1
  Th  Th10  1  0.250000  0.440247  0.386289  1
  Th  Th11  1  0.750000  0.937306  0.115090  1
  Co  Co12  1  0.250000  0.362674  0.628818  1
  Co  Co13  1  0.750000  0.633660  0.367813  1
  Co  Co14  1  0.750000  0.867929  0.872728  1
  Si  Si15  1  0.250000  0.806164  0.970440  1
  Si  Si16  1  0.250000  0.689566  0.471838  1
  Si  Si17  1  0.750000  0.194223  0.029743  1
  Si  Si18  1  0.750000  0.309544  0.533496  1
  Si  Si19  1  0.250000  0.494706  0.798838  1
  Si  Si20  1  0.250000  0.012732  0.307351  1
  Si  Si21  1  0.750000  0.508858  0.194615  1
  Si  Si22  1  0.750000  0.985312  0.692872  1
  Ni  Ni23  1  0.250000  0.136722  0.130592  1
