# generated using pymatgen
data_Lu2ScNi(BIr2)2
_symmetry_space_group_name_H-M   'P 1'
_cell_length_a   3.17447100
_cell_length_b   9.52918200
_cell_length_c   9.52918200
_cell_angle_alpha   90.00000000
_cell_angle_beta   90.00000000
_cell_angle_gamma   90.00000000
_symmetry_Int_Tables_number   1
_chemical_formula_structural   Lu2ScNi(BIr2)2
_chemical_formula_sum   'Lu4 Sc2 Ni2 B4 Ir8'
_cell_volume   288.25882194
_cell_formula_units_Z   2
loop_
 _symmetry_equiv_pos_site_id
 _symmetry_equiv_pos_as_xyz
  1  'x, y, z'
loop_
 _atom_site_type_symbol
 _atom_site_label
 _atom_site_symmetry_multiplicity
 _atom_site_fract_x
 _atom_site_fract_y
 _atom_site_fract_z
 _atom_site_occupancy
  Lu  Lu0  1  0.000000  0.178429  0.678429  1
  Lu  Lu1  1  0.000000  0.821571  0.321571  1
  Lu  Lu2  1  0.000000  0.321571  0.178429  1
  Lu  Lu3  1  0.000000  0.678429  0.821571  1
  Sc  Sc4  1  0.000000  0.000000  0.000000  1
  Sc  Sc5  1  0.000000  0.500000  0.500000  1
  Ni  Ni6  1  0.500000  0.000000  0.500000  1
  Ni  Ni7  1  0.500000  0.500000  0.000000  1
  B  B8  1  0.000000  0.611200  0.111200  1
  B  B9  1  0.000000  0.388800  0.888800  1
  B  B10  1  0.000000  0.888800  0.611200  1
  B  B11  1  0.000000  0.111200  0.388800  1
  Ir  Ir12  1  0.500000  0.063292  0.230898  1
  Ir  Ir13  1  0.500000  0.936708  0.769102  1
  Ir  Ir14  1  0.500000  0.769102  0.063292  1
  Ir  Ir15  1  0.500000  0.436708  0.730898  1
  Ir  Ir16  1  0.500000  0.230898  0.936708  1
  Ir  Ir17  1  0.500000  0.563292  0.269102  1
  Ir  Ir18  1  0.500000  0.730898  0.563292  1
  Ir  Ir19  1  0.500000  0.269102  0.436708  1
