# generated using pymatgen
data_MnNb2MoS6
_symmetry_space_group_name_H-M   'P 1'
_cell_length_a   5.74994300
_cell_length_b   5.74994350
_cell_length_c   12.73877100
_cell_angle_alpha   90.00000000
_cell_angle_beta   90.00000000
_cell_angle_gamma   120.00000286
_symmetry_Int_Tables_number   1
_chemical_formula_structural   MnNb2MoS6
_chemical_formula_sum   'Mn2 Nb4 Mo2 S12'
_cell_volume   364.74157293
_cell_formula_units_Z   2
loop_
 _symmetry_equiv_pos_site_id
 _symmetry_equiv_pos_as_xyz
  1  'x, y, z'
loop_
 _atom_site_type_symbol
 _atom_site_label
 _atom_site_symmetry_multiplicity
 _atom_site_fract_x
 _atom_site_fract_y
 _atom_site_fract_z
 _atom_site_occupancy
  Mn  Mn0  1  0.666667  0.333333  0.748163  1
  Mn  Mn1  1  0.333333  0.666667  0.248163  1
  Nb  Nb2  1  0.666667  0.333333  0.500115  1
  Nb  Nb3  1  0.333333  0.666667  0.000115  1
  Nb  Nb4  1  0.000000  0.000000  0.500017  1
  Nb  Nb5  1  0.000000  0.000000  0.000017  1
  Mo  Mo6  1  0.333333  0.666667  0.500451  1
  Mo  Mo7  1  0.666667  0.333333  0.000451  1
  S  S8  1  0.338822  0.329297  0.123621  1
  S  S9  1  0.670703  0.009525  0.123621  1
  S  S10  1  0.990475  0.661178  0.123621  1
  S  S11  1  0.009525  0.338822  0.623621  1
  S  S12  1  0.666531  0.002125  0.876797  1
  S  S13  1  0.661178  0.670703  0.623621  1
  S  S14  1  0.329297  0.990475  0.623621  1
  S  S15  1  0.664407  0.666531  0.376797  1
  S  S16  1  0.333469  0.997875  0.376797  1
  S  S17  1  0.335593  0.333469  0.876797  1
  S  S18  1  0.997875  0.664407  0.876797  1
  S  S19  1  0.002125  0.335593  0.376797  1
