# generated using pymatgen
data_Tb2Co5Ni3(MoP3)2
_symmetry_space_group_name_H-M   'P 1'
_cell_length_a   3.70420100
_cell_length_b   10.46280000
_cell_length_c   12.03290800
_cell_angle_alpha   90.00000000
_cell_angle_beta   90.00000000
_cell_angle_gamma   90.00000000
_symmetry_Int_Tables_number   1
_chemical_formula_structural   Tb2Co5Ni3(MoP3)2
_chemical_formula_sum   'Tb4 Co10 Ni6 Mo4 P12'
_cell_volume   466.35116346
_cell_formula_units_Z   2
loop_
 _symmetry_equiv_pos_site_id
 _symmetry_equiv_pos_as_xyz
  1  'x, y, z'
loop_
 _atom_site_type_symbol
 _atom_site_label
 _atom_site_symmetry_multiplicity
 _atom_site_fract_x
 _atom_site_fract_y
 _atom_site_fract_z
 _atom_site_occupancy
  Tb  Tb0  1  0.250000  0.582430  0.706924  1
  Tb  Tb1  1  0.250000  0.917570  0.206924  1
  Tb  Tb2  1  0.750000  0.418933  0.293405  1
  Tb  Tb3  1  0.750000  0.081067  0.793405  1
  Co  Co4  1  0.750000  0.778007  0.823927  1
  Co  Co5  1  0.750000  0.721993  0.323927  1
  Co  Co6  1  0.250000  0.882111  0.699615  1
  Co  Co7  1  0.250000  0.617889  0.199615  1
  Co  Co8  1  0.750000  0.116370  0.299409  1
  Co  Co9  1  0.750000  0.383630  0.799409  1
  Co  Co10  1  0.250000  0.465332  0.933453  1
  Co  Co11  1  0.250000  0.034668  0.433453  1
  Co  Co12  1  0.750000  0.535299  0.067145  1
  Co  Co13  1  0.750000  0.964701  0.567145  1
  Ni  Ni14  1  0.250000  0.410564  0.486696  1
  Ni  Ni15  1  0.250000  0.089436  0.986696  1
  Ni  Ni16  1  0.750000  0.592643  0.512747  1
  Ni  Ni17  1  0.750000  0.907357  0.012747  1
  Ni  Ni18  1  0.250000  0.222634  0.176757  1
  Ni  Ni19  1  0.250000  0.277366  0.676757  1
  Mo  Mo20  1  0.250000  0.706408  0.988409  1
  Mo  Mo21  1  0.250000  0.793592  0.488409  1
  Mo  Mo22  1  0.750000  0.293958  0.011256  1
  Mo  Mo23  1  0.750000  0.206042  0.511256  1
  P  P24  1  0.250000  0.424252  0.113580  1
  P  P25  1  0.250000  0.075748  0.613580  1
  P  P26  1  0.750000  0.578331  0.886143  1
  P  P27  1  0.750000  0.921669  0.386143  1
  P  P28  1  0.250000  0.270204  0.864887  1
  P  P29  1  0.250000  0.229796  0.364887  1
  P  P30  1  0.750000  0.728418  0.138069  1
  P  P31  1  0.750000  0.771582  0.638069  1
  P  P32  1  0.250000  0.601941  0.386534  1
  P  P33  1  0.250000  0.898059  0.886534  1
  P  P34  1  0.750000  0.401441  0.611047  1
  P  P35  1  0.750000  0.098559  0.111047  1
