# generated using pymatgen
data_Rb3Gd(PO4)2
_symmetry_space_group_name_H-M   'P 1'
_cell_length_a   5.80175400
_cell_length_b   5.80175283
_cell_length_c   8.21068300
_cell_angle_alpha   90.00000000
_cell_angle_beta   90.00000000
_cell_angle_gamma   120.00000667
_symmetry_Int_Tables_number   1
_chemical_formula_structural   Rb3Gd(PO4)2
_chemical_formula_sum   'Rb3 Gd1 P2 O8'
_cell_volume   239.34723831
_cell_formula_units_Z   1
loop_
 _symmetry_equiv_pos_site_id
 _symmetry_equiv_pos_as_xyz
  1  'x, y, z'
loop_
 _atom_site_type_symbol
 _atom_site_label
 _atom_site_symmetry_multiplicity
 _atom_site_fract_x
 _atom_site_fract_y
 _atom_site_fract_z
 _atom_site_occupancy
  Rb  Rb0  1  0.333333  0.666667  0.750187  1
  Rb  Rb1  1  0.666667  0.333333  0.249813  1
  Rb  Rb2  1  0.000000  0.000000  0.000000  1
  Gd  Gd3  1  0.000000  0.000000  0.500000  1
  P  P4  1  0.333333  0.666667  0.270482  1
  P  P5  1  0.666667  0.333333  0.729518  1
  O  O6  1  0.333333  0.666667  0.084610  1
  O  O7  1  0.666667  0.333333  0.915390  1
  O  O8  1  0.186726  0.813274  0.337110  1
  O  O9  1  0.813274  0.186726  0.662890  1
  O  O10  1  0.186726  0.373452  0.337110  1
  O  O11  1  0.813274  0.626548  0.662890  1
  O  O12  1  0.626548  0.813274  0.337110  1
  O  O13  1  0.373452  0.186726  0.662890  1
