# generated using pymatgen
data_DyY9Si5Bi
_symmetry_space_group_name_H-M   'P 1'
_cell_length_a   8.55087900
_cell_length_b   8.59741900
_cell_length_c   6.39038600
_cell_angle_alpha   90.00277889
_cell_angle_beta   89.99958611
_cell_angle_gamma   119.81805394
_symmetry_Int_Tables_number   1
_chemical_formula_structural   DyY9Si5Bi
_chemical_formula_sum   'Dy1 Y9 Si5 Bi1'
_cell_volume   407.59598762
_cell_formula_units_Z   1
loop_
 _symmetry_equiv_pos_site_id
 _symmetry_equiv_pos_as_xyz
  1  'x, y, z'
loop_
 _atom_site_type_symbol
 _atom_site_label
 _atom_site_symmetry_multiplicity
 _atom_site_fract_x
 _atom_site_fract_y
 _atom_site_fract_z
 _atom_site_occupancy
  Dy  Dy0  1  0.676751  0.345970  0.494915  1
  Y  Y1  1  0.984876  0.744696  0.749979  1
  Y  Y2  1  0.998316  0.243524  0.250013  1
  Y  Y3  1  0.754798  0.756461  0.250015  1
  Y  Y4  1  0.767478  0.999995  0.749996  1
  Y  Y5  1  0.240163  0.255269  0.749988  1
  Y  Y6  1  0.240551  0.999999  0.250003  1
  Y  Y7  1  0.676657  0.345858  0.005057  1
  Y  Y8  1  0.330791  0.654126  0.494983  1
  Y  Y9  1  0.330792  0.654124  0.005028  1
  Si  Si10  1  0.393018  0.390516  0.250046  1
  Si  Si11  1  0.002436  0.609447  0.250059  1
  Si  Si12  1  0.998650  0.394201  0.749956  1
  Si  Si13  1  0.604473  0.605778  0.749953  1
  Si  Si14  1  0.607256  0.000031  0.250030  1
  Bi  Bi15  1  0.392991  0.000005  0.749981  1
