# generated using pymatgen
data_Sr2Ga(SiIr)4
_symmetry_space_group_name_H-M   'P 1'
_cell_length_a   6.45757373
_cell_length_b   6.45757277
_cell_length_c   11.21453600
_cell_angle_alpha   90.00000000
_cell_angle_beta   90.00000000
_cell_angle_gamma   115.64111016
_symmetry_Int_Tables_number   1
_chemical_formula_structural   Sr2Ga(SiIr)4
_chemical_formula_sum   'Sr4 Ga2 Si8 Ir8'
_cell_volume   421.59597039
_cell_formula_units_Z   2
loop_
 _symmetry_equiv_pos_site_id
 _symmetry_equiv_pos_as_xyz
  1  'x, y, z'
loop_
 _atom_site_type_symbol
 _atom_site_label
 _atom_site_symmetry_multiplicity
 _atom_site_fract_x
 _atom_site_fract_y
 _atom_site_fract_z
 _atom_site_occupancy
  Sr  Sr0  1  0.198162  0.801838  0.500000  1
  Sr  Sr1  1  0.198162  0.801838  0.000000  1
  Sr  Sr2  1  0.801838  0.198162  0.500000  1
  Sr  Sr3  1  0.801838  0.198162  0.000000  1
  Ga  Ga4  1  0.028147  0.028147  0.250000  1
  Ga  Ga5  1  0.971853  0.971853  0.750000  1
  Si  Si6  1  0.518892  0.892891  0.250000  1
  Si  Si7  1  0.107109  0.481108  0.750000  1
  Si  Si8  1  0.481108  0.107109  0.750000  1
  Si  Si9  1  0.892891  0.518892  0.250000  1
  Si  Si10  1  0.348699  0.348699  0.424393  1
  Si  Si11  1  0.651301  0.651301  0.575607  1
  Si  Si12  1  0.348699  0.348699  0.075607  1
  Si  Si13  1  0.651301  0.651301  0.924393  1
  Ir  Ir14  1  0.494976  0.236929  0.250000  1
  Ir  Ir15  1  0.763071  0.505024  0.750000  1
  Ir  Ir16  1  0.505024  0.763071  0.750000  1
  Ir  Ir17  1  0.236929  0.494976  0.250000  1
  Ir  Ir18  1  0.695993  0.695993  0.372011  1
  Ir  Ir19  1  0.304007  0.304007  0.627989  1
  Ir  Ir20  1  0.695993  0.695993  0.127989  1
  Ir  Ir21  1  0.304007  0.304007  0.872011  1
