# generated using pymatgen
data_Dy6Al24ZnIrRu6
_symmetry_space_group_name_H-M   'P 1'
_cell_length_a   8.84603911
_cell_length_b   8.85088948
_cell_length_c   9.52269610
_cell_angle_alpha   90.16307649
_cell_angle_beta   89.95574295
_cell_angle_gamma   119.89145506
_symmetry_Int_Tables_number   1
_chemical_formula_structural   Dy6Al24ZnIrRu6
_chemical_formula_sum   'Dy6 Al24 Zn1 Ir1 Ru6'
_cell_volume   646.39565715
_cell_formula_units_Z   1
loop_
 _symmetry_equiv_pos_site_id
 _symmetry_equiv_pos_as_xyz
  1  'x, y, z'
loop_
 _atom_site_type_symbol
 _atom_site_label
 _atom_site_symmetry_multiplicity
 _atom_site_fract_x
 _atom_site_fract_y
 _atom_site_fract_z
 _atom_site_occupancy
  Dy  Dy0  1  0.193314  0.805695  0.246762  1
  Dy  Dy1  1  0.192361  0.386264  0.252129  1
  Dy  Dy2  1  0.614541  0.807482  0.252808  1
  Dy  Dy3  1  0.806686  0.194305  0.753238  1
  Dy  Dy4  1  0.807639  0.613736  0.747871  1
  Dy  Dy5  1  0.385459  0.192518  0.747192  1
  Al  Al6  1  0.563753  0.436186  0.244416  1
  Al  Al7  1  0.561781  0.121996  0.252313  1
  Al  Al8  1  0.878691  0.438552  0.251008  1
  Al  Al9  1  0.436247  0.563814  0.755584  1
  Al  Al10  1  0.438219  0.878004  0.747687  1
  Al  Al11  1  0.121309  0.561448  0.748992  1
  Al  Al12  1  0.321969  0.150041  0.418459  1
  Al  Al13  1  0.837186  0.162779  0.421737  1
  Al  Al14  1  0.849796  0.677820  0.418759  1
  Al  Al15  1  0.678031  0.849959  0.581541  1
  Al  Al16  1  0.162814  0.837221  0.578263  1
  Al  Al17  1  0.150204  0.322180  0.581241  1
  Al  Al18  1  0.675698  0.837210  0.924153  1
  Al  Al19  1  0.161561  0.836745  0.922404  1
  Al  Al20  1  0.161841  0.324338  0.923898  1
  Al  Al21  1  0.324302  0.162790  0.075847  1
  Al  Al22  1  0.838439  0.163255  0.077596  1
  Al  Al23  1  0.838159  0.675662  0.076102  1
  Al  Al24  1  0.671329  0.329122  0.521161  1
  Al  Al25  1  0.328671  0.670878  0.478839  1
  Al  Al26  1  0.332708  0.664814  0.016813  1
  Al  Al27  1  0.667292  0.335186  0.983187  1
  Al  Al28  1  0.998743  0.000761  0.249551  1
  Al  Al29  1  0.001257  0.999239  0.750449  1
  Zn  Zn30  1  0.500000  0.500000  0.500000  1
  Ir  Ir31  1  0.500000  0.000000  0.000000  1
  Ru  Ru32  1  0.000000  0.000000  0.500000  1
  Ru  Ru33  1  0.000000  0.000000  0.000000  1
  Ru  Ru34  1  0.500000  0.000000  0.500000  1
  Ru  Ru35  1  0.000000  0.500000  0.500000  1
  Ru  Ru36  1  0.500000  0.500000  0.000000  1
  Ru  Ru37  1  0.000000  0.500000  0.000000  1
