# generated using pymatgen
data_Cs3Rb3Ti3VBr18
_symmetry_space_group_name_H-M   'P 1'
_cell_length_a   7.67825300
_cell_length_b   7.67825262
_cell_length_c   19.30039500
_cell_angle_alpha   90.00000000
_cell_angle_beta   90.00000000
_cell_angle_gamma   119.99999735
_symmetry_Int_Tables_number   1
_chemical_formula_structural   Cs3Rb3Ti3VBr18
_chemical_formula_sum   'Cs3 Rb3 Ti3 V1 Br18'
_cell_volume   985.42064146
_cell_formula_units_Z   1
loop_
 _symmetry_equiv_pos_site_id
 _symmetry_equiv_pos_as_xyz
  1  'x, y, z'
loop_
 _atom_site_type_symbol
 _atom_site_label
 _atom_site_symmetry_multiplicity
 _atom_site_fract_x
 _atom_site_fract_y
 _atom_site_fract_z
 _atom_site_occupancy
  Cs  Cs0  1  0.666667  0.333333  0.568782  1
  Cs  Cs1  1  0.333333  0.666667  0.073823  1
  Cs  Cs2  1  0.333333  0.666667  0.427394  1
  Rb  Rb3  1  0.666667  0.333333  0.944329  1
  Rb  Rb4  1  0.000000  0.000000  0.238672  1
  Rb  Rb5  1  0.000000  0.000000  0.750181  1
  Ti  Ti6  1  0.333333  0.666667  0.665373  1
  Ti  Ti7  1  0.666667  0.333333  0.334896  1
  Ti  Ti8  1  0.333333  0.666667  0.834437  1
  V  V9  1  0.666667  0.333333  0.165753  1
  Br  Br10  1  0.825466  0.650932  0.406752  1
  Br  Br11  1  0.173717  0.826283  0.594285  1
  Br  Br12  1  0.652567  0.826283  0.594285  1
  Br  Br13  1  0.825466  0.174534  0.406752  1
  Br  Br14  1  0.349068  0.174534  0.406752  1
  Br  Br15  1  0.174028  0.348055  0.904201  1
  Br  Br16  1  0.016171  0.508086  0.749338  1
  Br  Br17  1  0.651945  0.825972  0.904201  1
  Br  Br18  1  0.825562  0.651124  0.092895  1
  Br  Br19  1  0.173717  0.347433  0.594285  1
  Br  Br20  1  0.491914  0.983829  0.749338  1
  Br  Br21  1  0.510488  0.489512  0.251317  1
  Br  Br22  1  0.491914  0.508086  0.749338  1
  Br  Br23  1  0.174028  0.825972  0.904201  1
  Br  Br24  1  0.348876  0.174438  0.092895  1
  Br  Br25  1  0.979024  0.489512  0.251317  1
  Br  Br26  1  0.510488  0.020976  0.251317  1
  Br  Br27  1  0.825562  0.174438  0.092895  1
