# generated using pymatgen
data_Hf12Al4Ir7Os
_symmetry_space_group_name_H-M   'P 1'
_cell_length_a   8.49057706
_cell_length_b   8.49077609
_cell_length_c   8.49077700
_cell_angle_alpha   60.00000034
_cell_angle_beta   59.99922493
_cell_angle_gamma   59.99923275
_symmetry_Int_Tables_number   1
_chemical_formula_structural   Hf12Al4Ir7Os
_chemical_formula_sum   'Hf12 Al4 Ir7 Os1'
_cell_volume   432.82463559
_cell_formula_units_Z   1
loop_
 _symmetry_equiv_pos_site_id
 _symmetry_equiv_pos_as_xyz
  1  'x, y, z'
loop_
 _atom_site_type_symbol
 _atom_site_label
 _atom_site_symmetry_multiplicity
 _atom_site_fract_x
 _atom_site_fract_y
 _atom_site_fract_z
 _atom_site_occupancy
  Hf  Hf0  1  0.807043  0.805380  0.193788  1
  Hf  Hf1  1  0.193103  0.193375  0.806761  1
  Hf  Hf2  1  0.807043  0.193788  0.805380  1
  Hf  Hf3  1  0.193103  0.806761  0.193375  1
  Hf  Hf4  1  0.193103  0.806761  0.806761  1
  Hf  Hf5  1  0.807043  0.193788  0.193788  1
  Hf  Hf6  1  0.442892  0.442610  0.057249  1
  Hf  Hf7  1  0.054641  0.060374  0.442493  1
  Hf  Hf8  1  0.442892  0.057249  0.442610  1
  Hf  Hf9  1  0.054641  0.442493  0.060374  1
  Hf  Hf10  1  0.054641  0.442493  0.442493  1
  Hf  Hf11  1  0.442892  0.057249  0.057249  1
  Al  Al12  1  0.125550  0.624817  0.624817  1
  Al  Al13  1  0.625876  0.123963  0.625081  1
  Al  Al14  1  0.625876  0.625081  0.123963  1
  Al  Al15  1  0.625876  0.625081  0.625081  1
  Ir  Ir16  1  0.413393  0.763558  0.411524  1
  Ir  Ir17  1  0.413393  0.411524  0.763558  1
  Ir  Ir18  1  0.413393  0.411524  0.411524  1
  Ir  Ir19  1  0.485729  0.838091  0.838091  1
  Ir  Ir20  1  0.838909  0.485514  0.837789  1
  Ir  Ir21  1  0.838909  0.837789  0.485514  1
  Ir  Ir22  1  0.838909  0.837789  0.837789  1
  Os  Os23  1  0.761147  0.412951  0.412951  1
