# generated using pymatgen
data_TmLu11(GaCo2)2
_symmetry_space_group_name_H-M   'P 1'
_cell_length_a   8.07665152
_cell_length_b   8.07665183
_cell_length_c   8.07658211
_cell_angle_alpha   112.02989250
_cell_angle_beta   109.83089100
_cell_angle_gamma   106.59894933
_symmetry_Int_Tables_number   1
_chemical_formula_structural   TmLu11(GaCo2)2
_chemical_formula_sum   'Tm1 Lu11 Ga2 Co4'
_cell_volume   404.65353880
_cell_formula_units_Z   1
loop_
 _symmetry_equiv_pos_site_id
 _symmetry_equiv_pos_as_xyz
  1  'x, y, z'
loop_
 _atom_site_type_symbol
 _atom_site_label
 _atom_site_symmetry_multiplicity
 _atom_site_fract_x
 _atom_site_fract_y
 _atom_site_fract_z
 _atom_site_occupancy
  Tm  Tm0  1  0.818231  0.781089  0.599319  1
  Lu  Lu1  1  0.041796  0.740061  0.301187  1
  Lu  Lu2  1  0.958209  0.261713  0.697715  1
  Lu  Lu3  1  0.561123  0.259390  0.301187  1
  Lu  Lu4  1  0.436004  0.739506  0.697715  1
  Lu  Lu5  1  0.673779  0.864263  0.189729  1
  Lu  Lu6  1  0.325466  0.515950  0.189729  1
  Lu  Lu7  1  0.326051  0.136339  0.810076  1
  Lu  Lu8  1  0.673737  0.484025  0.810076  1
  Lu  Lu9  1  0.181727  0.220508  0.402235  1
  Lu  Lu10  1  0.818440  0.219438  0.037879  1
  Lu  Lu11  1  0.181373  0.779239  0.960612  1
  Ga  Ga12  1  0.998198  0.499006  0.497205  1
  Ga  Ga13  1  0.501202  0.999775  0.500976  1
  Co  Co14  1  0.659561  0.498719  0.158281  1
  Co  Co15  1  0.340303  0.499591  0.839893  1
  Co  Co16  1  0.885573  0.883867  0.003093  1
  Co  Co17  1  0.119227  0.117520  0.003093  1
