# generated using pymatgen
data_Yb6Gd13HoIr12
_symmetry_space_group_name_H-M   'P 1'
_cell_length_a   6.37121596
_cell_length_b   10.78391173
_cell_length_c   10.88335100
_cell_angle_alpha   90.02051911
_cell_angle_beta   90.19251161
_cell_angle_gamma   89.99485178
_symmetry_Int_Tables_number   1
_chemical_formula_structural   Yb6Gd13HoIr12
_chemical_formula_sum   'Yb6 Gd13 Ho1 Ir12'
_cell_volume   747.75410497
_cell_formula_units_Z   1
loop_
 _symmetry_equiv_pos_site_id
 _symmetry_equiv_pos_as_xyz
  1  'x, y, z'
loop_
 _atom_site_type_symbol
 _atom_site_label
 _atom_site_symmetry_multiplicity
 _atom_site_fract_x
 _atom_site_fract_y
 _atom_site_fract_z
 _atom_site_occupancy
  Yb  Yb0  1  0.621901  0.461408  0.338584  1
  Yb  Yb1  1  0.122252  0.038444  0.338385  1
  Yb  Yb2  1  0.501205  0.745516  0.250223  1
  Yb  Yb3  1  0.000885  0.755520  0.250181  1
  Yb  Yb4  1  0.006117  0.248277  0.752565  1
  Yb  Yb5  1  0.506306  0.251732  0.752654  1
  Gd  Gd6  1  0.377073  0.839984  0.536470  1
  Gd  Gd7  1  0.876822  0.660590  0.536652  1
  Gd  Gd8  1  0.880637  0.838875  0.960213  1
  Gd  Gd9  1  0.380920  0.661390  0.959622  1
  Gd  Gd10  1  0.882559  0.537098  0.836573  1
  Gd  Gd11  1  0.382007  0.963586  0.837074  1
  Gd  Gd12  1  0.378599  0.537392  0.659275  1
  Gd  Gd13  1  0.879331  0.962245  0.659975  1
  Gd  Gd14  1  0.616841  0.163791  0.459882  1
  Gd  Gd15  1  0.116668  0.335491  0.460145  1
  Gd  Gd16  1  0.118600  0.157838  0.044101  1
  Gd  Gd17  1  0.618822  0.340824  0.043349  1
  Gd  Gd18  1  0.115133  0.461270  0.163660  1
  Ho  Ho19  1  0.614629  0.040216  0.163102  1
  Ir  Ir20  1  0.260478  0.900796  0.086114  1
  Ir  Ir21  1  0.757846  0.599647  0.086119  1
  Ir  Ir22  1  0.741075  0.907055  0.407086  1
  Ir  Ir23  1  0.241285  0.593431  0.407606  1
  Ir  Ir24  1  0.751454  0.093237  0.910547  1
  Ir  Ir25  1  0.250509  0.405670  0.910451  1
  Ir  Ir26  1  0.254945  0.093840  0.598009  1
  Ir  Ir27  1  0.755190  0.406779  0.598219  1
  Ir  Ir28  1  0.119653  0.750009  0.747826  1
  Ir  Ir29  1  0.618253  0.749913  0.747918  1
  Ir  Ir30  1  0.874543  0.249085  0.248864  1
  Ir  Ir31  1  0.377465  0.249048  0.248557  1
