# generated using pymatgen
data_Tm6Zn22CdSi
_symmetry_space_group_name_H-M   'P 1'
_cell_length_a   9.05349914
_cell_length_b   9.05349925
_cell_length_c   9.05350000
_cell_angle_alpha   59.99999728
_cell_angle_beta   59.99999686
_cell_angle_gamma   59.99999833
_symmetry_Int_Tables_number   1
_chemical_formula_structural   Tm6Zn22CdSi
_chemical_formula_sum   'Tm6 Zn22 Cd1 Si1'
_cell_volume   524.72821629
_cell_formula_units_Z   1
loop_
 _symmetry_equiv_pos_site_id
 _symmetry_equiv_pos_as_xyz
  1  'x, y, z'
loop_
 _atom_site_type_symbol
 _atom_site_label
 _atom_site_symmetry_multiplicity
 _atom_site_fract_x
 _atom_site_fract_y
 _atom_site_fract_z
 _atom_site_occupancy
  Tm  Tm0  1  0.714530  0.285470  0.285470  1
  Tm  Tm1  1  0.714530  0.285470  0.714530  1
  Tm  Tm2  1  0.714530  0.714530  0.285470  1
  Tm  Tm3  1  0.285470  0.714530  0.714530  1
  Tm  Tm4  1  0.285470  0.714530  0.285470  1
  Tm  Tm5  1  0.285470  0.285470  0.714530  1
  Zn  Zn6  1  0.614327  0.128558  0.128558  1
  Zn  Zn7  1  0.128558  0.614327  0.128558  1
  Zn  Zn8  1  0.128558  0.128558  0.614327  1
  Zn  Zn9  1  0.128558  0.128558  0.128558  1
  Zn  Zn10  1  0.385673  0.871442  0.871442  1
  Zn  Zn11  1  0.871442  0.385673  0.871442  1
  Zn  Zn12  1  0.871442  0.871442  0.385673  1
  Zn  Zn13  1  0.871442  0.871442  0.871442  1
  Zn  Zn14  1  0.500000  0.000000  0.000000  1
  Zn  Zn15  1  0.500000  0.000000  0.500000  1
  Zn  Zn16  1  0.500000  0.500000  0.000000  1
  Zn  Zn17  1  0.000000  0.500000  0.500000  1
  Zn  Zn18  1  0.000000  0.500000  0.000000  1
  Zn  Zn19  1  0.000000  0.000000  0.500000  1
  Zn  Zn20  1  0.002588  0.332470  0.332470  1
  Zn  Zn21  1  0.332470  0.002588  0.332470  1
  Zn  Zn22  1  0.332470  0.332470  0.002588  1
  Zn  Zn23  1  0.332470  0.332470  0.332470  1
  Zn  Zn24  1  0.997412  0.667530  0.667530  1
  Zn  Zn25  1  0.667530  0.997412  0.667530  1
  Zn  Zn26  1  0.667530  0.667530  0.997412  1
  Zn  Zn27  1  0.667530  0.667530  0.667530  1
  Cd  Cd28  1  0.000000  0.000000  0.000000  1
  Si  Si29  1  0.500000  0.500000  0.500000  1
