# generated using pymatgen
data_LiLu3As6Ir7
_symmetry_space_group_name_H-M   'P 1'
_cell_length_a   7.16672049
_cell_length_b   7.16672012
_cell_length_c   7.21728700
_cell_angle_alpha   109.61421103
_cell_angle_beta   109.61420998
_cell_angle_gamma   109.32785461
_symmetry_Int_Tables_number   1
_chemical_formula_structural   LiLu3As6Ir7
_chemical_formula_sum   'Li1 Lu3 As6 Ir7'
_cell_volume   284.85480452
_cell_formula_units_Z   1
loop_
 _symmetry_equiv_pos_site_id
 _symmetry_equiv_pos_as_xyz
  1  'x, y, z'
loop_
 _atom_site_type_symbol
 _atom_site_label
 _atom_site_symmetry_multiplicity
 _atom_site_fract_x
 _atom_site_fract_y
 _atom_site_fract_z
 _atom_site_occupancy
  Li  Li0  1  0.000000  0.000000  0.500000  1
  Lu  Lu1  1  0.500000  0.000000  0.000000  1
  Lu  Lu2  1  0.000000  0.500000  0.000000  1
  Lu  Lu3  1  0.500000  0.500000  0.500000  1
  As  As4  1  0.689317  0.689317  0.010294  1
  As  As5  1  0.310683  0.310683  0.989706  1
  As  As6  1  0.000000  0.689317  0.679023  1
  As  As7  1  0.000000  0.310683  0.320977  1
  As  As8  1  0.689317  0.000000  0.679023  1
  As  As9  1  0.310683  0.000000  0.320977  1
  Ir  Ir10  1  0.000000  0.000000  0.000000  1
  Ir  Ir11  1  0.251206  0.502412  0.751206  1
  Ir  Ir12  1  0.748794  0.251206  0.500000  1
  Ir  Ir13  1  0.502412  0.251206  0.751206  1
  Ir  Ir14  1  0.497588  0.748794  0.248794  1
  Ir  Ir15  1  0.748794  0.497588  0.248794  1
  Ir  Ir16  1  0.251206  0.748794  0.500000  1
