# generated using pymatgen
data_YGePRu2
_symmetry_space_group_name_H-M   'P 1'
_cell_length_a   5.70520685
_cell_length_b   5.70520716
_cell_length_c   5.70520700
_cell_angle_alpha   137.16991490
_cell_angle_beta   137.16992010
_cell_angle_gamma   62.17671746
_symmetry_Int_Tables_number   1
_chemical_formula_structural   YGePRu2
_chemical_formula_sum   'Y1 Ge1 P1 Ru2'
_cell_volume   84.80291094
_cell_formula_units_Z   1
loop_
 _symmetry_equiv_pos_site_id
 _symmetry_equiv_pos_as_xyz
  1  'x, y, z'
loop_
 _atom_site_type_symbol
 _atom_site_label
 _atom_site_symmetry_multiplicity
 _atom_site_fract_x
 _atom_site_fract_y
 _atom_site_fract_z
 _atom_site_occupancy
  Y  Y0  1  0.001467  0.001467  0.000000  1
  Ge  Ge1  1  0.377809  0.377809  0.000000  1
  P  P2  1  0.635846  0.635846  0.000000  1
  Ru  Ru3  1  0.742439  0.242439  0.500000  1
  Ru  Ru4  1  0.242439  0.742439  0.500000  1
