# generated using pymatgen
data_Dy5Si12Ir17Rh2
_symmetry_space_group_name_H-M   'P 1'
_cell_length_a   12.85159100
_cell_length_b   12.82802155
_cell_length_c   3.98677100
_cell_angle_alpha   90.00000000
_cell_angle_beta   90.00000000
_cell_angle_gamma   120.06079997
_symmetry_Int_Tables_number   1
_chemical_formula_structural   Dy5Si12Ir17Rh2
_chemical_formula_sum   'Dy5 Si12 Ir17 Rh2'
_cell_volume   568.85567814
_cell_formula_units_Z   1
loop_
 _symmetry_equiv_pos_site_id
 _symmetry_equiv_pos_as_xyz
  1  'x, y, z'
loop_
 _atom_site_type_symbol
 _atom_site_label
 _atom_site_symmetry_multiplicity
 _atom_site_fract_x
 _atom_site_fract_y
 _atom_site_fract_z
 _atom_site_occupancy
  Dy  Dy0  1  0.333653  0.666800  0.500000  1
  Dy  Dy1  1  0.666854  0.333200  0.500000  1
  Dy  Dy2  1  0.000241  0.815161  0.000000  1
  Dy  Dy3  1  0.185080  0.184839  0.000000  1
  Dy  Dy4  1  0.815207  0.000000  0.000000  1
  Si  Si5  1  0.999808  0.630670  0.500000  1
  Si  Si6  1  0.369137  0.369330  0.500000  1
  Si  Si7  1  0.630976  0.000000  0.500000  1
  Si  Si8  1  0.519599  0.688070  0.000000  1
  Si  Si9  1  0.312432  0.831456  0.000000  1
  Si  Si10  1  0.168686  0.480727  0.000000  1
  Si  Si11  1  0.480976  0.168544  0.000000  1
  Si  Si12  1  0.687959  0.519273  0.000000  1
  Si  Si13  1  0.831529  0.311930  0.000000  1
  Si  Si14  1  0.999931  0.182319  0.500000  1
  Si  Si15  1  0.817612  0.817681  0.500000  1
  Si  Si16  1  0.181296  0.000000  0.500000  1
  Ir  Ir17  1  0.512247  0.873739  0.000000  1
  Ir  Ir18  1  0.126717  0.639084  0.000000  1
  Ir  Ir19  1  0.361208  0.487438  0.000000  1
  Ir  Ir20  1  0.487633  0.360916  0.000000  1
  Ir  Ir21  1  0.873770  0.512562  0.000000  1
  Ir  Ir22  1  0.638508  0.126261  0.000000  1
  Ir  Ir23  1  0.446622  0.000000  0.500000  1
  Ir  Ir24  1  0.999909  0.282032  0.000000  1
  Ir  Ir25  1  0.717877  0.717968  0.000000  1
  Ir  Ir26  1  0.282659  0.000000  0.000000  1
  Ir  Ir27  1  0.623384  0.806454  0.500000  1
  Ir  Ir28  1  0.193980  0.817499  0.500000  1
  Ir  Ir29  1  0.182882  0.376868  0.500000  1
  Ir  Ir30  1  0.376481  0.182501  0.500000  1
  Ir  Ir31  1  0.806013  0.623132  0.500000  1
  Ir  Ir32  1  0.816929  0.193546  0.500000  1
  Ir  Ir33  1  0.999687  0.000000  0.500000  1
  Rh  Rh34  1  0.999840  0.447164  0.500000  1
  Rh  Rh35  1  0.552676  0.552836  0.500000  1
