# generated using pymatgen
data_NaGd6AuCl12
_symmetry_space_group_name_H-M   'P 1'
_cell_length_a   9.13291991
_cell_length_b   9.12557071
_cell_length_c   9.13036800
_cell_angle_alpha   107.10856760
_cell_angle_beta   107.16217038
_cell_angle_gamma   107.13756420
_symmetry_Int_Tables_number   1
_chemical_formula_structural   NaGd6AuCl12
_chemical_formula_sum   'Na1 Gd6 Au1 Cl12'
_cell_volume   631.36142247
_cell_formula_units_Z   1
loop_
 _symmetry_equiv_pos_site_id
 _symmetry_equiv_pos_as_xyz
  1  'x, y, z'
loop_
 _atom_site_type_symbol
 _atom_site_label
 _atom_site_symmetry_multiplicity
 _atom_site_fract_x
 _atom_site_fract_y
 _atom_site_fract_z
 _atom_site_occupancy
  Na  Na0  1  0.500000  0.500000  0.500000  1
  Gd  Gd1  1  0.127075  0.333849  0.026691  1
  Gd  Gd2  1  0.334184  0.026793  0.127323  1
  Gd  Gd3  1  0.026928  0.127407  0.334013  1
  Gd  Gd4  1  0.973072  0.872594  0.665987  1
  Gd  Gd5  1  0.665816  0.973208  0.872677  1
  Gd  Gd6  1  0.872925  0.666151  0.973309  1
  Au  Au7  1  0.000000  0.000000  0.000000  1
  Cl  Cl8  1  0.203526  0.680504  0.070680  1
  Cl  Cl9  1  0.449644  0.360027  0.158829  1
  Cl  Cl10  1  0.680366  0.070532  0.203517  1
  Cl  Cl11  1  0.929526  0.796455  0.319634  1
  Cl  Cl12  1  0.159159  0.449951  0.360031  1
  Cl  Cl13  1  0.360038  0.158931  0.449751  1
  Cl  Cl14  1  0.639962  0.841069  0.550250  1
  Cl  Cl15  1  0.840841  0.550049  0.639969  1
  Cl  Cl16  1  0.070474  0.203545  0.680367  1
  Cl  Cl17  1  0.319634  0.929468  0.796483  1
  Cl  Cl18  1  0.550356  0.639973  0.841172  1
  Cl  Cl19  1  0.796474  0.319497  0.929320  1
