# generated using pymatgen
data_UNiH4
_symmetry_space_group_name_H-M   'P 1'
_cell_length_a   6.00659462
_cell_length_b   6.00659481
_cell_length_c   4.70208900
_cell_angle_alpha   90.00000000
_cell_angle_beta   90.00000000
_cell_angle_gamma   144.00968628
_symmetry_Int_Tables_number   1
_chemical_formula_structural   UNiH4
_chemical_formula_sum   'U2 Ni2 H8'
_cell_volume   99.69310366
_cell_formula_units_Z   2
loop_
 _symmetry_equiv_pos_site_id
 _symmetry_equiv_pos_as_xyz
  1  'x, y, z'
loop_
 _atom_site_type_symbol
 _atom_site_label
 _atom_site_symmetry_multiplicity
 _atom_site_fract_x
 _atom_site_fract_y
 _atom_site_fract_z
 _atom_site_occupancy
  U  U0  1  0.873142  0.126858  0.750000  1
  U  U1  1  0.126858  0.873142  0.250000  1
  Ni  Ni2  1  0.599166  0.400834  0.750000  1
  Ni  Ni3  1  0.400834  0.599166  0.250000  1
  H  H4  1  0.085038  0.914962  0.750000  1
  H  H5  1  0.914962  0.085038  0.250000  1
  H  H6  1  0.697998  0.302002  0.490549  1
  H  H7  1  0.302002  0.697998  0.509451  1
  H  H8  1  0.697998  0.302002  0.009451  1
  H  H9  1  0.302002  0.697998  0.990549  1
  H  H10  1  0.500000  0.500000  0.000000  1
  H  H11  1  0.500000  0.500000  0.500000  1
