# generated using pymatgen
data_Ho5GaGeB8
_symmetry_space_group_name_H-M   'P 1'
_cell_length_a   7.23569302
_cell_length_b   7.23569341
_cell_length_c   8.12873400
_cell_angle_alpha   90.00000000
_cell_angle_beta   90.00000000
_cell_angle_gamma   89.65468839
_symmetry_Int_Tables_number   1
_chemical_formula_structural   Ho5GaGeB8
_chemical_formula_sum   'Ho10 Ga2 Ge2 B16'
_cell_volume   425.57422290
_cell_formula_units_Z   2
loop_
 _symmetry_equiv_pos_site_id
 _symmetry_equiv_pos_as_xyz
  1  'x, y, z'
loop_
 _atom_site_type_symbol
 _atom_site_label
 _atom_site_symmetry_multiplicity
 _atom_site_fract_x
 _atom_site_fract_y
 _atom_site_fract_z
 _atom_site_occupancy
  Ho  Ho0  1  0.680133  0.180133  0.221817  1
  Ho  Ho1  1  0.319867  0.819867  0.778183  1
  Ho  Ho2  1  0.319867  0.819867  0.221817  1
  Ho  Ho3  1  0.816202  0.683798  0.217346  1
  Ho  Ho4  1  0.816202  0.683798  0.782654  1
  Ho  Ho5  1  0.680133  0.180133  0.778183  1
  Ho  Ho6  1  0.183798  0.316202  0.782654  1
  Ho  Ho7  1  0.183798  0.316202  0.217346  1
  Ho  Ho8  1  0.000000  0.000000  0.500000  1
  Ho  Ho9  1  0.500000  0.500000  0.500000  1
  Ga  Ga10  1  0.117449  0.617449  0.500000  1
  Ga  Ga11  1  0.882551  0.382551  0.500000  1
  Ge  Ge12  1  0.378624  0.121376  0.500000  1
  Ge  Ge13  1  0.621376  0.878624  0.500000  1
  B  B14  1  0.171892  0.039253  0.000000  1
  B  B15  1  0.828108  0.960747  0.000000  1
  B  B16  1  0.959313  0.172000  0.000000  1
  B  B17  1  0.328000  0.540687  0.000000  1
  B  B18  1  0.040687  0.828000  0.000000  1
  B  B19  1  0.672000  0.459313  0.000000  1
  B  B20  1  0.539253  0.671892  0.000000  1
  B  B21  1  0.460747  0.328108  0.000000  1
  B  B22  1  0.090884  0.590884  0.000000  1
  B  B23  1  0.909116  0.409116  0.000000  1
  B  B24  1  0.408492  0.091508  0.000000  1
  B  B25  1  0.591508  0.908492  0.000000  1
  B  B26  1  0.000000  0.000000  0.162767  1
  B  B27  1  0.000000  0.000000  0.837233  1
  B  B28  1  0.500000  0.500000  0.837233  1
  B  B29  1  0.500000  0.500000  0.162767  1
