# generated using pymatgen
data_TbDy5(MoO7)2
_symmetry_space_group_name_H-M   'P 1'
_cell_length_a   6.47738733
_cell_length_b   6.48060349
_cell_length_c   7.47608306
_cell_angle_alpha   89.99402039
_cell_angle_beta   89.98965076
_cell_angle_gamma   108.77614196
_symmetry_Int_Tables_number   1
_chemical_formula_structural   TbDy5(MoO7)2
_chemical_formula_sum   'Tb1 Dy5 Mo2 O14'
_cell_volume   297.12558017
_cell_formula_units_Z   1
loop_
 _symmetry_equiv_pos_site_id
 _symmetry_equiv_pos_as_xyz
  1  'x, y, z'
loop_
 _atom_site_type_symbol
 _atom_site_label
 _atom_site_symmetry_multiplicity
 _atom_site_fract_x
 _atom_site_fract_y
 _atom_site_fract_z
 _atom_site_occupancy
  Tb  Tb0  1  0.999800  0.464003  0.744441  1
  Dy  Dy1  1  0.464228  0.999376  0.255380  1
  Dy  Dy2  1  0.000599  0.535792  0.244600  1
  Dy  Dy3  1  0.469615  0.469409  0.000150  1
  Dy  Dy4  1  0.530682  0.530691  0.499866  1
  Dy  Dy5  1  0.535767  0.000541  0.755513  1
  Mo  Mo6  1  0.001554  0.001527  0.499754  1
  Mo  Mo7  1  0.998452  0.998486  0.000226  1
  O  O8  1  0.925822  0.073350  0.750002  1
  O  O9  1  0.635850  0.362296  0.749960  1
  O  O10  1  0.312220  0.058750  0.536748  1
  O  O11  1  0.940643  0.687807  0.964067  1
  O  O12  1  0.630409  0.369376  0.249985  1
  O  O13  1  0.916649  0.673130  0.525294  1
  O  O14  1  0.326932  0.082656  0.973918  1
  O  O15  1  0.083078  0.326790  0.026684  1
  O  O16  1  0.673118  0.917494  0.473851  1
  O  O17  1  0.371081  0.631314  0.750102  1
  O  O18  1  0.687457  0.941249  0.036756  1
  O  O19  1  0.059188  0.312381  0.462671  1
  O  O20  1  0.362745  0.637536  0.250024  1
  O  O21  1  0.074110  0.926047  0.250009  1
