# generated using pymatgen
data_Pr16MgHg3Ir4
_symmetry_space_group_name_H-M   'P 1'
_cell_length_a   10.01691642
_cell_length_b   10.05574507
_cell_length_c   10.05574500
_cell_angle_alpha   60.00000353
_cell_angle_beta   59.87169326
_cell_angle_gamma   59.87169653
_symmetry_Int_Tables_number   1
_chemical_formula_structural   Pr16MgHg3Ir4
_chemical_formula_sum   'Pr16 Mg1 Hg3 Ir4'
_cell_volume   714.82972196
_cell_formula_units_Z   1
loop_
 _symmetry_equiv_pos_site_id
 _symmetry_equiv_pos_as_xyz
  1  'x, y, z'
loop_
 _atom_site_type_symbol
 _atom_site_label
 _atom_site_symmetry_multiplicity
 _atom_site_fract_x
 _atom_site_fract_y
 _atom_site_fract_z
 _atom_site_occupancy
  Pr  Pr0  1  0.348025  0.347018  0.347018  1
  Pr  Pr1  1  0.348025  0.347018  0.957941  1
  Pr  Pr2  1  0.348025  0.957941  0.347018  1
  Pr  Pr3  1  0.953329  0.348891  0.348891  1
  Pr  Pr4  1  0.808276  0.191251  0.191251  1
  Pr  Pr5  1  0.187748  0.811421  0.811421  1
  Pr  Pr6  1  0.187748  0.811421  0.189411  1
  Pr  Pr7  1  0.808276  0.191251  0.809223  1
  Pr  Pr8  1  0.187748  0.189411  0.811421  1
  Pr  Pr9  1  0.808276  0.809223  0.191251  1
  Pr  Pr10  1  0.937180  0.561921  0.561921  1
  Pr  Pr11  1  0.560509  0.938721  0.938721  1
  Pr  Pr12  1  0.560509  0.938721  0.562049  1
  Pr  Pr13  1  0.937180  0.561921  0.938978  1
  Pr  Pr14  1  0.560509  0.562049  0.938721  1
  Pr  Pr15  1  0.937180  0.938978  0.561921  1
  Mg  Mg16  1  0.282630  0.572457  0.572457  1
  Hg  Hg17  1  0.579785  0.584842  0.584842  1
  Hg  Hg18  1  0.579785  0.584842  0.250530  1
  Hg  Hg19  1  0.579785  0.250530  0.584842  1
  Ir  Ir20  1  0.141395  0.141594  0.141594  1
  Ir  Ir21  1  0.141395  0.141594  0.575417  1
  Ir  Ir22  1  0.141395  0.575417  0.141594  1
  Ir  Ir23  1  0.575289  0.141570  0.141570  1
