# generated using pymatgen
data_MnCr7N4
_symmetry_space_group_name_H-M   'P 1'
_cell_length_a   4.49548716
_cell_length_b   4.78733485
_cell_length_c   5.49359201
_cell_angle_alpha   90.05972456
_cell_angle_beta   89.77840528
_cell_angle_gamma   90.16590868
_symmetry_Int_Tables_number   1
_chemical_formula_structural   MnCr7N4
_chemical_formula_sum   'Mn1 Cr7 N4'
_cell_volume   118.22836110
_cell_formula_units_Z   1
loop_
 _symmetry_equiv_pos_site_id
 _symmetry_equiv_pos_as_xyz
  1  'x, y, z'
loop_
 _atom_site_type_symbol
 _atom_site_label
 _atom_site_symmetry_multiplicity
 _atom_site_fract_x
 _atom_site_fract_y
 _atom_site_fract_z
 _atom_site_occupancy
  Mn  Mn0  1  0.760194  0.920364  0.122201  1
  Cr  Cr1  1  0.249517  0.086184  0.874015  1
  Cr  Cr2  1  0.743548  0.914703  0.623875  1
  Cr  Cr3  1  0.256940  0.579998  0.619918  1
  Cr  Cr4  1  0.757430  0.422241  0.878989  1
  Cr  Cr5  1  0.236609  0.579464  0.117289  1
  Cr  Cr6  1  0.741121  0.417326  0.382112  1
  Cr  Cr7  1  0.258607  0.081373  0.379776  1
  N  N8  1  0.495854  0.749714  0.871234  1
  N  N9  1  0.999195  0.247705  0.630104  1
  N  N10  1  0.499745  0.253232  0.130450  1
  N  N11  1  0.001241  0.747697  0.370037  1
