# generated using pymatgen
data_Pu2NbCl15
_symmetry_space_group_name_H-M   'P 1'
_cell_length_a   14.76416883
_cell_length_b   14.88091551
_cell_length_c   7.29534261
_cell_angle_alpha   88.54422179
_cell_angle_beta   88.59081905
_cell_angle_gamma   84.35056380
_symmetry_Int_Tables_number   1
_chemical_formula_structural   Pu2NbCl15
_chemical_formula_sum   'Pu4 Nb2 Cl30'
_cell_volume   1594.12531751
_cell_formula_units_Z   2
loop_
 _symmetry_equiv_pos_site_id
 _symmetry_equiv_pos_as_xyz
  1  'x, y, z'
loop_
 _atom_site_type_symbol
 _atom_site_label
 _atom_site_symmetry_multiplicity
 _atom_site_fract_x
 _atom_site_fract_y
 _atom_site_fract_z
 _atom_site_occupancy
  Pu  Pu0  1  0.433772  0.232818  0.474852  1
  Pu  Pu1  1  0.769699  0.563956  0.525024  1
  Pu  Pu2  1  0.562513  0.770659  0.524810  1
  Pu  Pu3  1  0.100343  0.899880  0.000243  1
  Nb  Nb4  1  0.226680  0.439940  0.475651  1
  Nb  Nb5  1  0.892987  0.106643  0.999799  1
  Cl  Cl6  1  0.524268  0.324396  0.267829  1
  Cl  Cl7  1  0.675802  0.475927  0.731478  1
  Cl  Cl8  1  0.474110  0.677413  0.731264  1
  Cl  Cl9  1  0.326015  0.511860  0.282420  1
  Cl  Cl10  1  0.564597  0.202075  0.680644  1
  Cl  Cl11  1  0.798927  0.434905  0.317508  1
  Cl  Cl12  1  0.870669  0.226271  0.798919  1
  Cl  Cl13  1  0.772711  0.128894  0.200837  1
  Cl  Cl14  1  0.130837  0.768176  0.211641  1
  Cl  Cl15  1  0.232576  0.869778  0.788869  1
  Cl  Cl16  1  0.991176  0.177256  0.181145  1
  Cl  Cl17  1  0.821350  0.009980  0.818066  1
  Cl  Cl18  1  0.009312  0.812271  0.804686  1
  Cl  Cl19  1  0.188914  0.989719  0.195076  1
  Cl  Cl20  1  0.040833  0.050140  0.813496  1
  Cl  Cl21  1  0.949323  0.959654  0.187030  1
  Cl  Cl22  1  0.284207  0.294319  0.294534  1
  Cl  Cl23  1  0.711985  0.712247  0.711972  1
  Cl  Cl24  1  0.107849  0.463328  0.280622  1
  Cl  Cl25  1  0.534420  0.898765  0.733017  1
  Cl  Cl26  1  0.899891  0.534627  0.732513  1
  Cl  Cl27  1  0.464793  0.103251  0.269469  1
  Cl  Cl28  1  0.153446  0.341534  0.668243  1
  Cl  Cl29  1  0.657098  0.858027  0.318905  1
  Cl  Cl30  1  0.858429  0.656954  0.318376  1
  Cl  Cl31  1  0.341006  0.143747  0.681392  1
  Cl  Cl32  1  0.372989  0.381667  0.655339  1
  Cl  Cl33  1  0.620191  0.622151  0.338094  1
  Cl  Cl34  1  0.202909  0.557882  0.669868  1
  Cl  Cl35  1  0.433375  0.798891  0.316371  1
