# generated using pymatgen
data_Yb7HoNp4O24
_symmetry_space_group_name_H-M   'P 1'
_cell_length_a   5.44879300
_cell_length_b   7.81642699
_cell_length_c   11.82223123
_cell_angle_alpha   73.59190264
_cell_angle_beta   90.00000000
_cell_angle_gamma   90.00000000
_symmetry_Int_Tables_number   1
_chemical_formula_structural   Yb7HoNp4O24
_chemical_formula_sum   'Yb7 Ho1 Np4 O24'
_cell_volume   483.00400970
_cell_formula_units_Z   1
loop_
 _symmetry_equiv_pos_site_id
 _symmetry_equiv_pos_as_xyz
  1  'x, y, z'
loop_
 _atom_site_type_symbol
 _atom_site_label
 _atom_site_symmetry_multiplicity
 _atom_site_fract_x
 _atom_site_fract_y
 _atom_site_fract_z
 _atom_site_occupancy
  Yb  Yb0  1  0.188259  0.196683  0.419839  1
  Yb  Yb1  1  0.188259  0.803317  0.080161  1
  Yb  Yb2  1  0.810889  0.802092  0.580720  1
  Yb  Yb3  1  0.810889  0.197908  0.919280  1
  Yb  Yb4  1  0.313978  0.500000  0.750000  1
  Yb  Yb5  1  0.740143  0.000000  0.250000  1
  Yb  Yb6  1  0.259810  0.000000  0.750000  1
  Ho  Ho7  1  0.684756  0.500000  0.250000  1
  Np  Np8  1  0.250303  0.278311  0.113806  1
  Np  Np9  1  0.250303  0.721689  0.386194  1
  Np  Np10  1  0.749796  0.723126  0.886017  1
  Np  Np11  1  0.749796  0.276874  0.613983  1
  O  O12  1  0.456061  0.214233  0.265956  1
  O  O13  1  0.456061  0.785767  0.234044  1
  O  O14  1  0.546693  0.789632  0.734413  1
  O  O15  1  0.546693  0.210368  0.765587  1
  O  O16  1  0.042908  0.066144  0.105524  1
  O  O17  1  0.042908  0.933856  0.394476  1
  O  O18  1  0.959843  0.932798  0.896893  1
  O  O19  1  0.959843  0.067202  0.603107  1
  O  O20  1  0.973879  0.298192  0.228334  1
  O  O21  1  0.973879  0.701808  0.271666  1
  O  O22  1  0.016392  0.706417  0.771975  1
  O  O23  1  0.016392  0.293583  0.728025  1
  O  O24  1  0.858559  0.370921  0.443302  1
  O  O25  1  0.858559  0.629079  0.056698  1
  O  O26  1  0.134938  0.627135  0.551423  1
  O  O27  1  0.134938  0.372865  0.948577  1
  O  O28  1  0.628639  0.515352  0.610148  1
  O  O29  1  0.628639  0.484648  0.889852  1
  O  O30  1  0.379909  0.480056  0.388768  1
  O  O31  1  0.379909  0.519944  0.111232  1
  O  O32  1  0.479952  0.146232  0.564423  1
  O  O33  1  0.479952  0.853768  0.935577  1
  O  O34  1  0.523638  0.851245  0.434939  1
  O  O35  1  0.523638  0.148755  0.065061  1
