# generated using pymatgen
data_HfZr(AlPt)2
_symmetry_space_group_name_H-M   'P 1'
_cell_length_a   7.07939900
_cell_length_b   7.07939979
_cell_length_c   7.39937800
_cell_angle_alpha   90.00000000
_cell_angle_beta   90.00000000
_cell_angle_gamma   120.00000099
_symmetry_Int_Tables_number   1
_chemical_formula_structural   HfZr(AlPt)2
_chemical_formula_sum   'Hf3 Zr3 Al6 Pt6'
_cell_volume   321.15794484
_cell_formula_units_Z   3
loop_
 _symmetry_equiv_pos_site_id
 _symmetry_equiv_pos_as_xyz
  1  'x, y, z'
loop_
 _atom_site_type_symbol
 _atom_site_label
 _atom_site_symmetry_multiplicity
 _atom_site_fract_x
 _atom_site_fract_y
 _atom_site_fract_z
 _atom_site_occupancy
  Hf  Hf0  1  0.584707  0.978216  0.750000  1
  Hf  Hf1  1  0.021784  0.606490  0.750000  1
  Hf  Hf2  1  0.393510  0.415293  0.750000  1
  Zr  Zr3  1  0.977951  0.583031  0.250000  1
  Zr  Zr4  1  0.605081  0.022049  0.250000  1
  Zr  Zr5  1  0.416969  0.394919  0.250000  1
  Al  Al6  1  0.742807  0.742447  0.999043  1
  Al  Al7  1  0.257553  0.000359  0.999043  1
  Al  Al8  1  0.999641  0.257193  0.999043  1
  Al  Al9  1  0.742807  0.742447  0.500957  1
  Al  Al10  1  0.257553  0.000359  0.500957  1
  Al  Al11  1  0.999641  0.257193  0.500957  1
  Pt  Pt12  1  0.000000  0.000000  0.750000  1
  Pt  Pt13  1  0.000000  0.000000  0.250000  1
  Pt  Pt14  1  0.666667  0.333333  0.964166  1
  Pt  Pt15  1  0.666667  0.333333  0.535834  1
  Pt  Pt16  1  0.333333  0.666667  0.477615  1
  Pt  Pt17  1  0.333333  0.666667  0.022386  1
