# generated using pymatgen
data_Er7Lu5Tc3Rh
_symmetry_space_group_name_H-M   'P 1'
_cell_length_a   6.20863293
_cell_length_b   7.31718654
_cell_length_c   8.99046566
_cell_angle_alpha   90.03804562
_cell_angle_beta   90.07955773
_cell_angle_gamma   89.96466111
_symmetry_Int_Tables_number   1
_chemical_formula_structural   Er7Lu5Tc3Rh
_chemical_formula_sum   'Er7 Lu5 Tc3 Rh1'
_cell_volume   408.43382410
_cell_formula_units_Z   1
loop_
 _symmetry_equiv_pos_site_id
 _symmetry_equiv_pos_as_xyz
  1  'x, y, z'
loop_
 _atom_site_type_symbol
 _atom_site_label
 _atom_site_symmetry_multiplicity
 _atom_site_fract_x
 _atom_site_fract_y
 _atom_site_fract_z
 _atom_site_occupancy
  Er  Er0  1  0.836936  0.678711  0.060869  1
  Er  Er1  1  0.167928  0.323390  0.565120  1
  Er  Er2  1  0.662605  0.173875  0.439139  1
  Er  Er3  1  0.876049  0.960940  0.750198  1
  Er  Er4  1  0.369043  0.542632  0.249722  1
  Er  Er5  1  0.625812  0.459794  0.750269  1
  Er  Er6  1  0.127579  0.040597  0.249711  1
  Lu  Lu7  1  0.662406  0.173627  0.060413  1
  Lu  Lu8  1  0.168366  0.322879  0.935050  1
  Lu  Lu9  1  0.836688  0.678516  0.439037  1
  Lu  Lu10  1  0.337173  0.824030  0.562949  1
  Lu  Lu11  1  0.337130  0.824607  0.937111  1
  Tc  Tc12  1  0.038841  0.613370  0.749714  1
  Tc  Tc13  1  0.539727  0.883722  0.250102  1
  Tc  Tc14  1  0.459077  0.115099  0.750709  1
  Rh  Rh15  1  0.954640  0.384210  0.249888  1
