# generated using pymatgen
data_Nb3V3Ga5
_symmetry_space_group_name_H-M   'P 1'
_cell_length_a   8.73223400
_cell_length_b   8.73223359
_cell_length_c   5.25573200
_cell_angle_alpha   90.00000000
_cell_angle_beta   90.00000000
_cell_angle_gamma   120.00000156
_symmetry_Int_Tables_number   1
_chemical_formula_structural   Nb3V3Ga5
_chemical_formula_sum   'Nb6 V6 Ga10'
_cell_volume   347.06797843
_cell_formula_units_Z   2
loop_
 _symmetry_equiv_pos_site_id
 _symmetry_equiv_pos_as_xyz
  1  'x, y, z'
loop_
 _atom_site_type_symbol
 _atom_site_label
 _atom_site_symmetry_multiplicity
 _atom_site_fract_x
 _atom_site_fract_y
 _atom_site_fract_z
 _atom_site_occupancy
  Nb  Nb0  1  0.692482  0.846240  0.250000  1
  Nb  Nb1  1  0.846240  0.153760  0.750000  1
  Nb  Nb2  1  0.153760  0.846240  0.250000  1
  Nb  Nb3  1  0.846240  0.692482  0.750000  1
  Nb  Nb4  1  0.307518  0.153760  0.750000  1
  Nb  Nb5  1  0.153760  0.307518  0.250000  1
  V  V6  1  0.500000  0.000000  0.000000  1
  V  V7  1  0.000000  0.500000  0.000000  1
  V  V8  1  0.500000  0.000000  0.500000  1
  V  V9  1  0.500000  0.500000  0.000000  1
  V  V10  1  0.000000  0.500000  0.500000  1
  V  V11  1  0.500000  0.500000  0.500000  1
  Ga  Ga12  1  0.000000  0.000000  0.000000  1
  Ga  Ga13  1  0.786822  0.213178  0.250000  1
  Ga  Ga14  1  0.213178  0.426356  0.750000  1
  Ga  Ga15  1  0.573644  0.786822  0.750000  1
  Ga  Ga16  1  0.786822  0.573644  0.250000  1
  Ga  Ga17  1  0.000000  0.000000  0.500000  1
  Ga  Ga18  1  0.426356  0.213178  0.250000  1
  Ga  Ga19  1  0.213178  0.786822  0.750000  1
  Ga  Ga20  1  0.666667  0.333333  0.750000  1
  Ga  Ga21  1  0.333333  0.666667  0.250000  1
