# generated using pymatgen
data_Yb3In2(GeO4)3
_symmetry_space_group_name_H-M   'P 1'
_cell_length_a   10.88207107
_cell_length_b   10.88207144
_cell_length_c   10.88207100
_cell_angle_alpha   109.47121981
_cell_angle_beta   109.47122051
_cell_angle_gamma   109.47122269
_symmetry_Int_Tables_number   1
_chemical_formula_structural   Yb3In2(GeO4)3
_chemical_formula_sum   'Yb12 In8 Ge12 O48'
_cell_volume   992.00255128
_cell_formula_units_Z   4
loop_
 _symmetry_equiv_pos_site_id
 _symmetry_equiv_pos_as_xyz
  1  'x, y, z'
loop_
 _atom_site_type_symbol
 _atom_site_label
 _atom_site_symmetry_multiplicity
 _atom_site_fract_x
 _atom_site_fract_y
 _atom_site_fract_z
 _atom_site_occupancy
  Yb  Yb0  1  0.375001  0.750000  0.125000  1
  Yb  Yb1  1  0.249999  0.374999  0.125000  1
  Yb  Yb2  1  0.874999  0.625000  0.249999  1
  Yb  Yb3  1  0.374999  0.124999  0.249999  1
  Yb  Yb4  1  0.124999  0.250000  0.374999  1
  Yb  Yb5  1  0.750001  0.125000  0.375000  1
  Yb  Yb6  1  0.875000  0.750000  0.624999  1
  Yb  Yb7  1  0.249999  0.875000  0.625000  1
  Yb  Yb8  1  0.125000  0.375001  0.750000  1
  Yb  Yb9  1  0.624999  0.875000  0.750000  1
  Yb  Yb10  1  0.624999  0.249999  0.875000  1
  Yb  Yb11  1  0.750000  0.624999  0.875000  1
  In  In12  1  0.000000  0.000000  0.000000  1
  In  In13  1  0.500000  0.000000  0.000000  1
  In  In14  1  0.000000  0.500000  0.000000  1
  In  In15  1  0.500000  0.500000  0.000000  1
  In  In16  1  0.000000  0.000000  0.500000  1
  In  In17  1  0.500000  0.500000  0.499999  1
  In  In18  1  0.500000  0.000000  0.500000  1
  In  In19  1  0.000000  0.500000  0.500000  1
  Ge  Ge20  1  0.749999  0.875000  0.125000  1
  Ge  Ge21  1  0.875000  0.250001  0.125000  1
  Ge  Ge22  1  0.624999  0.375000  0.249999  1
  Ge  Ge23  1  0.125000  0.875000  0.250001  1
  Ge  Ge24  1  0.625000  0.750000  0.374999  1
  Ge  Ge25  1  0.249999  0.624999  0.375000  1
  Ge  Ge26  1  0.375000  0.249999  0.624999  1
  Ge  Ge27  1  0.749999  0.374999  0.625000  1
  Ge  Ge28  1  0.875000  0.125000  0.750000  1
  Ge  Ge29  1  0.374999  0.625000  0.750000  1
  Ge  Ge30  1  0.124999  0.750000  0.875000  1
  Ge  Ge31  1  0.250001  0.125000  0.875000  1
  O  O32  1  0.216814  0.125549  0.024863  1
  O  O33  1  0.308048  0.899313  0.024863  1
  O  O34  1  0.716815  0.691953  0.091265  1
  O  O35  1  0.874451  0.399314  0.091265  1
  O  O36  1  0.625549  0.408734  0.100686  1
  O  O37  1  0.975137  0.691952  0.100686  1
  O  O38  1  0.600687  0.908735  0.125550  1
  O  O39  1  0.024863  0.216814  0.125549  1
  O  O40  1  0.216814  0.591264  0.191951  1
  O  O41  1  0.475136  0.600687  0.191951  1
  O  O42  1  0.591264  0.191951  0.216814  1
  O  O43  1  0.125549  0.024863  0.216814  1
  O  O44  1  0.475136  0.374450  0.283186  1
  O  O45  1  0.308048  0.908735  0.283186  1
  O  O46  1  0.908735  0.283186  0.308048  1
  O  O47  1  0.899314  0.024863  0.308048  1
  O  O48  1  0.591265  0.899313  0.374450  1
  O  O49  1  0.283186  0.475136  0.374450  1
  O  O50  1  0.808048  0.524864  0.399314  1
  O  O51  1  0.091265  0.874451  0.399315  1
  O  O52  1  0.808048  0.783185  0.408735  1
  O  O53  1  0.100686  0.625549  0.408734  1
  O  O54  1  0.374450  0.283185  0.475137  1
  O  O55  1  0.600686  0.191951  0.475137  1
  O  O56  1  0.625550  0.716814  0.524863  1
  O  O57  1  0.399314  0.808048  0.524864  1
  O  O58  1  0.191951  0.216814  0.591264  1
  O  O59  1  0.899313  0.374450  0.591265  1
  O  O60  1  0.908736  0.125550  0.600687  1
  O  O61  1  0.191952  0.475136  0.600686  1
  O  O62  1  0.408734  0.100686  0.625549  1
  O  O63  1  0.716815  0.524863  0.625550  1
  O  O64  1  0.091265  0.716815  0.691952  1
  O  O65  1  0.100686  0.975137  0.691952  1
  O  O66  1  0.691952  0.091265  0.716815  1
  O  O67  1  0.524863  0.625550  0.716815  1
  O  O68  1  0.874450  0.975137  0.783186  1
  O  O69  1  0.408735  0.808048  0.783185  1
  O  O70  1  0.524864  0.399314  0.808048  1
  O  O71  1  0.783185  0.408735  0.808048  1
  O  O72  1  0.975137  0.783186  0.874451  1
  O  O73  1  0.399315  0.091265  0.874451  1
  O  O74  1  0.024864  0.308048  0.899313  1
  O  O75  1  0.374450  0.591265  0.899314  1
  O  O76  1  0.283186  0.308048  0.908735  1
  O  O77  1  0.125550  0.600686  0.908736  1
  O  O78  1  0.691952  0.100686  0.975136  1
  O  O79  1  0.783186  0.874451  0.975137  1
