# generated using pymatgen
data_Tm12InNi4Os
_symmetry_space_group_name_H-M   'P 1'
_cell_length_a   8.19961247
_cell_length_b   8.19961281
_cell_length_c   8.19961241
_cell_angle_alpha   111.53667213
_cell_angle_beta   110.10285804
_cell_angle_gamma   106.80987076
_symmetry_Int_Tables_number   1
_chemical_formula_structural   Tm12InNi4Os
_chemical_formula_sum   'Tm12 In1 Ni4 Os1'
_cell_volume   423.63071254
_cell_formula_units_Z   1
loop_
 _symmetry_equiv_pos_site_id
 _symmetry_equiv_pos_as_xyz
  1  'x, y, z'
loop_
 _atom_site_type_symbol
 _atom_site_label
 _atom_site_symmetry_multiplicity
 _atom_site_fract_x
 _atom_site_fract_y
 _atom_site_fract_z
 _atom_site_occupancy
  Tm  Tm0  1  0.414229  0.222945  0.191283  1
  Tm  Tm1  1  0.585771  0.777055  0.808717  1
  Tm  Tm2  1  0.031663  0.222945  0.808717  1
  Tm  Tm3  1  0.968337  0.777055  0.191283  1
  Tm  Tm4  1  0.180042  0.279654  0.459695  1
  Tm  Tm5  1  0.819958  0.720346  0.540305  1
  Tm  Tm6  1  0.180042  0.720346  0.900388  1
  Tm  Tm7  1  0.819958  0.279654  0.099612  1
  Tm  Tm8  1  0.321636  0.626231  0.304595  1
  Tm  Tm9  1  0.678364  0.373769  0.695405  1
  Tm  Tm10  1  0.321636  0.017040  0.695405  1
  Tm  Tm11  1  0.678364  0.982960  0.304595  1
  In  In12  1  0.500000  0.500000  0.000000  1
  Ni  Ni13  1  0.359690  0.000000  0.359690  1
  Ni  Ni14  1  0.640310  0.000000  0.640310  1
  Ni  Ni15  1  0.120015  0.620015  0.500000  1
  Ni  Ni16  1  0.879985  0.379985  0.500000  1
  Os  Os17  1  0.000000  0.000000  0.000000  1
