# generated using pymatgen
data_Ho2Er6Re(TcB8)3
_symmetry_space_group_name_H-M   'P 1'
_cell_length_a   3.66118100
_cell_length_b   9.12404312
_cell_length_c   11.49812600
_cell_angle_alpha   90.02882750
_cell_angle_beta   90.00000000
_cell_angle_gamma   90.00000000
_symmetry_Int_Tables_number   1
_chemical_formula_structural   Ho2Er6Re(TcB8)3
_chemical_formula_sum   'Ho2 Er6 Re1 Tc3 B24'
_cell_volume   384.09224395
_cell_formula_units_Z   1
loop_
 _symmetry_equiv_pos_site_id
 _symmetry_equiv_pos_as_xyz
  1  'x, y, z'
loop_
 _atom_site_type_symbol
 _atom_site_label
 _atom_site_symmetry_multiplicity
 _atom_site_fract_x
 _atom_site_fract_y
 _atom_site_fract_z
 _atom_site_occupancy
  Ho  Ho0  1  0.000000  0.323906  0.414077  1
  Ho  Ho1  1  0.000000  0.676238  0.585884  1
  Er  Er2  1  0.000000  0.823916  0.086046  1
  Er  Er3  1  0.000000  0.176515  0.914270  1
  Er  Er4  1  0.000000  0.942899  0.369194  1
  Er  Er5  1  0.000000  0.057702  0.629926  1
  Er  Er6  1  0.000000  0.442863  0.130663  1
  Er  Er7  1  0.000000  0.556086  0.869811  1
  Re  Re8  1  0.000000  0.861286  0.820768  1
  Tc  Tc9  1  0.000000  0.639107  0.320426  1
  Tc  Tc10  1  0.000000  0.360936  0.679541  1
  Tc  Tc11  1  0.000000  0.138886  0.179356  1
  B  B12  1  0.500000  0.553519  0.433003  1
  B  B13  1  0.500000  0.446545  0.567026  1
  B  B14  1  0.500000  0.053427  0.066937  1
  B  B15  1  0.500000  0.946783  0.933388  1
  B  B16  1  0.500000  0.749572  0.418786  1
  B  B17  1  0.500000  0.250676  0.581170  1
  B  B18  1  0.500000  0.249423  0.081033  1
  B  B19  1  0.500000  0.750145  0.919165  1
  B  B20  1  0.500000  0.792378  0.265070  1
  B  B21  1  0.500000  0.207635  0.734771  1
  B  B22  1  0.500000  0.292268  0.234805  1
  B  B23  1  0.500000  0.707341  0.765341  1
  B  B24  1  0.500000  0.630975  0.185278  1
  B  B25  1  0.500000  0.368824  0.814698  1
  B  B26  1  0.500000  0.130892  0.314617  1
  B  B27  1  0.500000  0.869305  0.685219  1
  B  B28  1  0.500000  0.982036  0.211657  1
  B  B29  1  0.500000  0.018331  0.788138  1
  B  B30  1  0.500000  0.482178  0.288193  1
  B  B31  1  0.500000  0.517698  0.711914  1
  B  B32  1  0.500000  0.599848  0.028018  1
  B  B33  1  0.500000  0.399670  0.972194  1
  B  B34  1  0.500000  0.099875  0.471878  1
  B  B35  1  0.500000  0.900317  0.527741  1
