# generated using pymatgen
data_Tb3ErTh2(Co3P2)6
_symmetry_space_group_name_H-M   'P 1'
_cell_length_a   3.73966200
_cell_length_b   10.56381900
_cell_length_c   12.23939901
_cell_angle_alpha   89.99662476
_cell_angle_beta   90.00000000
_cell_angle_gamma   90.00000000
_symmetry_Int_Tables_number   1
_chemical_formula_structural   Tb3ErTh2(Co3P2)6
_chemical_formula_sum   'Tb3 Er1 Th2 Co18 P12'
_cell_volume   483.51883388
_cell_formula_units_Z   1
loop_
 _symmetry_equiv_pos_site_id
 _symmetry_equiv_pos_as_xyz
  1  'x, y, z'
loop_
 _atom_site_type_symbol
 _atom_site_label
 _atom_site_symmetry_multiplicity
 _atom_site_fract_x
 _atom_site_fract_y
 _atom_site_fract_z
 _atom_site_occupancy
  Tb  Tb0  1  0.500000  0.183802  0.204074  1
  Tb  Tb1  1  0.000000  0.684199  0.795880  1
  Tb  Tb2  1  0.000000  0.315822  0.796103  1
  Er  Er3  1  0.500000  0.815978  0.203887  1
  Th  Th4  1  0.000000  0.500081  0.524632  1
  Th  Th5  1  0.500000  0.999645  0.475030  1
  Co  Co6  1  0.500000  0.500176  0.156096  1
  Co  Co7  1  0.000000  0.999800  0.844045  1
  Co  Co8  1  0.500000  0.500134  0.702743  1
  Co  Co9  1  0.000000  0.999071  0.296886  1
  Co  Co10  1  0.000000  0.500492  0.986314  1
  Co  Co11  1  0.500000  0.999437  0.014707  1
  Co  Co12  1  0.500000  0.333638  0.995098  1
  Co  Co13  1  0.500000  0.666928  0.995567  1
  Co  Co14  1  0.000000  0.165940  0.005363  1
  Co  Co15  1  0.000000  0.833518  0.005715  1
  Co  Co16  1  0.500000  0.299209  0.429505  1
  Co  Co17  1  0.500000  0.700936  0.428702  1
  Co  Co18  1  0.000000  0.200641  0.570341  1
  Co  Co19  1  0.000000  0.799297  0.569945  1
  Co  Co20  1  0.500000  0.880532  0.712727  1
  Co  Co21  1  0.500000  0.119408  0.712888  1
  Co  Co22  1  0.000000  0.620289  0.286522  1
  Co  Co23  1  0.000000  0.380766  0.287253  1
  P  P24  1  0.500000  0.500272  0.882875  1
  P  P25  1  0.000000  0.999120  0.118000  1
  P  P26  1  0.500000  0.500061  0.338383  1
  P  P27  1  0.000000  0.999987  0.661484  1
  P  P28  1  0.500000  0.305504  0.618061  1
  P  P29  1  0.500000  0.694677  0.617658  1
  P  P30  1  0.000000  0.194196  0.381804  1
  P  P31  1  0.000000  0.805713  0.380667  1
  P  P32  1  0.500000  0.847163  0.895277  1
  P  P33  1  0.500000  0.152595  0.895564  1
  P  P34  1  0.000000  0.653897  0.105450  1
  P  P35  1  0.000000  0.347073  0.104753  1
