# generated using pymatgen
data_DyYMn2(Co4P3)2
_symmetry_space_group_name_H-M   'P 1'
_cell_length_a   3.65209800
_cell_length_b   10.32567000
_cell_length_c   11.81218300
_cell_angle_alpha   90.00000000
_cell_angle_beta   90.00000000
_cell_angle_gamma   90.00000000
_symmetry_Int_Tables_number   1
_chemical_formula_structural   DyYMn2(Co4P3)2
_chemical_formula_sum   'Dy2 Y2 Mn4 Co16 P12'
_cell_volume   445.44165862
_cell_formula_units_Z   2
loop_
 _symmetry_equiv_pos_site_id
 _symmetry_equiv_pos_as_xyz
  1  'x, y, z'
loop_
 _atom_site_type_symbol
 _atom_site_label
 _atom_site_symmetry_multiplicity
 _atom_site_fract_x
 _atom_site_fract_y
 _atom_site_fract_z
 _atom_site_occupancy
  Dy  Dy0  1  0.750000  0.417637  0.295885  1
  Dy  Dy1  1  0.750000  0.082363  0.795885  1
  Y  Y2  1  0.250000  0.582333  0.704073  1
  Y  Y3  1  0.250000  0.917667  0.204073  1
  Mn  Mn4  1  0.250000  0.710265  0.988707  1
  Mn  Mn5  1  0.250000  0.789735  0.488707  1
  Mn  Mn6  1  0.750000  0.289793  0.011306  1
  Mn  Mn7  1  0.750000  0.210207  0.511306  1
  Co  Co8  1  0.250000  0.406352  0.487870  1
  Co  Co9  1  0.250000  0.093648  0.987870  1
  Co  Co10  1  0.750000  0.593521  0.511789  1
  Co  Co11  1  0.750000  0.906479  0.011789  1
  Co  Co12  1  0.250000  0.220932  0.176585  1
  Co  Co13  1  0.250000  0.279068  0.676585  1
  Co  Co14  1  0.750000  0.779251  0.823507  1
  Co  Co15  1  0.750000  0.720749  0.323507  1
  Co  Co16  1  0.250000  0.883597  0.698820  1
  Co  Co17  1  0.250000  0.616403  0.198820  1
  Co  Co18  1  0.750000  0.116801  0.301336  1
  Co  Co19  1  0.750000  0.383199  0.801336  1
  Co  Co20  1  0.250000  0.465967  0.932624  1
  Co  Co21  1  0.250000  0.034033  0.432624  1
  Co  Co22  1  0.750000  0.533715  0.067521  1
  Co  Co23  1  0.750000  0.966285  0.567521  1
  P  P24  1  0.250000  0.418699  0.112544  1
  P  P25  1  0.250000  0.081301  0.612544  1
  P  P26  1  0.750000  0.581221  0.887636  1
  P  P27  1  0.750000  0.918779  0.387636  1
  P  P28  1  0.250000  0.269946  0.868071  1
  P  P29  1  0.250000  0.230054  0.368071  1
  P  P30  1  0.750000  0.729920  0.131860  1
  P  P31  1  0.750000  0.770080  0.631860  1
  P  P32  1  0.250000  0.600514  0.391255  1
  P  P33  1  0.250000  0.899486  0.891255  1
  P  P34  1  0.750000  0.399159  0.608610  1
  P  P35  1  0.750000  0.100841  0.108610  1
