# generated using pymatgen
data_Li4MnSb3Rh8
_symmetry_space_group_name_H-M   'P 1'
_cell_length_a   6.12700500
_cell_length_b   6.13554800
_cell_length_c   6.12689600
_cell_angle_alpha   89.99981317
_cell_angle_beta   89.99835415
_cell_angle_gamma   90.00010281
_symmetry_Int_Tables_number   1
_chemical_formula_structural   Li4MnSb3Rh8
_chemical_formula_sum   'Li4 Mn1 Sb3 Rh8'
_cell_volume   230.32554170
_cell_formula_units_Z   1
loop_
 _symmetry_equiv_pos_site_id
 _symmetry_equiv_pos_as_xyz
  1  'x, y, z'
loop_
 _atom_site_type_symbol
 _atom_site_label
 _atom_site_symmetry_multiplicity
 _atom_site_fract_x
 _atom_site_fract_y
 _atom_site_fract_z
 _atom_site_occupancy
  Li  Li0  1  0.499994  0.749968  0.249970  1
  Li  Li1  1  0.000005  0.250035  0.249972  1
  Li  Li2  1  0.000002  0.749972  0.750038  1
  Li  Li3  1  0.499985  0.250035  0.750034  1
  Mn  Mn4  1  0.500004  0.249992  0.250006  1
  Sb  Sb5  1  0.999995  0.750005  0.250008  1
  Sb  Sb6  1  0.000000  0.249996  0.749994  1
  Sb  Sb7  1  0.499998  0.750007  0.749998  1
  Rh  Rh8  1  0.253072  0.002874  0.003078  1
  Rh  Rh9  1  0.746921  0.002866  0.003067  1
  Rh  Rh10  1  0.746924  0.497136  0.003080  1
  Rh  Rh11  1  0.253102  0.497094  0.003114  1
  Rh  Rh12  1  0.253101  0.497118  0.496905  1
  Rh  Rh13  1  0.253075  0.002870  0.496915  1
  Rh  Rh14  1  0.746921  0.497130  0.496928  1
  Rh  Rh15  1  0.746899  0.002902  0.496896  1
