# generated using pymatgen
data_TbDy3Sb5Rh7Au
_symmetry_space_group_name_H-M   'P 1'
_cell_length_a   7.59341925
_cell_length_b   7.59365454
_cell_length_c   7.59365242
_cell_angle_alpha   107.90234470
_cell_angle_beta   110.28134994
_cell_angle_gamma   110.28134588
_symmetry_Int_Tables_number   1
_chemical_formula_structural   TbDy3Sb5Rh7Au
_chemical_formula_sum   'Tb1 Dy3 Sb5 Rh7 Au1'
_cell_volume   336.70951290
_cell_formula_units_Z   1
loop_
 _symmetry_equiv_pos_site_id
 _symmetry_equiv_pos_as_xyz
  1  'x, y, z'
loop_
 _atom_site_type_symbol
 _atom_site_label
 _atom_site_symmetry_multiplicity
 _atom_site_fract_x
 _atom_site_fract_y
 _atom_site_fract_z
 _atom_site_occupancy
  Tb  Tb0  1  0.481899  0.499116  0.499116  1
  Dy  Dy1  1  0.518367  0.017452  0.017452  1
  Dy  Dy2  1  0.999979  0.499067  0.017450  1
  Dy  Dy3  1  0.999979  0.017450  0.499067  1
  Sb  Sb4  1  0.685853  0.002159  0.687678  1
  Sb  Sb5  1  0.685853  0.687678  0.002159  1
  Sb  Sb6  1  0.000220  0.671883  0.671883  1
  Sb  Sb7  1  0.314229  0.001521  0.316010  1
  Sb  Sb8  1  0.314229  0.316010  0.001521  1
  Rh  Rh9  1  0.000091  0.970983  0.970983  1
  Rh  Rh10  1  0.499988  0.752933  0.252508  1
  Rh  Rh11  1  0.749126  0.503932  0.252709  1
  Rh  Rh12  1  0.250817  0.755077  0.503866  1
  Rh  Rh13  1  0.250817  0.503866  0.755077  1
  Rh  Rh14  1  0.499988  0.252508  0.752933  1
  Rh  Rh15  1  0.749126  0.252709  0.503932  1
  Au  Au16  1  0.999440  0.295655  0.295655  1
