# generated using pymatgen
data_TbHoZnCo2
_symmetry_space_group_name_H-M   'P 1'
_cell_length_a   5.34668517
_cell_length_b   5.34668614
_cell_length_c   5.48224500
_cell_angle_alpha   120.84230831
_cell_angle_beta   120.84231453
_cell_angle_gamma   44.77355621
_symmetry_Int_Tables_number   1
_chemical_formula_structural   TbHoZnCo2
_chemical_formula_sum   'Tb1 Ho1 Zn1 Co2'
_cell_volume   91.85884101
_cell_formula_units_Z   1
loop_
 _symmetry_equiv_pos_site_id
 _symmetry_equiv_pos_as_xyz
  1  'x, y, z'
loop_
 _atom_site_type_symbol
 _atom_site_label
 _atom_site_symmetry_multiplicity
 _atom_site_fract_x
 _atom_site_fract_y
 _atom_site_fract_z
 _atom_site_occupancy
  Tb  Tb0  1  0.791167  0.791167  0.291166  1
  Ho  Ho1  1  0.208812  0.208812  0.708812  1
  Zn  Zn2  1  0.999981  0.999981  0.999981  1
  Co  Co3  1  0.500021  0.500021  0.291796  1
  Co  Co4  1  0.500020  0.500020  0.708245  1
