# generated using pymatgen
data_LaTb2Mg3Si2Pt
_symmetry_space_group_name_H-M   'P 1'
_cell_length_a   7.34231800
_cell_length_b   7.34231796
_cell_length_c   4.35647500
_cell_angle_alpha   90.00000000
_cell_angle_beta   90.00000000
_cell_angle_gamma   120.12121421
_symmetry_Int_Tables_number   1
_chemical_formula_structural   LaTb2Mg3Si2Pt
_chemical_formula_sum   'La1 Tb2 Mg3 Si2 Pt1'
_cell_volume   203.14235213
_cell_formula_units_Z   1
loop_
 _symmetry_equiv_pos_site_id
 _symmetry_equiv_pos_as_xyz
  1  'x, y, z'
loop_
 _atom_site_type_symbol
 _atom_site_label
 _atom_site_symmetry_multiplicity
 _atom_site_fract_x
 _atom_site_fract_y
 _atom_site_fract_z
 _atom_site_occupancy
  La  La0  1  0.586109  0.586109  0.000000  1
  Tb  Tb1  1  0.410622  0.998565  0.000000  1
  Tb  Tb2  1  0.998565  0.410622  0.000000  1
  Mg  Mg3  1  0.002606  0.759487  0.500000  1
  Mg  Mg4  1  0.239048  0.239048  0.500000  1
  Mg  Mg5  1  0.759487  0.002606  0.500000  1
  Si  Si6  1  0.328155  0.669181  0.500000  1
  Si  Si7  1  0.669181  0.328155  0.500000  1
  Pt  Pt8  1  0.006225  0.006225  0.000000  1
