# generated using pymatgen
data_Tb2SmTh3Si4
_symmetry_space_group_name_H-M   'P 1'
_cell_length_a   7.67182960
_cell_length_b   7.67182929
_cell_length_c   4.25494000
_cell_angle_alpha   90.00000000
_cell_angle_beta   90.00000000
_cell_angle_gamma   90.13875562
_symmetry_Int_Tables_number   1
_chemical_formula_structural   Tb2SmTh3Si4
_chemical_formula_sum   'Tb2 Sm1 Th3 Si4'
_cell_volume   250.43212908
_cell_formula_units_Z   1
loop_
 _symmetry_equiv_pos_site_id
 _symmetry_equiv_pos_as_xyz
  1  'x, y, z'
loop_
 _atom_site_type_symbol
 _atom_site_label
 _atom_site_symmetry_multiplicity
 _atom_site_fract_x
 _atom_site_fract_y
 _atom_site_fract_z
 _atom_site_occupancy
  Tb  Tb0  1  0.500163  0.501877  0.000000  1
  Tb  Tb1  1  0.001877  0.000163  0.000000  1
  Sm  Sm2  1  0.676512  0.176512  0.500000  1
  Th  Th3  1  0.322098  0.822098  0.500000  1
  Th  Th4  1  0.178032  0.321203  0.500000  1
  Th  Th5  1  0.821203  0.678032  0.500000  1
  Si  Si6  1  0.115431  0.615431  0.000000  1
  Si  Si7  1  0.883434  0.383434  0.000000  1
  Si  Si8  1  0.616417  0.884834  0.000000  1
  Si  Si9  1  0.384834  0.116417  0.000000  1
