# generated using pymatgen
data_Tb4Dy4Sc12GaSi15
_symmetry_space_group_name_H-M   'P 1'
_cell_length_a   7.11746793
_cell_length_b   7.40637733
_cell_length_c   14.05372016
_cell_angle_alpha   89.94617488
_cell_angle_beta   89.96417233
_cell_angle_gamma   90.02129645
_symmetry_Int_Tables_number   1
_chemical_formula_structural   Tb4Dy4Sc12GaSi15
_chemical_formula_sum   'Tb4 Dy4 Sc12 Ga1 Si15'
_cell_volume   740.83646098
_cell_formula_units_Z   1
loop_
 _symmetry_equiv_pos_site_id
 _symmetry_equiv_pos_as_xyz
  1  'x, y, z'
loop_
 _atom_site_type_symbol
 _atom_site_label
 _atom_site_symmetry_multiplicity
 _atom_site_fract_x
 _atom_site_fract_y
 _atom_site_fract_z
 _atom_site_occupancy
  Tb  Tb0  1  0.011892  0.175472  0.097275  1
  Tb  Tb1  1  0.987963  0.824901  0.903333  1
  Tb  Tb2  1  0.487674  0.676132  0.903207  1
  Tb  Tb3  1  0.987345  0.826608  0.597537  1
  Dy  Dy4  1  0.512218  0.323928  0.097189  1
  Dy  Dy5  1  0.011131  0.174073  0.401397  1
  Dy  Dy6  1  0.512916  0.323473  0.401356  1
  Dy  Dy7  1  0.489888  0.678078  0.597682  1
  Sc  Sc8  1  0.161296  0.502461  0.751652  1
  Sc  Sc9  1  0.838972  0.497804  0.249876  1
  Sc  Sc10  1  0.339061  0.002309  0.249627  1
  Sc  Sc11  1  0.661664  0.996772  0.750145  1
  Sc  Sc12  1  0.332659  0.173777  0.626151  1
  Sc  Sc13  1  0.668391  0.824152  0.374201  1
  Sc  Sc14  1  0.169951  0.677313  0.373330  1
  Sc  Sc15  1  0.669814  0.823877  0.125419  1
  Sc  Sc16  1  0.828280  0.323469  0.625607  1
  Sc  Sc17  1  0.329933  0.175642  0.874912  1
  Sc  Sc18  1  0.830368  0.323262  0.874940  1
  Sc  Sc19  1  0.169195  0.676571  0.125473  1
  Ga  Ga20  1  0.159978  0.462083  0.539085  1
  Si  Si21  1  0.033742  0.118445  0.750675  1
  Si  Si22  1  0.966471  0.882648  0.249705  1
  Si  Si23  1  0.467515  0.616756  0.249903  1
  Si  Si24  1  0.532310  0.384048  0.749756  1
  Si  Si25  1  0.284744  0.873542  0.750292  1
  Si  Si26  1  0.714182  0.126732  0.249602  1
  Si  Si27  1  0.214218  0.373057  0.249541  1
  Si  Si28  1  0.785778  0.626247  0.750681  1
  Si  Si29  1  0.841481  0.536158  0.460344  1
  Si  Si30  1  0.342121  0.964211  0.460185  1
  Si  Si31  1  0.842554  0.535511  0.038863  1
  Si  Si32  1  0.657114  0.035986  0.538867  1
  Si  Si33  1  0.157277  0.464142  0.961726  1
  Si  Si34  1  0.656746  0.035661  0.960832  1
  Si  Si35  1  0.343158  0.964698  0.039635  1
