# generated using pymatgen
data_Dy8Ti3Si16Mo7W2
_symmetry_space_group_name_H-M   'P 1'
_cell_length_a   6.90620398
_cell_length_b   6.90714176
_cell_length_c   12.81018913
_cell_angle_alpha   90.01273707
_cell_angle_beta   89.96462428
_cell_angle_gamma   89.85613878
_symmetry_Int_Tables_number   1
_chemical_formula_structural   Dy8Ti3Si16Mo7W2
_chemical_formula_sum   'Dy8 Ti3 Si16 Mo7 W2'
_cell_volume   611.07124741
_cell_formula_units_Z   1
loop_
 _symmetry_equiv_pos_site_id
 _symmetry_equiv_pos_as_xyz
  1  'x, y, z'
loop_
 _atom_site_type_symbol
 _atom_site_label
 _atom_site_symmetry_multiplicity
 _atom_site_fract_x
 _atom_site_fract_y
 _atom_site_fract_z
 _atom_site_occupancy
  Dy  Dy0  1  0.998159  0.660803  0.031332  1
  Dy  Dy1  1  0.000577  0.340062  0.531201  1
  Dy  Dy2  1  0.660693  0.997777  0.968659  1
  Dy  Dy3  1  0.161873  0.503041  0.780797  1
  Dy  Dy4  1  0.838069  0.500751  0.282545  1
  Dy  Dy5  1  0.503031  0.161726  0.219217  1
  Dy  Dy6  1  0.500698  0.838102  0.717436  1
  Dy  Dy7  1  0.340045  0.000651  0.468803  1
  Ti  Ti8  1  0.829468  0.168560  0.748662  1
  Ti  Ti9  1  0.168376  0.829542  0.251488  1
  Ti  Ti10  1  0.331353  0.331145  0.999902  1
  Si  Si11  1  0.036305  0.711999  0.437967  1
  Si  Si12  1  0.959195  0.289415  0.936163  1
  Si  Si13  1  0.712014  0.036294  0.562062  1
  Si  Si14  1  0.209234  0.460378  0.186270  1
  Si  Si15  1  0.789666  0.541045  0.685527  1
  Si  Si16  1  0.460321  0.208678  0.813769  1
  Si  Si17  1  0.540969  0.789661  0.314429  1
  Si  Si18  1  0.289611  0.959348  0.063939  1
  Si  Si19  1  0.799907  0.871571  0.183716  1
  Si  Si20  1  0.302468  0.625887  0.565848  1
  Si  Si21  1  0.700927  0.371998  0.066036  1
  Si  Si22  1  0.625802  0.302491  0.434156  1
  Si  Si23  1  0.371659  0.700883  0.933782  1
  Si  Si24  1  0.127485  0.202637  0.315513  1
  Si  Si25  1  0.202466  0.127511  0.684421  1
  Si  Si26  1  0.871500  0.799792  0.816451  1
  Mo  Mo27  1  0.334369  0.505664  0.375083  1
  Mo  Mo28  1  0.842206  0.997124  0.373356  1
  Mo  Mo29  1  0.006424  0.160149  0.125465  1
  Mo  Mo30  1  0.997038  0.841872  0.626682  1
  Mo  Mo31  1  0.505743  0.334507  0.624981  1
  Mo  Mo32  1  0.160263  0.006538  0.874380  1
  Mo  Mo33  1  0.494009  0.660213  0.124798  1
  W  W34  1  0.668164  0.668286  0.499969  1
  W  W35  1  0.659916  0.493909  0.875195  1
