# generated using pymatgen
data_Dy2Mg(Ga3Ni2)3
_symmetry_space_group_name_H-M   'P 1'
_cell_length_a   8.90710200
_cell_length_b   8.90710184
_cell_length_c   4.05635500
_cell_angle_alpha   90.00000000
_cell_angle_beta   90.00000000
_cell_angle_gamma   119.99999316
_symmetry_Int_Tables_number   1
_chemical_formula_structural   Dy2Mg(Ga3Ni2)3
_chemical_formula_sum   'Dy2 Mg1 Ga9 Ni6'
_cell_volume   278.70159962
_cell_formula_units_Z   1
loop_
 _symmetry_equiv_pos_site_id
 _symmetry_equiv_pos_as_xyz
  1  'x, y, z'
loop_
 _atom_site_type_symbol
 _atom_site_label
 _atom_site_symmetry_multiplicity
 _atom_site_fract_x
 _atom_site_fract_y
 _atom_site_fract_z
 _atom_site_occupancy
  Dy  Dy0  1  0.333333  0.666667  0.000000  1
  Dy  Dy1  1  0.666667  0.333333  0.000000  1
  Mg  Mg2  1  0.000000  0.000000  0.500000  1
  Ga  Ga3  1  0.295131  0.000000  0.000000  1
  Ga  Ga4  1  0.295131  0.295131  0.000000  1
  Ga  Ga5  1  0.000000  0.704869  0.000000  1
  Ga  Ga6  1  0.000000  0.295131  0.000000  1
  Ga  Ga7  1  0.704869  0.704869  0.000000  1
  Ga  Ga8  1  0.704869  0.000000  0.000000  1
  Ga  Ga9  1  0.500000  0.000000  0.500000  1
  Ga  Ga10  1  0.500000  0.500000  0.500000  1
  Ga  Ga11  1  0.000000  0.500000  0.500000  1
  Ni  Ni12  1  0.178072  0.356143  0.500000  1
  Ni  Ni13  1  0.821928  0.178072  0.500000  1
  Ni  Ni14  1  0.356143  0.178072  0.500000  1
  Ni  Ni15  1  0.643857  0.821928  0.500000  1
  Ni  Ni16  1  0.178072  0.821928  0.500000  1
  Ni  Ni17  1  0.821928  0.643857  0.500000  1
