# generated using pymatgen
data_Nd7Er(SiI6)2
_symmetry_space_group_name_H-M   'P 1'
_cell_length_a   4.33020300
_cell_length_b   14.41820837
_cell_length_c   15.16315331
_cell_angle_alpha   90.40231988
_cell_angle_beta   90.00000000
_cell_angle_gamma   90.00000000
_symmetry_Int_Tables_number   1
_chemical_formula_structural   Nd7Er(SiI6)2
_chemical_formula_sum   'Nd7 Er1 Si2 I12'
_cell_volume   946.66947436
_cell_formula_units_Z   1
loop_
 _symmetry_equiv_pos_site_id
 _symmetry_equiv_pos_as_xyz
  1  'x, y, z'
loop_
 _atom_site_type_symbol
 _atom_site_label
 _atom_site_symmetry_multiplicity
 _atom_site_fract_x
 _atom_site_fract_y
 _atom_site_fract_z
 _atom_site_occupancy
  Nd  Nd0  1  0.500000  0.115281  0.346464  1
  Nd  Nd1  1  0.500000  0.885493  0.654219  1
  Nd  Nd2  1  0.500000  0.613657  0.152213  1
  Nd  Nd3  1  0.000000  0.115184  0.577597  1
  Nd  Nd4  1  0.000000  0.886864  0.424288  1
  Nd  Nd5  1  0.000000  0.612409  0.923949  1
  Nd  Nd6  1  0.000000  0.386540  0.074620  1
  Er  Er7  1  0.500000  0.386983  0.848294  1
  Si  Si8  1  0.500000  0.001124  0.500824  1
  Si  Si9  1  0.500000  0.497866  0.997084  1
  I  I10  1  0.500000  0.242853  0.160304  1
  I  I11  1  0.500000  0.755620  0.837708  1
  I  I12  1  0.500000  0.743044  0.338177  1
  I  I13  1  0.500000  0.259116  0.667191  1
  I  I14  1  0.000000  0.260140  0.415275  1
  I  I15  1  0.000000  0.740488  0.585629  1
  I  I16  1  0.000000  0.758781  0.085833  1
  I  I17  1  0.000000  0.248061  0.906309  1
  I  I18  1  0.000000  0.997855  0.239737  1
  I  I19  1  0.000000  0.002503  0.761305  1
  I  I20  1  0.000000  0.498192  0.259510  1
  I  I21  1  0.000000  0.491948  0.743470  1
