# generated using pymatgen
data_Li2Sn8IrOs
_symmetry_space_group_name_H-M   'P 1'
_cell_length_a   7.41711206
_cell_length_b   7.41711190
_cell_length_c   7.41711273
_cell_angle_alpha   126.47511702
_cell_angle_beta   126.47511364
_cell_angle_gamma   79.10864376
_symmetry_Int_Tables_number   1
_chemical_formula_structural   Li2Sn8IrOs
_chemical_formula_sum   'Li2 Sn8 Ir1 Os1'
_cell_volume   255.16434259
_cell_formula_units_Z   1
loop_
 _symmetry_equiv_pos_site_id
 _symmetry_equiv_pos_as_xyz
  1  'x, y, z'
loop_
 _atom_site_type_symbol
 _atom_site_label
 _atom_site_symmetry_multiplicity
 _atom_site_fract_x
 _atom_site_fract_y
 _atom_site_fract_z
 _atom_site_occupancy
  Li  Li0  1  0.499164  0.499164  0.000000  1
  Li  Li1  1  0.000836  0.000836  0.000000  1
  Sn  Sn2  1  0.707963  0.525015  0.503542  1
  Sn  Sn3  1  0.525015  0.021473  0.817051  1
  Sn  Sn4  1  0.204421  0.707963  0.182949  1
  Sn  Sn5  1  0.792037  0.295579  0.817051  1
  Sn  Sn6  1  0.478527  0.974985  0.182949  1
  Sn  Sn7  1  0.295579  0.478527  0.503542  1
  Sn  Sn8  1  0.974985  0.792037  0.496458  1
  Sn  Sn9  1  0.021473  0.204421  0.496458  1
  Ir  Ir10  1  0.250000  0.250000  0.000000  1
  Os  Os11  1  0.750000  0.750000  0.000000  1
