# generated using pymatgen
data_Li4Tb(ThGe2)2
_symmetry_space_group_name_H-M   'P 1'
_cell_length_a   4.38639039
_cell_length_b   6.94169730
_cell_length_c   8.31191866
_cell_angle_alpha   114.68156479
_cell_angle_beta   105.29931933
_cell_angle_gamma   89.99999773
_symmetry_Int_Tables_number   1
_chemical_formula_structural   Li4Tb(ThGe2)2
_chemical_formula_sum   'Li4 Tb1 Th2 Ge4'
_cell_volume   220.05819751
_cell_formula_units_Z   1
loop_
 _symmetry_equiv_pos_site_id
 _symmetry_equiv_pos_as_xyz
  1  'x, y, z'
loop_
 _atom_site_type_symbol
 _atom_site_label
 _atom_site_symmetry_multiplicity
 _atom_site_fract_x
 _atom_site_fract_y
 _atom_site_fract_z
 _atom_site_occupancy
  Li  Li0  1  0.672392  0.987981  0.344783  1
  Li  Li1  1  0.329543  0.020187  0.659086  1
  Li  Li2  1  0.329543  0.638900  0.659086  1
  Li  Li3  1  0.672392  0.356801  0.344783  1
  Tb  Tb4  1  0.871668  0.371668  0.743338  1
  Th  Th5  1  0.998472  0.998472  0.996944  1
  Th  Th6  1  0.127660  0.627660  0.255319  1
  Ge  Ge7  1  0.499866  0.689319  0.999733  1
  Ge  Ge8  1  0.499866  0.310414  0.999733  1
  Ge  Ge9  1  0.783944  0.783944  0.567889  1
  Ge  Ge10  1  0.214653  0.214653  0.429306  1
