# generated using pymatgen
data_Ca5TaMnReO12
_symmetry_space_group_name_H-M   'P 1'
_cell_length_a   5.79837073
_cell_length_b   5.55281934
_cell_length_c   9.78430634
_cell_angle_alpha   55.67053851
_cell_angle_beta   89.73279269
_cell_angle_gamma   90.23136662
_symmetry_Int_Tables_number   1
_chemical_formula_structural   Ca5TaMnReO12
_chemical_formula_sum   'Ca5 Ta1 Mn1 Re1 O12'
_cell_volume   260.14170978
_cell_formula_units_Z   1
loop_
 _symmetry_equiv_pos_site_id
 _symmetry_equiv_pos_as_xyz
  1  'x, y, z'
loop_
 _atom_site_type_symbol
 _atom_site_label
 _atom_site_symmetry_multiplicity
 _atom_site_fract_x
 _atom_site_fract_y
 _atom_site_fract_z
 _atom_site_occupancy
  Ca  Ca0  1  0.557110  0.241177  0.237814  1
  Ca  Ca1  1  0.055824  0.783631  0.226125  1
  Ca  Ca2  1  0.000000  0.000000  0.500000  1
  Ca  Ca3  1  0.944176  0.216369  0.773875  1
  Ca  Ca4  1  0.442890  0.758823  0.762186  1
  Ta  Ta5  1  0.000000  0.500000  0.000000  1
  Mn  Mn6  1  0.500000  0.000000  0.000000  1
  Re  Re7  1  0.500000  0.500000  0.500000  1
  O  O8  1  0.548269  0.391982  0.721860  1
  O  O9  1  0.053455  0.621409  0.767250  1
  O  O10  1  0.451731  0.608018  0.278140  1
  O  O11  1  0.946545  0.378591  0.232750  1
  O  O12  1  0.776125  0.728707  0.429862  1
  O  O13  1  0.282312  0.244752  0.065322  1
  O  O14  1  0.223875  0.271293  0.570138  1
  O  O15  1  0.717688  0.755248  0.934678  1
  O  O16  1  0.195876  0.838885  0.953189  1
  O  O17  1  0.668780  0.167095  0.552051  1
  O  O18  1  0.804124  0.161115  0.046811  1
  O  O19  1  0.331220  0.832905  0.447949  1
