# generated using pymatgen
data_U4GaSiTc7As4
_symmetry_space_group_name_H-M   'P 1'
_cell_length_a   7.20545853
_cell_length_b   7.20545998
_cell_length_c   7.20545967
_cell_angle_alpha   109.42219687
_cell_angle_beta   109.56929721
_cell_angle_gamma   109.42220971
_symmetry_Int_Tables_number   1
_chemical_formula_structural   U4GaSiTc7As4
_chemical_formula_sum   'U4 Ga1 Si1 Tc7 As4'
_cell_volume   287.97991160
_cell_formula_units_Z   1
loop_
 _symmetry_equiv_pos_site_id
 _symmetry_equiv_pos_as_xyz
  1  'x, y, z'
loop_
 _atom_site_type_symbol
 _atom_site_label
 _atom_site_symmetry_multiplicity
 _atom_site_fract_x
 _atom_site_fract_y
 _atom_site_fract_z
 _atom_site_occupancy
  U  U0  1  0.492823  0.490818  0.492823  1
  U  U1  1  0.002005  0.509182  0.002005  1
  U  U2  1  0.492823  0.000000  0.002005  1
  U  U3  1  0.002005  0.000000  0.492823  1
  Ga  Ga4  1  0.697223  0.000000  0.697223  1
  Si  Si5  1  0.322353  0.000000  0.322353  1
  Tc  Tc6  1  0.497965  0.750339  0.248305  1
  Tc  Tc7  1  0.747625  0.249661  0.497965  1
  Tc  Tc8  1  0.248305  0.750339  0.497965  1
  Tc  Tc9  1  0.247323  0.500000  0.747323  1
  Tc  Tc10  1  0.017590  0.000000  0.017590  1
  Tc  Tc11  1  0.497965  0.249661  0.747625  1
  Tc  Tc12  1  0.747323  0.500000  0.247323  1
  As  As13  1  0.690472  0.693805  0.996667  1
  As  As14  1  0.302862  0.306195  0.996667  1
  As  As15  1  0.996667  0.693805  0.690472  1
  As  As16  1  0.996667  0.306195  0.302862  1
