# generated using pymatgen
data_SrCr3Sb12Ru
_symmetry_space_group_name_H-M   'P 1'
_cell_length_a   8.23141732
_cell_length_b   8.23141722
_cell_length_c   8.23141815
_cell_angle_alpha   109.34735348
_cell_angle_beta   109.34735845
_cell_angle_gamma   109.34734872
_symmetry_Int_Tables_number   1
_chemical_formula_structural   SrCr3Sb12Ru
_chemical_formula_sum   'Sr1 Cr3 Sb12 Ru1'
_cell_volume   431.29839325
_cell_formula_units_Z   1
loop_
 _symmetry_equiv_pos_site_id
 _symmetry_equiv_pos_as_xyz
  1  'x, y, z'
loop_
 _atom_site_type_symbol
 _atom_site_label
 _atom_site_symmetry_multiplicity
 _atom_site_fract_x
 _atom_site_fract_y
 _atom_site_fract_z
 _atom_site_occupancy
  Sr  Sr0  1  0.000000  0.000000  0.000000  1
  Cr  Cr1  1  0.500000  0.000000  0.000000  1
  Cr  Cr2  1  0.000000  0.500000  0.000000  1
  Cr  Cr3  1  0.000000  0.000000  0.500000  1
  Sb  Sb4  1  0.159983  0.496246  0.344242  1
  Sb  Sb5  1  0.503754  0.655758  0.840017  1
  Sb  Sb6  1  0.342847  0.845561  0.189540  1
  Sb  Sb7  1  0.810460  0.657153  0.154439  1
  Sb  Sb8  1  0.655758  0.840017  0.503754  1
  Sb  Sb9  1  0.189540  0.342847  0.845561  1
  Sb  Sb10  1  0.657153  0.154439  0.810460  1
  Sb  Sb11  1  0.344242  0.159983  0.496246  1
  Sb  Sb12  1  0.496246  0.344242  0.159983  1
  Sb  Sb13  1  0.840017  0.503754  0.655758  1
  Sb  Sb14  1  0.845561  0.189540  0.342847  1
  Sb  Sb15  1  0.154439  0.810460  0.657153  1
  Ru  Ru16  1  0.500000  0.500000  0.500000  1
