# generated using pymatgen
data_Ho15Er5CoBi8Ru3
_symmetry_space_group_name_H-M   'P 1'
_cell_length_a   7.94084796
_cell_length_b   8.97065818
_cell_length_c   12.38664838
_cell_angle_alpha   89.97684872
_cell_angle_beta   89.78251164
_cell_angle_gamma   89.99844397
_symmetry_Int_Tables_number   1
_chemical_formula_structural   Ho15Er5CoBi8Ru3
_chemical_formula_sum   'Ho15 Er5 Co1 Bi8 Ru3'
_cell_volume   882.35191934
_cell_formula_units_Z   1
loop_
 _symmetry_equiv_pos_site_id
 _symmetry_equiv_pos_as_xyz
  1  'x, y, z'
loop_
 _atom_site_type_symbol
 _atom_site_label
 _atom_site_symmetry_multiplicity
 _atom_site_fract_x
 _atom_site_fract_y
 _atom_site_fract_z
 _atom_site_occupancy
  Ho  Ho0  1  0.344886  0.749821  0.701485  1
  Ho  Ho1  1  0.656678  0.250082  0.293334  1
  Ho  Ho2  1  0.843324  0.250148  0.792339  1
  Ho  Ho3  1  0.155347  0.749866  0.205973  1
  Ho  Ho4  1  0.879702  0.749750  0.806671  1
  Ho  Ho5  1  0.119745  0.250239  0.192761  1
  Ho  Ho6  1  0.379301  0.250151  0.691989  1
  Ho  Ho7  1  0.616203  0.749802  0.312335  1
  Ho  Ho8  1  0.675586  0.956278  0.563765  1
  Ho  Ho9  1  0.823747  0.957118  0.064505  1
  Ho  Ho10  1  0.175856  0.042087  0.935730  1
  Ho  Ho11  1  0.055037  0.749884  0.496993  1
  Ho  Ho12  1  0.947396  0.250132  0.503229  1
  Ho  Ho13  1  0.554642  0.250226  0.003496  1
  Ho  Ho14  1  0.445422  0.749766  0.995861  1
  Er  Er15  1  0.675042  0.543719  0.563708  1
  Er  Er16  1  0.325876  0.461792  0.437107  1
  Er  Er17  1  0.175042  0.457911  0.935852  1
  Er  Er18  1  0.325657  0.038198  0.437031  1
  Er  Er19  1  0.824569  0.542895  0.064362  1
  Co  Co20  1  0.429229  0.749846  0.491014  1
  Bi  Bi21  1  0.570710  0.508518  0.826976  1
  Bi  Bi22  1  0.428944  0.492155  0.173004  1
  Bi  Bi23  1  0.071674  0.491782  0.672173  1
  Bi  Bi24  1  0.428721  0.007867  0.173066  1
  Bi  Bi25  1  0.928894  0.508720  0.328214  1
  Bi  Bi26  1  0.570869  0.991454  0.826962  1
  Bi  Bi27  1  0.928890  0.991283  0.328261  1
  Bi  Bi28  1  0.071832  0.008227  0.672164  1
  Ru  Ru29  1  0.073496  0.749501  0.989141  1
  Ru  Ru30  1  0.925640  0.250552  0.010531  1
  Ru  Ru31  1  0.572040  0.250229  0.509968  1
