# generated using pymatgen
data_NdTmCo9P6Ru
_symmetry_space_group_name_H-M   'P 1'
_cell_length_a   3.68243400
_cell_length_b   10.37471700
_cell_length_c   11.78712800
_cell_angle_alpha   90.00000000
_cell_angle_beta   90.00000000
_cell_angle_gamma   90.00000000
_symmetry_Int_Tables_number   1
_chemical_formula_structural   NdTmCo9P6Ru
_chemical_formula_sum   'Nd2 Tm2 Co18 P12 Ru2'
_cell_volume   450.31792073
_cell_formula_units_Z   2
loop_
 _symmetry_equiv_pos_site_id
 _symmetry_equiv_pos_as_xyz
  1  'x, y, z'
loop_
 _atom_site_type_symbol
 _atom_site_label
 _atom_site_symmetry_multiplicity
 _atom_site_fract_x
 _atom_site_fract_y
 _atom_site_fract_z
 _atom_site_occupancy
  Nd  Nd0  1  0.250000  0.582514  0.702466  1
  Nd  Nd1  1  0.250000  0.917486  0.202466  1
  Tm  Tm2  1  0.750000  0.413563  0.296456  1
  Tm  Tm3  1  0.750000  0.086437  0.796456  1
  Co  Co4  1  0.750000  0.284463  0.007363  1
  Co  Co5  1  0.750000  0.215537  0.507363  1
  Co  Co6  1  0.250000  0.404106  0.485181  1
  Co  Co7  1  0.250000  0.095894  0.985181  1
  Co  Co8  1  0.750000  0.589576  0.506127  1
  Co  Co9  1  0.750000  0.910424  0.006127  1
  Co  Co10  1  0.250000  0.221528  0.176065  1
  Co  Co11  1  0.250000  0.278472  0.676065  1
  Co  Co12  1  0.750000  0.779839  0.823412  1
  Co  Co13  1  0.750000  0.720161  0.323412  1
  Co  Co14  1  0.250000  0.889476  0.702535  1
  Co  Co15  1  0.250000  0.610524  0.202535  1
  Co  Co16  1  0.750000  0.119333  0.302146  1
  Co  Co17  1  0.750000  0.380667  0.802146  1
  Co  Co18  1  0.250000  0.461904  0.935042  1
  Co  Co19  1  0.250000  0.038096  0.435042  1
  Co  Co20  1  0.750000  0.529503  0.071028  1
  Co  Co21  1  0.750000  0.970497  0.571028  1
  P  P22  1  0.250000  0.416360  0.114468  1
  P  P23  1  0.250000  0.083640  0.614468  1
  P  P24  1  0.750000  0.577792  0.890681  1
  P  P25  1  0.750000  0.922208  0.390681  1
  P  P26  1  0.250000  0.269813  0.867506  1
  P  P27  1  0.250000  0.230187  0.367506  1
  P  P28  1  0.750000  0.724279  0.132062  1
  P  P29  1  0.750000  0.775721  0.632062  1
  P  P30  1  0.250000  0.593956  0.390147  1
  P  P31  1  0.250000  0.906044  0.890147  1
  P  P32  1  0.750000  0.393738  0.606705  1
  P  P33  1  0.750000  0.106262  0.106705  1
  Ru  Ru34  1  0.250000  0.714407  0.990609  1
  Ru  Ru35  1  0.250000  0.785593  0.490609  1
