# generated using pymatgen
data_Gd3Ho(MoO6)2
_symmetry_space_group_name_H-M   'P 1'
_cell_length_a   10.02731068
_cell_length_b   10.02731027
_cell_length_c   5.44288504
_cell_angle_alpha   75.02874754
_cell_angle_beta   75.02874967
_cell_angle_gamma   68.24457551
_symmetry_Int_Tables_number   1
_chemical_formula_structural   Gd3Ho(MoO6)2
_chemical_formula_sum   'Gd6 Ho2 Mo4 O24'
_cell_volume   482.90406373
_cell_formula_units_Z   2
loop_
 _symmetry_equiv_pos_site_id
 _symmetry_equiv_pos_as_xyz
  1  'x, y, z'
loop_
 _atom_site_type_symbol
 _atom_site_label
 _atom_site_symmetry_multiplicity
 _atom_site_fract_x
 _atom_site_fract_y
 _atom_site_fract_z
 _atom_site_occupancy
  Gd  Gd0  1  0.447753  0.215931  0.379368  1
  Gd  Gd1  1  0.784069  0.552247  0.120632  1
  Gd  Gd2  1  0.552247  0.784069  0.620632  1
  Gd  Gd3  1  0.215931  0.447753  0.879368  1
  Gd  Gd4  1  0.863243  0.136757  0.250000  1
  Gd  Gd5  1  0.136757  0.863243  0.750000  1
  Ho  Ho6  1  0.394383  0.605617  0.250000  1
  Ho  Ho7  1  0.605617  0.394383  0.750000  1
  Mo  Mo8  1  0.296820  0.010749  0.062077  1
  Mo  Mo9  1  0.989251  0.703180  0.437923  1
  Mo  Mo10  1  0.703180  0.989251  0.937923  1
  Mo  Mo11  1  0.010749  0.296820  0.562077  1
  O  O12  1  0.607509  0.571367  0.923205  1
  O  O13  1  0.428633  0.392491  0.576795  1
  O  O14  1  0.392491  0.428633  0.076795  1
  O  O15  1  0.571367  0.607509  0.423205  1
  O  O16  1  0.337935  0.806224  0.924785  1
  O  O17  1  0.193776  0.662065  0.575215  1
  O  O18  1  0.662065  0.193776  0.075215  1
  O  O19  1  0.806224  0.337935  0.424785  1
  O  O20  1  0.326871  0.884867  0.371700  1
  O  O21  1  0.115133  0.673129  0.128300  1
  O  O22  1  0.673129  0.115133  0.628300  1
  O  O23  1  0.884867  0.326871  0.871700  1
  O  O24  1  0.181975  0.288607  0.636090  1
  O  O25  1  0.711393  0.818025  0.863910  1
  O  O26  1  0.818025  0.711393  0.363910  1
  O  O27  1  0.288607  0.181975  0.136090  1
  O  O28  1  0.047489  0.112968  0.514465  1
  O  O29  1  0.887032  0.952511  0.985535  1
  O  O30  1  0.952511  0.887032  0.485535  1
  O  O31  1  0.112968  0.047489  0.014465  1
  O  O32  1  0.024231  0.431467  0.259284  1
  O  O33  1  0.568533  0.975769  0.240716  1
  O  O34  1  0.975769  0.568533  0.740716  1
  O  O35  1  0.431467  0.024231  0.759284  1
