# generated using pymatgen
data_Zr2TaNb7N12
_symmetry_space_group_name_H-M   'P 1'
_cell_length_a   5.30456200
_cell_length_b   5.30456248
_cell_length_c   10.52833700
_cell_angle_alpha   90.00000000
_cell_angle_beta   90.00000000
_cell_angle_gamma   119.99999702
_symmetry_Int_Tables_number   1
_chemical_formula_structural   Zr2TaNb7N12
_chemical_formula_sum   'Zr2 Ta1 Nb7 N12'
_cell_volume   256.56033932
_cell_formula_units_Z   1
loop_
 _symmetry_equiv_pos_site_id
 _symmetry_equiv_pos_as_xyz
  1  'x, y, z'
loop_
 _atom_site_type_symbol
 _atom_site_label
 _atom_site_symmetry_multiplicity
 _atom_site_fract_x
 _atom_site_fract_y
 _atom_site_fract_z
 _atom_site_occupancy
  Zr  Zr0  1  0.333333  0.666667  0.000000  1
  Zr  Zr1  1  0.333333  0.666667  0.500000  1
  Ta  Ta2  1  0.666667  0.333333  0.500000  1
  Nb  Nb3  1  0.675085  0.676471  0.749986  1
  Nb  Nb4  1  0.323529  0.998614  0.749986  1
  Nb  Nb5  1  0.001386  0.324915  0.749986  1
  Nb  Nb6  1  0.323529  0.324915  0.250014  1
  Nb  Nb7  1  0.675085  0.998614  0.250014  1
  Nb  Nb8  1  0.001386  0.676471  0.250014  1
  Nb  Nb9  1  0.666667  0.333333  0.000000  1
  N  N10  1  0.662514  0.652073  0.377457  1
  N  N11  1  0.347927  0.010441  0.377457  1
  N  N12  1  0.989559  0.337486  0.377457  1
  N  N13  1  0.347927  0.337486  0.622543  1
  N  N14  1  0.662514  0.010441  0.622543  1
  N  N15  1  0.989559  0.652073  0.622543  1
  N  N16  1  0.344374  0.337427  0.875532  1
  N  N17  1  0.662573  0.006947  0.875532  1
  N  N18  1  0.993053  0.655626  0.875532  1
  N  N19  1  0.662573  0.655626  0.124468  1
  N  N20  1  0.344374  0.006947  0.124468  1
  N  N21  1  0.993053  0.337427  0.124468  1
