# generated using pymatgen
data_ScFe3P2
_symmetry_space_group_name_H-M   'P 1'
_cell_length_a   3.60315300
_cell_length_b   10.38588400
_cell_length_c   11.97906800
_cell_angle_alpha   90.00000000
_cell_angle_beta   90.00000000
_cell_angle_gamma   90.00000000
_symmetry_Int_Tables_number   1
_chemical_formula_structural   ScFe3P2
_chemical_formula_sum   'Sc6 Fe18 P12'
_cell_volume   448.27983329
_cell_formula_units_Z   6
loop_
 _symmetry_equiv_pos_site_id
 _symmetry_equiv_pos_as_xyz
  1  'x, y, z'
loop_
 _atom_site_type_symbol
 _atom_site_label
 _atom_site_symmetry_multiplicity
 _atom_site_fract_x
 _atom_site_fract_y
 _atom_site_fract_z
 _atom_site_occupancy
  Sc  Sc0  1  0.000000  0.500000  0.527237  1
  Sc  Sc1  1  0.500000  0.000000  0.472763  1
  Sc  Sc2  1  0.500000  0.821369  0.207362  1
  Sc  Sc3  1  0.500000  0.178631  0.207362  1
  Sc  Sc4  1  0.000000  0.678631  0.792638  1
  Sc  Sc5  1  0.000000  0.321369  0.792638  1
  Fe  Fe6  1  0.500000  0.500000  0.154388  1
  Fe  Fe7  1  0.000000  0.000000  0.845612  1
  Fe  Fe8  1  0.500000  0.500000  0.697690  1
  Fe  Fe9  1  0.000000  0.000000  0.302310  1
  Fe  Fe10  1  0.000000  0.500000  0.988738  1
  Fe  Fe11  1  0.500000  0.000000  0.011262  1
  Fe  Fe12  1  0.500000  0.328214  0.995389  1
  Fe  Fe13  1  0.500000  0.671786  0.995389  1
  Fe  Fe14  1  0.000000  0.171786  0.004611  1
  Fe  Fe15  1  0.000000  0.828214  0.004611  1
  Fe  Fe16  1  0.500000  0.299743  0.431428  1
  Fe  Fe17  1  0.500000  0.700257  0.431428  1
  Fe  Fe18  1  0.000000  0.200257  0.568572  1
  Fe  Fe19  1  0.000000  0.799743  0.568572  1
  Fe  Fe20  1  0.500000  0.880753  0.706585  1
  Fe  Fe21  1  0.500000  0.119247  0.706585  1
  Fe  Fe22  1  0.000000  0.619247  0.293415  1
  Fe  Fe23  1  0.000000  0.380753  0.293415  1
  P  P24  1  0.500000  0.500000  0.879523  1
  P  P25  1  0.000000  0.000000  0.120477  1
  P  P26  1  0.500000  0.500000  0.344953  1
  P  P27  1  0.000000  0.000000  0.655047  1
  P  P28  1  0.500000  0.309736  0.616702  1
  P  P29  1  0.500000  0.690264  0.616702  1
  P  P30  1  0.000000  0.190264  0.383298  1
  P  P31  1  0.000000  0.809736  0.383298  1
  P  P32  1  0.500000  0.848950  0.885824  1
  P  P33  1  0.500000  0.151050  0.885824  1
  P  P34  1  0.000000  0.651050  0.114176  1
  P  P35  1  0.000000  0.348950  0.114176  1
