# generated using pymatgen
data_YTa4(NbSn3)2
_symmetry_space_group_name_H-M   'P 1'
_cell_length_a   5.79714600
_cell_length_b   5.79838178
_cell_length_c   9.60565200
_cell_angle_alpha   90.00000000
_cell_angle_beta   90.00000000
_cell_angle_gamma   120.00705291
_symmetry_Int_Tables_number   1
_chemical_formula_structural   YTa4(NbSn3)2
_chemical_formula_sum   'Y1 Ta4 Nb2 Sn6'
_cell_volume   279.60675259
_cell_formula_units_Z   1
loop_
 _symmetry_equiv_pos_site_id
 _symmetry_equiv_pos_as_xyz
  1  'x, y, z'
loop_
 _atom_site_type_symbol
 _atom_site_label
 _atom_site_symmetry_multiplicity
 _atom_site_fract_x
 _atom_site_fract_y
 _atom_site_fract_z
 _atom_site_occupancy
  Y  Y0  1  0.000000  0.000000  0.999963  1
  Ta  Ta1  1  0.000000  0.500000  0.750753  1
  Ta  Ta2  1  0.500000  0.500000  0.750706  1
  Ta  Ta3  1  0.500000  0.000000  0.750706  1
  Ta  Ta4  1  0.000000  0.500000  0.249350  1
  Nb  Nb5  1  0.500000  0.500000  0.249587  1
  Nb  Nb6  1  0.500000  0.000000  0.249587  1
  Sn  Sn7  1  0.666942  0.333471  0.499923  1
  Sn  Sn8  1  0.333058  0.666529  0.499923  1
  Sn  Sn9  1  0.666713  0.333356  0.000066  1
  Sn  Sn10  1  0.333287  0.666644  0.000066  1
  Sn  Sn11  1  0.000000  0.000000  0.668602  1
  Sn  Sn12  1  0.000000  0.000000  0.330766  1
