# generated using pymatgen
data_DyTm15Cd4Ni3Os
_symmetry_space_group_name_H-M   'P 1'
_cell_length_a   9.49665154
_cell_length_b   9.49665331
_cell_length_c   9.49665325
_cell_angle_alpha   59.36888073
_cell_angle_beta   59.36887352
_cell_angle_gamma   59.36888217
_symmetry_Int_Tables_number   1
_chemical_formula_structural   DyTm15Cd4Ni3Os
_chemical_formula_sum   'Dy1 Tm15 Cd4 Ni3 Os1'
_cell_volume   596.91555282
_cell_formula_units_Z   1
loop_
 _symmetry_equiv_pos_site_id
 _symmetry_equiv_pos_as_xyz
  1  'x, y, z'
loop_
 _atom_site_type_symbol
 _atom_site_label
 _atom_site_symmetry_multiplicity
 _atom_site_fract_x
 _atom_site_fract_y
 _atom_site_fract_z
 _atom_site_occupancy
  Dy  Dy0  1  0.347476  0.347476  0.347476  1
  Tm  Tm1  1  0.351349  0.351349  0.953875  1
  Tm  Tm2  1  0.351349  0.953875  0.351349  1
  Tm  Tm3  1  0.953875  0.351349  0.351349  1
  Tm  Tm4  1  0.810775  0.187501  0.187501  1
  Tm  Tm5  1  0.185892  0.811621  0.811621  1
  Tm  Tm6  1  0.187501  0.810775  0.187501  1
  Tm  Tm7  1  0.811621  0.185892  0.811621  1
  Tm  Tm8  1  0.187501  0.187501  0.810775  1
  Tm  Tm9  1  0.811621  0.811621  0.185892  1
  Tm  Tm10  1  0.934868  0.566407  0.566407  1
  Tm  Tm11  1  0.557937  0.939250  0.939250  1
  Tm  Tm12  1  0.566407  0.934868  0.566407  1
  Tm  Tm13  1  0.939250  0.557937  0.939250  1
  Tm  Tm14  1  0.566407  0.566407  0.934868  1
  Tm  Tm15  1  0.939250  0.939250  0.557937  1
  Cd  Cd16  1  0.580449  0.580449  0.580449  1
  Cd  Cd17  1  0.580147  0.580147  0.255252  1
  Cd  Cd18  1  0.580147  0.255252  0.580147  1
  Cd  Cd19  1  0.255252  0.580147  0.580147  1
  Ni  Ni20  1  0.140755  0.140755  0.575869  1
  Ni  Ni21  1  0.140755  0.575869  0.140755  1
  Ni  Ni22  1  0.575869  0.140755  0.140755  1
  Os  Os23  1  0.143549  0.143549  0.143549  1
