# generated using pymatgen
data_Nd2UN3
_symmetry_space_group_name_H-M   'P 1'
_cell_length_a   6.09002512
_cell_length_b   6.09002621
_cell_length_c   6.09798000
_cell_angle_alpha   99.57572628
_cell_angle_beta   99.57574709
_cell_angle_gamma   119.99111877
_symmetry_Int_Tables_number   1
_chemical_formula_structural   Nd2UN3
_chemical_formula_sum   'Nd4 U2 N6'
_cell_volume   184.72571751
_cell_formula_units_Z   2
loop_
 _symmetry_equiv_pos_site_id
 _symmetry_equiv_pos_as_xyz
  1  'x, y, z'
loop_
 _atom_site_type_symbol
 _atom_site_label
 _atom_site_symmetry_multiplicity
 _atom_site_fract_x
 _atom_site_fract_y
 _atom_site_fract_z
 _atom_site_occupancy
  Nd  Nd0  1  0.836240  0.163760  0.500000  1
  Nd  Nd1  1  0.163760  0.836240  0.500000  1
  Nd  Nd2  1  0.500000  0.500000  0.500000  1
  Nd  Nd3  1  0.000000  0.000000  0.000000  1
  U  U4  1  0.332999  0.667001  0.000000  1
  U  U5  1  0.667001  0.332999  0.000000  1
  N  N6  1  0.432817  0.071843  0.215172  1
  N  N7  1  0.928157  0.567183  0.784828  1
  N  N8  1  0.567183  0.928157  0.784828  1
  N  N9  1  0.071843  0.432817  0.215172  1
  N  N10  1  0.708785  0.708785  0.210905  1
  N  N11  1  0.291215  0.291215  0.789095  1
