# generated using pymatgen
data_TmPa(ZnRh)2
_symmetry_space_group_name_H-M   'P 1'
_cell_length_a   3.80496200
_cell_length_b   7.10226355
_cell_length_c   8.40343175
_cell_angle_alpha   91.67864720
_cell_angle_beta   90.00000000
_cell_angle_gamma   90.00000000
_symmetry_Int_Tables_number   1
_chemical_formula_structural   TmPa(ZnRh)2
_chemical_formula_sum   'Tm2 Pa2 Zn4 Rh4'
_cell_volume   226.99556192
_cell_formula_units_Z   2
loop_
 _symmetry_equiv_pos_site_id
 _symmetry_equiv_pos_as_xyz
  1  'x, y, z'
loop_
 _atom_site_type_symbol
 _atom_site_label
 _atom_site_symmetry_multiplicity
 _atom_site_fract_x
 _atom_site_fract_y
 _atom_site_fract_z
 _atom_site_occupancy
  Tm  Tm0  1  0.750000  0.942820  0.684096  1
  Tm  Tm1  1  0.250000  0.057180  0.315904  1
  Pa  Pa2  1  0.250000  0.552105  0.190574  1
  Pa  Pa3  1  0.750000  0.447895  0.809426  1
  Zn  Zn4  1  0.250000  0.632200  0.559133  1
  Zn  Zn5  1  0.750000  0.367800  0.440867  1
  Zn  Zn6  1  0.750000  0.885551  0.061847  1
  Zn  Zn7  1  0.250000  0.114449  0.938153  1
  Rh  Rh8  1  0.250000  0.718702  0.878017  1
  Rh  Rh9  1  0.750000  0.281298  0.121983  1
  Rh  Rh10  1  0.750000  0.750443  0.357777  1
  Rh  Rh11  1  0.250000  0.249557  0.642223  1
