# generated using pymatgen
data_Th2MnAl20Rh3
_symmetry_space_group_name_H-M   'P 1'
_cell_length_a   6.86772289
_cell_length_b   6.85992048
_cell_length_c   9.19645489
_cell_angle_alpha   89.75452786
_cell_angle_beta   89.87221663
_cell_angle_gamma   97.46176950
_symmetry_Int_Tables_number   1
_chemical_formula_structural   Th2MnAl20Rh3
_chemical_formula_sum   'Th2 Mn1 Al20 Rh3'
_cell_volume   429.58905354
_cell_formula_units_Z   1
loop_
 _symmetry_equiv_pos_site_id
 _symmetry_equiv_pos_as_xyz
  1  'x, y, z'
loop_
 _atom_site_type_symbol
 _atom_site_label
 _atom_site_symmetry_multiplicity
 _atom_site_fract_x
 _atom_site_fract_y
 _atom_site_fract_z
 _atom_site_occupancy
  Th  Th0  1  0.879381  0.129489  0.748343  1
  Th  Th1  1  0.120619  0.870511  0.251657  1
  Mn  Mn2  1  0.000000  0.500000  0.500000  1
  Al  Al3  1  0.520145  0.773817  0.749777  1
  Al  Al4  1  0.479855  0.226183  0.250223  1
  Al  Al5  1  0.597553  0.859549  0.251102  1
  Al  Al6  1  0.777261  0.776439  0.999070  1
  Al  Al7  1  0.155346  0.838168  0.600951  1
  Al  Al8  1  0.222739  0.223561  0.000930  1
  Al  Al9  1  0.137544  0.404356  0.254096  1
  Al  Al10  1  0.621477  0.379832  0.946836  1
  Al  Al11  1  0.841927  0.157623  0.103894  1
  Al  Al12  1  0.372454  0.617922  0.452131  1
  Al  Al13  1  0.158073  0.842377  0.896106  1
  Al  Al14  1  0.224841  0.483790  0.742801  1
  Al  Al15  1  0.378523  0.620168  0.053164  1
  Al  Al16  1  0.844654  0.161832  0.399049  1
  Al  Al17  1  0.627546  0.382078  0.547869  1
  Al  Al18  1  0.402447  0.140451  0.748898  1
  Al  Al19  1  0.775159  0.516210  0.257199  1
  Al  Al20  1  0.781944  0.775044  0.498415  1
  Al  Al21  1  0.218056  0.224956  0.501585  1
  Al  Al22  1  0.862456  0.595644  0.745904  1
  Rh  Rh23  1  0.000000  0.500000  0.000000  1
  Rh  Rh24  1  0.500000  0.000000  0.000000  1
  Rh  Rh25  1  0.500000  0.000000  0.500000  1
