# generated using pymatgen
data_Tb19Er(SiBi2)4
_symmetry_space_group_name_H-M   'P 1'
_cell_length_a   12.15779077
_cell_length_b   9.22118600
_cell_length_c   8.10034318
_cell_angle_alpha   90.00000000
_cell_angle_beta   89.89846790
_cell_angle_gamma   90.00000000
_symmetry_Int_Tables_number   1
_chemical_formula_structural   Tb19Er(SiBi2)4
_chemical_formula_sum   'Tb19 Er1 Si4 Bi8'
_cell_volume   908.12197324
_cell_formula_units_Z   1
loop_
 _symmetry_equiv_pos_site_id
 _symmetry_equiv_pos_as_xyz
  1  'x, y, z'
loop_
 _atom_site_type_symbol
 _atom_site_label
 _atom_site_symmetry_multiplicity
 _atom_site_fract_x
 _atom_site_fract_y
 _atom_site_fract_z
 _atom_site_occupancy
  Tb  Tb0  1  0.063397  0.551922  0.819255  1
  Tb  Tb1  1  0.563513  0.948218  0.680031  1
  Tb  Tb2  1  0.936694  0.051176  0.180684  1
  Tb  Tb3  1  0.436443  0.448384  0.319898  1
  Tb  Tb4  1  0.936694  0.448824  0.180684  1
  Tb  Tb5  1  0.436443  0.051616  0.319898  1
  Tb  Tb6  1  0.063397  0.948078  0.819255  1
  Tb  Tb7  1  0.563513  0.551782  0.680031  1
  Tb  Tb8  1  0.500978  0.750000  0.039865  1
  Tb  Tb9  1  0.999027  0.250000  0.539997  1
  Tb  Tb10  1  0.499067  0.250000  0.959939  1
  Tb  Tb11  1  0.211289  0.750000  0.164690  1
  Tb  Tb12  1  0.711907  0.750000  0.335492  1
  Tb  Tb13  1  0.788500  0.250000  0.835449  1
  Tb  Tb14  1  0.288167  0.250000  0.664492  1
  Tb  Tb15  1  0.294953  0.750000  0.634837  1
  Tb  Tb16  1  0.795690  0.750000  0.864804  1
  Tb  Tb17  1  0.704775  0.250000  0.364951  1
  Tb  Tb18  1  0.204524  0.250000  0.135043  1
  Er  Er19  1  0.000868  0.750000  0.459440  1
  Si  Si20  1  0.480100  0.750000  0.414746  1
  Si  Si21  1  0.980089  0.750000  0.087676  1
  Si  Si22  1  0.519968  0.250000  0.585455  1
  Si  Si23  1  0.019870  0.250000  0.914708  1
  Bi  Bi24  1  0.325793  0.510830  0.931397  1
  Bi  Bi25  1  0.826802  0.988224  0.567882  1
  Bi  Bi26  1  0.674211  0.010757  0.068603  1
  Bi  Bi27  1  0.173262  0.490235  0.431459  1
  Bi  Bi28  1  0.674211  0.489243  0.068603  1
  Bi  Bi29  1  0.173262  0.009765  0.431459  1
  Bi  Bi30  1  0.325793  0.989170  0.931397  1
  Bi  Bi31  1  0.826802  0.511776  0.567882  1
