# generated using pymatgen
data_Na2WO4
_symmetry_space_group_name_H-M   'P 1'
_cell_length_a   5.80169300
_cell_length_b   10.88495200
_cell_length_c   11.99689200
_cell_angle_alpha   90.00000000
_cell_angle_beta   90.00000000
_cell_angle_gamma   90.00000000
_symmetry_Int_Tables_number   1
_chemical_formula_structural   Na2WO4
_chemical_formula_sum   'Na16 W8 O32'
_cell_volume   757.61752411
_cell_formula_units_Z   8
loop_
 _symmetry_equiv_pos_site_id
 _symmetry_equiv_pos_as_xyz
  1  'x, y, z'
loop_
 _atom_site_type_symbol
 _atom_site_label
 _atom_site_symmetry_multiplicity
 _atom_site_fract_x
 _atom_site_fract_y
 _atom_site_fract_z
 _atom_site_occupancy
  Na  Na0  1  0.513177  0.262561  0.691567  1
  Na  Na1  1  0.486823  0.737439  0.691567  1
  Na  Na2  1  0.013177  0.237439  0.191567  1
  Na  Na3  1  0.986823  0.762561  0.191567  1
  Na  Na4  1  0.495234  0.754324  0.305739  1
  Na  Na5  1  0.504766  0.245676  0.305739  1
  Na  Na6  1  0.995234  0.745676  0.805739  1
  Na  Na7  1  0.004766  0.254324  0.805739  1
  Na  Na8  1  0.500000  0.500000  0.496544  1
  Na  Na9  1  0.000000  0.000000  0.996544  1
  Na  Na10  1  0.500000  0.500000  0.159113  1
  Na  Na11  1  0.000000  0.000000  0.659113  1
  Na  Na12  1  0.500000  0.500000  0.841282  1
  Na  Na13  1  0.000000  0.000000  0.341282  1
  Na  Na14  1  0.000000  0.500000  0.062792  1
  Na  Na15  1  0.500000  0.000000  0.562792  1
  W  W16  1  0.980305  0.756713  0.492512  1
  W  W17  1  0.019695  0.243287  0.492512  1
  W  W18  1  0.480305  0.743287  0.992512  1
  W  W19  1  0.519695  0.256713  0.992512  1
  W  W20  1  0.000000  0.500000  0.346738  1
  W  W21  1  0.500000  0.000000  0.846738  1
  W  W22  1  0.000000  0.500000  0.636054  1
  W  W23  1  0.500000  0.000000  0.136054  1
  O  O24  1  0.299934  0.859266  0.106700  1
  O  O25  1  0.700066  0.140734  0.106700  1
  O  O26  1  0.799934  0.640734  0.606700  1
  O  O27  1  0.200066  0.359266  0.606700  1
  O  O28  1  0.293938  0.863058  0.877551  1
  O  O29  1  0.706062  0.136942  0.877551  1
  O  O30  1  0.793938  0.636942  0.377551  1
  O  O31  1  0.206062  0.363058  0.377551  1
  O  O32  1  0.704924  0.924352  0.227966  1
  O  O33  1  0.295076  0.075648  0.227966  1
  O  O34  1  0.204924  0.575648  0.727966  1
  O  O35  1  0.795076  0.424352  0.727966  1
  O  O36  1  0.692465  0.921537  0.749342  1
  O  O37  1  0.307535  0.078463  0.749342  1
  O  O38  1  0.192465  0.578463  0.249342  1
  O  O39  1  0.807535  0.421537  0.249342  1
  O  O40  1  0.242882  0.633807  0.990195  1
  O  O41  1  0.757118  0.366193  0.990195  1
  O  O42  1  0.742882  0.866193  0.490195  1
  O  O43  1  0.257118  0.133807  0.490195  1
  O  O44  1  0.657124  0.913710  0.991075  1
  O  O45  1  0.342876  0.086290  0.991075  1
  O  O46  1  0.157124  0.586290  0.491075  1
  O  O47  1  0.842876  0.413710  0.491075  1
  O  O48  1  0.660334  0.680587  0.105655  1
  O  O49  1  0.339666  0.319413  0.105655  1
  O  O50  1  0.160334  0.819413  0.605655  1
  O  O51  1  0.839666  0.180587  0.605655  1
  O  O52  1  0.647347  0.688107  0.873035  1
  O  O53  1  0.352653  0.311893  0.873035  1
  O  O54  1  0.147347  0.811893  0.373035  1
  O  O55  1  0.852653  0.188107  0.373035  1
