# generated using pymatgen
data_Ce2Se5
_symmetry_space_group_name_H-M   'P 1'
_cell_length_a   5.55762923
_cell_length_b   5.55762898
_cell_length_c   10.73617000
_cell_angle_alpha   90.00000000
_cell_angle_beta   90.00000000
_cell_angle_gamma   89.99750513
_symmetry_Int_Tables_number   1
_chemical_formula_structural   Ce2Se5
_chemical_formula_sum   'Ce4 Se10'
_cell_volume   331.61067271
_cell_formula_units_Z   2
loop_
 _symmetry_equiv_pos_site_id
 _symmetry_equiv_pos_as_xyz
  1  'x, y, z'
loop_
 _atom_site_type_symbol
 _atom_site_label
 _atom_site_symmetry_multiplicity
 _atom_site_fract_x
 _atom_site_fract_y
 _atom_site_fract_z
 _atom_site_occupancy
  Ce  Ce0  1  0.250000  0.250000  0.849217  1
  Ce  Ce1  1  0.750000  0.750000  0.650783  1
  Ce  Ce2  1  0.750000  0.750000  0.150783  1
  Ce  Ce3  1  0.250000  0.250000  0.349217  1
  Se  Se4  1  0.750003  0.007253  0.396883  1
  Se  Se5  1  0.992747  0.249997  0.103117  1
  Se  Se6  1  0.507253  0.250003  0.103117  1
  Se  Se7  1  0.749997  0.492747  0.396883  1
  Se  Se8  1  0.249997  0.992747  0.603117  1
  Se  Se9  1  0.007253  0.750003  0.896883  1
  Se  Se10  1  0.492747  0.749997  0.896883  1
  Se  Se11  1  0.250003  0.507253  0.603117  1
  Se  Se12  1  0.250000  0.750000  0.250000  1
  Se  Se13  1  0.750000  0.250000  0.750000  1
