# generated using pymatgen
data_TbY6(ErPb2)3
_symmetry_space_group_name_H-M   'P 1'
_cell_length_a   9.04992500
_cell_length_b   9.04992479
_cell_length_c   6.62892200
_cell_angle_alpha   90.00000000
_cell_angle_beta   90.00000000
_cell_angle_gamma   119.99999711
_symmetry_Int_Tables_number   1
_chemical_formula_structural   TbY6(ErPb2)3
_chemical_formula_sum   'Tb1 Y6 Er3 Pb6'
_cell_volume   470.17929813
_cell_formula_units_Z   1
loop_
 _symmetry_equiv_pos_site_id
 _symmetry_equiv_pos_as_xyz
  1  'x, y, z'
loop_
 _atom_site_type_symbol
 _atom_site_label
 _atom_site_symmetry_multiplicity
 _atom_site_fract_x
 _atom_site_fract_y
 _atom_site_fract_z
 _atom_site_occupancy
  Tb  Tb0  1  0.666667  0.333333  0.000000  1
  Y  Y1  1  0.760449  0.760554  0.749862  1
  Y  Y2  1  0.239446  0.999895  0.749862  1
  Y  Y3  1  0.000105  0.239551  0.749862  1
  Y  Y4  1  0.239446  0.239551  0.250138  1
  Y  Y5  1  0.760449  0.999895  0.250138  1
  Y  Y6  1  0.000105  0.760554  0.250138  1
  Er  Er7  1  0.333333  0.666667  0.000000  1
  Er  Er8  1  0.333333  0.666667  0.500000  1
  Er  Er9  1  0.666667  0.333333  0.500000  1
  Pb  Pb10  1  0.394109  0.394579  0.749588  1
  Pb  Pb11  1  0.605421  0.999531  0.749588  1
  Pb  Pb12  1  0.000469  0.605891  0.749588  1
  Pb  Pb13  1  0.605421  0.605891  0.250412  1
  Pb  Pb14  1  0.394109  0.999531  0.250412  1
  Pb  Pb15  1  0.000469  0.394579  0.250412  1
