# generated using pymatgen
data_RbCdSiP2
_symmetry_space_group_name_H-M   'P 1'
_cell_length_a   8.31149618
_cell_length_b   8.34942581
_cell_length_c   8.44596101
_cell_angle_alpha   70.14639805
_cell_angle_beta   76.00329910
_cell_angle_gamma   73.36132669
_symmetry_Int_Tables_number   1
_chemical_formula_structural   RbCdSiP2
_chemical_formula_sum   'Rb4 Cd4 Si4 P8'
_cell_volume   521.35264699
_cell_formula_units_Z   4
loop_
 _symmetry_equiv_pos_site_id
 _symmetry_equiv_pos_as_xyz
  1  'x, y, z'
loop_
 _atom_site_type_symbol
 _atom_site_label
 _atom_site_symmetry_multiplicity
 _atom_site_fract_x
 _atom_site_fract_y
 _atom_site_fract_z
 _atom_site_occupancy
  Rb  Rb0  1  0.451071  0.761881  0.323064  1
  Rb  Rb1  1  0.548929  0.238119  0.676936  1
  Rb  Rb2  1  0.437837  0.800103  0.812356  1
  Rb  Rb3  1  0.562163  0.199897  0.187644  1
  Cd  Cd4  1  0.995182  0.897094  0.690828  1
  Cd  Cd5  1  0.004818  0.102906  0.309172  1
  Cd  Cd6  1  0.966832  0.814138  0.170494  1
  Cd  Cd7  1  0.033168  0.185862  0.829506  1
  Si  Si8  1  0.960783  0.585437  0.599498  1
  Si  Si9  1  0.039217  0.414563  0.400502  1
  Si  Si10  1  0.146803  0.448194  0.977361  1
  Si  Si11  1  0.853197  0.551806  0.022639  1
  P  P12  1  0.818090  0.859952  0.467044  1
  P  P13  1  0.181910  0.140048  0.532956  1
  P  P14  1  0.796249  0.412693  0.308907  1
  P  P15  1  0.203751  0.587307  0.691093  1
  P  P16  1  0.769771  0.848096  0.964529  1
  P  P17  1  0.230229  0.151904  0.035471  1
  P  P18  1  0.777331  0.457388  0.828519  1
  P  P19  1  0.222669  0.542612  0.171481  1
