# generated using pymatgen
data_LaAsRh2Au
_symmetry_space_group_name_H-M   'P 1'
_cell_length_a   4.09524500
_cell_length_b   4.09524500
_cell_length_c   11.57281400
_cell_angle_alpha   90.00000000
_cell_angle_beta   90.00000000
_cell_angle_gamma   90.00000000
_symmetry_Int_Tables_number   1
_chemical_formula_structural   LaAsRh2Au
_chemical_formula_sum   'La2 As2 Rh4 Au2'
_cell_volume   194.08802941
_cell_formula_units_Z   2
loop_
 _symmetry_equiv_pos_site_id
 _symmetry_equiv_pos_as_xyz
  1  'x, y, z'
loop_
 _atom_site_type_symbol
 _atom_site_label
 _atom_site_symmetry_multiplicity
 _atom_site_fract_x
 _atom_site_fract_y
 _atom_site_fract_z
 _atom_site_occupancy
  La  La0  1  0.000000  0.500000  0.256387  1
  La  La1  1  0.500000  0.000000  0.743620  1
  As  As2  1  0.000000  0.500000  0.877659  1
  As  As3  1  0.500000  0.000000  0.122356  1
  Rh  Rh4  1  0.000000  0.000000  0.000049  1
  Rh  Rh5  1  0.500000  0.500000  0.000049  1
  Rh  Rh6  1  0.000000  0.500000  0.671121  1
  Rh  Rh7  1  0.500000  0.000000  0.328825  1
  Au  Au8  1  0.000000  0.000000  0.499968  1
  Au  Au9  1  0.500000  0.500000  0.499968  1
