# generated using pymatgen
data_Tb6ErSn23Ru6
_symmetry_space_group_name_H-M   'P 1'
_cell_length_a   9.88263673
_cell_length_b   9.90325351
_cell_length_c   10.06220382
_cell_angle_alpha   89.99999890
_cell_angle_beta   89.93609070
_cell_angle_gamma   120.06903234
_symmetry_Int_Tables_number   1
_chemical_formula_structural   Tb6ErSn23Ru6
_chemical_formula_sum   'Tb6 Er1 Sn23 Ru6'
_cell_volume   852.25898179
_cell_formula_units_Z   1
loop_
 _symmetry_equiv_pos_site_id
 _symmetry_equiv_pos_as_xyz
  1  'x, y, z'
loop_
 _atom_site_type_symbol
 _atom_site_label
 _atom_site_symmetry_multiplicity
 _atom_site_fract_x
 _atom_site_fract_y
 _atom_site_fract_z
 _atom_site_occupancy
  Tb  Tb0  1  0.483858  0.515410  0.304232  1
  Tb  Tb1  1  0.515814  0.484321  0.695915  1
  Tb  Tb2  1  0.483858  0.968449  0.304232  1
  Tb  Tb3  1  0.515814  0.031492  0.695915  1
  Tb  Tb4  1  0.032887  0.516444  0.304751  1
  Tb  Tb5  1  0.999285  0.999642  0.999676  1
  Er  Er6  1  0.969563  0.484781  0.695966  1
  Sn  Sn7  1  0.116677  0.882012  0.275273  1
  Sn  Sn8  1  0.883054  0.118861  0.724384  1
  Sn  Sn9  1  0.116677  0.234664  0.275273  1
  Sn  Sn10  1  0.883054  0.764194  0.724384  1
  Sn  Sn11  1  0.763552  0.881776  0.272718  1
  Sn  Sn12  1  0.235747  0.117874  0.727432  1
  Sn  Sn13  1  0.780615  0.222689  0.463466  1
  Sn  Sn14  1  0.219173  0.777346  0.537457  1
  Sn  Sn15  1  0.780615  0.557926  0.463466  1
  Sn  Sn16  1  0.219173  0.441827  0.537457  1
  Sn  Sn17  1  0.441930  0.220965  0.463299  1
  Sn  Sn18  1  0.557885  0.778942  0.536718  1
  Sn  Sn19  1  0.348599  0.000363  0.000113  1
  Sn  Sn20  1  0.651096  0.999579  0.999746  1
  Sn  Sn21  1  0.999735  0.348067  0.000026  1
  Sn  Sn22  1  0.999735  0.651668  0.000026  1
  Sn  Sn23  1  0.651096  0.651518  0.999746  1
  Sn  Sn24  1  0.348599  0.348235  0.000113  1
  Sn  Sn25  1  0.333633  0.666817  0.125320  1
  Sn  Sn26  1  0.669239  0.334619  0.873351  1
  Sn  Sn27  1  0.332942  0.666472  0.819939  1
  Sn  Sn28  1  0.666979  0.333489  0.179741  1
  Sn  Sn29  1  0.999727  0.999864  0.500007  1
  Ru  Ru30  1  0.829115  0.169211  0.202561  1
  Ru  Ru31  1  0.170295  0.829862  0.797497  1
  Ru  Ru32  1  0.829115  0.659904  0.202561  1
  Ru  Ru33  1  0.170295  0.340432  0.797497  1
  Ru  Ru34  1  0.339262  0.169632  0.202468  1
  Ru  Ru35  1  0.661307  0.830653  0.797273  1
