# generated using pymatgen
data_Ti2MoP3O13
_symmetry_space_group_name_H-M   'P 1'
_cell_length_a   6.46675500
_cell_length_b   7.93801177
_cell_length_c   10.40798149
_cell_angle_alpha   82.76489842
_cell_angle_beta   90.00000000
_cell_angle_gamma   90.00000000
_symmetry_Int_Tables_number   1
_chemical_formula_structural   Ti2MoP3O13
_chemical_formula_sum   'Ti4 Mo2 P6 O26'
_cell_volume   530.02071970
_cell_formula_units_Z   2
loop_
 _symmetry_equiv_pos_site_id
 _symmetry_equiv_pos_as_xyz
  1  'x, y, z'
loop_
 _atom_site_type_symbol
 _atom_site_label
 _atom_site_symmetry_multiplicity
 _atom_site_fract_x
 _atom_site_fract_y
 _atom_site_fract_z
 _atom_site_occupancy
  Ti  Ti0  1  0.250000  0.649954  0.189800  1
  Ti  Ti1  1  0.750000  0.350046  0.810200  1
  Ti  Ti2  1  0.250000  0.205652  0.443044  1
  Ti  Ti3  1  0.750000  0.794348  0.556956  1
  Mo  Mo4  1  0.500000  0.000000  0.000000  1
  Mo  Mo5  1  0.000000  0.000000  0.000000  1
  P  P6  1  0.250000  0.792443  0.480025  1
  P  P7  1  0.750000  0.207557  0.519975  1
  P  P8  1  0.250000  0.259351  0.767189  1
  P  P9  1  0.750000  0.740649  0.232811  1
  P  P10  1  0.750000  0.696236  0.867292  1
  P  P11  1  0.250000  0.303764  0.132708  1
  O  O12  1  0.750000  0.658210  0.719794  1
  O  O13  1  0.552549  0.233094  0.437741  1
  O  O14  1  0.250000  0.212629  0.625608  1
  O  O15  1  0.553150  0.790039  0.895729  1
  O  O16  1  0.750000  0.324506  0.625031  1
  O  O17  1  0.750000  0.140591  0.901399  1
  O  O18  1  0.250000  0.675494  0.374969  1
  O  O19  1  0.053150  0.209961  0.104271  1
  O  O20  1  0.250000  0.984315  0.413655  1
  O  O21  1  0.750000  0.015685  0.586345  1
  O  O22  1  0.053990  0.357734  0.792195  1
  O  O23  1  0.250000  0.859409  0.098601  1
  O  O24  1  0.553990  0.642266  0.207805  1
  O  O25  1  0.750000  0.507275  0.933388  1
  O  O26  1  0.750000  0.787371  0.374392  1
  O  O27  1  0.446850  0.209961  0.104271  1
  O  O28  1  0.947451  0.233094  0.437741  1
  O  O29  1  0.447451  0.766906  0.562259  1
  O  O30  1  0.446010  0.357734  0.792195  1
  O  O31  1  0.250000  0.341790  0.280206  1
  O  O32  1  0.750000  0.911832  0.136126  1
  O  O33  1  0.250000  0.088168  0.863874  1
  O  O34  1  0.946010  0.642266  0.207805  1
  O  O35  1  0.946850  0.790039  0.895729  1
  O  O36  1  0.052549  0.766906  0.562259  1
  O  O37  1  0.250000  0.492725  0.066612  1
