# generated using pymatgen
data_Na4CeNpO6
_symmetry_space_group_name_H-M   'P 1'
_cell_length_a   6.04019518
_cell_length_b   6.04018822
_cell_length_c   6.01882800
_cell_angle_alpha   100.05945784
_cell_angle_beta   100.05969660
_cell_angle_gamma   119.73781323
_symmetry_Int_Tables_number   1
_chemical_formula_structural   Na4CeNpO6
_chemical_formula_sum   'Na4 Ce1 Np1 O6'
_cell_volume   178.75570606
_cell_formula_units_Z   1
loop_
 _symmetry_equiv_pos_site_id
 _symmetry_equiv_pos_as_xyz
  1  'x, y, z'
loop_
 _atom_site_type_symbol
 _atom_site_label
 _atom_site_symmetry_multiplicity
 _atom_site_fract_x
 _atom_site_fract_y
 _atom_site_fract_z
 _atom_site_occupancy
  Na  Na0  1  0.499611  0.498842  0.999780  1
  Na  Na1  1  0.003009  0.997611  0.500373  1
  Na  Na2  1  0.659581  0.340081  0.499408  1
  Na  Na3  1  0.339085  0.661624  0.499918  1
  Ce  Ce4  1  0.834116  0.167128  0.000422  1
  Np  Np5  1  0.165669  0.831832  0.000268  1
  O  O6  1  0.561388  0.934346  0.213245  1
  O  O7  1  0.944532  0.586235  0.211901  1
  O  O8  1  0.214444  0.204124  0.221306  1
  O  O9  1  0.796749  0.786487  0.778347  1
  O  O10  1  0.415243  0.054338  0.790026  1
  O  O11  1  0.066578  0.437356  0.785009  1
