# generated using pymatgen
data_Tb12CeDy3(CdRu)4
_symmetry_space_group_name_H-M   'P 1'
_cell_length_a   9.70381767
_cell_length_b   9.70381686
_cell_length_c   9.70381715
_cell_angle_alpha   59.35900153
_cell_angle_beta   59.35900669
_cell_angle_gamma   59.35899898
_symmetry_Int_Tables_number   1
_chemical_formula_structural   Tb12CeDy3(CdRu)4
_chemical_formula_sum   'Tb12 Ce1 Dy3 Cd4 Ru4'
_cell_volume   636.69231633
_cell_formula_units_Z   1
loop_
 _symmetry_equiv_pos_site_id
 _symmetry_equiv_pos_as_xyz
  1  'x, y, z'
loop_
 _atom_site_type_symbol
 _atom_site_label
 _atom_site_symmetry_multiplicity
 _atom_site_fract_x
 _atom_site_fract_y
 _atom_site_fract_z
 _atom_site_occupancy
  Tb  Tb0  1  0.562071  0.562071  0.938398  1
  Tb  Tb1  1  0.938872  0.560894  0.938872  1
  Tb  Tb2  1  0.560894  0.938872  0.938872  1
  Tb  Tb3  1  0.938872  0.938872  0.560894  1
  Tb  Tb4  1  0.562071  0.938398  0.562071  1
  Tb  Tb5  1  0.938398  0.562071  0.562071  1
  Tb  Tb6  1  0.189289  0.189289  0.811963  1
  Tb  Tb7  1  0.810828  0.188590  0.810828  1
  Tb  Tb8  1  0.188589  0.810829  0.810828  1
  Tb  Tb9  1  0.810828  0.810829  0.188590  1
  Tb  Tb10  1  0.189288  0.811963  0.189288  1
  Tb  Tb11  1  0.811963  0.189289  0.189289  1
  Ce  Ce12  1  0.341833  0.341833  0.341833  1
  Dy  Dy13  1  0.346008  0.346008  0.958649  1
  Dy  Dy14  1  0.346008  0.958649  0.346008  1
  Dy  Dy15  1  0.958649  0.346008  0.346008  1
  Cd  Cd16  1  0.579786  0.579786  0.258447  1
  Cd  Cd17  1  0.579786  0.258447  0.579786  1
  Cd  Cd18  1  0.258447  0.579786  0.579786  1
  Cd  Cd19  1  0.579753  0.579753  0.579753  1
  Ru  Ru20  1  0.146768  0.146768  0.574822  1
  Ru  Ru21  1  0.146768  0.574822  0.146768  1
  Ru  Ru22  1  0.574822  0.146768  0.146768  1
  Ru  Ru23  1  0.139401  0.139401  0.139401  1
