# generated using pymatgen
data_Lu3Fe8Os
_symmetry_space_group_name_H-M   'P 1'
_cell_length_a   8.68008495
_cell_length_b   8.68008489
_cell_length_c   8.68008446
_cell_angle_alpha   33.79111505
_cell_angle_beta   33.79111285
_cell_angle_gamma   33.79111480
_symmetry_Int_Tables_number   1
_chemical_formula_structural   Lu3Fe8Os
_chemical_formula_sum   'Lu3 Fe8 Os1'
_cell_volume   180.25709274
_cell_formula_units_Z   1
loop_
 _symmetry_equiv_pos_site_id
 _symmetry_equiv_pos_as_xyz
  1  'x, y, z'
loop_
 _atom_site_type_symbol
 _atom_site_label
 _atom_site_symmetry_multiplicity
 _atom_site_fract_x
 _atom_site_fract_y
 _atom_site_fract_z
 _atom_site_occupancy
  Lu  Lu0  1  0.000000  0.000000  0.000000  1
  Lu  Lu1  1  0.141965  0.141965  0.141965  1
  Lu  Lu2  1  0.858035  0.858035  0.858035  1
  Fe  Fe3  1  0.582951  0.582951  0.076986  1
  Fe  Fe4  1  0.332979  0.332979  0.332979  1
  Fe  Fe5  1  0.923015  0.417048  0.417049  1
  Fe  Fe6  1  0.417048  0.923015  0.417049  1
  Fe  Fe7  1  0.582952  0.076985  0.582951  1
  Fe  Fe8  1  0.076985  0.582952  0.582951  1
  Fe  Fe9  1  0.667021  0.667021  0.667021  1
  Fe  Fe10  1  0.417049  0.417049  0.923014  1
  Os  Os11  1  0.500000  0.500000  0.500000  1
