# generated using pymatgen
data_UTlI6
_symmetry_space_group_name_H-M   'P 1'
_cell_length_a   8.04689292
_cell_length_b   8.04541849
_cell_length_c   8.51010606
_cell_angle_alpha   78.82098629
_cell_angle_beta   78.83675061
_cell_angle_gamma   118.22053269
_symmetry_Int_Tables_number   1
_chemical_formula_structural   UTlI6
_chemical_formula_sum   'U1 Tl1 I6'
_cell_volume   449.56554005
_cell_formula_units_Z   1
loop_
 _symmetry_equiv_pos_site_id
 _symmetry_equiv_pos_as_xyz
  1  'x, y, z'
loop_
 _atom_site_type_symbol
 _atom_site_label
 _atom_site_symmetry_multiplicity
 _atom_site_fract_x
 _atom_site_fract_y
 _atom_site_fract_z
 _atom_site_occupancy
  U  U0  1  0.000261  0.999796  0.999996  1
  Tl  Tl1  1  0.841935  0.158076  0.499937  1
  I  I2  1  0.232345  0.232330  0.191467  1
  I  I3  1  0.767667  0.767571  0.808647  1
  I  I4  1  0.066040  0.370217  0.778801  1
  I  I5  1  0.364111  0.068223  0.772847  1
  I  I6  1  0.931705  0.635764  0.227254  1
  I  I7  1  0.629935  0.934022  0.221051  1
