# generated using pymatgen
data_Ca2TbDy(BO4)2
_symmetry_space_group_name_H-M   'P 1'
_cell_length_a   3.62131500
_cell_length_b   9.69660661
_cell_length_c   10.54018276
_cell_angle_alpha   89.93379164
_cell_angle_beta   90.00000000
_cell_angle_gamma   90.00000000
_symmetry_Int_Tables_number   1
_chemical_formula_structural   Ca2TbDy(BO4)2
_chemical_formula_sum   'Ca4 Tb2 Dy2 B4 O16'
_cell_volume   370.11265253
_cell_formula_units_Z   2
loop_
 _symmetry_equiv_pos_site_id
 _symmetry_equiv_pos_as_xyz
  1  'x, y, z'
loop_
 _atom_site_type_symbol
 _atom_site_label
 _atom_site_symmetry_multiplicity
 _atom_site_fract_x
 _atom_site_fract_y
 _atom_site_fract_z
 _atom_site_occupancy
  Ca  Ca0  1  0.250000  0.671136  0.083711  1
  Ca  Ca1  1  0.750000  0.328864  0.916289  1
  Ca  Ca2  1  0.750000  0.171463  0.416576  1
  Ca  Ca3  1  0.250000  0.828537  0.583424  1
  Tb  Tb4  1  0.250000  0.088152  0.112653  1
  Tb  Tb5  1  0.750000  0.911848  0.887347  1
  Dy  Dy6  1  0.750000  0.587885  0.387893  1
  Dy  Dy7  1  0.250000  0.412115  0.612107  1
  B  B8  1  0.250000  0.368248  0.199939  1
  B  B9  1  0.750000  0.631752  0.800061  1
  B  B10  1  0.750000  0.867804  0.300303  1
  B  B11  1  0.250000  0.132196  0.699697  1
  O  O12  1  0.250000  0.500265  0.250647  1
  O  O13  1  0.750000  0.499735  0.749353  1
  O  O14  1  0.750000  0.999971  0.249751  1
  O  O15  1  0.250000  0.000029  0.750249  1
  O  O16  1  0.250000  0.250530  0.276777  1
  O  O17  1  0.750000  0.749470  0.723223  1
  O  O18  1  0.750000  0.749918  0.223834  1
  O  O19  1  0.250000  0.250082  0.776166  1
  O  O20  1  0.250000  0.349626  0.068102  1
  O  O21  1  0.750000  0.650374  0.931898  1
  O  O22  1  0.750000  0.849221  0.432116  1
  O  O23  1  0.250000  0.150779  0.567884  1
  O  O24  1  0.250000  0.613526  0.505828  1
  O  O25  1  0.750000  0.386474  0.494172  1
  O  O26  1  0.750000  0.114238  0.993541  1
  O  O27  1  0.250000  0.885762  0.006459  1
