# generated using pymatgen
data_Ba4Ga4Cu3Pt
_symmetry_space_group_name_H-M   'P 1'
_cell_length_a   6.84894796
_cell_length_b   6.84894796
_cell_length_c   6.84894796
_cell_angle_alpha   89.37334487
_cell_angle_beta   89.37334487
_cell_angle_gamma   90.62665513
_symmetry_Int_Tables_number   1
_chemical_formula_structural   Ba4Ga4Cu3Pt
_chemical_formula_sum   'Ba4 Ga4 Cu3 Pt1'
_cell_volume   321.21298425
_cell_formula_units_Z   1
loop_
 _symmetry_equiv_pos_site_id
 _symmetry_equiv_pos_as_xyz
  1  'x, y, z'
loop_
 _atom_site_type_symbol
 _atom_site_label
 _atom_site_symmetry_multiplicity
 _atom_site_fract_x
 _atom_site_fract_y
 _atom_site_fract_z
 _atom_site_occupancy
  Ba  Ba0  1  0.140158  0.148822  0.141512  1
  Ba  Ba1  1  0.858489  0.640157  0.351179  1
  Ba  Ba2  1  0.353239  0.853239  0.646761  1
  Ba  Ba3  1  0.648821  0.358489  0.859843  1
  Ga  Ga4  1  0.347423  0.654368  0.157901  1
  Ga  Ga5  1  0.656779  0.156778  0.343221  1
  Ga  Ga6  1  0.154367  0.342098  0.652577  1
  Ga  Ga7  1  0.842098  0.847423  0.845632  1
  Cu  Cu8  1  0.588809  0.915183  0.092363  1
  Cu  Cu9  1  0.415183  0.407636  0.411190  1
  Cu  Cu10  1  0.907636  0.088809  0.584816  1
  Pt  Pt11  1  0.086996  0.586996  0.913003  1
