# generated using pymatgen
data_Tb10SmIn9Ru4
_symmetry_space_group_name_H-M   'P 1'
_cell_length_a   3.85510100
_cell_length_b   12.89685384
_cell_length_c   12.89685400
_cell_angle_alpha   112.55679790
_cell_angle_beta   90.00000000
_cell_angle_gamma   90.00000000
_symmetry_Int_Tables_number   1
_chemical_formula_structural   Tb10SmIn9Ru4
_chemical_formula_sum   'Tb10 Sm1 In9 Ru4'
_cell_volume   592.16139440
_cell_formula_units_Z   1
loop_
 _symmetry_equiv_pos_site_id
 _symmetry_equiv_pos_as_xyz
  1  'x, y, z'
loop_
 _atom_site_type_symbol
 _atom_site_label
 _atom_site_symmetry_multiplicity
 _atom_site_fract_x
 _atom_site_fract_y
 _atom_site_fract_z
 _atom_site_occupancy
  Tb  Tb0  1  0.000000  0.913145  0.580181  1
  Tb  Tb1  1  0.000000  0.086855  0.419819  1
  Tb  Tb2  1  0.000000  0.580181  0.913145  1
  Tb  Tb3  1  0.000000  0.419819  0.086855  1
  Tb  Tb4  1  0.000000  0.163023  0.836977  1
  Tb  Tb5  1  0.000000  0.836977  0.163023  1
  Tb  Tb6  1  0.000000  0.368523  0.631477  1
  Tb  Tb7  1  0.000000  0.631477  0.368523  1
  Tb  Tb8  1  0.000000  0.693788  0.693788  1
  Tb  Tb9  1  0.000000  0.306212  0.306212  1
  Sm  Sm10  1  0.000000  0.000000  0.000000  1
  In  In11  1  0.500000  0.152070  0.631655  1
  In  In12  1  0.500000  0.847930  0.368345  1
  In  In13  1  0.500000  0.631655  0.152070  1
  In  In14  1  0.500000  0.368345  0.847930  1
  In  In15  1  0.500000  0.927263  0.779723  1
  In  In16  1  0.500000  0.072737  0.220277  1
  In  In17  1  0.500000  0.779723  0.927263  1
  In  In18  1  0.500000  0.220277  0.072737  1
  In  In19  1  0.500000  0.500000  0.500000  1
  Ru  Ru20  1  0.500000  0.740097  0.546554  1
  Ru  Ru21  1  0.500000  0.259903  0.453446  1
  Ru  Ru22  1  0.500000  0.546554  0.740097  1
  Ru  Ru23  1  0.500000  0.453446  0.259903  1
