# generated using pymatgen
data_Pa2Tc5B4
_symmetry_space_group_name_H-M   'P 1'
_cell_length_a   3.14689700
_cell_length_b   8.86258860
_cell_length_c   10.36791267
_cell_angle_alpha   90.00046462
_cell_angle_beta   90.00000000
_cell_angle_gamma   90.00000000
_symmetry_Int_Tables_number   1
_chemical_formula_structural   Pa2Tc5B4
_chemical_formula_sum   'Pa4 Tc10 B8'
_cell_volume   289.15749184
_cell_formula_units_Z   2
loop_
 _symmetry_equiv_pos_site_id
 _symmetry_equiv_pos_as_xyz
  1  'x, y, z'
loop_
 _atom_site_type_symbol
 _atom_site_label
 _atom_site_symmetry_multiplicity
 _atom_site_fract_x
 _atom_site_fract_y
 _atom_site_fract_z
 _atom_site_occupancy
  Pa  Pa0  1  0.500000  0.839572  0.181680  1
  Pa  Pa1  1  0.500000  0.160428  0.818320  1
  Pa  Pa2  1  0.500000  0.660474  0.681669  1
  Pa  Pa3  1  0.500000  0.339526  0.318331  1
  Tc  Tc4  1  0.000000  0.658739  0.953605  1
  Tc  Tc5  1  0.000000  0.341261  0.046395  1
  Tc  Tc6  1  0.000000  0.841244  0.453604  1
  Tc  Tc7  1  0.000000  0.158756  0.546396  1
  Tc  Tc8  1  0.000000  0.000000  0.000000  1
  Tc  Tc9  1  0.000000  0.406882  0.760130  1
  Tc  Tc10  1  0.000000  0.593118  0.239870  1
  Tc  Tc11  1  0.000000  0.500000  0.500000  1
  Tc  Tc12  1  0.000000  0.906985  0.739895  1
  Tc  Tc13  1  0.000000  0.093015  0.260105  1
  B  B14  1  0.500000  0.968085  0.584075  1
  B  B15  1  0.500000  0.031915  0.415925  1
  B  B16  1  0.500000  0.847724  0.901288  1
  B  B17  1  0.500000  0.152276  0.098712  1
  B  B18  1  0.500000  0.652288  0.401289  1
  B  B19  1  0.500000  0.347712  0.598711  1
  B  B20  1  0.500000  0.468067  0.915931  1
  B  B21  1  0.500000  0.531933  0.084069  1
