# generated using pymatgen
data_TbSm(CoB)8
_symmetry_space_group_name_H-M   'P 1'
_cell_length_a   7.00855300
_cell_length_b   7.00855300
_cell_length_c   3.81213900
_cell_angle_alpha   90.00000000
_cell_angle_beta   90.00000000
_cell_angle_gamma   90.00000000
_symmetry_Int_Tables_number   1
_chemical_formula_structural   TbSm(CoB)8
_chemical_formula_sum   'Tb1 Sm1 Co8 B8'
_cell_volume   187.25156302
_cell_formula_units_Z   1
loop_
 _symmetry_equiv_pos_site_id
 _symmetry_equiv_pos_as_xyz
  1  'x, y, z'
loop_
 _atom_site_type_symbol
 _atom_site_label
 _atom_site_symmetry_multiplicity
 _atom_site_fract_x
 _atom_site_fract_y
 _atom_site_fract_z
 _atom_site_occupancy
  Tb  Tb0  1  0.000000  0.000000  0.000000  1
  Sm  Sm1  1  0.500000  0.500000  0.500000  1
  Co  Co2  1  0.382090  0.140904  0.891580  1
  Co  Co3  1  0.617910  0.859096  0.891580  1
  Co  Co4  1  0.356686  0.883732  0.391841  1
  Co  Co5  1  0.643314  0.116268  0.391841  1
  Co  Co6  1  0.116268  0.356686  0.608159  1
  Co  Co7  1  0.883732  0.643314  0.608159  1
  Co  Co8  1  0.140904  0.617910  0.108420  1
  Co  Co9  1  0.859096  0.382090  0.108420  1
  B  B10  1  0.799981  0.663107  0.104442  1
  B  B11  1  0.200019  0.336893  0.104442  1
  B  B12  1  0.838377  0.295797  0.605602  1
  B  B13  1  0.161623  0.704203  0.605602  1
  B  B14  1  0.704203  0.838377  0.394398  1
  B  B15  1  0.295797  0.161623  0.394398  1
  B  B16  1  0.663107  0.200019  0.895558  1
  B  B17  1  0.336893  0.799981  0.895558  1
