# generated using pymatgen
data_Er4Sb3Rh7Pb3
_symmetry_space_group_name_H-M   'P 1'
_cell_length_a   7.65241421
_cell_length_b   7.66524098
_cell_length_c   7.65241400
_cell_angle_alpha   109.50517796
_cell_angle_beta   109.43723682
_cell_angle_gamma   109.50517968
_symmetry_Int_Tables_number   1
_chemical_formula_structural   Er4Sb3Rh7Pb3
_chemical_formula_sum   'Er4 Sb3 Rh7 Pb3'
_cell_volume   345.39710453
_cell_formula_units_Z   1
loop_
 _symmetry_equiv_pos_site_id
 _symmetry_equiv_pos_as_xyz
  1  'x, y, z'
loop_
 _atom_site_type_symbol
 _atom_site_label
 _atom_site_symmetry_multiplicity
 _atom_site_fract_x
 _atom_site_fract_y
 _atom_site_fract_z
 _atom_site_occupancy
  Er  Er0  1  0.510966  0.999490  0.000000  1
  Er  Er1  1  0.000000  0.469915  0.000000  1
  Er  Er2  1  0.000000  0.999490  0.510966  1
  Er  Er3  1  0.489034  0.488522  0.489034  1
  Sb  Sb4  1  0.667288  0.990757  0.667288  1
  Sb  Sb5  1  0.000000  0.323469  0.332712  1
  Sb  Sb6  1  0.332712  0.323469  0.000000  1
  Rh  Rh7  1  0.253875  0.498715  0.752795  1
  Rh  Rh8  1  0.498920  0.244840  0.746125  1
  Rh  Rh9  1  0.746125  0.244840  0.498920  1
  Rh  Rh10  1  0.501080  0.745920  0.247205  1
  Rh  Rh11  1  0.000000  0.049639  0.000000  1
  Rh  Rh12  1  0.247205  0.745920  0.501080  1
  Rh  Rh13  1  0.752795  0.498715  0.253875  1
  Pb  Pb14  1  0.294507  0.988437  0.294507  1
  Pb  Pb15  1  0.000000  0.693930  0.705493  1
  Pb  Pb16  1  0.705493  0.693930  0.000000  1
