# generated using pymatgen
data_Pr4Al24CuPt8
_symmetry_space_group_name_H-M   'P 1'
_cell_length_a   7.56884392
_cell_length_b   7.60166330
_cell_length_c   13.32449143
_cell_angle_alpha   84.70929597
_cell_angle_beta   79.27972713
_cell_angle_gamma   59.88019516
_symmetry_Int_Tables_number   1
_chemical_formula_structural   Pr4Al24CuPt8
_chemical_formula_sum   'Pr4 Al24 Cu1 Pt8'
_cell_volume   651.54866003
_cell_formula_units_Z   1
loop_
 _symmetry_equiv_pos_site_id
 _symmetry_equiv_pos_as_xyz
  1  'x, y, z'
loop_
 _atom_site_type_symbol
 _atom_site_label
 _atom_site_symmetry_multiplicity
 _atom_site_fract_x
 _atom_site_fract_y
 _atom_site_fract_z
 _atom_site_occupancy
  Pr  Pr0  1  0.392963  0.169590  0.807509  1
  Pr  Pr1  1  0.606127  0.831517  0.191737  1
  Pr  Pr2  1  0.735282  0.498082  0.807833  1
  Pr  Pr3  1  0.266039  0.502095  0.191409  1
  Al  Al4  1  0.686592  0.833719  0.946647  1
  Al  Al5  1  0.313016  0.166265  0.053518  1
  Al  Al6  1  0.145593  0.835070  0.559924  1
  Al  Al7  1  0.854710  0.167005  0.438672  1
  Al  Al8  1  0.481671  0.165603  0.558324  1
  Al  Al9  1  0.519995  0.833831  0.441261  1
  Al  Al10  1  0.215667  0.165528  0.334174  1
  Al  Al11  1  0.788140  0.831518  0.666393  1
  Al  Al12  1  0.433534  0.507748  0.666111  1
  Al  Al13  1  0.562686  0.493122  0.334064  1
  Al  Al14  1  0.110354  0.160117  0.665478  1
  Al  Al15  1  0.889255  0.840825  0.335419  1
  Al  Al16  1  0.349148  0.502374  0.946801  1
  Al  Al17  1  0.650946  0.497434  0.053214  1
  Al  Al18  1  0.014801  0.165123  0.956759  1
  Al  Al19  1  0.984931  0.834961  0.043738  1
  Al  Al20  1  0.186681  0.501229  0.442672  1
  Al  Al21  1  0.811801  0.499613  0.558812  1
  Al  Al22  1  0.735220  0.164157  0.184871  1
  Al  Al23  1  0.264558  0.835332  0.815033  1
  Al  Al24  1  0.062376  0.632203  0.812971  1
  Al  Al25  1  0.937930  0.366819  0.186012  1
  Al  Al26  1  0.859311  0.037726  0.814577  1
  Al  Al27  1  0.140600  0.961571  0.184967  1
  Cu  Cu28  1  0.120479  0.493461  0.637383  1
  Pt  Pt29  1  0.879654  0.505429  0.365289  1
  Pt  Pt30  1  0.658198  0.170647  0.999072  1
  Pt  Pt31  1  0.342179  0.829231  0.999588  1
  Pt  Pt32  1  0.539021  0.167682  0.364889  1
  Pt  Pt33  1  0.460417  0.832982  0.635352  1
  Pt  Pt34  1  0.781632  0.172490  0.634404  1
  Pt  Pt35  1  0.218399  0.827646  0.365270  1
  Pt  Pt36  1  0.000098  0.500255  0.999855  1
