# generated using pymatgen
data_Ho3Er7Zn3Fe
_symmetry_space_group_name_H-M   'P 1'
_cell_length_a   9.26553700
_cell_length_b   9.26553638
_cell_length_c   9.50328600
_cell_angle_alpha   90.00000000
_cell_angle_beta   90.00000000
_cell_angle_gamma   119.99999863
_symmetry_Int_Tables_number   1
_chemical_formula_structural   Ho3Er7Zn3Fe
_chemical_formula_sum   'Ho6 Er14 Zn6 Fe2'
_cell_volume   706.55438767
_cell_formula_units_Z   2
loop_
 _symmetry_equiv_pos_site_id
 _symmetry_equiv_pos_as_xyz
  1  'x, y, z'
loop_
 _atom_site_type_symbol
 _atom_site_label
 _atom_site_symmetry_multiplicity
 _atom_site_fract_x
 _atom_site_fract_y
 _atom_site_fract_z
 _atom_site_occupancy
  Ho  Ho0  1  0.541083  0.458917  0.250000  1
  Ho  Ho1  1  0.541083  0.082166  0.250000  1
  Ho  Ho2  1  0.917834  0.458917  0.250000  1
  Ho  Ho3  1  0.458917  0.541083  0.750000  1
  Ho  Ho4  1  0.458917  0.917834  0.750000  1
  Ho  Ho5  1  0.082166  0.541083  0.750000  1
  Er  Er6  1  0.000000  0.000000  0.500000  1
  Er  Er7  1  0.000000  0.000000  0.000000  1
  Er  Er8  1  0.210218  0.789782  0.438082  1
  Er  Er9  1  0.210218  0.420437  0.438082  1
  Er  Er10  1  0.579563  0.789782  0.438082  1
  Er  Er11  1  0.789782  0.210218  0.561918  1
  Er  Er12  1  0.789782  0.579563  0.561918  1
  Er  Er13  1  0.420437  0.210218  0.561918  1
  Er  Er14  1  0.789782  0.210218  0.938082  1
  Er  Er15  1  0.789782  0.579563  0.938082  1
  Er  Er16  1  0.420437  0.210218  0.938082  1
  Er  Er17  1  0.210218  0.789782  0.061918  1
  Er  Er18  1  0.210218  0.420437  0.061918  1
  Er  Er19  1  0.579563  0.789782  0.061918  1
  Zn  Zn20  1  0.886639  0.113361  0.250000  1
  Zn  Zn21  1  0.886639  0.773280  0.250000  1
  Zn  Zn22  1  0.226720  0.113361  0.250000  1
  Zn  Zn23  1  0.113361  0.886639  0.750000  1
  Zn  Zn24  1  0.113361  0.226720  0.750000  1
  Zn  Zn25  1  0.773280  0.886639  0.750000  1
  Fe  Fe26  1  0.333333  0.666667  0.250000  1
  Fe  Fe27  1  0.666667  0.333333  0.750000  1
