# generated using pymatgen
data_Ho5FeSeO12
_symmetry_space_group_name_H-M   'P 1'
_cell_length_a   6.83208341
_cell_length_b   6.83208290
_cell_length_c   7.16575700
_cell_angle_alpha   74.54582160
_cell_angle_beta   74.54583149
_cell_angle_gamma   50.72608700
_symmetry_Int_Tables_number   1
_chemical_formula_structural   Ho5FeSeO12
_chemical_formula_sum   'Ho5 Fe1 Se1 O12'
_cell_volume   247.41502624
_cell_formula_units_Z   1
loop_
 _symmetry_equiv_pos_site_id
 _symmetry_equiv_pos_as_xyz
  1  'x, y, z'
loop_
 _atom_site_type_symbol
 _atom_site_label
 _atom_site_symmetry_multiplicity
 _atom_site_fract_x
 _atom_site_fract_y
 _atom_site_fract_z
 _atom_site_occupancy
  Ho  Ho0  1  0.309462  0.292310  0.359774  1
  Ho  Ho1  1  0.707690  0.690538  0.640226  1
  Ho  Ho2  1  0.300886  0.308759  0.834419  1
  Ho  Ho3  1  0.691241  0.699114  0.165581  1
  Ho  Ho4  1  0.020770  0.979230  0.500000  1
  Fe  Fe5  1  0.752020  0.247980  0.000000  1
  Se  Se6  1  0.240068  0.759932  0.000000  1
  O  O7  1  0.898190  0.436695  0.919457  1
  O  O8  1  0.408089  0.899129  0.919893  1
  O  O9  1  0.100871  0.591911  0.080107  1
  O  O10  1  0.563305  0.101810  0.080543  1
  O  O11  1  0.103847  0.591136  0.570814  1
  O  O12  1  0.604630  0.089373  0.579370  1
  O  O13  1  0.910627  0.395370  0.420630  1
  O  O14  1  0.408864  0.896153  0.429186  1
  O  O15  1  0.020067  0.978711  0.821770  1
  O  O16  1  0.021289  0.979933  0.178230  1
  O  O17  1  0.468503  0.530417  0.818649  1
  O  O18  1  0.469583  0.531497  0.181351  1
