# generated using pymatgen
data_Hf6Al16Ir2Pt4Rh
_symmetry_space_group_name_H-M   'P 1'
_cell_length_a   8.71742960
_cell_length_b   8.72621097
_cell_length_c   8.72621140
_cell_angle_alpha   59.93343208
_cell_angle_beta   60.03328723
_cell_angle_gamma   60.03328595
_symmetry_Int_Tables_number   1
_chemical_formula_structural   Hf6Al16Ir2Pt4Rh
_chemical_formula_sum   'Hf6 Al16 Ir2 Pt4 Rh1'
_cell_volume   469.37940281
_cell_formula_units_Z   1
loop_
 _symmetry_equiv_pos_site_id
 _symmetry_equiv_pos_as_xyz
  1  'x, y, z'
loop_
 _atom_site_type_symbol
 _atom_site_label
 _atom_site_symmetry_multiplicity
 _atom_site_fract_x
 _atom_site_fract_y
 _atom_site_fract_z
 _atom_site_occupancy
  Hf  Hf0  1  0.683544  0.316455  0.316455  1
  Hf  Hf1  1  0.316455  0.683544  0.683544  1
  Hf  Hf2  1  0.318782  0.681217  0.318782  1
  Hf  Hf3  1  0.318782  0.318782  0.681217  1
  Hf  Hf4  1  0.681217  0.318782  0.681217  1
  Hf  Hf5  1  0.681217  0.681217  0.318782  1
  Al  Al6  1  0.334852  0.338020  0.338020  1
  Al  Al7  1  0.338020  0.334852  0.989106  1
  Al  Al8  1  0.989106  0.338020  0.338020  1
  Al  Al9  1  0.338020  0.989106  0.334852  1
  Al  Al10  1  0.665148  0.661980  0.661980  1
  Al  Al11  1  0.661980  0.665148  0.010894  1
  Al  Al12  1  0.661980  0.010894  0.665148  1
  Al  Al13  1  0.010894  0.661980  0.661980  1
  Al  Al14  1  0.123238  0.116996  0.116996  1
  Al  Al15  1  0.116996  0.123238  0.642769  1
  Al  Al16  1  0.642769  0.116996  0.116996  1
  Al  Al17  1  0.116996  0.642769  0.123238  1
  Al  Al18  1  0.876761  0.883003  0.883003  1
  Al  Al19  1  0.883003  0.876761  0.357234  1
  Al  Al20  1  0.883003  0.357234  0.876761  1
  Al  Al21  1  0.357234  0.883003  0.883003  1
  Ir  Ir22  1  0.500000  0.000000  0.000000  1
  Ir  Ir23  1  0.000000  0.500000  0.500000  1
  Pt  Pt24  1  0.000000  0.500000  0.000000  1
  Pt  Pt25  1  0.000000  0.000000  0.500000  1
  Pt  Pt26  1  0.500000  0.000000  0.500000  1
  Pt  Pt27  1  0.500000  0.500000  0.000000  1
  Rh  Rh28  1  0.000000  0.000000  0.000000  1
