# generated using pymatgen
data_Pr20Tl4Si7Rh
_symmetry_space_group_name_H-M   'P 1'
_cell_length_a   8.06984153
_cell_length_b   8.06984184
_cell_length_c   14.81060500
_cell_angle_alpha   89.96468466
_cell_angle_beta   90.03531534
_cell_angle_gamma   89.71434552
_symmetry_Int_Tables_number   1
_chemical_formula_structural   Pr20Tl4Si7Rh
_chemical_formula_sum   'Pr20 Tl4 Si7 Rh1'
_cell_volume   964.48897112
_cell_formula_units_Z   1
loop_
 _symmetry_equiv_pos_site_id
 _symmetry_equiv_pos_as_xyz
  1  'x, y, z'
loop_
 _atom_site_type_symbol
 _atom_site_label
 _atom_site_symmetry_multiplicity
 _atom_site_fract_x
 _atom_site_fract_y
 _atom_site_fract_z
 _atom_site_occupancy
  Pr  Pr0  1  0.819417  0.832848  0.611379  1
  Pr  Pr1  1  0.173585  0.841997  0.115796  1
  Pr  Pr2  1  0.161708  0.825093  0.383047  1
  Pr  Pr3  1  0.000149  0.500777  0.729562  1
  Pr  Pr4  1  0.841997  0.173585  0.384204  1
  Pr  Pr5  1  0.680129  0.666623  0.389894  1
  Pr  Pr6  1  0.666256  0.317535  0.611612  1
  Pr  Pr7  1  0.333134  0.682187  0.611665  1
  Pr  Pr8  1  0.006324  0.502096  0.227642  1
  Pr  Pr9  1  0.666623  0.680129  0.110106  1
  Pr  Pr10  1  0.682187  0.333134  0.888335  1
  Pr  Pr11  1  0.832848  0.819417  0.888621  1
  Pr  Pr12  1  0.315479  0.336191  0.384282  1
  Pr  Pr13  1  0.179390  0.167345  0.613202  1
  Pr  Pr14  1  0.825093  0.161708  0.116953  1
  Pr  Pr15  1  0.317535  0.666256  0.888388  1
  Pr  Pr16  1  0.336191  0.315479  0.115718  1
  Pr  Pr17  1  0.502096  0.006324  0.272358  1
  Pr  Pr18  1  0.167345  0.179390  0.886798  1
  Pr  Pr19  1  0.500777  0.000149  0.770438  1
  Tl  Tl20  1  0.000191  0.499074  0.502833  1
  Tl  Tl21  1  0.498465  0.000339  0.497169  1
  Tl  Tl22  1  0.499074  0.000191  0.997167  1
  Tl  Tl23  1  0.000339  0.498465  0.002831  1
  Si  Si24  1  0.619670  0.385952  0.251476  1
  Si  Si25  1  0.116309  0.882851  0.750114  1
  Si  Si26  1  0.383579  0.383579  0.750000  1
  Si  Si27  1  0.385952  0.619670  0.248524  1
  Si  Si28  1  0.874095  0.874095  0.250000  1
  Si  Si29  1  0.617046  0.617046  0.750000  1
  Si  Si30  1  0.882851  0.116309  0.749886  1
  Rh  Rh31  1  0.114162  0.114162  0.250000  1
