# generated using pymatgen
data_Nd10Hg8PtRh3
_symmetry_space_group_name_H-M   'P 1'
_cell_length_a   3.80789600
_cell_length_b   8.17287769
_cell_length_c   18.34386028
_cell_angle_alpha   89.85271453
_cell_angle_beta   90.00000000
_cell_angle_gamma   90.00000000
_symmetry_Int_Tables_number   1
_chemical_formula_structural   Nd10Hg8PtRh3
_chemical_formula_sum   'Nd10 Hg8 Pt1 Rh3'
_cell_volume   570.88597961
_cell_formula_units_Z   1
loop_
 _symmetry_equiv_pos_site_id
 _symmetry_equiv_pos_as_xyz
  1  'x, y, z'
loop_
 _atom_site_type_symbol
 _atom_site_label
 _atom_site_symmetry_multiplicity
 _atom_site_fract_x
 _atom_site_fract_y
 _atom_site_fract_z
 _atom_site_occupancy
  Nd  Nd0  1  0.000000  0.111890  0.412191  1
  Nd  Nd1  1  0.000000  0.888586  0.588783  1
  Nd  Nd2  1  0.000000  0.387785  0.911142  1
  Nd  Nd3  1  0.000000  0.614047  0.086012  1
  Nd  Nd4  1  0.000000  0.231683  0.217870  1
  Nd  Nd5  1  0.000000  0.762770  0.782148  1
  Nd  Nd6  1  0.000000  0.263150  0.717580  1
  Nd  Nd7  1  0.000000  0.741798  0.282809  1
  Nd  Nd8  1  0.000000  0.999954  0.999753  1
  Nd  Nd9  1  0.000000  0.500529  0.499956  1
  Hg  Hg10  1  0.500000  0.418683  0.354249  1
  Hg  Hg11  1  0.500000  0.580610  0.648355  1
  Hg  Hg12  1  0.500000  0.080378  0.851545  1
  Hg  Hg13  1  0.500000  0.922742  0.147828  1
  Hg  Hg14  1  0.500000  0.288445  0.062952  1
  Hg  Hg15  1  0.500000  0.709269  0.934782  1
  Hg  Hg16  1  0.500000  0.209057  0.564784  1
  Hg  Hg17  1  0.500000  0.790737  0.435528  1
  Pt  Pt18  1  0.500000  0.522080  0.198219  1
  Rh  Rh19  1  0.500000  0.022584  0.303232  1
  Rh  Rh20  1  0.500000  0.976309  0.697002  1
  Rh  Rh21  1  0.500000  0.476915  0.803280  1
