# generated using pymatgen
data_Pr2Al20ReIr2Ru
_symmetry_space_group_name_H-M   'P 1'
_cell_length_a   6.91081947
_cell_length_b   6.90016620
_cell_length_c   9.23180062
_cell_angle_alpha   89.74380167
_cell_angle_beta   89.90194448
_cell_angle_gamma   96.77179939
_symmetry_Int_Tables_number   1
_chemical_formula_structural   Pr2Al20ReIr2Ru
_chemical_formula_sum   'Pr2 Al20 Re1 Ir2 Ru1'
_cell_volume   437.14918085
_cell_formula_units_Z   1
loop_
 _symmetry_equiv_pos_site_id
 _symmetry_equiv_pos_as_xyz
  1  'x, y, z'
loop_
 _atom_site_type_symbol
 _atom_site_label
 _atom_site_symmetry_multiplicity
 _atom_site_fract_x
 _atom_site_fract_y
 _atom_site_fract_z
 _atom_site_occupancy
  Pr  Pr0  1  0.875055  0.126778  0.749790  1
  Pr  Pr1  1  0.124945  0.873222  0.250210  1
  Al  Al2  1  0.410297  0.141182  0.748477  1
  Al  Al3  1  0.141994  0.409971  0.250827  1
  Al  Al4  1  0.589703  0.858818  0.251523  1
  Al  Al5  1  0.858006  0.590029  0.749173  1
  Al  Al6  1  0.516872  0.777656  0.748932  1
  Al  Al7  1  0.778024  0.516956  0.252087  1
  Al  Al8  1  0.483128  0.222344  0.251068  1
  Al  Al9  1  0.221976  0.483044  0.747913  1
  Al  Al10  1  0.839477  0.159399  0.398599  1
  Al  Al11  1  0.160523  0.840601  0.601401  1
  Al  Al12  1  0.839367  0.160020  0.104535  1
  Al  Al13  1  0.160633  0.839980  0.895465  1
  Al  Al14  1  0.622892  0.377778  0.549708  1
  Al  Al15  1  0.377108  0.622222  0.450292  1
  Al  Al16  1  0.620817  0.379032  0.947872  1
  Al  Al17  1  0.379183  0.620968  0.052128  1
  Al  Al18  1  0.774023  0.774125  0.000168  1
  Al  Al19  1  0.774040  0.775071  0.499851  1
  Al  Al20  1  0.225977  0.225875  0.999832  1
  Al  Al21  1  0.225960  0.224929  0.500149  1
  Re  Re22  1  0.000000  0.500000  0.500000  1
  Ir  Ir23  1  0.500000  0.000000  0.000000  1
  Ir  Ir24  1  0.000000  0.500000  0.000000  1
  Ru  Ru25  1  0.500000  0.000000  0.500000  1
