# generated using pymatgen
data_Nd8Si12PdAu3
_symmetry_space_group_name_H-M   'P 1'
_cell_length_a   8.29362800
_cell_length_b   8.29362927
_cell_length_c   8.62448000
_cell_angle_alpha   90.00000000
_cell_angle_beta   90.00000000
_cell_angle_gamma   119.99999495
_symmetry_Int_Tables_number   1
_chemical_formula_structural   Nd8Si12PdAu3
_chemical_formula_sum   'Nd8 Si12 Pd1 Au3'
_cell_volume   513.75107428
_cell_formula_units_Z   1
loop_
 _symmetry_equiv_pos_site_id
 _symmetry_equiv_pos_as_xyz
  1  'x, y, z'
loop_
 _atom_site_type_symbol
 _atom_site_label
 _atom_site_symmetry_multiplicity
 _atom_site_fract_x
 _atom_site_fract_y
 _atom_site_fract_z
 _atom_site_occupancy
  Nd  Nd0  1  0.500420  0.499580  0.748090  1
  Nd  Nd1  1  0.501468  0.498532  0.252107  1
  Nd  Nd2  1  0.999160  0.499580  0.748090  1
  Nd  Nd3  1  0.997065  0.498532  0.252107  1
  Nd  Nd4  1  0.500420  0.000840  0.748090  1
  Nd  Nd5  1  0.501468  0.002935  0.252107  1
  Nd  Nd6  1  0.000000  0.000000  0.748598  1
  Nd  Nd7  1  0.000000  0.000000  0.251699  1
  Si  Si8  1  0.836452  0.163548  0.000875  1
  Si  Si9  1  0.163928  0.836072  0.999251  1
  Si  Si10  1  0.327096  0.163548  0.000875  1
  Si  Si11  1  0.162787  0.837213  0.499641  1
  Si  Si12  1  0.672143  0.836072  0.999251  1
  Si  Si13  1  0.832466  0.167534  0.500766  1
  Si  Si14  1  0.836452  0.672904  0.000875  1
  Si  Si15  1  0.674426  0.837213  0.499641  1
  Si  Si16  1  0.163928  0.327857  0.999251  1
  Si  Si17  1  0.335067  0.167534  0.500766  1
  Si  Si18  1  0.162787  0.325574  0.499641  1
  Si  Si19  1  0.832466  0.664933  0.500766  1
  Pd  Pd20  1  0.666667  0.333333  0.499030  1
  Au  Au21  1  0.666667  0.333333  0.997668  1
  Au  Au22  1  0.333333  0.666667  0.002005  1
  Au  Au23  1  0.333333  0.666667  0.498811  1
