# generated using pymatgen
data_Dy2Lu4Bi2Mo
_symmetry_space_group_name_H-M   'P 1'
_cell_length_a   8.19460618
_cell_length_b   8.19460690
_cell_length_c   4.32862400
_cell_angle_alpha   90.00000000
_cell_angle_beta   90.00000000
_cell_angle_gamma   120.04699062
_symmetry_Int_Tables_number   1
_chemical_formula_structural   Dy2Lu4Bi2Mo
_chemical_formula_sum   'Dy2 Lu4 Bi2 Mo1'
_cell_volume   251.61172182
_cell_formula_units_Z   1
loop_
 _symmetry_equiv_pos_site_id
 _symmetry_equiv_pos_as_xyz
  1  'x, y, z'
loop_
 _atom_site_type_symbol
 _atom_site_label
 _atom_site_symmetry_multiplicity
 _atom_site_fract_x
 _atom_site_fract_y
 _atom_site_fract_z
 _atom_site_occupancy
  Dy  Dy0  1  0.611399  0.999529  0.000000  1
  Dy  Dy1  1  0.999529  0.611399  0.000000  1
  Lu  Lu2  1  0.234221  0.001378  0.500000  1
  Lu  Lu3  1  0.001378  0.234221  0.500000  1
  Lu  Lu4  1  0.767433  0.767433  0.500000  1
  Lu  Lu5  1  0.384599  0.384599  0.000000  1
  Bi  Bi6  1  0.333681  0.665088  0.500000  1
  Bi  Bi7  1  0.665088  0.333681  0.500000  1
  Mo  Mo8  1  0.002671  0.002671  0.000000  1
