# generated using pymatgen
data_Tb4Tm8Tc3Ru
_symmetry_space_group_name_H-M   'P 1'
_cell_length_a   6.25831512
_cell_length_b   7.35077105
_cell_length_c   9.00634800
_cell_angle_alpha   90.00000000
_cell_angle_beta   90.00000000
_cell_angle_gamma   90.00506665
_symmetry_Int_Tables_number   1
_chemical_formula_structural   Tb4Tm8Tc3Ru
_chemical_formula_sum   'Tb4 Tm8 Tc3 Ru1'
_cell_volume   414.32300273
_cell_formula_units_Z   1
loop_
 _symmetry_equiv_pos_site_id
 _symmetry_equiv_pos_as_xyz
  1  'x, y, z'
loop_
 _atom_site_type_symbol
 _atom_site_label
 _atom_site_symmetry_multiplicity
 _atom_site_fract_x
 _atom_site_fract_y
 _atom_site_fract_z
 _atom_site_occupancy
  Tb  Tb0  1  0.628464  0.041764  0.250000  1
  Tb  Tb1  1  0.375694  0.959305  0.750000  1
  Tb  Tb2  1  0.124546  0.460434  0.750000  1
  Tb  Tb3  1  0.875946  0.541852  0.250000  1
  Tm  Tm4  1  0.160710  0.175029  0.063053  1
  Tm  Tm5  1  0.836816  0.823808  0.936777  1
  Tm  Tm6  1  0.660373  0.324460  0.937446  1
  Tm  Tm7  1  0.836816  0.823808  0.563223  1
  Tm  Tm8  1  0.338416  0.675876  0.062704  1
  Tm  Tm9  1  0.160710  0.175029  0.436947  1
  Tm  Tm10  1  0.338416  0.675876  0.437296  1
  Tm  Tm11  1  0.660373  0.324460  0.562554  1
  Tc  Tc12  1  0.459858  0.384612  0.250000  1
  Tc  Tc13  1  0.541493  0.615704  0.750000  1
  Tc  Tc14  1  0.960329  0.113715  0.750000  1
  Ru  Ru15  1  0.041041  0.884267  0.250000  1
