# generated using pymatgen
data_Ni5Mo12Pd2PtN4
_symmetry_space_group_name_H-M   'P 1'
_cell_length_a   6.75085525
_cell_length_b   6.75112220
_cell_length_c   6.75269732
_cell_angle_alpha   89.79974320
_cell_angle_beta   90.11894268
_cell_angle_gamma   89.86460428
_symmetry_Int_Tables_number   1
_chemical_formula_structural   Ni5Mo12Pd2PtN4
_chemical_formula_sum   'Ni5 Mo12 Pd2 Pt1 N4'
_cell_volume   307.75650395
_cell_formula_units_Z   1
loop_
 _symmetry_equiv_pos_site_id
 _symmetry_equiv_pos_as_xyz
  1  'x, y, z'
loop_
 _atom_site_type_symbol
 _atom_site_label
 _atom_site_symmetry_multiplicity
 _atom_site_fract_x
 _atom_site_fract_y
 _atom_site_fract_z
 _atom_site_occupancy
  Ni  Ni0  1  0.194468  0.182019  0.179156  1
  Ni  Ni1  1  0.317678  0.821055  0.693576  1
  Ni  Ni2  1  0.435449  0.064778  0.934646  1
  Ni  Ni3  1  0.813046  0.688086  0.313503  1
  Ni  Ni4  1  0.678957  0.306624  0.816566  1
  Mo  Mo5  1  0.623713  0.701507  0.956322  1
  Mo  Mo6  1  0.455413  0.877205  0.296626  1
  Mo  Mo7  1  0.696125  0.957867  0.630597  1
  Mo  Mo8  1  0.542669  0.370008  0.196193  1
  Mo  Mo9  1  0.373879  0.196496  0.548069  1
  Mo  Mo10  1  0.195366  0.541303  0.371820  1
  Mo  Mo11  1  0.872971  0.303340  0.457201  1
  Mo  Mo12  1  0.047214  0.126602  0.804717  1
  Mo  Mo13  1  0.303005  0.451574  0.874080  1
  Mo  Mo14  1  0.130788  0.803289  0.041792  1
  Mo  Mo15  1  0.796892  0.045018  0.122295  1
  Mo  Mo16  1  0.957618  0.627405  0.697557  1
  Pd  Pd17  1  0.562928  0.565048  0.564314  1
  Pd  Pd18  1  0.064982  0.936850  0.435844  1
  Pt  Pt19  1  0.934872  0.434819  0.064093  1
  N  N20  1  0.374729  0.623802  0.125504  1
  N  N21  1  0.876307  0.874710  0.874341  1
  N  N22  1  0.125301  0.375071  0.624877  1
  N  N23  1  0.625628  0.125525  0.376312  1
