# generated using pymatgen
data_Y4ReBr4
_symmetry_space_group_name_H-M   'P 1'
_cell_length_a   9.01332595
_cell_length_b   9.01332507
_cell_length_c   6.63243016
_cell_angle_alpha   89.44452232
_cell_angle_beta   89.44452069
_cell_angle_gamma   89.35016047
_symmetry_Int_Tables_number   1
_chemical_formula_structural   Y4ReBr4
_chemical_formula_sum   'Y8 Re2 Br8'
_cell_volume   538.73414016
_cell_formula_units_Z   2
loop_
 _symmetry_equiv_pos_site_id
 _symmetry_equiv_pos_as_xyz
  1  'x, y, z'
loop_
 _atom_site_type_symbol
 _atom_site_label
 _atom_site_symmetry_multiplicity
 _atom_site_fract_x
 _atom_site_fract_y
 _atom_site_fract_z
 _atom_site_occupancy
  Y  Y0  1  0.750763  0.099168  0.988489  1
  Y  Y1  1  0.099168  0.750763  0.488489  1
  Y  Y2  1  0.097467  0.248201  0.991607  1
  Y  Y3  1  0.248201  0.097467  0.491607  1
  Y  Y4  1  0.902533  0.751799  0.008393  1
  Y  Y5  1  0.900832  0.249237  0.511511  1
  Y  Y6  1  0.249237  0.900832  0.011511  1
  Y  Y7  1  0.751799  0.902533  0.508393  1
  Re  Re8  1  0.994625  0.005375  0.250000  1
  Re  Re9  1  0.005375  0.994625  0.750000  1
  Br  Br10  1  0.580613  0.182968  0.591477  1
  Br  Br11  1  0.810239  0.585105  0.406064  1
  Br  Br12  1  0.414895  0.189761  0.093936  1
  Br  Br13  1  0.189761  0.414895  0.593936  1
  Br  Br14  1  0.585105  0.810239  0.906064  1
  Br  Br15  1  0.419387  0.817032  0.408523  1
  Br  Br16  1  0.182968  0.580613  0.091477  1
  Br  Br17  1  0.817032  0.419387  0.908523  1
