# generated using pymatgen
data_TiGa3(SiRh5)2
_symmetry_space_group_name_H-M   'P 1'
_cell_length_a   4.09662100
_cell_length_b   5.35395274
_cell_length_c   10.20899724
_cell_angle_alpha   89.51580908
_cell_angle_beta   90.00000000
_cell_angle_gamma   90.00000000
_symmetry_Int_Tables_number   1
_chemical_formula_structural   TiGa3(SiRh5)2
_chemical_formula_sum   'Ti1 Ga3 Si2 Rh10'
_cell_volume   223.90711738
_cell_formula_units_Z   1
loop_
 _symmetry_equiv_pos_site_id
 _symmetry_equiv_pos_as_xyz
  1  'x, y, z'
loop_
 _atom_site_type_symbol
 _atom_site_label
 _atom_site_symmetry_multiplicity
 _atom_site_fract_x
 _atom_site_fract_y
 _atom_site_fract_z
 _atom_site_occupancy
  Ti  Ti0  1  0.500000  0.139819  0.641082  1
  Ga  Ga1  1  0.500000  0.864691  0.356426  1
  Ga  Ga2  1  0.500000  0.640871  0.856349  1
  Ga  Ga3  1  0.500000  0.368141  0.141393  1
  Si  Si4  1  0.000000  0.475992  0.501783  1
  Si  Si5  1  0.000000  0.998099  0.000741  1
  Rh  Rh6  1  0.500000  0.330294  0.394240  1
  Rh  Rh7  1  0.500000  0.663145  0.602753  1
  Rh  Rh8  1  0.500000  0.835160  0.104824  1
  Rh  Rh9  1  0.500000  0.171092  0.894670  1
  Rh  Rh10  1  0.000000  0.376633  0.730704  1
  Rh  Rh11  1  0.000000  0.629464  0.277435  1
  Rh  Rh12  1  0.000000  0.880753  0.773563  1
  Rh  Rh13  1  0.000000  0.131550  0.223382  1
  Rh  Rh14  1  0.000000  0.504145  0.000739  1
  Rh  Rh15  1  0.000000  0.990152  0.499917  1
