# generated using pymatgen
data_Ta2FeTe5
_symmetry_space_group_name_H-M   'P 1'
_cell_length_a   8.06293388
_cell_length_b   8.06293474
_cell_length_c   16.98373600
_cell_angle_alpha   90.00000000
_cell_angle_beta   90.00000000
_cell_angle_gamma   155.60937203
_symmetry_Int_Tables_number   1
_chemical_formula_structural   Ta2FeTe5
_chemical_formula_sum   'Ta4 Fe2 Te10'
_cell_volume   455.95573965
_cell_formula_units_Z   2
loop_
 _symmetry_equiv_pos_site_id
 _symmetry_equiv_pos_as_xyz
  1  'x, y, z'
loop_
 _atom_site_type_symbol
 _atom_site_label
 _atom_site_symmetry_multiplicity
 _atom_site_fract_x
 _atom_site_fract_y
 _atom_site_fract_z
 _atom_site_occupancy
  Ta  Ta0  1  0.220619  0.779381  0.117881  1
  Ta  Ta1  1  0.220619  0.779381  0.382119  1
  Ta  Ta2  1  0.779381  0.220619  0.882119  1
  Ta  Ta3  1  0.779381  0.220619  0.617881  1
  Fe  Fe4  1  0.704563  0.295437  0.250000  1
  Fe  Fe5  1  0.295437  0.704563  0.750000  1
  Te  Te6  1  0.586195  0.413805  0.144215  1
  Te  Te7  1  0.586195  0.413805  0.355785  1
  Te  Te8  1  0.413805  0.586195  0.855785  1
  Te  Te9  1  0.413805  0.586195  0.644215  1
  Te  Te10  1  0.155233  0.844767  0.953567  1
  Te  Te11  1  0.155233  0.844767  0.546433  1
  Te  Te12  1  0.844767  0.155233  0.046433  1
  Te  Te13  1  0.844767  0.155233  0.453567  1
  Te  Te14  1  0.328299  0.671701  0.250000  1
  Te  Te15  1  0.671701  0.328299  0.750000  1
