# generated using pymatgen
data_Zr13Ta4Nb3Si16
_symmetry_space_group_name_H-M   'P 1'
_cell_length_a   6.99432976
_cell_length_b   7.00141912
_cell_length_c   12.89818008
_cell_angle_alpha   90.21468726
_cell_angle_beta   90.22030911
_cell_angle_gamma   89.85112019
_symmetry_Int_Tables_number   1
_chemical_formula_structural   Zr13Ta4Nb3Si16
_chemical_formula_sum   'Zr13 Ta4 Nb3 Si16'
_cell_volume   631.61568616
_cell_formula_units_Z   1
loop_
 _symmetry_equiv_pos_site_id
 _symmetry_equiv_pos_as_xyz
  1  'x, y, z'
loop_
 _atom_site_type_symbol
 _atom_site_label
 _atom_site_symmetry_multiplicity
 _atom_site_fract_x
 _atom_site_fract_y
 _atom_site_fract_z
 _atom_site_occupancy
  Zr  Zr0  1  0.998953  0.851731  0.624845  1
  Zr  Zr1  1  0.648013  0.496010  0.877438  1
  Zr  Zr2  1  0.501559  0.351150  0.622268  1
  Zr  Zr3  1  0.500222  0.647123  0.124961  1
  Zr  Zr4  1  0.146324  0.000560  0.874521  1
  Zr  Zr5  1  0.001693  0.652814  0.035839  1
  Zr  Zr6  1  0.000477  0.346888  0.528649  1
  Zr  Zr7  1  0.652568  0.998535  0.970308  1
  Zr  Zr8  1  0.151024  0.497636  0.785381  1
  Zr  Zr9  1  0.846822  0.499105  0.281855  1
  Zr  Zr10  1  0.500756  0.154268  0.219774  1
  Zr  Zr11  1  0.500428  0.847496  0.713010  1
  Zr  Zr12  1  0.344689  0.000939  0.464841  1
  Ta  Ta13  1  0.672848  0.673178  0.497713  1
  Ta  Ta14  1  0.825636  0.173317  0.749742  1
  Ta  Ta15  1  0.172476  0.830449  0.251289  1
  Ta  Ta16  1  0.327102  0.324764  0.002239  1
  Nb  Nb17  1  0.351517  0.505074  0.374166  1
  Nb  Nb18  1  0.853105  0.995138  0.374182  1
  Nb  Nb19  1  0.008303  0.148074  0.127013  1
  Si  Si20  1  0.047658  0.700617  0.433756  1
  Si  Si21  1  0.954106  0.299308  0.939027  1
  Si  Si22  1  0.701091  0.048049  0.561063  1
  Si  Si23  1  0.201108  0.450773  0.187430  1
  Si  Si24  1  0.800950  0.545949  0.684898  1
  Si  Si25  1  0.453025  0.197293  0.814716  1
  Si  Si26  1  0.548653  0.798907  0.314954  1
  Si  Si27  1  0.299375  0.954377  0.066128  1
  Si  Si28  1  0.851312  0.797661  0.820390  1
  Si  Si29  1  0.137636  0.207564  0.322504  1
  Si  Si30  1  0.799197  0.864179  0.179789  1
  Si  Si31  1  0.296887  0.644127  0.566229  1
  Si  Si32  1  0.710039  0.352470  0.074766  1
  Si  Si33  1  0.640293  0.293885  0.424587  1
  Si  Si34  1  0.353950  0.702713  0.930740  1
  Si  Si35  1  0.200203  0.147877  0.678990  1
