# generated using pymatgen
data_Tm3LuZnPt3
_symmetry_space_group_name_H-M   'P 1'
_cell_length_a   4.52566600
_cell_length_b   5.50054403
_cell_length_c   6.93144510
_cell_angle_alpha   90.18295391
_cell_angle_beta   90.00000000
_cell_angle_gamma   90.00000000
_symmetry_Int_Tables_number   1
_chemical_formula_structural   Tm3LuZnPt3
_chemical_formula_sum   'Tm3 Lu1 Zn1 Pt3'
_cell_volume   172.54791602
_cell_formula_units_Z   1
loop_
 _symmetry_equiv_pos_site_id
 _symmetry_equiv_pos_as_xyz
  1  'x, y, z'
loop_
 _atom_site_type_symbol
 _atom_site_label
 _atom_site_symmetry_multiplicity
 _atom_site_fract_x
 _atom_site_fract_y
 _atom_site_fract_z
 _atom_site_occupancy
  Tm  Tm0  1  0.250000  0.642144  0.186350  1
  Tm  Tm1  1  0.750000  0.369442  0.808686  1
  Tm  Tm2  1  0.250000  0.848135  0.678130  1
  Lu  Lu3  1  0.750000  0.140546  0.328922  1
  Zn  Zn4  1  0.250000  0.139394  0.031833  1
  Pt  Pt5  1  0.750000  0.870322  0.970228  1
  Pt  Pt6  1  0.750000  0.656804  0.453011  1
  Pt  Pt7  1  0.250000  0.333213  0.542841  1
