# generated using pymatgen
data_HoTh3(CdPd2)2
_symmetry_space_group_name_H-M   'P 1'
_cell_length_a   7.89527670
_cell_length_b   7.89527670
_cell_length_c   3.81617000
_cell_angle_alpha   90.00000000
_cell_angle_beta   90.00000000
_cell_angle_gamma   90.57008082
_symmetry_Int_Tables_number   1
_chemical_formula_structural   HoTh3(CdPd2)2
_chemical_formula_sum   'Ho1 Th3 Cd2 Pd4'
_cell_volume   237.87068642
_cell_formula_units_Z   1
loop_
 _symmetry_equiv_pos_site_id
 _symmetry_equiv_pos_as_xyz
  1  'x, y, z'
loop_
 _atom_site_type_symbol
 _atom_site_label
 _atom_site_symmetry_multiplicity
 _atom_site_fract_x
 _atom_site_fract_y
 _atom_site_fract_z
 _atom_site_occupancy
  Ho  Ho0  1  0.825496  0.674504  0.500000  1
  Th  Th1  1  0.676371  0.172263  0.500000  1
  Th  Th2  1  0.327737  0.823629  0.500000  1
  Th  Th3  1  0.171043  0.328957  0.500000  1
  Cd  Cd4  1  0.997906  0.994961  0.000000  1
  Cd  Cd5  1  0.505039  0.502094  0.000000  1
  Pd  Pd6  1  0.127859  0.627933  0.000000  1
  Pd  Pd7  1  0.872067  0.372141  0.000000  1
  Pd  Pd8  1  0.625714  0.874286  0.000000  1
  Pd  Pd9  1  0.370767  0.129233  0.000000  1
