# generated using pymatgen
data_La2Zn19Cu3
_symmetry_space_group_name_H-M   'P 1'
_cell_length_a   8.22940010
_cell_length_b   8.22431238
_cell_length_c   8.22427072
_cell_angle_alpha   99.83069285
_cell_angle_beta   99.83340041
_cell_angle_gamma   131.14581173
_symmetry_Int_Tables_number   1
_chemical_formula_structural   La2Zn19Cu3
_chemical_formula_sum   'La2 Zn19 Cu3'
_cell_volume   381.75722835
_cell_formula_units_Z   1
loop_
 _symmetry_equiv_pos_site_id
 _symmetry_equiv_pos_as_xyz
  1  'x, y, z'
loop_
 _atom_site_type_symbol
 _atom_site_label
 _atom_site_symmetry_multiplicity
 _atom_site_fract_x
 _atom_site_fract_y
 _atom_site_fract_z
 _atom_site_occupancy
  La  La0  1  0.250871  0.749646  0.501232  1
  La  La1  1  0.999129  0.000354  0.998768  1
  Zn  Zn2  1  0.895644  0.569426  0.083104  1
  Zn  Zn3  1  0.430363  0.512057  0.325238  1
  Zn  Zn4  1  0.491691  0.571622  0.673734  1
  Zn  Zn5  1  0.430364  0.105125  0.918308  1
  Zn  Zn6  1  0.758309  0.178378  0.826266  1
  Zn  Zn7  1  0.491696  0.817958  0.920074  1
  Zn  Zn8  1  0.506059  0.502580  0.003484  1
  Zn  Zn9  1  0.758304  0.932042  0.579926  1
  Zn  Zn10  1  0.743941  0.247420  0.496516  1
  Zn  Zn11  1  0.062233  0.650325  0.828385  1
  Zn  Zn12  1  0.125000  0.375000  0.750000  1
  Zn  Zn13  1  0.354356  0.180574  0.416896  1
  Zn  Zn14  1  0.819636  0.644875  0.581692  1
  Zn  Zn15  1  0.895639  0.812540  0.326216  1
  Zn  Zn16  1  0.187767  0.099675  0.671615  1
  Zn  Zn17  1  0.062230  0.233847  0.411904  1
  Zn  Zn18  1  0.354361  0.937460  0.173784  1
  Zn  Zn19  1  0.819637  0.237943  0.174762  1
  Zn  Zn20  1  0.187770  0.516153  0.088096  1
  Cu  Cu21  1  0.625000  0.875000  0.250000  1
  Cu  Cu22  1  0.625000  0.375000  0.250000  1
  Cu  Cu23  1  0.625000  0.375000  0.750000  1
