# generated using pymatgen
data_DyEr2Hf(Co4P3)2
_symmetry_space_group_name_H-M   'P 1'
_cell_length_a   3.71085700
_cell_length_b   10.67013400
_cell_length_c   12.36922100
_cell_angle_alpha   90.00000000
_cell_angle_beta   90.00000000
_cell_angle_gamma   90.00000000
_symmetry_Int_Tables_number   1
_chemical_formula_structural   DyEr2Hf(Co4P3)2
_chemical_formula_sum   'Dy2 Er4 Hf2 Co16 P12'
_cell_volume   489.76352890
_cell_formula_units_Z   2
loop_
 _symmetry_equiv_pos_site_id
 _symmetry_equiv_pos_as_xyz
  1  'x, y, z'
loop_
 _atom_site_type_symbol
 _atom_site_label
 _atom_site_symmetry_multiplicity
 _atom_site_fract_x
 _atom_site_fract_y
 _atom_site_fract_z
 _atom_site_occupancy
  Dy  Dy0  1  0.750000  0.250000  0.470780  1
  Dy  Dy1  1  0.250000  0.750000  0.529220  1
  Er  Er2  1  0.250000  0.927806  0.795483  1
  Er  Er3  1  0.250000  0.572194  0.795483  1
  Er  Er4  1  0.750000  0.072194  0.204517  1
  Er  Er5  1  0.750000  0.427806  0.204517  1
  Hf  Hf6  1  0.250000  0.250000  0.842232  1
  Hf  Hf7  1  0.750000  0.750000  0.157768  1
  Co  Co8  1  0.250000  0.250000  0.296470  1
  Co  Co9  1  0.750000  0.750000  0.703530  1
  Co  Co10  1  0.750000  0.250000  0.013094  1
  Co  Co11  1  0.250000  0.750000  0.986906  1
  Co  Co12  1  0.250000  0.417985  0.006549  1
  Co  Co13  1  0.250000  0.082015  0.006549  1
  Co  Co14  1  0.750000  0.582015  0.993451  1
  Co  Co15  1  0.750000  0.917985  0.993451  1
  Co  Co16  1  0.250000  0.454900  0.567034  1
  Co  Co17  1  0.250000  0.045100  0.567034  1
  Co  Co18  1  0.750000  0.545100  0.432966  1
  Co  Co19  1  0.750000  0.954900  0.432966  1
  Co  Co20  1  0.250000  0.872623  0.297103  1
  Co  Co21  1  0.250000  0.627377  0.297103  1
  Co  Co22  1  0.750000  0.127377  0.702897  1
  Co  Co23  1  0.750000  0.372623  0.702897  1
  P  P24  1  0.250000  0.250000  0.116806  1
  P  P25  1  0.750000  0.750000  0.883194  1
  P  P26  1  0.250000  0.250000  0.637569  1
  P  P27  1  0.750000  0.750000  0.362431  1
  P  P28  1  0.250000  0.439566  0.383893  1
  P  P29  1  0.250000  0.060434  0.383893  1
  P  P30  1  0.750000  0.560434  0.616107  1
  P  P31  1  0.750000  0.939566  0.616107  1
  P  P32  1  0.250000  0.912027  0.107636  1
  P  P33  1  0.250000  0.587973  0.107636  1
  P  P34  1  0.750000  0.087973  0.892364  1
  P  P35  1  0.750000  0.412027  0.892364  1
