# generated using pymatgen
data_Hf18Cr2FeRe6Ni
_symmetry_space_group_name_H-M   'P 1'
_cell_length_a   8.56957400
_cell_length_b   8.56957419
_cell_length_c   8.35066300
_cell_angle_alpha   90.00000000
_cell_angle_beta   90.00000000
_cell_angle_gamma   119.99999928
_symmetry_Int_Tables_number   1
_chemical_formula_structural   Hf18Cr2FeRe6Ni
_chemical_formula_sum   'Hf18 Cr2 Fe1 Re6 Ni1'
_cell_volume   531.09237802
_cell_formula_units_Z   1
loop_
 _symmetry_equiv_pos_site_id
 _symmetry_equiv_pos_as_xyz
  1  'x, y, z'
loop_
 _atom_site_type_symbol
 _atom_site_label
 _atom_site_symmetry_multiplicity
 _atom_site_fract_x
 _atom_site_fract_y
 _atom_site_fract_z
 _atom_site_occupancy
  Hf  Hf0  1  0.199557  0.800443  0.442001  1
  Hf  Hf1  1  0.199557  0.399114  0.442001  1
  Hf  Hf2  1  0.600886  0.800443  0.442001  1
  Hf  Hf3  1  0.803494  0.196506  0.556673  1
  Hf  Hf4  1  0.803494  0.606988  0.556673  1
  Hf  Hf5  1  0.393012  0.196506  0.556673  1
  Hf  Hf6  1  0.803494  0.196506  0.943327  1
  Hf  Hf7  1  0.803494  0.606988  0.943327  1
  Hf  Hf8  1  0.393012  0.196506  0.943327  1
  Hf  Hf9  1  0.199557  0.800443  0.057999  1
  Hf  Hf10  1  0.199557  0.399114  0.057999  1
  Hf  Hf11  1  0.600886  0.800443  0.057999  1
  Hf  Hf12  1  0.540663  0.459337  0.250000  1
  Hf  Hf13  1  0.540663  0.081326  0.250000  1
  Hf  Hf14  1  0.918674  0.459337  0.250000  1
  Hf  Hf15  1  0.458627  0.541373  0.750000  1
  Hf  Hf16  1  0.458627  0.917255  0.750000  1
  Hf  Hf17  1  0.082745  0.541373  0.750000  1
  Cr  Cr18  1  0.000000  0.000000  0.498624  1
  Cr  Cr19  1  0.000000  0.000000  0.001376  1
  Fe  Fe20  1  0.333333  0.666667  0.250000  1
  Re  Re21  1  0.891390  0.108610  0.250000  1
  Re  Re22  1  0.891390  0.782778  0.250000  1
  Re  Re23  1  0.217222  0.108610  0.250000  1
  Re  Re24  1  0.108783  0.891217  0.750000  1
  Re  Re25  1  0.108783  0.217568  0.750000  1
  Re  Re26  1  0.782432  0.891217  0.750000  1
  Ni  Ni27  1  0.666667  0.333333  0.750000  1
