# generated using pymatgen
data_Er6CrP12Rh17
_symmetry_space_group_name_H-M   'P 1'
_cell_length_a   3.90029500
_cell_length_b   11.18521100
_cell_length_c   12.72948300
_cell_angle_alpha   90.00000000
_cell_angle_beta   90.00000000
_cell_angle_gamma   90.00000000
_symmetry_Int_Tables_number   1
_chemical_formula_structural   Er6CrP12Rh17
_chemical_formula_sum   'Er6 Cr1 P12 Rh17'
_cell_volume   555.33162045
_cell_formula_units_Z   1
loop_
 _symmetry_equiv_pos_site_id
 _symmetry_equiv_pos_as_xyz
  1  'x, y, z'
loop_
 _atom_site_type_symbol
 _atom_site_label
 _atom_site_symmetry_multiplicity
 _atom_site_fract_x
 _atom_site_fract_y
 _atom_site_fract_z
 _atom_site_occupancy
  Er  Er0  1  0.750000  0.250000  0.480299  1
  Er  Er1  1  0.250000  0.750000  0.520630  1
  Er  Er2  1  0.250000  0.935120  0.794422  1
  Er  Er3  1  0.250000  0.564880  0.794422  1
  Er  Er4  1  0.750000  0.066690  0.203412  1
  Er  Er5  1  0.750000  0.433310  0.203412  1
  Cr  Cr6  1  0.250000  0.250000  0.837890  1
  P  P7  1  0.250000  0.250000  0.122414  1
  P  P8  1  0.750000  0.750000  0.876969  1
  P  P9  1  0.250000  0.250000  0.653499  1
  P  P10  1  0.750000  0.750000  0.351906  1
  P  P11  1  0.250000  0.433732  0.381443  1
  P  P12  1  0.250000  0.066268  0.381443  1
  P  P13  1  0.750000  0.564491  0.618613  1
  P  P14  1  0.750000  0.935509  0.618613  1
  P  P15  1  0.250000  0.902730  0.108810  1
  P  P16  1  0.250000  0.597270  0.108810  1
  P  P17  1  0.750000  0.096341  0.890928  1
  P  P18  1  0.750000  0.403659  0.890928  1
  Rh  Rh19  1  0.750000  0.750000  0.168361  1
  Rh  Rh20  1  0.250000  0.250000  0.300229  1
  Rh  Rh21  1  0.750000  0.750000  0.699753  1
  Rh  Rh22  1  0.750000  0.250000  0.015171  1
  Rh  Rh23  1  0.250000  0.750000  0.977816  1
  Rh  Rh24  1  0.250000  0.416636  0.007783  1
  Rh  Rh25  1  0.250000  0.083364  0.007783  1
  Rh  Rh26  1  0.750000  0.583728  0.991024  1
  Rh  Rh27  1  0.750000  0.916272  0.991024  1
  Rh  Rh28  1  0.250000  0.456417  0.568693  1
  Rh  Rh29  1  0.250000  0.043583  0.568693  1
  Rh  Rh30  1  0.750000  0.544907  0.431090  1
  Rh  Rh31  1  0.750000  0.955093  0.431090  1
  Rh  Rh32  1  0.250000  0.878221  0.289941  1
  Rh  Rh33  1  0.250000  0.621779  0.289941  1
  Rh  Rh34  1  0.750000  0.124392  0.711373  1
  Rh  Rh35  1  0.750000  0.375608  0.711373  1
