# generated using pymatgen
data_RbLi6BiO6
_symmetry_space_group_name_H-M   'P 1'
_cell_length_a   5.53685066
_cell_length_b   5.53685077
_cell_length_c   5.53685120
_cell_angle_alpha   101.55753690
_cell_angle_beta   101.55754345
_cell_angle_gamma   101.55753601
_symmetry_Int_Tables_number   1
_chemical_formula_structural   RbLi6BiO6
_chemical_formula_sum   'Rb1 Li6 Bi1 O6'
_cell_volume   157.73127775
_cell_formula_units_Z   1
loop_
 _symmetry_equiv_pos_site_id
 _symmetry_equiv_pos_as_xyz
  1  'x, y, z'
loop_
 _atom_site_type_symbol
 _atom_site_label
 _atom_site_symmetry_multiplicity
 _atom_site_fract_x
 _atom_site_fract_y
 _atom_site_fract_z
 _atom_site_occupancy
  Rb  Rb0  1  0.500000  0.500000  0.500000  1
  Li  Li1  1  0.000000  0.343573  0.656427  1
  Li  Li2  1  0.656427  0.000000  0.343573  1
  Li  Li3  1  0.656427  0.343573  0.000000  1
  Li  Li4  1  0.343573  0.000000  0.656427  1
  Li  Li5  1  0.000000  0.656427  0.343573  1
  Li  Li6  1  0.343573  0.656427  0.000000  1
  Bi  Bi7  1  0.000000  0.000000  0.000000  1
  O  O8  1  0.279485  0.906765  0.279485  1
  O  O9  1  0.906765  0.279485  0.279485  1
  O  O10  1  0.720515  0.720515  0.093235  1
  O  O11  1  0.720515  0.093235  0.720515  1
  O  O12  1  0.093235  0.720515  0.720515  1
  O  O13  1  0.279485  0.279485  0.906765  1
