# generated using pymatgen
data_Y4AlRu7
_symmetry_space_group_name_H-M   'P 1'
_cell_length_a   5.39318300
_cell_length_b   5.39318370
_cell_length_c   8.61760300
_cell_angle_alpha   90.00000000
_cell_angle_beta   90.00000000
_cell_angle_gamma   120.00000187
_symmetry_Int_Tables_number   1
_chemical_formula_structural   Y4AlRu7
_chemical_formula_sum   'Y4 Al1 Ru7'
_cell_volume   217.07383368
_cell_formula_units_Z   1
loop_
 _symmetry_equiv_pos_site_id
 _symmetry_equiv_pos_as_xyz
  1  'x, y, z'
loop_
 _atom_site_type_symbol
 _atom_site_label
 _atom_site_symmetry_multiplicity
 _atom_site_fract_x
 _atom_site_fract_y
 _atom_site_fract_z
 _atom_site_occupancy
  Y  Y0  1  0.333333  0.666667  0.436188  1
  Y  Y1  1  0.666667  0.333333  0.563812  1
  Y  Y2  1  0.666667  0.333333  0.930094  1
  Y  Y3  1  0.333333  0.666667  0.069906  1
  Al  Al4  1  0.000000  0.000000  0.000000  1
  Ru  Ru5  1  0.171116  0.342232  0.751126  1
  Ru  Ru6  1  0.171116  0.828884  0.751126  1
  Ru  Ru7  1  0.342232  0.171116  0.248874  1
  Ru  Ru8  1  0.828884  0.657768  0.248874  1
  Ru  Ru9  1  0.657768  0.828884  0.751126  1
  Ru  Ru10  1  0.828884  0.171116  0.248874  1
  Ru  Ru11  1  0.000000  0.000000  0.500000  1
