# generated using pymatgen
data_Dy2Y8Cd3Os
_symmetry_space_group_name_H-M   'P 1'
_cell_length_a   9.63841804
_cell_length_b   9.63841747
_cell_length_c   9.90432243
_cell_angle_alpha   90.05330705
_cell_angle_beta   89.94669369
_cell_angle_gamma   119.99940052
_symmetry_Int_Tables_number   1
_chemical_formula_structural   Dy2Y8Cd3Os
_chemical_formula_sum   'Dy4 Y16 Cd6 Os2'
_cell_volume   796.83658639
_cell_formula_units_Z   2
loop_
 _symmetry_equiv_pos_site_id
 _symmetry_equiv_pos_as_xyz
  1  'x, y, z'
loop_
 _atom_site_type_symbol
 _atom_site_label
 _atom_site_symmetry_multiplicity
 _atom_site_fract_x
 _atom_site_fract_y
 _atom_site_fract_z
 _atom_site_occupancy
  Dy  Dy0  1  0.209917  0.790083  0.440235  1
  Dy  Dy1  1  0.209761  0.419876  0.440285  1
  Dy  Dy2  1  0.580124  0.790239  0.440285  1
  Dy  Dy3  1  0.790075  0.209925  0.559949  1
  Y  Y4  1  0.999836  0.000164  0.499796  1
  Y  Y5  1  0.000007  0.999993  0.000142  1
  Y  Y6  1  0.790529  0.580938  0.559266  1
  Y  Y7  1  0.419062  0.209471  0.559266  1
  Y  Y8  1  0.790467  0.209533  0.940444  1
  Y  Y9  1  0.790268  0.580644  0.940425  1
  Y  Y10  1  0.419356  0.209732  0.940425  1
  Y  Y11  1  0.209651  0.790349  0.059673  1
  Y  Y12  1  0.209598  0.419257  0.059618  1
  Y  Y13  1  0.580743  0.790402  0.059618  1
  Y  Y14  1  0.540014  0.459986  0.250172  1
  Y  Y15  1  0.540104  0.080152  0.250342  1
  Y  Y16  1  0.919848  0.459896  0.250342  1
  Y  Y17  1  0.459757  0.540243  0.749738  1
  Y  Y18  1  0.459924  0.919708  0.749631  1
  Y  Y19  1  0.080292  0.540076  0.749631  1
  Cd  Cd20  1  0.885495  0.114505  0.249845  1
  Cd  Cd21  1  0.885499  0.770929  0.249913  1
  Cd  Cd22  1  0.229071  0.114501  0.249913  1
  Cd  Cd23  1  0.114539  0.885461  0.750050  1
  Cd  Cd24  1  0.114578  0.229095  0.750142  1
  Cd  Cd25  1  0.770905  0.885422  0.750142  1
  Os  Os26  1  0.333391  0.666609  0.251327  1
  Os  Os27  1  0.667186  0.332814  0.749385  1
