# generated using pymatgen
data_YErMn2Co10P7
_symmetry_space_group_name_H-M   'P 1'
_cell_length_a   9.04466309
_cell_length_b   9.02889639
_cell_length_c   3.59583300
_cell_angle_alpha   90.00000000
_cell_angle_beta   90.00000000
_cell_angle_gamma   120.00695553
_symmetry_Int_Tables_number   1
_chemical_formula_structural   YErMn2Co10P7
_chemical_formula_sum   'Y1 Er1 Mn2 Co10 P7'
_cell_volume   254.28852658
_cell_formula_units_Z   1
loop_
 _symmetry_equiv_pos_site_id
 _symmetry_equiv_pos_as_xyz
  1  'x, y, z'
loop_
 _atom_site_type_symbol
 _atom_site_label
 _atom_site_symmetry_multiplicity
 _atom_site_fract_x
 _atom_site_fract_y
 _atom_site_fract_z
 _atom_site_occupancy
  Y  Y0  1  0.332598  0.664447  0.000000  1
  Er  Er1  1  0.999628  0.999778  0.500000  1
  Mn  Mn2  1  0.767921  0.554398  0.500000  1
  Mn  Mn3  1  0.446311  0.213319  0.500000  1
  Co  Co4  1  0.034285  0.272074  0.000000  1
  Co  Co5  1  0.728272  0.764789  0.000000  1
  Co  Co6  1  0.235855  0.963902  0.000000  1
  Co  Co7  1  0.549852  0.058496  0.000000  1
  Co  Co8  1  0.941502  0.490094  0.000000  1
  Co  Co9  1  0.508060  0.449101  0.000000  1
  Co  Co10  1  0.618791  0.899094  0.500000  1
  Co  Co11  1  0.102816  0.718868  0.500000  1
  Co  Co12  1  0.278736  0.382105  0.500000  1
  Co  Co13  1  0.791426  0.239764  0.500000  1
  P  P14  1  0.779162  0.035235  0.000000  1
  P  P15  1  0.966192  0.745449  0.000000  1
  P  P16  1  0.252704  0.220326  0.000000  1
  P  P17  1  0.376804  0.926177  0.500000  1
  P  P18  1  0.067994  0.446358  0.500000  1
  P  P19  1  0.552893  0.622476  0.500000  1
  P  P20  1  0.668197  0.333753  0.000000  1
