# generated using pymatgen
data_Ce5Bi3Ir
_symmetry_space_group_name_H-M   'P 1'
_cell_length_a   6.55822704
_cell_length_b   9.62270584
_cell_length_c   9.63472456
_cell_angle_alpha   119.95874362
_cell_angle_beta   90.00610780
_cell_angle_gamma   89.98777276
_symmetry_Int_Tables_number   1
_chemical_formula_structural   Ce5Bi3Ir
_chemical_formula_sum   'Ce10 Bi6 Ir2'
_cell_volume   526.78570330
_cell_formula_units_Z   2
loop_
 _symmetry_equiv_pos_site_id
 _symmetry_equiv_pos_as_xyz
  1  'x, y, z'
loop_
 _atom_site_type_symbol
 _atom_site_label
 _atom_site_symmetry_multiplicity
 _atom_site_fract_x
 _atom_site_fract_y
 _atom_site_fract_z
 _atom_site_occupancy
  Ce  Ce0  1  0.500019  0.333531  0.666844  1
  Ce  Ce1  1  0.500019  0.666687  0.333156  1
  Ce  Ce2  1  0.999999  0.666681  0.333180  1
  Ce  Ce3  1  0.999999  0.333501  0.666820  1
  Ce  Ce4  1  0.750099  0.241856  0.000000  1
  Ce  Ce5  1  0.750089  0.758015  0.758137  1
  Ce  Ce6  1  0.750089  0.999878  0.241863  1
  Ce  Ce7  1  0.249897  0.758049  0.000000  1
  Ce  Ce8  1  0.249903  0.241841  0.241753  1
  Ce  Ce9  1  0.249903  0.000088  0.758247  1
  Bi  Bi10  1  0.750168  0.606070  0.000000  1
  Bi  Bi11  1  0.750168  0.393928  0.393928  1
  Bi  Bi12  1  0.750168  0.000001  0.606072  1
  Bi  Bi13  1  0.249822  0.394136  0.000000  1
  Bi  Bi14  1  0.249825  0.606130  0.606108  1
  Bi  Bi15  1  0.249825  0.000021  0.393892  1
  Ir  Ir16  1  0.500129  0.999791  0.000000  1
  Ir  Ir17  1  0.999881  0.999797  0.000000  1
