# generated using pymatgen
data_NaSr21(Ga4Sn3)2
_symmetry_space_group_name_H-M   'P 1'
_cell_length_a   12.18839054
_cell_length_b   12.18839126
_cell_length_c   12.18839100
_cell_angle_alpha   60.00000343
_cell_angle_beta   60.00000148
_cell_angle_gamma   59.99999980
_symmetry_Int_Tables_number   1
_chemical_formula_structural   NaSr21(Ga4Sn3)2
_chemical_formula_sum   'Na1 Sr21 Ga8 Sn6'
_cell_volume   1280.33655203
_cell_formula_units_Z   1
loop_
 _symmetry_equiv_pos_site_id
 _symmetry_equiv_pos_as_xyz
  1  'x, y, z'
loop_
 _atom_site_type_symbol
 _atom_site_label
 _atom_site_symmetry_multiplicity
 _atom_site_fract_x
 _atom_site_fract_y
 _atom_site_fract_z
 _atom_site_occupancy
  Na  Na0  1  0.500000  0.500000  0.500000  1
  Sr  Sr1  1  0.869464  0.869464  0.391607  1
  Sr  Sr2  1  0.608393  0.130536  0.130536  1
  Sr  Sr3  1  0.869464  0.391607  0.869464  1
  Sr  Sr4  1  0.130536  0.130536  0.130536  1
  Sr  Sr5  1  0.391607  0.869464  0.869464  1
  Sr  Sr6  1  0.869464  0.869464  0.869464  1
  Sr  Sr7  1  0.168109  0.831891  0.500000  1
  Sr  Sr8  1  0.831891  0.500000  0.500000  1
  Sr  Sr9  1  0.130536  0.130536  0.608393  1
  Sr  Sr10  1  0.831891  0.168109  0.500000  1
  Sr  Sr11  1  0.168109  0.500000  0.500000  1
  Sr  Sr12  1  0.130536  0.608393  0.130536  1
  Sr  Sr13  1  0.500000  0.500000  0.168109  1
  Sr  Sr14  1  0.500000  0.168109  0.831891  1
  Sr  Sr15  1  0.500000  0.831891  0.168109  1
  Sr  Sr16  1  0.500000  0.500000  0.831891  1
  Sr  Sr17  1  0.500000  0.168109  0.500000  1
  Sr  Sr18  1  0.168109  0.500000  0.831891  1
  Sr  Sr19  1  0.000000  0.000000  0.000000  1
  Sr  Sr20  1  0.500000  0.831891  0.500000  1
  Sr  Sr21  1  0.831891  0.500000  0.168109  1
  Ga  Ga22  1  0.693702  0.918894  0.693702  1
  Ga  Ga23  1  0.693702  0.693702  0.918894  1
  Ga  Ga24  1  0.693702  0.693702  0.693702  1
  Ga  Ga25  1  0.306298  0.081106  0.306298  1
  Ga  Ga26  1  0.918894  0.693702  0.693702  1
  Ga  Ga27  1  0.306298  0.306298  0.081106  1
  Ga  Ga28  1  0.081106  0.306298  0.306298  1
  Ga  Ga29  1  0.306298  0.306298  0.306298  1
  Sn  Sn30  1  0.783654  0.216346  0.783654  1
  Sn  Sn31  1  0.783654  0.216346  0.216346  1
  Sn  Sn32  1  0.216346  0.783654  0.216346  1
  Sn  Sn33  1  0.216346  0.783654  0.783654  1
  Sn  Sn34  1  0.783654  0.783654  0.216346  1
  Sn  Sn35  1  0.216346  0.216346  0.783654  1
