# generated using pymatgen
data_Tb5Y3(Sc3Si4)4
_symmetry_space_group_name_H-M   'P 1'
_cell_length_a   7.10585115
_cell_length_b   7.40098711
_cell_length_c   14.03266747
_cell_angle_alpha   89.98109186
_cell_angle_beta   89.97728077
_cell_angle_gamma   90.00701257
_symmetry_Int_Tables_number   1
_chemical_formula_structural   Tb5Y3(Sc3Si4)4
_chemical_formula_sum   'Tb5 Y3 Sc12 Si16'
_cell_volume   737.98226806
_cell_formula_units_Z   1
loop_
 _symmetry_equiv_pos_site_id
 _symmetry_equiv_pos_as_xyz
  1  'x, y, z'
loop_
 _atom_site_type_symbol
 _atom_site_label
 _atom_site_symmetry_multiplicity
 _atom_site_fract_x
 _atom_site_fract_y
 _atom_site_fract_z
 _atom_site_occupancy
  Tb  Tb0  1  0.988055  0.825202  0.597318  1
  Tb  Tb1  1  0.511972  0.325161  0.097277  1
  Tb  Tb2  1  0.011990  0.174838  0.402749  1
  Tb  Tb3  1  0.511943  0.325252  0.402600  1
  Tb  Tb4  1  0.488022  0.674813  0.597331  1
  Y  Y5  1  0.011820  0.174910  0.097258  1
  Y  Y6  1  0.988147  0.824988  0.902661  1
  Y  Y7  1  0.488114  0.674852  0.902679  1
  Sc  Sc8  1  0.160629  0.502097  0.750049  1
  Sc  Sc9  1  0.839328  0.497867  0.249994  1
  Sc  Sc10  1  0.339403  0.002314  0.250026  1
  Sc  Sc11  1  0.660586  0.997732  0.749981  1
  Sc  Sc12  1  0.330469  0.176490  0.625388  1
  Sc  Sc13  1  0.669468  0.823475  0.374675  1
  Sc  Sc14  1  0.169441  0.676386  0.374692  1
  Sc  Sc15  1  0.669537  0.823418  0.125298  1
  Sc  Sc16  1  0.830548  0.323521  0.625358  1
  Sc  Sc17  1  0.330508  0.176528  0.874742  1
  Sc  Sc18  1  0.830640  0.323458  0.874652  1
  Sc  Sc19  1  0.169417  0.676625  0.125287  1
  Si  Si20  1  0.033182  0.118824  0.749993  1
  Si  Si21  1  0.966763  0.881187  0.249946  1
  Si  Si22  1  0.466828  0.618874  0.249940  1
  Si  Si23  1  0.533223  0.381201  0.750026  1
  Si  Si24  1  0.285810  0.875157  0.750136  1
  Si  Si25  1  0.714282  0.124793  0.249898  1
  Si  Si26  1  0.214148  0.375277  0.249993  1
  Si  Si27  1  0.785647  0.624821  0.750105  1
  Si  Si28  1  0.156462  0.464470  0.539370  1
  Si  Si29  1  0.843490  0.535531  0.460646  1
  Si  Si30  1  0.343624  0.964479  0.460676  1
  Si  Si31  1  0.843501  0.535656  0.039415  1
  Si  Si32  1  0.656390  0.035606  0.539348  1
  Si  Si33  1  0.156576  0.464352  0.960569  1
  Si  Si34  1  0.656685  0.035534  0.960561  1
  Si  Si35  1  0.343353  0.964310  0.039363  1
