# generated using pymatgen
data_Dy3Hf(Al8Pt3)3
_symmetry_space_group_name_H-M   'P 1'
_cell_length_a   7.52748849
_cell_length_b   7.53419120
_cell_length_c   13.08822191
_cell_angle_alpha   84.53216069
_cell_angle_beta   79.00138339
_cell_angle_gamma   59.88902742
_symmetry_Int_Tables_number   1
_chemical_formula_structural   Dy3Hf(Al8Pt3)3
_chemical_formula_sum   'Dy3 Hf1 Al24 Pt9'
_cell_volume   630.31820363
_cell_formula_units_Z   1
loop_
 _symmetry_equiv_pos_site_id
 _symmetry_equiv_pos_as_xyz
  1  'x, y, z'
loop_
 _atom_site_type_symbol
 _atom_site_label
 _atom_site_symmetry_multiplicity
 _atom_site_fract_x
 _atom_site_fract_y
 _atom_site_fract_z
 _atom_site_occupancy
  Dy  Dy0  1  0.606490  0.831998  0.191760  1
  Dy  Dy1  1  0.733930  0.498684  0.807759  1
  Dy  Dy2  1  0.266652  0.501108  0.191985  1
  Hf  Hf3  1  0.393752  0.168262  0.807374  1
  Al  Al4  1  0.681582  0.836957  0.941509  1
  Al  Al5  1  0.316446  0.166404  0.053688  1
  Al  Al6  1  0.146453  0.832814  0.562451  1
  Al  Al7  1  0.853094  0.167224  0.438398  1
  Al  Al8  1  0.480042  0.166771  0.560373  1
  Al  Al9  1  0.519341  0.833851  0.441406  1
  Al  Al10  1  0.217059  0.165368  0.330146  1
  Al  Al11  1  0.780134  0.836568  0.672965  1
  Al  Al12  1  0.436000  0.504962  0.673256  1
  Al  Al13  1  0.562388  0.493554  0.329603  1
  Al  Al14  1  0.110838  0.159529  0.672254  1
  Al  Al15  1  0.890175  0.839844  0.330789  1
  Al  Al16  1  0.354006  0.495953  0.941509  1
  Al  Al17  1  0.647698  0.500144  0.055369  1
  Al  Al18  1  0.019286  0.167941  0.949985  1
  Al  Al19  1  0.984761  0.832640  0.046516  1
  Al  Al20  1  0.186697  0.499142  0.441446  1
  Al  Al21  1  0.813716  0.500409  0.559148  1
  Al  Al22  1  0.734009  0.163926  0.183590  1
  Al  Al23  1  0.265573  0.841847  0.816408  1
  Al  Al24  1  0.066613  0.626305  0.815102  1
  Al  Al25  1  0.939083  0.368437  0.184538  1
  Al  Al26  1  0.850261  0.041340  0.815706  1
  Al  Al27  1  0.144808  0.958597  0.183849  1
  Pt  Pt28  1  0.120756  0.489753  0.639781  1
  Pt  Pt29  1  0.879035  0.508547  0.361717  1
  Pt  Pt30  1  0.657284  0.171844  0.998789  1
  Pt  Pt31  1  0.343830  0.827889  0.999086  1
  Pt  Pt32  1  0.537281  0.166675  0.361790  1
  Pt  Pt33  1  0.463303  0.833668  0.639663  1
  Pt  Pt34  1  0.777078  0.176406  0.638308  1
  Pt  Pt35  1  0.220751  0.824565  0.363217  1
  Pt  Pt36  1  0.999796  0.500073  0.998767  1
