# generated using pymatgen
data_Er3Sc(Si4Tc3)2
_symmetry_space_group_name_H-M   'P 1'
_cell_length_a   6.72871131
_cell_length_b   6.67798251
_cell_length_c   6.73146900
_cell_angle_alpha   70.02962123
_cell_angle_beta   89.94317008
_cell_angle_gamma   90.02190237
_symmetry_Int_Tables_number   1
_chemical_formula_structural   Er3Sc(Si4Tc3)2
_chemical_formula_sum   'Er3 Sc1 Si8 Tc6'
_cell_volume   284.28513569
_cell_formula_units_Z   1
loop_
 _symmetry_equiv_pos_site_id
 _symmetry_equiv_pos_as_xyz
  1  'x, y, z'
loop_
 _atom_site_type_symbol
 _atom_site_label
 _atom_site_symmetry_multiplicity
 _atom_site_fract_x
 _atom_site_fract_y
 _atom_site_fract_z
 _atom_site_occupancy
  Er  Er0  1  0.832530  0.941408  0.191919  1
  Er  Er1  1  0.666270  0.443530  0.189387  1
  Er  Er2  1  0.168108  0.056784  0.809063  1
  Sc  Sc3  1  0.329583  0.558098  0.804684  1
  Si  Si4  1  0.548854  0.873616  0.896487  1
  Si  Si5  1  0.053092  0.621815  0.099180  1
  Si  Si6  1  0.449375  0.126226  0.099070  1
  Si  Si7  1  0.954065  0.377357  0.897604  1
  Si  Si8  1  0.143232  0.863720  0.491666  1
  Si  Si9  1  0.637189  0.632665  0.515031  1
  Si  Si10  1  0.858425  0.133088  0.512837  1
  Si  Si11  1  0.358553  0.369976  0.490950  1
  Tc  Tc12  1  0.499355  0.997429  0.502088  1
  Tc  Tc13  1  0.001671  0.499839  0.501326  1
  Tc  Tc14  1  0.851071  0.756412  0.762110  1
  Tc  Tc15  1  0.349336  0.744370  0.236228  1
  Tc  Tc16  1  0.151923  0.242283  0.237434  1
  Tc  Tc17  1  0.647367  0.261386  0.762935  1
