# generated using pymatgen
data_DyY3Si4Ir3Os
_symmetry_space_group_name_H-M   'P 1'
_cell_length_a   4.26817200
_cell_length_b   6.89408808
_cell_length_c   7.38531390
_cell_angle_alpha   89.86773326
_cell_angle_beta   90.00000000
_cell_angle_gamma   90.00000000
_symmetry_Int_Tables_number   1
_chemical_formula_structural   DyY3Si4Ir3Os
_chemical_formula_sum   'Dy1 Y3 Si4 Ir3 Os1'
_cell_volume   217.31341781
_cell_formula_units_Z   1
loop_
 _symmetry_equiv_pos_site_id
 _symmetry_equiv_pos_as_xyz
  1  'x, y, z'
loop_
 _atom_site_type_symbol
 _atom_site_label
 _atom_site_symmetry_multiplicity
 _atom_site_fract_x
 _atom_site_fract_y
 _atom_site_fract_z
 _atom_site_occupancy
  Dy  Dy0  1  0.750000  0.000690  0.685327  1
  Y  Y1  1  0.250000  0.001036  0.315105  1
  Y  Y2  1  0.250000  0.495533  0.186618  1
  Y  Y3  1  0.750000  0.501884  0.813034  1
  Si  Si4  1  0.250000  0.300000  0.616728  1
  Si  Si5  1  0.250000  0.802699  0.891402  1
  Si  Si6  1  0.750000  0.699519  0.388041  1
  Si  Si7  1  0.750000  0.199482  0.103023  1
  Ir  Ir8  1  0.250000  0.658575  0.564637  1
  Ir  Ir9  1  0.750000  0.842075  0.066165  1
  Ir  Ir10  1  0.750000  0.342860  0.435949  1
  Os  Os11  1  0.250000  0.155647  0.933971  1
