# generated using pymatgen
data_LiNd16In3Ru4
_symmetry_space_group_name_H-M   'P 1'
_cell_length_a   9.95680415
_cell_length_b   9.95680288
_cell_length_c   9.95680312
_cell_angle_alpha   59.71971191
_cell_angle_beta   59.71970960
_cell_angle_gamma   59.71970980
_symmetry_Int_Tables_number   1
_chemical_formula_structural   LiNd16In3Ru4
_chemical_formula_sum   'Li1 Nd16 In3 Ru4'
_cell_volume   693.53957936
_cell_formula_units_Z   1
loop_
 _symmetry_equiv_pos_site_id
 _symmetry_equiv_pos_as_xyz
  1  'x, y, z'
loop_
 _atom_site_type_symbol
 _atom_site_label
 _atom_site_symmetry_multiplicity
 _atom_site_fract_x
 _atom_site_fract_y
 _atom_site_fract_z
 _atom_site_occupancy
  Li  Li0  1  0.320630  0.320630  0.320630  1
  Nd  Nd1  1  0.096313  0.710383  0.096313  1
  Nd  Nd2  1  0.943798  0.943798  0.557635  1
  Nd  Nd3  1  0.943798  0.557635  0.943798  1
  Nd  Nd4  1  0.310142  0.689434  0.310142  1
  Nd  Nd5  1  0.938606  0.560856  0.560856  1
  Nd  Nd6  1  0.310142  0.310142  0.689434  1
  Nd  Nd7  1  0.097436  0.097436  0.097436  1
  Nd  Nd8  1  0.560856  0.560856  0.938606  1
  Nd  Nd9  1  0.096313  0.096313  0.710383  1
  Nd  Nd10  1  0.690609  0.309784  0.690609  1
  Nd  Nd11  1  0.690609  0.690609  0.309784  1
  Nd  Nd12  1  0.689434  0.310142  0.310142  1
  Nd  Nd13  1  0.309784  0.690609  0.690609  1
  Nd  Nd14  1  0.560856  0.938606  0.560856  1
  Nd  Nd15  1  0.710383  0.096313  0.096313  1
  Nd  Nd16  1  0.557635  0.943798  0.943798  1
  In  In17  1  0.008295  0.331009  0.331009  1
  In  In18  1  0.331009  0.008295  0.331009  1
  In  In19  1  0.331009  0.331009  0.008295  1
  Ru  Ru20  1  0.889051  0.889051  0.889051  1
  Ru  Ru21  1  0.888906  0.888906  0.335482  1
  Ru  Ru22  1  0.335482  0.888906  0.888906  1
  Ru  Ru23  1  0.888906  0.335482  0.888906  1
