# generated using pymatgen
data_LiHo9(Bi3C)2
_symmetry_space_group_name_H-M   'P 1'
_cell_length_a   6.43851300
_cell_length_b   9.05292699
_cell_length_c   9.05272801
_cell_angle_alpha   120.00103464
_cell_angle_beta   89.99860971
_cell_angle_gamma   90.00217549
_symmetry_Int_Tables_number   1
_chemical_formula_structural   LiHo9(Bi3C)2
_chemical_formula_sum   'Li1 Ho9 Bi6 C2'
_cell_volume   456.96208821
_cell_formula_units_Z   1
loop_
 _symmetry_equiv_pos_site_id
 _symmetry_equiv_pos_as_xyz
  1  'x, y, z'
loop_
 _atom_site_type_symbol
 _atom_site_label
 _atom_site_symmetry_multiplicity
 _atom_site_fract_x
 _atom_site_fract_y
 _atom_site_fract_z
 _atom_site_occupancy
  Li  Li0  1  0.500000  0.333326  0.666639  1
  Ho  Ho1  1  0.500003  0.666665  0.333333  1
  Ho  Ho2  1  0.000004  0.666668  0.333326  1
  Ho  Ho3  1  0.000001  0.333314  0.666635  1
  Ho  Ho4  1  0.749838  0.209395  0.000398  1
  Ho  Ho5  1  0.749835  0.790978  0.790584  1
  Ho  Ho6  1  0.749833  0.999617  0.209036  1
  Ho  Ho7  1  0.250161  0.791004  0.000402  1
  Ho  Ho8  1  0.250163  0.209413  0.209030  1
  Ho  Ho9  1  0.250166  0.999597  0.790578  1
  Bi  Bi10  1  0.745789  0.594836  0.996167  1
  Bi  Bi11  1  0.745775  0.401332  0.405165  1
  Bi  Bi12  1  0.745788  0.003840  0.598684  1
  Bi  Bi13  1  0.254208  0.401329  0.996165  1
  Bi  Bi14  1  0.254210  0.594846  0.598685  1
  Bi  Bi15  1  0.254224  0.003836  0.405165  1
  C  C16  1  0.500002  0.000000  0.000004  1
  C  C17  1  0.000001  0.000003  0.000004  1
