# generated using pymatgen
data_TmMn2PC
_symmetry_space_group_name_H-M   'P 1'
_cell_length_a   5.51109212
_cell_length_b   5.51109296
_cell_length_c   6.84340700
_cell_angle_alpha   90.00000000
_cell_angle_beta   90.00000000
_cell_angle_gamma   141.87396260
_symmetry_Int_Tables_number   1
_chemical_formula_structural   TmMn2PC
_chemical_formula_sum   'Tm2 Mn4 P2 C2'
_cell_volume   128.32455794
_cell_formula_units_Z   2
loop_
 _symmetry_equiv_pos_site_id
 _symmetry_equiv_pos_as_xyz
  1  'x, y, z'
loop_
 _atom_site_type_symbol
 _atom_site_label
 _atom_site_symmetry_multiplicity
 _atom_site_fract_x
 _atom_site_fract_y
 _atom_site_fract_z
 _atom_site_occupancy
  Tm  Tm0  1  0.542377  0.457623  0.250000  1
  Tm  Tm1  1  0.457623  0.542377  0.750000  1
  Mn  Mn2  1  0.829307  0.170693  0.057614  1
  Mn  Mn3  1  0.170693  0.829307  0.942386  1
  Mn  Mn4  1  0.170693  0.829307  0.557614  1
  Mn  Mn5  1  0.829307  0.170693  0.442386  1
  P  P6  1  0.265593  0.734407  0.250000  1
  P  P7  1  0.734407  0.265593  0.750000  1
  C  C8  1  0.000000  0.000000  0.000000  1
  C  C9  1  0.000000  0.000000  0.500000  1
