# generated using pymatgen
data_MgScMn4Ni8P7
_symmetry_space_group_name_H-M   'P 1'
_cell_length_a   9.07116067
_cell_length_b   9.09496857
_cell_length_c   3.56703000
_cell_angle_alpha   90.00000000
_cell_angle_beta   90.00000000
_cell_angle_gamma   120.07172515
_symmetry_Int_Tables_number   1
_chemical_formula_structural   MgScMn4Ni8P7
_chemical_formula_sum   'Mg1 Sc1 Mn4 Ni8 P7'
_cell_volume   254.67546938
_cell_formula_units_Z   1
loop_
 _symmetry_equiv_pos_site_id
 _symmetry_equiv_pos_as_xyz
  1  'x, y, z'
loop_
 _atom_site_type_symbol
 _atom_site_label
 _atom_site_symmetry_multiplicity
 _atom_site_fract_x
 _atom_site_fract_y
 _atom_site_fract_z
 _atom_site_occupancy
  Mg  Mg0  1  0.667127  0.334250  0.500000  1
  Sc  Sc1  1  0.001037  0.998381  0.000000  1
  Mn  Mn2  1  0.213031  0.825968  0.000000  1
  Mn  Mn3  1  0.428696  0.542022  0.500000  1
  Mn  Mn4  1  0.109362  0.567728  0.500000  1
  Mn  Mn5  1  0.461803  0.892494  0.500000  1
  Ni  Ni6  1  0.396850  0.290734  0.000000  1
  Ni  Ni7  1  0.891010  0.598054  0.000000  1
  Ni  Ni8  1  0.708127  0.105922  0.000000  1
  Ni  Ni9  1  0.612501  0.788287  0.000000  1
  Ni  Ni10  1  0.175966  0.386235  0.000000  1
  Ni  Ni11  1  0.774091  0.722945  0.500000  1
  Ni  Ni12  1  0.947663  0.226763  0.500000  1
  Ni  Ni13  1  0.280427  0.053670  0.500000  1
  P  P14  1  0.624873  0.547419  0.000000  1
  P  P15  1  0.922833  0.374536  0.000000  1
  P  P16  1  0.451287  0.076999  0.000000  1
  P  P17  1  0.745328  0.957453  0.500000  1
  P  P18  1  0.212487  0.255650  0.500000  1
  P  P19  1  0.045367  0.786667  0.500000  1
  P  P20  1  0.330135  0.667821  0.000000  1
