# generated using pymatgen
data_Hf6Ta6Ga10Os7
_symmetry_space_group_name_H-M   'P 1'
_cell_length_a   8.93273921
_cell_length_b   8.88126314
_cell_length_c   8.88126392
_cell_angle_alpha   59.59610200
_cell_angle_beta   59.80807428
_cell_angle_gamma   59.80807856
_symmetry_Int_Tables_number   1
_chemical_formula_structural   Hf6Ta6Ga10Os7
_chemical_formula_sum   'Hf6 Ta6 Ga10 Os7'
_cell_volume   495.24223063
_cell_formula_units_Z   1
loop_
 _symmetry_equiv_pos_site_id
 _symmetry_equiv_pos_as_xyz
  1  'x, y, z'
loop_
 _atom_site_type_symbol
 _atom_site_label
 _atom_site_symmetry_multiplicity
 _atom_site_fract_x
 _atom_site_fract_y
 _atom_site_fract_z
 _atom_site_occupancy
  Hf  Hf0  1  0.684897  0.698851  0.310665  1
  Hf  Hf1  1  0.305588  0.698851  0.310665  1
  Hf  Hf2  1  0.698454  0.301546  0.301546  1
  Hf  Hf3  1  0.305588  0.310665  0.698851  1
  Hf  Hf4  1  0.684897  0.310665  0.698851  1
  Hf  Hf5  1  0.310636  0.689364  0.689364  1
  Ta  Ta6  1  0.875316  0.880418  0.368949  1
  Ta  Ta7  1  0.875316  0.368949  0.880418  1
  Ta  Ta8  1  0.376410  0.876079  0.876079  1
  Ta  Ta9  1  0.871431  0.876079  0.876079  1
  Ta  Ta10  1  0.126592  0.127097  0.619719  1
  Ta  Ta11  1  0.126592  0.619719  0.127097  1
  Ga  Ga12  1  0.646580  0.118548  0.118548  1
  Ga  Ga13  1  0.116324  0.118548  0.118548  1
  Ga  Ga14  1  0.654515  0.651427  0.039545  1
  Ga  Ga15  1  0.654515  0.039545  0.651427  1
  Ga  Ga16  1  0.032990  0.654844  0.654844  1
  Ga  Ga17  1  0.657324  0.654844  0.654844  1
  Ga  Ga18  1  0.341186  0.337607  0.980021  1
  Ga  Ga19  1  0.341186  0.980021  0.337607  1
  Ga  Ga20  1  0.962835  0.344729  0.344729  1
  Ga  Ga21  1  0.347708  0.344729  0.344729  1
  Os  Os22  1  0.011364  0.988636  0.988636  1
  Os  Os23  1  0.998691  0.999296  0.505322  1
  Os  Os24  1  0.496691  0.999296  0.505322  1
  Os  Os25  1  0.999300  0.500700  0.500700  1
  Os  Os26  1  0.496691  0.505322  0.999296  1
  Os  Os27  1  0.998691  0.505322  0.999296  1
  Os  Os28  1  0.501692  0.998308  0.998308  1
