# generated using pymatgen
data_La5Pr11Cd4IrPd3
_symmetry_space_group_name_H-M   'P 1'
_cell_length_a   10.11156399
_cell_length_b   10.09841825
_cell_length_c   10.09841780
_cell_angle_alpha   59.86296321
_cell_angle_beta   60.34000709
_cell_angle_gamma   60.34001283
_symmetry_Int_Tables_number   1
_chemical_formula_structural   La5Pr11Cd4IrPd3
_chemical_formula_sum   'La5 Pr11 Cd4 Ir1 Pd3'
_cell_volume   732.09360423
_cell_formula_units_Z   1
loop_
 _symmetry_equiv_pos_site_id
 _symmetry_equiv_pos_as_xyz
  1  'x, y, z'
loop_
 _atom_site_type_symbol
 _atom_site_label
 _atom_site_symmetry_multiplicity
 _atom_site_fract_x
 _atom_site_fract_y
 _atom_site_fract_z
 _atom_site_occupancy
  La  La0  1  0.350498  0.347430  0.347430  1
  La  La1  1  0.354249  0.347718  0.950131  1
  La  La2  1  0.354249  0.950131  0.347718  1
  La  La3  1  0.938516  0.354358  0.354358  1
  La  La4  1  0.806877  0.188444  0.188444  1
  Pr  Pr5  1  0.194240  0.807799  0.807799  1
  Pr  Pr6  1  0.195769  0.808474  0.189906  1
  Pr  Pr7  1  0.806470  0.188957  0.812655  1
  Pr  Pr8  1  0.195769  0.189906  0.808474  1
  Pr  Pr9  1  0.806470  0.812655  0.188957  1
  Pr  Pr10  1  0.939822  0.564612  0.564612  1
  Pr  Pr11  1  0.566024  0.935678  0.935678  1
  Pr  Pr12  1  0.566842  0.937228  0.562088  1
  Pr  Pr13  1  0.938107  0.563405  0.933436  1
  Pr  Pr14  1  0.566842  0.562088  0.937228  1
  Pr  Pr15  1  0.938107  0.933436  0.563405  1
  Cd  Cd16  1  0.579182  0.581108  0.581108  1
  Cd  Cd17  1  0.578731  0.582112  0.258139  1
  Cd  Cd18  1  0.578731  0.258139  0.582112  1
  Cd  Cd19  1  0.259283  0.580123  0.580123  1
  Ir  Ir20  1  0.569467  0.145033  0.145033  1
  Pd  Pd21  1  0.137216  0.146334  0.146334  1
  Pd  Pd22  1  0.139267  0.144732  0.570100  1
  Pd  Pd23  1  0.139267  0.570100  0.144732  1
