# generated using pymatgen
data_Ba2PrTi3O9
_symmetry_space_group_name_H-M   'P 1'
_cell_length_a   4.00921600
_cell_length_b   4.00921600
_cell_length_c   12.00903500
_cell_angle_alpha   90.00000000
_cell_angle_beta   90.00000000
_cell_angle_gamma   90.00000000
_symmetry_Int_Tables_number   1
_chemical_formula_structural   Ba2PrTi3O9
_chemical_formula_sum   'Ba2 Pr1 Ti3 O9'
_cell_volume   193.03098212
_cell_formula_units_Z   1
loop_
 _symmetry_equiv_pos_site_id
 _symmetry_equiv_pos_as_xyz
  1  'x, y, z'
loop_
 _atom_site_type_symbol
 _atom_site_label
 _atom_site_symmetry_multiplicity
 _atom_site_fract_x
 _atom_site_fract_y
 _atom_site_fract_z
 _atom_site_occupancy
  Ba  Ba0  1  0.500000  0.500000  0.667000  1
  Ba  Ba1  1  0.500000  0.500000  0.333000  1
  Pr  Pr2  1  0.500000  0.500000  0.000000  1
  Ti  Ti3  1  0.000000  0.000000  0.163426  1
  Ti  Ti4  1  0.000000  0.000000  0.836574  1
  Ti  Ti5  1  0.000000  0.000000  0.500000  1
  O  O6  1  0.500000  0.000000  0.850022  1
  O  O7  1  0.500000  0.000000  0.500000  1
  O  O8  1  0.500000  0.000000  0.149978  1
  O  O9  1  0.000000  0.500000  0.850022  1
  O  O10  1  0.000000  0.500000  0.500000  1
  O  O11  1  0.000000  0.500000  0.149978  1
  O  O12  1  0.000000  0.000000  0.000000  1
  O  O13  1  0.000000  0.000000  0.674087  1
  O  O14  1  0.000000  0.000000  0.325913  1
