# generated using pymatgen
data_Y3PaGa20Ni11
_symmetry_space_group_name_H-M   'P 1'
_cell_length_a   4.09146837
_cell_length_b   10.62451472
_cell_length_c   12.99429357
_cell_angle_alpha   80.74198007
_cell_angle_beta   80.81471646
_cell_angle_gamma   78.70649759
_symmetry_Int_Tables_number   1
_chemical_formula_structural   Y3PaGa20Ni11
_chemical_formula_sum   'Y3 Pa1 Ga20 Ni11'
_cell_volume   541.89602552
_cell_formula_units_Z   1
loop_
 _symmetry_equiv_pos_site_id
 _symmetry_equiv_pos_as_xyz
  1  'x, y, z'
loop_
 _atom_site_type_symbol
 _atom_site_label
 _atom_site_symmetry_multiplicity
 _atom_site_fract_x
 _atom_site_fract_y
 _atom_site_fract_z
 _atom_site_occupancy
  Y  Y0  1  0.232364  0.366293  0.177544  1
  Y  Y1  1  0.773138  0.633442  0.821351  1
  Y  Y2  1  0.884338  0.902789  0.334456  1
  Pa  Pa3  1  0.119189  0.096467  0.667919  1
  Ga  Ga4  1  0.066175  0.666667  0.203002  1
  Ga  Ga5  1  0.300549  0.900186  0.502103  1
  Ga  Ga6  1  0.607803  0.793453  0.002818  1
  Ga  Ga7  1  0.251599  0.794610  0.703987  1
  Ga  Ga8  1  0.890508  0.670660  0.548348  1
  Ga  Ga9  1  0.756551  0.201259  0.293777  1
  Ga  Ga10  1  0.633939  0.937396  0.804991  1
  Ga  Ga11  1  0.704940  0.099804  0.496087  1
  Ga  Ga12  1  0.397930  0.207296  0.994710  1
  Ga  Ga13  1  0.937076  0.335522  0.797031  1
  Ga  Ga14  1  0.463741  0.704034  0.375883  1
  Ga  Ga15  1  0.995490  0.920267  0.090700  1
  Ga  Ga16  1  0.803462  0.399380  0.003121  1
  Ga  Ga17  1  0.539868  0.300192  0.621756  1
  Ga  Ga18  1  0.008903  0.079052  0.912211  1
  Ga  Ga19  1  0.201472  0.601184  0.996162  1
  Ga  Ga20  1  0.112958  0.330893  0.450012  1
  Ga  Ga21  1  0.371971  0.058803  0.197698  1
  Ga  Ga22  1  0.614608  0.471341  0.307531  1
  Ga  Ga23  1  0.389377  0.530773  0.691633  1
  Ni  Ni24  1  0.139775  0.840268  0.893406  1
  Ni  Ni25  1  0.511911  0.178752  0.806679  1
  Ni  Ni26  1  0.867256  0.159656  0.102905  1
  Ni  Ni27  1  0.975427  0.436261  0.612374  1
  Ni  Ni28  1  0.500614  0.502376  0.500041  1
  Ni  Ni29  1  0.653846  0.580407  0.113402  1
  Ni  Ni30  1  0.029539  0.562924  0.386563  1
  Ni  Ni31  1  0.351684  0.418932  0.884872  1
  Ni  Ni32  1  0.249582  0.119567  0.388949  1
  Ni  Ni33  1  0.499658  0.816898  0.187086  1
  Ni  Ni34  1  0.751564  0.884122  0.614531  1
