# generated using pymatgen
data_ErLu5ZrCo17P12
_symmetry_space_group_name_H-M   'P 1'
_cell_length_a   3.68133500
_cell_length_b   10.54987400
_cell_length_c   12.23240700
_cell_angle_alpha   90.00000000
_cell_angle_beta   90.00000000
_cell_angle_gamma   90.00000000
_symmetry_Int_Tables_number   1
_chemical_formula_structural   ErLu5ZrCo17P12
_chemical_formula_sum   'Er1 Lu5 Zr1 Co17 P12'
_cell_volume   475.07757967
_cell_formula_units_Z   1
loop_
 _symmetry_equiv_pos_site_id
 _symmetry_equiv_pos_as_xyz
  1  'x, y, z'
loop_
 _atom_site_type_symbol
 _atom_site_label
 _atom_site_symmetry_multiplicity
 _atom_site_fract_x
 _atom_site_fract_y
 _atom_site_fract_z
 _atom_site_occupancy
  Er  Er0  1  0.500000  0.000000  0.476639  1
  Lu  Lu1  1  0.000000  0.500000  0.530142  1
  Lu  Lu2  1  0.500000  0.822349  0.207419  1
  Lu  Lu3  1  0.500000  0.177651  0.207419  1
  Lu  Lu4  1  0.000000  0.681980  0.795844  1
  Lu  Lu5  1  0.000000  0.318020  0.795844  1
  Zr  Zr6  1  0.500000  0.500000  0.155650  1
  Co  Co7  1  0.000000  0.000000  0.835864  1
  Co  Co8  1  0.500000  0.500000  0.702308  1
  Co  Co9  1  0.000000  0.000000  0.295702  1
  Co  Co10  1  0.000000  0.500000  0.982925  1
  Co  Co11  1  0.500000  0.000000  0.013988  1
  Co  Co12  1  0.500000  0.326786  0.987348  1
  Co  Co13  1  0.500000  0.673214  0.987348  1
  Co  Co14  1  0.000000  0.161527  0.001409  1
  Co  Co15  1  0.000000  0.838473  0.001409  1
  Co  Co16  1  0.500000  0.294512  0.435013  1
  Co  Co17  1  0.500000  0.705488  0.435013  1
  Co  Co18  1  0.000000  0.202073  0.570462  1
  Co  Co19  1  0.000000  0.797927  0.570462  1
  Co  Co20  1  0.500000  0.879124  0.707250  1
  Co  Co21  1  0.500000  0.120876  0.707250  1
  Co  Co22  1  0.000000  0.624140  0.297682  1
  Co  Co23  1  0.000000  0.375860  0.297682  1
  P  P24  1  0.500000  0.500000  0.880178  1
  P  P25  1  0.000000  0.000000  0.117442  1
  P  P26  1  0.500000  0.500000  0.364669  1
  P  P27  1  0.000000  0.000000  0.653233  1
  P  P28  1  0.500000  0.311010  0.618855  1
  P  P29  1  0.500000  0.688990  0.618855  1
  P  P30  1  0.000000  0.186875  0.385426  1
  P  P31  1  0.000000  0.813125  0.385426  1
  P  P32  1  0.500000  0.851595  0.887258  1
  P  P33  1  0.500000  0.148405  0.887258  1
  P  P34  1  0.000000  0.666549  0.101665  1
  P  P35  1  0.000000  0.333451  0.101665  1
