# generated using pymatgen
data_Pr2Y(ErPb2)2
_symmetry_space_group_name_H-M   'P 1'
_cell_length_a   8.27810600
_cell_length_b   8.38551500
_cell_length_c   15.80661900
_cell_angle_alpha   90.00000000
_cell_angle_beta   90.00000000
_cell_angle_gamma   90.00000000
_symmetry_Int_Tables_number   1
_chemical_formula_structural   Pr2Y(ErPb2)2
_chemical_formula_sum   'Pr8 Y4 Er8 Pb16'
_cell_volume   1097.23514186
_cell_formula_units_Z   4
loop_
 _symmetry_equiv_pos_site_id
 _symmetry_equiv_pos_as_xyz
  1  'x, y, z'
loop_
 _atom_site_type_symbol
 _atom_site_label
 _atom_site_symmetry_multiplicity
 _atom_site_fract_x
 _atom_site_fract_y
 _atom_site_fract_z
 _atom_site_occupancy
  Pr  Pr0  1  0.476585  0.677629  0.597202  1
  Pr  Pr1  1  0.976585  0.822371  0.902798  1
  Pr  Pr2  1  0.523415  0.322371  0.097202  1
  Pr  Pr3  1  0.023415  0.177629  0.402798  1
  Pr  Pr4  1  0.522549  0.322205  0.402912  1
  Pr  Pr5  1  0.022549  0.177795  0.097088  1
  Pr  Pr6  1  0.477451  0.677795  0.902912  1
  Pr  Pr7  1  0.977451  0.822205  0.597088  1
  Y  Y8  1  0.364409  0.841047  0.377238  1
  Y  Y9  1  0.864409  0.658953  0.122762  1
  Y  Y10  1  0.635591  0.158953  0.877238  1
  Y  Y11  1  0.135591  0.341047  0.622762  1
  Er  Er12  1  0.636607  0.158567  0.623016  1
  Er  Er13  1  0.136607  0.341433  0.876984  1
  Er  Er14  1  0.363393  0.841433  0.123016  1
  Er  Er15  1  0.863393  0.658567  0.376984  1
  Er  Er16  1  0.802781  0.494846  0.749916  1
  Er  Er17  1  0.302781  0.005154  0.750084  1
  Er  Er18  1  0.197219  0.505154  0.249916  1
  Er  Er19  1  0.697219  0.994846  0.250084  1
  Pb  Pb20  1  0.704425  0.959548  0.456784  1
  Pb  Pb21  1  0.204425  0.540452  0.043216  1
  Pb  Pb22  1  0.295575  0.040452  0.956784  1
  Pb  Pb23  1  0.795575  0.459548  0.543216  1
  Pb  Pb24  1  0.297574  0.040254  0.543918  1
  Pb  Pb25  1  0.797574  0.459746  0.956082  1
  Pb  Pb26  1  0.702426  0.959746  0.043918  1
  Pb  Pb27  1  0.202426  0.540254  0.456082  1
  Pb  Pb28  1  0.441137  0.371215  0.749646  1
  Pb  Pb29  1  0.941137  0.128785  0.750354  1
  Pb  Pb30  1  0.558863  0.628785  0.249646  1
  Pb  Pb31  1  0.058863  0.871215  0.250354  1
  Pb  Pb32  1  0.666725  0.849598  0.749492  1
  Pb  Pb33  1  0.166725  0.650402  0.750508  1
  Pb  Pb34  1  0.333275  0.150402  0.249492  1
  Pb  Pb35  1  0.833275  0.349598  0.250508  1
