# generated using pymatgen
data_Zr4V3Re4W
_symmetry_space_group_name_H-M   'P 1'
_cell_length_a   5.30575162
_cell_length_b   5.31012088
_cell_length_c   8.57909600
_cell_angle_alpha   90.00000000
_cell_angle_beta   90.00000000
_cell_angle_gamma   120.08293038
_symmetry_Int_Tables_number   1
_chemical_formula_structural   Zr4V3Re4W
_chemical_formula_sum   'Zr4 V3 Re4 W1'
_cell_volume   209.15100321
_cell_formula_units_Z   1
loop_
 _symmetry_equiv_pos_site_id
 _symmetry_equiv_pos_as_xyz
  1  'x, y, z'
loop_
 _atom_site_type_symbol
 _atom_site_label
 _atom_site_symmetry_multiplicity
 _atom_site_fract_x
 _atom_site_fract_y
 _atom_site_fract_z
 _atom_site_occupancy
  Zr  Zr0  1  0.332142  0.665987  0.439574  1
  Zr  Zr1  1  0.666074  0.333630  0.562090  1
  Zr  Zr2  1  0.666074  0.333630  0.937910  1
  Zr  Zr3  1  0.332142  0.665987  0.060426  1
  V  V4  1  0.002910  0.999469  0.503308  1
  V  V5  1  0.002910  0.999469  0.996692  1
  V  V6  1  0.664737  0.832592  0.750000  1
  Re  Re7  1  0.829098  0.662450  0.250000  1
  Re  Re8  1  0.334764  0.168259  0.250000  1
  Re  Re9  1  0.169431  0.831106  0.750000  1
  Re  Re10  1  0.169843  0.339789  0.750000  1
  W  W11  1  0.829875  0.167634  0.250000  1
