# generated using pymatgen
data_Ac(Si2Rh3)2
_symmetry_space_group_name_H-M   'P 1'
_cell_length_a   7.09227600
_cell_length_b   7.09227497
_cell_length_c   3.85645300
_cell_angle_alpha   90.00000000
_cell_angle_beta   90.00000000
_cell_angle_gamma   120.00000479
_symmetry_Int_Tables_number   1
_chemical_formula_structural   Ac(Si2Rh3)2
_chemical_formula_sum   'Ac1 Si4 Rh6'
_cell_volume   167.99248206
_cell_formula_units_Z   1
loop_
 _symmetry_equiv_pos_site_id
 _symmetry_equiv_pos_as_xyz
  1  'x, y, z'
loop_
 _atom_site_type_symbol
 _atom_site_label
 _atom_site_symmetry_multiplicity
 _atom_site_fract_x
 _atom_site_fract_y
 _atom_site_fract_z
 _atom_site_occupancy
  Ac  Ac0  1  0.000000  0.000000  0.000000  1
  Si  Si1  1  0.666667  0.333333  0.000000  1
  Si  Si2  1  0.205441  0.410883  0.500000  1
  Si  Si3  1  0.589117  0.794559  0.500000  1
  Si  Si4  1  0.205441  0.794559  0.500000  1
  Rh  Rh5  1  0.467423  0.934845  0.000000  1
  Rh  Rh6  1  0.065155  0.532577  0.000000  1
  Rh  Rh7  1  0.467423  0.532577  0.000000  1
  Rh  Rh8  1  0.798838  0.597676  0.500000  1
  Rh  Rh9  1  0.402324  0.201162  0.500000  1
  Rh  Rh10  1  0.798838  0.201162  0.500000  1
