# generated using pymatgen
data_Lu12Fe3AgSn
_symmetry_space_group_name_H-M   'P 1'
_cell_length_a   8.10887262
_cell_length_b   8.10822238
_cell_length_c   8.10887257
_cell_angle_alpha   110.71525005
_cell_angle_beta   106.78951731
_cell_angle_gamma   110.94530742
_symmetry_Int_Tables_number   1
_chemical_formula_structural   Lu12Fe3AgSn
_chemical_formula_sum   'Lu12 Fe3 Ag1 Sn1'
_cell_volume   409.72618929
_cell_formula_units_Z   1
loop_
 _symmetry_equiv_pos_site_id
 _symmetry_equiv_pos_as_xyz
  1  'x, y, z'
loop_
 _atom_site_type_symbol
 _atom_site_label
 _atom_site_symmetry_multiplicity
 _atom_site_fract_x
 _atom_site_fract_y
 _atom_site_fract_z
 _atom_site_occupancy
  Lu  Lu0  1  0.306541  0.310301  0.616710  1
  Lu  Lu1  1  0.693459  0.689699  0.383290  1
  Lu  Lu2  1  0.693590  0.310301  0.003760  1
  Lu  Lu3  1  0.306410  0.689699  0.996240  1
  Lu  Lu4  1  0.195652  0.447549  0.251897  1
  Lu  Lu5  1  0.804348  0.552451  0.748103  1
  Lu  Lu6  1  0.195524  0.943703  0.748179  1
  Lu  Lu7  1  0.963653  0.190136  0.773528  1
  Lu  Lu8  1  0.804476  0.056297  0.251821  1
  Lu  Lu9  1  0.036347  0.809864  0.226472  1
  Lu  Lu10  1  0.416608  0.190136  0.226482  1
  Lu  Lu11  1  0.583392  0.809864  0.773518  1
  Fe  Fe12  1  0.382450  0.382655  0.000205  1
  Fe  Fe13  1  0.617550  0.617345  0.999795  1
  Fe  Fe14  1  0.000000  0.000000  0.000000  1
  Ag  Ag15  1  0.000000  0.500000  0.500000  1
  Sn  Sn16  1  0.500000  0.000000  0.500000  1
