# generated using pymatgen
data_Tm(BH4)3
_symmetry_space_group_name_H-M   'P 1'
_cell_length_a   7.62407300
_cell_length_b   7.62407370
_cell_length_c   7.62407300
_cell_angle_alpha   120.00000131
_cell_angle_beta   90.00000000
_cell_angle_gamma   120.00000131
_symmetry_Int_Tables_number   1
_chemical_formula_structural   Tm(BH4)3
_chemical_formula_sum   'Tm2 B6 H24'
_cell_volume   313.36187909
_cell_formula_units_Z   2
loop_
 _symmetry_equiv_pos_site_id
 _symmetry_equiv_pos_as_xyz
  1  'x, y, z'
loop_
 _atom_site_type_symbol
 _atom_site_label
 _atom_site_symmetry_multiplicity
 _atom_site_fract_x
 _atom_site_fract_y
 _atom_site_fract_z
 _atom_site_occupancy
  Tm  Tm0  1  0.000000  0.000000  0.000000  1
  Tm  Tm1  1  0.500000  0.000000  0.500000  1
  B  B2  1  0.250000  0.000000  0.250000  1
  B  B3  1  0.750001  0.000000  0.250000  1
  B  B4  1  0.250000  0.500000  0.250000  1
  B  B5  1  0.750000  0.000000  0.750000  1
  B  B6  1  0.250000  0.000000  0.750001  1
  B  B7  1  0.750001  0.500000  0.750001  1
  H  H8  1  0.283214  0.000000  0.092199  1
  H  H9  1  0.092199  0.375413  0.092199  1
  H  H10  1  0.716787  0.808987  0.092199  1
  H  H11  1  0.592200  0.000000  0.216787  1
  H  H12  1  0.407801  0.624588  0.216787  1
  H  H13  1  0.216787  0.808987  0.216787  1
  H  H14  1  0.092199  0.000000  0.283214  1
  H  H15  1  0.907801  0.191014  0.283214  1
  H  H16  1  0.283214  0.375413  0.283214  1
  H  H17  1  0.783213  0.000000  0.407800  1
  H  H18  1  0.407801  0.191014  0.407801  1
  H  H19  1  0.216787  0.624588  0.407801  1
  H  H20  1  0.216787  0.000000  0.592200  1
  H  H21  1  0.783214  0.375413  0.592200  1
  H  H22  1  0.592200  0.808987  0.592200  1
  H  H23  1  0.907800  0.000000  0.716786  1
  H  H24  1  0.716787  0.624588  0.716787  1
  H  H25  1  0.092199  0.808987  0.716787  1
  H  H26  1  0.407800  0.000000  0.783213  1
  H  H27  1  0.783213  0.191014  0.783213  1
  H  H28  1  0.592200  0.375413  0.783214  1
  H  H29  1  0.716786  0.000000  0.907800  1
  H  H30  1  0.907800  0.624588  0.907800  1
  H  H31  1  0.283214  0.191014  0.907801  1
