# generated using pymatgen
data_Ca20Zn11Pb
_symmetry_space_group_name_H-M   'P 1'
_cell_length_a   7.98740300
_cell_length_b   7.98740300
_cell_length_c   15.02788200
_cell_angle_alpha   90.00000000
_cell_angle_beta   90.00000000
_cell_angle_gamma   90.00000000
_symmetry_Int_Tables_number   1
_chemical_formula_structural   Ca20Zn11Pb
_chemical_formula_sum   'Ca20 Zn11 Pb1'
_cell_volume   958.75793302
_cell_formula_units_Z   1
loop_
 _symmetry_equiv_pos_site_id
 _symmetry_equiv_pos_as_xyz
  1  'x, y, z'
loop_
 _atom_site_type_symbol
 _atom_site_label
 _atom_site_symmetry_multiplicity
 _atom_site_fract_x
 _atom_site_fract_y
 _atom_site_fract_z
 _atom_site_occupancy
  Ca  Ca0  1  0.666639  0.171738  0.102630  1
  Ca  Ca1  1  0.169217  0.670029  0.603690  1
  Ca  Ca2  1  0.333361  0.828262  0.102630  1
  Ca  Ca3  1  0.830783  0.329971  0.603690  1
  Ca  Ca4  1  0.828262  0.666639  0.102630  1
  Ca  Ca5  1  0.329971  0.169217  0.603690  1
  Ca  Ca6  1  0.171738  0.333361  0.102630  1
  Ca  Ca7  1  0.670029  0.830783  0.603690  1
  Ca  Ca8  1  0.828262  0.333361  0.897370  1
  Ca  Ca9  1  0.329971  0.830783  0.396310  1
  Ca  Ca10  1  0.171738  0.666639  0.897370  1
  Ca  Ca11  1  0.670029  0.169217  0.396310  1
  Ca  Ca12  1  0.666639  0.828262  0.897370  1
  Ca  Ca13  1  0.169217  0.329971  0.396310  1
  Ca  Ca14  1  0.333361  0.171738  0.897370  1
  Ca  Ca15  1  0.830783  0.670029  0.396310  1
  Ca  Ca16  1  0.500000  0.500000  0.752973  1
  Ca  Ca17  1  0.000000  0.000000  0.249105  1
  Ca  Ca18  1  0.000000  0.000000  0.750895  1
  Ca  Ca19  1  0.500000  0.500000  0.247027  1
  Zn  Zn20  1  0.617920  0.117901  0.749663  1
  Zn  Zn21  1  0.117901  0.617920  0.250337  1
  Zn  Zn22  1  0.882099  0.382080  0.250337  1
  Zn  Zn23  1  0.382080  0.882099  0.749663  1
  Zn  Zn24  1  0.882099  0.617920  0.749663  1
  Zn  Zn25  1  0.382080  0.117901  0.250337  1
  Zn  Zn26  1  0.117901  0.382080  0.749663  1
  Zn  Zn27  1  0.617920  0.882099  0.250337  1
  Zn  Zn28  1  0.500000  0.500000  0.500000  1
  Zn  Zn29  1  0.500000  0.500000  0.000000  1
  Zn  Zn30  1  0.000000  0.000000  0.500000  1
  Pb  Pb31  1  0.000000  0.000000  0.000000  1
