# generated using pymatgen
data_NaLa5Te8
_symmetry_space_group_name_H-M   'P 1'
_cell_length_a   8.41036926
_cell_length_b   8.41037055
_cell_length_c   8.41037013
_cell_angle_alpha   109.62479403
_cell_angle_beta   109.62479694
_cell_angle_gamma   109.16450753
_symmetry_Int_Tables_number   1
_chemical_formula_structural   NaLa5Te8
_chemical_formula_sum   'Na1 La5 Te8'
_cell_volume   457.94579374
_cell_formula_units_Z   1
loop_
 _symmetry_equiv_pos_site_id
 _symmetry_equiv_pos_as_xyz
  1  'x, y, z'
loop_
 _atom_site_type_symbol
 _atom_site_label
 _atom_site_symmetry_multiplicity
 _atom_site_fract_x
 _atom_site_fract_y
 _atom_site_fract_z
 _atom_site_occupancy
  Na  Na0  1  0.875000  0.125000  0.750000  1
  La  La1  1  0.374834  0.246112  0.624304  1
  La  La2  1  0.121807  0.750530  0.875696  1
  La  La3  1  0.753888  0.878193  0.128723  1
  La  La4  1  0.249470  0.625166  0.371277  1
  La  La5  1  0.625000  0.375000  0.250000  1
  Te  Te6  1  0.644178  0.640430  0.649017  1
  Te  Te7  1  0.502115  0.001885  0.347168  1
  Te  Te8  1  0.004839  0.355822  0.496252  1
  Te  Te9  1  0.359570  0.508587  0.003748  1
  Te  Te10  1  0.998115  0.845283  0.500229  1
  Te  Te11  1  0.845054  0.497885  0.999771  1
  Te  Te12  1  0.154717  0.154946  0.152832  1
  Te  Te13  1  0.491413  0.995161  0.850983  1
