# generated using pymatgen
data_Ta3Nb3Co15Si7Ru
_symmetry_space_group_name_H-M   'P 1'
_cell_length_a   7.94225665
_cell_length_b   7.93917096
_cell_length_c   7.93701429
_cell_angle_alpha   59.78340563
_cell_angle_beta   59.78469642
_cell_angle_gamma   59.76390917
_symmetry_Int_Tables_number   1
_chemical_formula_structural   Ta3Nb3Co15Si7Ru
_chemical_formula_sum   'Ta3 Nb3 Co15 Si7 Ru1'
_cell_volume   352.09521283
_cell_formula_units_Z   1
loop_
 _symmetry_equiv_pos_site_id
 _symmetry_equiv_pos_as_xyz
  1  'x, y, z'
loop_
 _atom_site_type_symbol
 _atom_site_label
 _atom_site_symmetry_multiplicity
 _atom_site_fract_x
 _atom_site_fract_y
 _atom_site_fract_z
 _atom_site_occupancy
  Ta  Ta0  1  0.796864  0.201442  0.797031  1
  Ta  Ta1  1  0.796195  0.796570  0.201854  1
  Ta  Ta2  1  0.201631  0.201778  0.799477  1
  Nb  Nb3  1  0.200212  0.798185  0.798017  1
  Nb  Nb4  1  0.200649  0.800671  0.200500  1
  Nb  Nb5  1  0.800935  0.200175  0.199992  1
  Co  Co6  1  0.499548  0.834752  0.833253  1
  Co  Co7  1  0.622017  0.621769  0.142589  1
  Co  Co8  1  0.162545  0.163984  0.504625  1
  Co  Co9  1  0.833211  0.833566  0.499719  1
  Co  Co10  1  0.167957  0.168281  0.166919  1
  Co  Co11  1  0.833282  0.834726  0.834416  1
  Co  Co12  1  0.381333  0.380110  0.856678  1
  Co  Co13  1  0.834626  0.498074  0.833515  1
  Co  Co14  1  0.620098  0.619131  0.619698  1
  Co  Co15  1  0.381486  0.856584  0.380636  1
  Co  Co16  1  0.142666  0.621030  0.622113  1
  Co  Co17  1  0.621563  0.142474  0.622361  1
  Co  Co18  1  0.162896  0.503308  0.163941  1
  Co  Co19  1  0.856823  0.380814  0.381242  1
  Co  Co20  1  0.504907  0.162965  0.162553  1
  Si  Si21  1  0.999454  0.999427  0.498410  1
  Si  Si22  1  0.500677  0.994020  0.500657  1
  Si  Si23  1  0.503970  0.504299  0.504010  1
  Si  Si24  1  0.999180  0.498817  0.999403  1
  Si  Si25  1  0.500651  0.501131  0.994048  1
  Si  Si26  1  0.498460  0.999268  0.999467  1
  Si  Si27  1  0.994138  0.501029  0.500451  1
  Ru  Ru28  1  0.382023  0.381615  0.382420  1
