# generated using pymatgen
data_Ba3EuTaNbO9
_symmetry_space_group_name_H-M   'P 1'
_cell_length_a   6.02015100
_cell_length_b   6.02015288
_cell_length_c   7.51193100
_cell_angle_alpha   90.00000000
_cell_angle_beta   90.00000000
_cell_angle_gamma   120.00000618
_symmetry_Int_Tables_number   1
_chemical_formula_structural   Ba3EuTaNbO9
_chemical_formula_sum   'Ba3 Eu1 Ta1 Nb1 O9'
_cell_volume   235.77464475
_cell_formula_units_Z   1
loop_
 _symmetry_equiv_pos_site_id
 _symmetry_equiv_pos_as_xyz
  1  'x, y, z'
loop_
 _atom_site_type_symbol
 _atom_site_label
 _atom_site_symmetry_multiplicity
 _atom_site_fract_x
 _atom_site_fract_y
 _atom_site_fract_z
 _atom_site_occupancy
  Ba  Ba0  1  0.666667  0.333333  0.320106  1
  Ba  Ba1  1  0.000000  0.000000  0.000596  1
  Ba  Ba2  1  0.333333  0.666667  0.685946  1
  Eu  Eu3  1  0.000000  0.000000  0.501989  1
  Ta  Ta4  1  0.666667  0.333333  0.836511  1
  Nb  Nb5  1  0.333333  0.666667  0.167539  1
  O  O6  1  0.356760  0.178380  0.690861  1
  O  O7  1  0.821620  0.643240  0.690861  1
  O  O8  1  0.176329  0.352658  0.307251  1
  O  O9  1  0.995870  0.497935  0.997658  1
  O  O10  1  0.176329  0.823671  0.307251  1
  O  O11  1  0.647342  0.823671  0.307251  1
  O  O12  1  0.821620  0.178380  0.690861  1
  O  O13  1  0.502065  0.004130  0.997658  1
  O  O14  1  0.502065  0.497935  0.997658  1
