# generated using pymatgen
data_Rb2CrH2F8
_symmetry_space_group_name_H-M   'P 1'
_cell_length_a   6.05051463
_cell_length_b   6.29752907
_cell_length_c   6.29751097
_cell_angle_alpha   98.12337749
_cell_angle_beta   105.44628369
_cell_angle_gamma   105.44907715
_symmetry_Int_Tables_number   1
_chemical_formula_structural   Rb2CrH2F8
_chemical_formula_sum   'Rb2 Cr1 H2 F8'
_cell_volume   217.03597053
_cell_formula_units_Z   1
loop_
 _symmetry_equiv_pos_site_id
 _symmetry_equiv_pos_as_xyz
  1  'x, y, z'
loop_
 _atom_site_type_symbol
 _atom_site_label
 _atom_site_symmetry_multiplicity
 _atom_site_fract_x
 _atom_site_fract_y
 _atom_site_fract_z
 _atom_site_occupancy
  Rb  Rb0  1  0.500025  0.731026  0.268994  1
  Rb  Rb1  1  0.499973  0.268972  0.731004  1
  Cr  Cr2  1  0.000000  0.000000  0.000000  1
  H  H3  1  0.787664  0.306539  0.306561  1
  H  H4  1  0.212336  0.693462  0.693440  1
  F  F5  1  0.804942  0.716780  0.990606  1
  F  F6  1  0.801793  0.132783  0.132849  1
  F  F7  1  0.195093  0.009363  0.283187  1
  F  F8  1  0.738764  0.406839  0.406839  1
  F  F9  1  0.261236  0.593161  0.593161  1
  F  F10  1  0.804907  0.990638  0.716814  1
  F  F11  1  0.198207  0.867216  0.867150  1
  F  F12  1  0.195058  0.283221  0.009395  1
