# generated using pymatgen
data_Tb2ThAl7Cu2
_symmetry_space_group_name_H-M   'P 1'
_cell_length_a   9.12272331
_cell_length_b   9.12272370
_cell_length_c   9.12272250
_cell_angle_alpha   35.35761524
_cell_angle_beta   35.35761147
_cell_angle_gamma   35.35761411
_symmetry_Int_Tables_number   1
_chemical_formula_structural   Tb2ThAl7Cu2
_chemical_formula_sum   'Tb2 Th1 Al7 Cu2'
_cell_volume   227.14722658
_cell_formula_units_Z   1
loop_
 _symmetry_equiv_pos_site_id
 _symmetry_equiv_pos_as_xyz
  1  'x, y, z'
loop_
 _atom_site_type_symbol
 _atom_site_label
 _atom_site_symmetry_multiplicity
 _atom_site_fract_x
 _atom_site_fract_y
 _atom_site_fract_z
 _atom_site_occupancy
  Tb  Tb0  1  0.858808  0.858808  0.858808  1
  Tb  Tb1  1  0.141192  0.141192  0.141192  1
  Th  Th2  1  0.000000  0.000000  0.000000  1
  Al  Al3  1  0.417865  0.417865  0.926908  1
  Al  Al4  1  0.926908  0.417865  0.417865  1
  Al  Al5  1  0.417865  0.926908  0.417865  1
  Al  Al6  1  0.500000  0.500000  0.500000  1
  Al  Al7  1  0.582135  0.073092  0.582135  1
  Al  Al8  1  0.073092  0.582135  0.582135  1
  Al  Al9  1  0.582135  0.582135  0.073092  1
  Cu  Cu10  1  0.664624  0.664624  0.664624  1
  Cu  Cu11  1  0.335376  0.335376  0.335376  1
