# generated using pymatgen
data_Ce6Al24Ir2Ru5Rh
_symmetry_space_group_name_H-M   'P 1'
_cell_length_a   8.90877100
_cell_length_b   8.90462498
_cell_length_c   9.52903343
_cell_angle_alpha   89.77309400
_cell_angle_beta   90.00000000
_cell_angle_gamma   120.01539951
_symmetry_Int_Tables_number   1
_chemical_formula_structural   Ce6Al24Ir2Ru5Rh
_chemical_formula_sum   'Ce6 Al24 Ir2 Ru5 Rh1'
_cell_volume   654.54718021
_cell_formula_units_Z   1
loop_
 _symmetry_equiv_pos_site_id
 _symmetry_equiv_pos_as_xyz
  1  'x, y, z'
loop_
 _atom_site_type_symbol
 _atom_site_label
 _atom_site_symmetry_multiplicity
 _atom_site_fract_x
 _atom_site_fract_y
 _atom_site_fract_z
 _atom_site_occupancy
  Ce  Ce0  1  0.806443  0.612886  0.748651  1
  Ce  Ce1  1  0.193124  0.806381  0.250067  1
  Ce  Ce2  1  0.613258  0.806381  0.250067  1
  Ce  Ce3  1  0.386742  0.193619  0.749933  1
  Ce  Ce4  1  0.806876  0.193619  0.749933  1
  Ce  Ce5  1  0.193557  0.387114  0.251349  1
  Al  Al6  1  0.332714  0.665430  0.480947  1
  Al  Al7  1  0.665868  0.331735  0.979195  1
  Al  Al8  1  0.667286  0.334570  0.519053  1
  Al  Al9  1  0.334132  0.668265  0.020805  1
  Al  Al10  1  0.162299  0.324596  0.578195  1
  Al  Al11  1  0.675362  0.836521  0.577250  1
  Al  Al12  1  0.161159  0.836521  0.577250  1
  Al  Al13  1  0.836757  0.161069  0.077287  1
  Al  Al14  1  0.838841  0.163479  0.422750  1
  Al  Al15  1  0.837845  0.675689  0.076417  1
  Al  Al16  1  0.324312  0.161069  0.077287  1
  Al  Al17  1  0.675688  0.838931  0.922713  1
  Al  Al18  1  0.162155  0.324311  0.923583  1
  Al  Al19  1  0.837701  0.675404  0.421805  1
  Al  Al20  1  0.000059  0.000116  0.249972  1
  Al  Al21  1  0.999941  0.999884  0.750028  1
  Al  Al22  1  0.562524  0.125048  0.248555  1
  Al  Al23  1  0.437296  0.562493  0.748910  1
  Al  Al24  1  0.125196  0.562493  0.748910  1
  Al  Al25  1  0.874804  0.437507  0.251090  1
  Al  Al26  1  0.562704  0.437507  0.251090  1
  Al  Al27  1  0.437476  0.874952  0.751445  1
  Al  Al28  1  0.163243  0.838931  0.922713  1
  Al  Al29  1  0.324638  0.163479  0.422750  1
  Ir  Ir30  1  0.500000  0.500000  0.000000  1
  Ir  Ir31  1  0.000000  0.500000  0.000000  1
  Ru  Ru32  1  0.000000  0.000000  0.500000  1
  Ru  Ru33  1  0.000000  0.000000  0.000000  1
  Ru  Ru34  1  0.000000  0.500000  0.500000  1
  Ru  Ru35  1  0.500000  0.500000  0.500000  1
  Ru  Ru36  1  0.500000  0.000000  0.000000  1
  Rh  Rh37  1  0.500000  0.000000  0.500000  1
