# generated using pymatgen
data_CaHoTm2(B6Ru)2
_symmetry_space_group_name_H-M   'P 1'
_cell_length_a   3.62867600
_cell_length_b   9.10570840
_cell_length_c   11.50722702
_cell_angle_alpha   89.81947604
_cell_angle_beta   90.00000000
_cell_angle_gamma   90.00000000
_symmetry_Int_Tables_number   1
_chemical_formula_structural   CaHoTm2(B6Ru)2
_chemical_formula_sum   'Ca2 Ho2 Tm4 B24 Ru4'
_cell_volume   380.21605908
_cell_formula_units_Z   2
loop_
 _symmetry_equiv_pos_site_id
 _symmetry_equiv_pos_as_xyz
  1  'x, y, z'
loop_
 _atom_site_type_symbol
 _atom_site_label
 _atom_site_symmetry_multiplicity
 _atom_site_fract_x
 _atom_site_fract_y
 _atom_site_fract_z
 _atom_site_occupancy
  Ca  Ca0  1  0.000000  0.323811  0.414943  1
  Ca  Ca1  1  0.000000  0.676189  0.585057  1
  Ho  Ho2  1  0.000000  0.822287  0.086002  1
  Ho  Ho3  1  0.000000  0.177713  0.913998  1
  Tm  Tm4  1  0.000000  0.942120  0.369528  1
  Tm  Tm5  1  0.000000  0.057880  0.630472  1
  Tm  Tm6  1  0.000000  0.442714  0.130401  1
  Tm  Tm7  1  0.000000  0.557286  0.869599  1
  B  B8  1  0.500000  0.554699  0.431682  1
  B  B9  1  0.500000  0.445301  0.568318  1
  B  B10  1  0.500000  0.053842  0.066437  1
  B  B11  1  0.500000  0.946158  0.933563  1
  B  B12  1  0.500000  0.748952  0.416913  1
  B  B13  1  0.500000  0.251048  0.583087  1
  B  B14  1  0.500000  0.248742  0.080767  1
  B  B15  1  0.500000  0.751258  0.919233  1
  B  B16  1  0.500000  0.791846  0.263873  1
  B  B17  1  0.500000  0.208154  0.736127  1
  B  B18  1  0.500000  0.290104  0.233515  1
  B  B19  1  0.500000  0.709896  0.766485  1
  B  B20  1  0.500000  0.631346  0.184252  1
  B  B21  1  0.500000  0.368654  0.815748  1
  B  B22  1  0.500000  0.130015  0.313433  1
  B  B23  1  0.500000  0.869985  0.686567  1
  B  B24  1  0.500000  0.982833  0.211267  1
  B  B25  1  0.500000  0.017167  0.788733  1
  B  B26  1  0.500000  0.484062  0.287056  1
  B  B27  1  0.500000  0.515938  0.712944  1
  B  B28  1  0.500000  0.602859  0.028162  1
  B  B29  1  0.500000  0.397141  0.971838  1
  B  B30  1  0.500000  0.098326  0.472875  1
  B  B31  1  0.500000  0.901674  0.527125  1
  Ru  Ru32  1  0.000000  0.640965  0.317215  1
  Ru  Ru33  1  0.000000  0.359035  0.682785  1
  Ru  Ru34  1  0.000000  0.136904  0.177624  1
  Ru  Ru35  1  0.000000  0.863096  0.822376  1
