# generated using pymatgen
data_SmDy7(Nb3Si4)4
_symmetry_space_group_name_H-M   'P 1'
_cell_length_a   7.09066193
_cell_length_b   7.09148897
_cell_length_c   13.08855442
_cell_angle_alpha   89.96010665
_cell_angle_beta   89.99741907
_cell_angle_gamma   89.97642560
_symmetry_Int_Tables_number   1
_chemical_formula_structural   SmDy7(Nb3Si4)4
_chemical_formula_sum   'Sm1 Dy7 Nb12 Si16'
_cell_volume   658.13615839
_cell_formula_units_Z   1
loop_
 _symmetry_equiv_pos_site_id
 _symmetry_equiv_pos_as_xyz
  1  'x, y, z'
loop_
 _atom_site_type_symbol
 _atom_site_label
 _atom_site_symmetry_multiplicity
 _atom_site_fract_x
 _atom_site_fract_y
 _atom_site_fract_z
 _atom_site_occupancy
  Sm  Sm0  1  0.996968  0.339906  0.217820  1
  Dy  Dy1  1  0.001134  0.658931  0.717897  1
  Dy  Dy2  1  0.159268  0.499072  0.468055  1
  Dy  Dy3  1  0.500953  0.840819  0.031762  1
  Dy  Dy4  1  0.840967  0.501215  0.967546  1
  Dy  Dy5  1  0.498770  0.158993  0.532513  1
  Dy  Dy6  1  0.341045  0.998995  0.782090  1
  Dy  Dy7  1  0.658890  0.001118  0.282390  1
  Nb  Nb8  1  0.170887  0.170153  0.999568  1
  Nb  Nb9  1  0.829331  0.829372  0.500444  1
  Nb  Nb10  1  0.329540  0.670839  0.250069  1
  Nb  Nb11  1  0.670673  0.329470  0.749982  1
  Nb  Nb12  1  0.154904  0.992661  0.376732  1
  Nb  Nb13  1  0.846046  0.007438  0.875540  1
  Nb  Nb14  1  0.507515  0.654114  0.626387  1
  Nb  Nb15  1  0.346145  0.492622  0.873448  1
  Nb  Nb16  1  0.492476  0.345460  0.125681  1
  Nb  Nb17  1  0.654021  0.508560  0.374535  1
  Nb  Nb18  1  0.992442  0.153981  0.624256  1
  Nb  Nb19  1  0.007746  0.845321  0.123457  1
  Si  Si20  1  0.294671  0.043585  0.186436  1
  Si  Si21  1  0.706094  0.954989  0.686499  1
  Si  Si22  1  0.454891  0.793671  0.436819  1
  Si  Si23  1  0.207577  0.545719  0.062576  1
  Si  Si24  1  0.544631  0.206335  0.936193  1
  Si  Si25  1  0.793607  0.455063  0.563723  1
  Si  Si26  1  0.045116  0.293843  0.813556  1
  Si  Si27  1  0.954861  0.708537  0.313993  1
  Si  Si28  1  0.369847  0.295026  0.318328  1
  Si  Si29  1  0.632257  0.705057  0.818086  1
  Si  Si30  1  0.204740  0.867978  0.568203  1
  Si  Si31  1  0.132106  0.795500  0.931783  1
  Si  Si32  1  0.793947  0.130057  0.066346  1
  Si  Si33  1  0.867882  0.204261  0.433286  1
  Si  Si34  1  0.294987  0.367899  0.681870  1
  Si  Si35  1  0.703066  0.633438  0.182136  1
