# generated using pymatgen
data_RbHoSiSe4
_symmetry_space_group_name_H-M   'P 1'
_cell_length_a   7.02849500
_cell_length_b   6.71369324
_cell_length_c   9.47055033
_cell_angle_alpha   72.29245456
_cell_angle_beta   90.00000000
_cell_angle_gamma   90.00000000
_symmetry_Int_Tables_number   1
_chemical_formula_structural   RbHoSiSe4
_chemical_formula_sum   'Rb2 Ho2 Si2 Se8'
_cell_volume   425.71543767
_cell_formula_units_Z   2
loop_
 _symmetry_equiv_pos_site_id
 _symmetry_equiv_pos_as_xyz
  1  'x, y, z'
loop_
 _atom_site_type_symbol
 _atom_site_label
 _atom_site_symmetry_multiplicity
 _atom_site_fract_x
 _atom_site_fract_y
 _atom_site_fract_z
 _atom_site_occupancy
  Rb  Rb0  1  0.977837  0.732038  0.065581  1
  Rb  Rb1  1  0.477837  0.267962  0.934419  1
  Ho  Ho2  1  0.501076  0.229376  0.452992  1
  Ho  Ho3  1  0.001076  0.770624  0.547008  1
  Si  Si4  1  0.463272  0.779875  0.335235  1
  Si  Si5  1  0.963272  0.220125  0.664765  1
  Se  Se6  1  0.467238  0.577987  0.181769  1
  Se  Se7  1  0.228578  0.029715  0.288266  1
  Se  Se8  1  0.732779  0.982721  0.308689  1
  Se  Se9  1  0.896220  0.429217  0.431052  1
  Se  Se10  1  0.396220  0.570783  0.568948  1
  Se  Se11  1  0.232779  0.017279  0.691311  1
  Se  Se12  1  0.728578  0.970285  0.711734  1
  Se  Se13  1  0.967238  0.422013  0.818231  1
