# generated using pymatgen
data_LaY8Th3Ru4
_symmetry_space_group_name_H-M   'P 1'
_cell_length_a   6.41230164
_cell_length_b   7.28545398
_cell_length_c   9.63199900
_cell_angle_alpha   90.00000000
_cell_angle_beta   90.00000000
_cell_angle_gamma   89.56352460
_symmetry_Int_Tables_number   1
_chemical_formula_structural   LaY8Th3Ru4
_chemical_formula_sum   'La1 Y8 Th3 Ru4'
_cell_volume   449.96049938
_cell_formula_units_Z   1
loop_
 _symmetry_equiv_pos_site_id
 _symmetry_equiv_pos_as_xyz
  1  'x, y, z'
loop_
 _atom_site_type_symbol
 _atom_site_label
 _atom_site_symmetry_multiplicity
 _atom_site_fract_x
 _atom_site_fract_y
 _atom_site_fract_z
 _atom_site_occupancy
  La  La0  1  0.858590  0.547388  0.250000  1
  Y  Y1  1  0.171503  0.172809  0.067321  1
  Y  Y2  1  0.832090  0.826552  0.933018  1
  Y  Y3  1  0.666034  0.324271  0.932302  1
  Y  Y4  1  0.832090  0.826552  0.566982  1
  Y  Y5  1  0.330888  0.675887  0.066398  1
  Y  Y6  1  0.171503  0.172809  0.432679  1
  Y  Y7  1  0.330888  0.675887  0.433602  1
  Y  Y8  1  0.666034  0.324271  0.567698  1
  Th  Th9  1  0.650811  0.049409  0.250000  1
  Th  Th10  1  0.345325  0.950681  0.750000  1
  Th  Th11  1  0.152050  0.451450  0.750000  1
  Ru  Ru12  1  0.469043  0.364396  0.250000  1
  Ru  Ru13  1  0.525532  0.630492  0.750000  1
  Ru  Ru14  1  0.973478  0.131436  0.750000  1
  Ru  Ru15  1  0.024142  0.875710  0.250000  1
