# generated using pymatgen
data_La2Pr2Mg3Au10
_symmetry_space_group_name_H-M   'P 1'
_cell_length_a   8.77826630
_cell_length_b   8.77826603
_cell_length_c   10.41740300
_cell_angle_alpha   90.00000000
_cell_angle_beta   90.00000000
_cell_angle_gamma   108.48635223
_symmetry_Int_Tables_number   1
_chemical_formula_structural   La2Pr2Mg3Au10
_chemical_formula_sum   'La4 Pr4 Mg6 Au20'
_cell_volume   761.32157775
_cell_formula_units_Z   2
loop_
 _symmetry_equiv_pos_site_id
 _symmetry_equiv_pos_as_xyz
  1  'x, y, z'
loop_
 _atom_site_type_symbol
 _atom_site_label
 _atom_site_symmetry_multiplicity
 _atom_site_fract_x
 _atom_site_fract_y
 _atom_site_fract_z
 _atom_site_occupancy
  La  La0  1  0.301314  0.301314  0.203488  1
  La  La1  1  0.698686  0.698686  0.796512  1
  La  La2  1  0.198686  0.198686  0.703488  1
  La  La3  1  0.801314  0.801314  0.296512  1
  Pr  Pr4  1  0.700254  0.299746  0.000000  1
  Pr  Pr5  1  0.299746  0.700254  0.000000  1
  Pr  Pr6  1  0.799746  0.200254  0.500000  1
  Pr  Pr7  1  0.200254  0.799746  0.500000  1
  Mg  Mg8  1  0.012021  0.512021  0.250000  1
  Mg  Mg9  1  0.987979  0.487979  0.750000  1
  Mg  Mg10  1  0.487979  0.987979  0.750000  1
  Mg  Mg11  1  0.512021  0.012021  0.250000  1
  Mg  Mg12  1  0.000000  0.000000  0.000000  1
  Mg  Mg13  1  0.500000  0.500000  0.500000  1
  Au  Au14  1  0.098211  0.098211  0.404614  1
  Au  Au15  1  0.901789  0.901789  0.595386  1
  Au  Au16  1  0.401789  0.401789  0.904614  1
  Au  Au17  1  0.598211  0.598211  0.095386  1
  Au  Au18  1  0.884365  0.167538  0.206132  1
  Au  Au19  1  0.115635  0.832462  0.793868  1
  Au  Au20  1  0.615635  0.332462  0.706132  1
  Au  Au21  1  0.667538  0.384365  0.293868  1
  Au  Au22  1  0.384365  0.667538  0.293868  1
  Au  Au23  1  0.332462  0.615635  0.706132  1
  Au  Au24  1  0.832462  0.115635  0.793868  1
  Au  Au25  1  0.167538  0.884365  0.206132  1
  Au  Au26  1  0.935039  0.656929  0.022734  1
  Au  Au27  1  0.064961  0.343071  0.977266  1
  Au  Au28  1  0.564961  0.843071  0.522734  1
  Au  Au29  1  0.156929  0.435039  0.477266  1
  Au  Au30  1  0.435039  0.156929  0.477266  1
  Au  Au31  1  0.843071  0.564961  0.522734  1
  Au  Au32  1  0.343071  0.064961  0.977266  1
  Au  Au33  1  0.656929  0.935039  0.022734  1
