# generated using pymatgen
data_Pr4Mn4AlTc3O20
_symmetry_space_group_name_H-M   'P 1'
_cell_length_a   5.83266800
_cell_length_b   7.82544698
_cell_length_c   8.85425733
_cell_angle_alpha   89.24197712
_cell_angle_beta   90.00000000
_cell_angle_gamma   90.00000000
_symmetry_Int_Tables_number   1
_chemical_formula_structural   Pr4Mn4AlTc3O20
_chemical_formula_sum   'Pr4 Mn4 Al1 Tc3 O20'
_cell_volume   404.10157265
_cell_formula_units_Z   1
loop_
 _symmetry_equiv_pos_site_id
 _symmetry_equiv_pos_as_xyz
  1  'x, y, z'
loop_
 _atom_site_type_symbol
 _atom_site_label
 _atom_site_symmetry_multiplicity
 _atom_site_fract_x
 _atom_site_fract_y
 _atom_site_fract_z
 _atom_site_occupancy
  Pr  Pr0  1  0.007077  0.350643  0.669090  1
  Pr  Pr1  1  0.007077  0.649357  0.330910  1
  Pr  Pr2  1  0.001653  0.860707  0.826748  1
  Pr  Pr3  1  0.001653  0.139293  0.173252  1
  Mn  Mn4  1  0.494546  0.077112  0.847120  1
  Mn  Mn5  1  0.494546  0.922888  0.152880  1
  Mn  Mn6  1  0.501962  0.596660  0.641644  1
  Mn  Mn7  1  0.501962  0.403340  0.358356  1
  Al  Al8  1  0.252594  0.000000  0.500000  1
  Tc  Tc9  1  0.279371  0.500000  0.000000  1
  Tc  Tc10  1  0.739584  0.000000  0.500000  1
  Tc  Tc11  1  0.722083  0.500000  0.000000  1
  O  O12  1  0.245121  0.907776  0.296132  1
  O  O13  1  0.245121  0.092224  0.703868  1
  O  O14  1  0.748521  0.398446  0.206492  1
  O  O15  1  0.748521  0.601554  0.793508  1
  O  O16  1  0.754011  0.097007  0.708782  1
  O  O17  1  0.754011  0.902993  0.291218  1
  O  O18  1  0.252919  0.599914  0.793010  1
  O  O19  1  0.252919  0.400086  0.206990  1
  O  O20  1  0.500299  0.329479  0.925929  1
  O  O21  1  0.500299  0.670521  0.074071  1
  O  O22  1  0.489836  0.848248  0.564799  1
  O  O23  1  0.489836  0.151752  0.435201  1
  O  O24  1  0.269315  0.000000  0.000000  1
  O  O25  1  0.729921  0.500000  0.500000  1
  O  O26  1  0.722497  0.000000  0.000000  1
  O  O27  1  0.274902  0.500000  0.500000  1
  O  O28  1  0.007795  0.158276  0.447269  1
  O  O29  1  0.007795  0.841724  0.552731  1
  O  O30  1  0.001129  0.653830  0.052675  1
  O  O31  1  0.001129  0.346170  0.947325  1
