# generated using pymatgen
data_Rb5Sm(MoH9)3
_symmetry_space_group_name_H-M   'P 1'
_cell_length_a   9.93600849
_cell_length_b   9.64702426
_cell_length_c   5.50322900
_cell_angle_alpha   90.00000000
_cell_angle_beta   90.00000000
_cell_angle_gamma   119.04248486
_symmetry_Int_Tables_number   1
_chemical_formula_structural   Rb5Sm(MoH9)3
_chemical_formula_sum   'Rb5 Sm1 Mo3 H27'
_cell_volume   461.17261263
_cell_formula_units_Z   1
loop_
 _symmetry_equiv_pos_site_id
 _symmetry_equiv_pos_as_xyz
  1  'x, y, z'
loop_
 _atom_site_type_symbol
 _atom_site_label
 _atom_site_symmetry_multiplicity
 _atom_site_fract_x
 _atom_site_fract_y
 _atom_site_fract_z
 _atom_site_occupancy
  Rb  Rb0  1  0.736311  0.741930  0.500000  1
  Rb  Rb1  1  0.263689  0.005619  0.500000  1
  Rb  Rb2  1  0.000000  0.598008  0.000000  1
  Rb  Rb3  1  0.415677  0.397679  0.000000  1
  Rb  Rb4  1  0.584323  0.982002  0.000000  1
  Sm  Sm5  1  0.000000  0.265084  0.500000  1
  Mo  Mo6  1  0.695480  0.319130  0.500000  1
  Mo  Mo7  1  0.304520  0.623651  0.500000  1
  Mo  Mo8  1  0.000000  0.050548  0.000000  1
  H  H9  1  0.815009  0.291209  0.718877  1
  H  H10  1  0.714647  0.462674  0.713423  1
  H  H11  1  0.548686  0.212286  0.712783  1
  H  H12  1  0.184991  0.476201  0.281123  1
  H  H13  1  0.548686  0.212286  0.287217  1
  H  H14  1  0.815009  0.291209  0.281123  1
  H  H15  1  0.714647  0.462674  0.286577  1
  H  H16  1  0.285353  0.748028  0.713423  1
  H  H17  1  0.451314  0.663600  0.712783  1
  H  H18  1  0.171430  0.047405  0.000000  1
  H  H19  1  0.828570  0.875974  0.000000  1
  H  H20  1  0.000000  0.236235  0.000000  1
  H  H21  1  0.876667  0.045535  0.240089  1
  H  H22  1  0.123333  0.168868  0.759911  1
  H  H23  1  0.000000  0.912251  0.794939  1
  H  H24  1  0.000000  0.912251  0.205061  1
  H  H25  1  0.123333  0.168868  0.240089  1
  H  H26  1  0.876667  0.045535  0.759911  1
  H  H27  1  0.123779  0.615324  0.500000  1
  H  H28  1  0.444551  0.822539  0.500000  1
  H  H29  1  0.350182  0.469107  0.500000  1
  H  H30  1  0.555449  0.377988  0.500000  1
  H  H31  1  0.876221  0.491545  0.500000  1
  H  H32  1  0.649818  0.118925  0.500000  1
  H  H33  1  0.184991  0.476201  0.718877  1
  H  H34  1  0.285353  0.748028  0.286577  1
  H  H35  1  0.451314  0.663600  0.287217  1
