# generated using pymatgen
data_Ac10Nd7Sm3Tl16
_symmetry_space_group_name_H-M   'P 1'
_cell_length_a   8.51321003
_cell_length_b   8.65398322
_cell_length_c   16.52468900
_cell_angle_alpha   89.69800013
_cell_angle_beta   90.00463712
_cell_angle_gamma   90.00244763
_symmetry_Int_Tables_number   1
_chemical_formula_structural   Ac10Nd7Sm3Tl16
_chemical_formula_sum   'Ac10 Nd7 Sm3 Tl16'
_cell_volume   1217.40941678
_cell_formula_units_Z   1
loop_
 _symmetry_equiv_pos_site_id
 _symmetry_equiv_pos_as_xyz
  1  'x, y, z'
loop_
 _atom_site_type_symbol
 _atom_site_label
 _atom_site_symmetry_multiplicity
 _atom_site_fract_x
 _atom_site_fract_y
 _atom_site_fract_z
 _atom_site_occupancy
  Ac  Ac0  1  0.506625  0.820040  0.910242  1
  Ac  Ac1  1  0.005123  0.678611  0.588209  1
  Ac  Ac2  1  0.494342  0.179581  0.407388  1
  Ac  Ac3  1  0.993481  0.320545  0.092690  1
  Ac  Ac4  1  0.494190  0.180547  0.094568  1
  Ac  Ac5  1  0.993607  0.320273  0.406133  1
  Ac  Ac6  1  0.506402  0.818662  0.591624  1
  Ac  Ac7  1  0.004307  0.680518  0.909031  1
  Ac  Ac8  1  0.666660  0.335159  0.880759  1
  Ac  Ac9  1  0.170047  0.164505  0.619107  1
  Nd  Nd10  1  0.331376  0.665210  0.373319  1
  Nd  Nd11  1  0.832210  0.837233  0.126860  1
  Nd  Nd12  1  0.327355  0.664646  0.127409  1
  Nd  Nd13  1  0.827852  0.836863  0.372949  1
  Nd  Nd14  1  0.672749  0.337215  0.622465  1
  Nd  Nd15  1  0.173854  0.160609  0.877258  1
  Nd  Nd16  1  0.328256  0.510870  0.749441  1
  Sm  Sm17  1  0.833755  0.990591  0.750316  1
  Sm  Sm18  1  0.668593  0.492288  0.251987  1
  Sm  Sm19  1  0.169794  0.009787  0.248214  1
  Tl  Tl20  1  0.172233  0.960893  0.044107  1
  Tl  Tl21  1  0.671869  0.539554  0.455818  1
  Tl  Tl22  1  0.823118  0.033771  0.538950  1
  Tl  Tl23  1  0.321791  0.465417  0.962234  1
  Tl  Tl24  1  0.840540  0.030658  0.958646  1
  Tl  Tl25  1  0.341171  0.469473  0.540289  1
  Tl  Tl26  1  0.164082  0.956435  0.449076  1
  Tl  Tl27  1  0.664136  0.544400  0.050918  1
  Tl  Tl28  1  0.711828  0.639646  0.747070  1
  Tl  Tl29  1  0.207881  0.861171  0.752265  1
  Tl  Tl30  1  0.290474  0.364477  0.250440  1
  Tl  Tl31  1  0.790958  0.137551  0.250105  1
  Tl  Tl32  1  0.475084  0.107734  0.748840  1
  Tl  Tl33  1  0.970326  0.384220  0.751053  1
  Tl  Tl34  1  0.527516  0.882621  0.248543  1
  Tl  Tl35  1  0.026414  0.618225  0.251678  1
