# generated using pymatgen
data_La5As2Os
_symmetry_space_group_name_H-M   'P 1'
_cell_length_a   8.21770000
_cell_length_b   9.01073800
_cell_length_c   12.58226200
_cell_angle_alpha   90.00000000
_cell_angle_beta   90.00000000
_cell_angle_gamma   90.00000000
_symmetry_Int_Tables_number   1
_chemical_formula_structural   La5As2Os
_chemical_formula_sum   'La20 As8 Os4'
_cell_volume   931.68556965
_cell_formula_units_Z   4
loop_
 _symmetry_equiv_pos_site_id
 _symmetry_equiv_pos_as_xyz
  1  'x, y, z'
loop_
 _atom_site_type_symbol
 _atom_site_label
 _atom_site_symmetry_multiplicity
 _atom_site_fract_x
 _atom_site_fract_y
 _atom_site_fract_z
 _atom_site_occupancy
  La  La0  1  0.162915  0.750000  0.213687  1
  La  La1  1  0.662915  0.250000  0.286313  1
  La  La2  1  0.837085  0.250000  0.786313  1
  La  La3  1  0.337085  0.750000  0.713687  1
  La  La4  1  0.454325  0.750000  0.999008  1
  La  La5  1  0.954325  0.250000  0.500992  1
  La  La6  1  0.545675  0.250000  0.000992  1
  La  La7  1  0.045675  0.750000  0.499008  1
  La  La8  1  0.635369  0.750000  0.296633  1
  La  La9  1  0.135369  0.250000  0.203367  1
  La  La10  1  0.364631  0.250000  0.703367  1
  La  La11  1  0.864631  0.750000  0.796633  1
  La  La12  1  0.817468  0.963513  0.069699  1
  La  La13  1  0.317468  0.036487  0.430301  1
  La  La14  1  0.182532  0.463513  0.930301  1
  La  La15  1  0.682532  0.536487  0.569699  1
  La  La16  1  0.182532  0.036487  0.930301  1
  La  La17  1  0.682532  0.963513  0.569699  1
  La  La18  1  0.817468  0.536487  0.069699  1
  La  La19  1  0.317468  0.463513  0.430301  1
  As  As20  1  0.934361  0.994055  0.329577  1
  As  As21  1  0.434361  0.005945  0.170423  1
  As  As22  1  0.065639  0.494055  0.670423  1
  As  As23  1  0.565639  0.505945  0.829577  1
  As  As24  1  0.065639  0.005945  0.670423  1
  As  As25  1  0.565639  0.994055  0.829577  1
  As  As26  1  0.934361  0.505945  0.329577  1
  As  As27  1  0.434361  0.494055  0.170423  1
  Os  Os28  1  0.416672  0.750000  0.484745  1
  Os  Os29  1  0.916672  0.250000  0.015255  1
  Os  Os30  1  0.583328  0.250000  0.515255  1
  Os  Os31  1  0.083328  0.750000  0.984745  1
