# generated using pymatgen
data_La2SmTm(Mo2O7)2
_symmetry_space_group_name_H-M   'P 1'
_cell_length_a   7.49971437
_cell_length_b   7.47961757
_cell_length_c   7.50290613
_cell_angle_alpha   59.69244102
_cell_angle_beta   60.01407888
_cell_angle_gamma   59.91108277
_symmetry_Int_Tables_number   1
_chemical_formula_structural   La2SmTm(Mo2O7)2
_chemical_formula_sum   'La2 Sm1 Tm1 Mo4 O14'
_cell_volume   296.73826606
_cell_formula_units_Z   1
loop_
 _symmetry_equiv_pos_site_id
 _symmetry_equiv_pos_as_xyz
  1  'x, y, z'
loop_
 _atom_site_type_symbol
 _atom_site_label
 _atom_site_symmetry_multiplicity
 _atom_site_fract_x
 _atom_site_fract_y
 _atom_site_fract_z
 _atom_site_occupancy
  La  La0  1  0.125000  0.125000  0.125000  1
  La  La1  1  0.625000  0.125000  0.125000  1
  Sm  Sm2  1  0.125000  0.125000  0.625000  1
  Tm  Tm3  1  0.125000  0.625000  0.125000  1
  Mo  Mo4  1  0.625000  0.625000  0.625000  1
  Mo  Mo5  1  0.125000  0.625000  0.625000  1
  Mo  Mo6  1  0.625000  0.125000  0.625000  1
  Mo  Mo7  1  0.625000  0.625000  0.125000  1
  O  O8  1  0.286932  0.293152  0.701614  1
  O  O9  1  0.294132  0.706737  0.289485  1
  O  O10  1  0.955868  0.543263  0.960515  1
  O  O11  1  0.708563  0.285841  0.297033  1
  O  O12  1  0.008227  0.983171  0.000375  1
  O  O13  1  0.540354  0.543263  0.960515  1
  O  O14  1  0.286681  0.694677  0.731960  1
  O  O15  1  0.531698  0.956848  0.548386  1
  O  O16  1  0.541437  0.964159  0.952967  1
  O  O17  1  0.709646  0.706737  0.289485  1
  O  O18  1  0.241773  0.266829  0.249625  1
  O  O19  1  0.963068  0.956848  0.548386  1
  O  O20  1  0.963319  0.555323  0.518040  1
  O  O21  1  0.718302  0.293152  0.701614  1
