# generated using pymatgen
data_TbHo15(In3Ru)2
_symmetry_space_group_name_H-M   'P 1'
_cell_length_a   10.36828000
_cell_length_b   10.36841875
_cell_length_c   7.02514185
_cell_angle_alpha   89.95118045
_cell_angle_beta   90.00000000
_cell_angle_gamma   119.99955733
_symmetry_Int_Tables_number   1
_chemical_formula_structural   TbHo15(In3Ru)2
_chemical_formula_sum   'Tb1 Ho15 In6 Ru2'
_cell_volume   654.04360290
_cell_formula_units_Z   1
loop_
 _symmetry_equiv_pos_site_id
 _symmetry_equiv_pos_as_xyz
  1  'x, y, z'
loop_
 _atom_site_type_symbol
 _atom_site_label
 _atom_site_symmetry_multiplicity
 _atom_site_fract_x
 _atom_site_fract_y
 _atom_site_fract_z
 _atom_site_occupancy
  Tb  Tb0  1  0.532778  0.065555  0.507659  1
  Ho  Ho1  1  0.934080  0.467164  0.508156  1
  Ho  Ho2  1  0.533085  0.467164  0.508156  1
  Ho  Ho3  1  0.466902  0.933804  0.007895  1
  Ho  Ho4  1  0.066160  0.533084  0.008132  1
  Ho  Ho5  1  0.466922  0.533084  0.008132  1
  Ho  Ho6  1  0.177376  0.354752  0.712276  1
  Ho  Ho7  1  0.645455  0.822509  0.712531  1
  Ho  Ho8  1  0.177054  0.822509  0.712531  1
  Ho  Ho9  1  0.822619  0.645238  0.212154  1
  Ho  Ho10  1  0.354386  0.177369  0.212101  1
  Ho  Ho11  1  0.822984  0.177369  0.212101  1
  Ho  Ho12  1  0.666871  0.333740  0.884715  1
  Ho  Ho13  1  0.333168  0.666338  0.384435  1
  Ho  Ho14  1  0.999958  0.999917  0.492269  1
  Ho  Ho15  1  0.999968  0.999936  0.992249  1
  In  In16  1  0.837359  0.674717  0.752725  1
  In  In17  1  0.325045  0.162713  0.752853  1
  In  In18  1  0.837668  0.162713  0.752853  1
  In  In19  1  0.162660  0.325319  0.252679  1
  In  In20  1  0.674698  0.837283  0.252661  1
  In  In21  1  0.162585  0.837283  0.252661  1
  Ru  Ru22  1  0.666830  0.333659  0.282846  1
  Ru  Ru23  1  0.333391  0.666783  0.783275  1
