# generated using pymatgen
data_HoScSi14RuRh5
_symmetry_space_group_name_H-M   'P 1'
_cell_length_a   7.93676858
_cell_length_b   7.93586576
_cell_length_c   7.96099895
_cell_angle_alpha   57.13164243
_cell_angle_beta   57.13539103
_cell_angle_gamma   57.21068848
_symmetry_Int_Tables_number   1
_chemical_formula_structural   HoScSi14RuRh5
_chemical_formula_sum   'Ho1 Sc1 Si14 Ru1 Rh5'
_cell_volume   331.35446596
_cell_formula_units_Z   1
loop_
 _symmetry_equiv_pos_site_id
 _symmetry_equiv_pos_as_xyz
  1  'x, y, z'
loop_
 _atom_site_type_symbol
 _atom_site_label
 _atom_site_symmetry_multiplicity
 _atom_site_fract_x
 _atom_site_fract_y
 _atom_site_fract_z
 _atom_site_occupancy
  Ho  Ho0  1  0.000505  0.001657  0.998357  1
  Sc  Sc1  1  0.497333  0.499230  0.502152  1
  Si  Si2  1  0.753181  0.747373  0.750237  1
  Si  Si3  1  0.249322  0.250198  0.249743  1
  Si  Si4  1  0.849725  0.067450  0.671371  1
  Si  Si5  1  0.670924  0.851118  0.066774  1
  Si  Si6  1  0.068019  0.668977  0.849956  1
  Si  Si7  1  0.647080  0.827309  0.435368  1
  Si  Si8  1  0.434960  0.648322  0.826812  1
  Si  Si9  1  0.829455  0.434382  0.648259  1
  Si  Si10  1  0.171771  0.564947  0.355438  1
  Si  Si11  1  0.564830  0.352468  0.173042  1
  Si  Si12  1  0.351216  0.174255  0.564772  1
  Si  Si13  1  0.933064  0.330147  0.146040  1
  Si  Si14  1  0.327651  0.150921  0.932807  1
  Si  Si15  1  0.149283  0.932763  0.328847  1
  Ru  Ru16  1  0.075857  0.427137  0.748253  1
  Rh  Rh17  1  0.252027  0.926459  0.570086  1
  Rh  Rh18  1  0.570831  0.251320  0.927257  1
  Rh  Rh19  1  0.925826  0.571299  0.251838  1
  Rh  Rh20  1  0.429292  0.748915  0.072887  1
  Rh  Rh21  1  0.747849  0.073355  0.429705  1
