# generated using pymatgen
data_Er5Bi(SbO7)2
_symmetry_space_group_name_H-M   'P 1'
_cell_length_a   6.45691020
_cell_length_b   6.45691086
_cell_length_c   7.51566856
_cell_angle_alpha   90.11195828
_cell_angle_beta   89.88804296
_cell_angle_gamma   108.92684026
_symmetry_Int_Tables_number   1
_chemical_formula_structural   Er5Bi(SbO7)2
_chemical_formula_sum   'Er5 Bi1 Sb2 O14'
_cell_volume   296.39885255
_cell_formula_units_Z   1
loop_
 _symmetry_equiv_pos_site_id
 _symmetry_equiv_pos_as_xyz
  1  'x, y, z'
loop_
 _atom_site_type_symbol
 _atom_site_label
 _atom_site_symmetry_multiplicity
 _atom_site_fract_x
 _atom_site_fract_y
 _atom_site_fract_z
 _atom_site_occupancy
  Er  Er0  1  0.500000  0.500000  0.000000  1
  Er  Er1  1  0.532321  0.000487  0.752301  1
  Er  Er2  1  0.000487  0.532321  0.247699  1
  Er  Er3  1  0.467679  0.999513  0.247699  1
  Er  Er4  1  0.999513  0.467679  0.752301  1
  Bi  Bi5  1  0.500000  0.500000  0.500000  1
  Sb  Sb6  1  0.000000  0.000000  0.500000  1
  Sb  Sb7  1  0.000000  0.000000  0.000000  1
  O  O8  1  0.678400  0.934899  0.469122  1
  O  O9  1  0.934899  0.678400  0.530878  1
  O  O10  1  0.677434  0.928078  0.029912  1
  O  O11  1  0.928078  0.677434  0.970088  1
  O  O12  1  0.321600  0.065101  0.530878  1
  O  O13  1  0.065101  0.321600  0.469122  1
  O  O14  1  0.322566  0.071922  0.970088  1
  O  O15  1  0.071922  0.322566  0.029912  1
  O  O16  1  0.928954  0.071046  0.749924  1
  O  O17  1  0.071046  0.928954  0.250076  1
  O  O18  1  0.365282  0.634718  0.761236  1
  O  O19  1  0.634718  0.365282  0.238764  1
  O  O20  1  0.640654  0.359346  0.759593  1
  O  O21  1  0.359346  0.640654  0.240407  1
