# generated using pymatgen
data_Dy2YMg(Co4P3)2
_symmetry_space_group_name_H-M   'P 1'
_cell_length_a   3.73219100
_cell_length_b   10.62680000
_cell_length_c   12.27836800
_cell_angle_alpha   90.00000000
_cell_angle_beta   90.00000000
_cell_angle_gamma   90.00000000
_symmetry_Int_Tables_number   1
_chemical_formula_structural   Dy2YMg(Co4P3)2
_chemical_formula_sum   'Dy4 Y2 Mg2 Co16 P12'
_cell_volume   486.97538992
_cell_formula_units_Z   2
loop_
 _symmetry_equiv_pos_site_id
 _symmetry_equiv_pos_as_xyz
  1  'x, y, z'
loop_
 _atom_site_type_symbol
 _atom_site_label
 _atom_site_symmetry_multiplicity
 _atom_site_fract_x
 _atom_site_fract_y
 _atom_site_fract_z
 _atom_site_occupancy
  Dy  Dy0  1  0.500000  0.821774  0.206462  1
  Dy  Dy1  1  0.500000  0.178226  0.206462  1
  Dy  Dy2  1  0.000000  0.678226  0.793538  1
  Dy  Dy3  1  0.000000  0.321774  0.793538  1
  Y  Y4  1  0.000000  0.500000  0.524871  1
  Y  Y5  1  0.500000  0.000000  0.475129  1
  Mg  Mg6  1  0.500000  0.500000  0.155481  1
  Mg  Mg7  1  0.000000  0.000000  0.844519  1
  Co  Co8  1  0.500000  0.500000  0.704643  1
  Co  Co9  1  0.000000  0.000000  0.295357  1
  Co  Co10  1  0.000000  0.500000  0.987685  1
  Co  Co11  1  0.500000  0.000000  0.012315  1
  Co  Co12  1  0.500000  0.332657  0.996245  1
  Co  Co13  1  0.500000  0.667343  0.996245  1
  Co  Co14  1  0.000000  0.167343  0.003755  1
  Co  Co15  1  0.000000  0.832657  0.003755  1
  Co  Co16  1  0.500000  0.296517  0.431741  1
  Co  Co17  1  0.500000  0.703483  0.431741  1
  Co  Co18  1  0.000000  0.203483  0.568259  1
  Co  Co19  1  0.000000  0.796517  0.568259  1
  Co  Co20  1  0.500000  0.877880  0.706262  1
  Co  Co21  1  0.500000  0.122120  0.706262  1
  Co  Co22  1  0.000000  0.622120  0.293738  1
  Co  Co23  1  0.000000  0.377880  0.293738  1
  P  P24  1  0.500000  0.500000  0.884490  1
  P  P25  1  0.000000  0.000000  0.115510  1
  P  P26  1  0.500000  0.500000  0.354306  1
  P  P27  1  0.000000  0.000000  0.645694  1
  P  P28  1  0.500000  0.309237  0.615334  1
  P  P29  1  0.500000  0.690763  0.615334  1
  P  P30  1  0.000000  0.190763  0.384666  1
  P  P31  1  0.000000  0.809237  0.384666  1
  P  P32  1  0.500000  0.839145  0.893685  1
  P  P33  1  0.500000  0.160855  0.893685  1
  P  P34  1  0.000000  0.660855  0.106315  1
  P  P35  1  0.000000  0.339145  0.106315  1
