# generated using pymatgen
data_CaTh(Si7Ir3)2
_symmetry_space_group_name_H-M   'P 1'
_cell_length_a   8.09308969
_cell_length_b   8.09309070
_cell_length_c   8.09309037
_cell_angle_alpha   56.55851872
_cell_angle_beta   56.55851399
_cell_angle_gamma   56.55851517
_symmetry_Int_Tables_number   1
_chemical_formula_structural   CaTh(Si7Ir3)2
_chemical_formula_sum   'Ca1 Th1 Si14 Ir6'
_cell_volume   345.01751656
_cell_formula_units_Z   1
loop_
 _symmetry_equiv_pos_site_id
 _symmetry_equiv_pos_as_xyz
  1  'x, y, z'
loop_
 _atom_site_type_symbol
 _atom_site_label
 _atom_site_symmetry_multiplicity
 _atom_site_fract_x
 _atom_site_fract_y
 _atom_site_fract_z
 _atom_site_occupancy
  Ca  Ca0  1  0.000000  0.000000  0.000000  1
  Th  Th1  1  0.500000  0.500000  0.500000  1
  Si  Si2  1  0.061829  0.853759  0.674723  1
  Si  Si3  1  0.674723  0.061829  0.853759  1
  Si  Si4  1  0.853759  0.674723  0.061829  1
  Si  Si5  1  0.171078  0.347478  0.565447  1
  Si  Si6  1  0.565447  0.171078  0.347478  1
  Si  Si7  1  0.347478  0.565447  0.171078  1
  Si  Si8  1  0.938171  0.146241  0.325277  1
  Si  Si9  1  0.325277  0.938171  0.146241  1
  Si  Si10  1  0.146241  0.325277  0.938171  1
  Si  Si11  1  0.828922  0.652522  0.434553  1
  Si  Si12  1  0.434553  0.828922  0.652522  1
  Si  Si13  1  0.652522  0.434553  0.828922  1
  Si  Si14  1  0.749669  0.749669  0.749669  1
  Si  Si15  1  0.250331  0.250331  0.250331  1
  Ir  Ir16  1  0.070769  0.748594  0.433019  1
  Ir  Ir17  1  0.433019  0.070769  0.748594  1
  Ir  Ir18  1  0.748594  0.433019  0.070769  1
  Ir  Ir19  1  0.929231  0.251406  0.566981  1
  Ir  Ir20  1  0.566981  0.929231  0.251406  1
  Ir  Ir21  1  0.251406  0.566981  0.929231  1
