# generated using pymatgen
data_Dy16Cd4IrOs2Rh
_symmetry_space_group_name_H-M   'P 1'
_cell_length_a   9.64451140
_cell_length_b   9.62584608
_cell_length_c   9.70482500
_cell_angle_alpha   59.72849127
_cell_angle_beta   59.79317771
_cell_angle_gamma   59.52909774
_symmetry_Int_Tables_number   1
_chemical_formula_structural   Dy16Cd4IrOs2Rh
_chemical_formula_sum   'Dy16 Cd4 Ir1 Os2 Rh1'
_cell_volume   632.49024182
_cell_formula_units_Z   1
loop_
 _symmetry_equiv_pos_site_id
 _symmetry_equiv_pos_as_xyz
  1  'x, y, z'
loop_
 _atom_site_type_symbol
 _atom_site_label
 _atom_site_symmetry_multiplicity
 _atom_site_fract_x
 _atom_site_fract_y
 _atom_site_fract_z
 _atom_site_occupancy
  Dy  Dy0  1  0.598797  0.598453  0.598010  1
  Dy  Dy1  1  0.598794  0.598452  0.204741  1
  Dy  Dy2  1  0.597062  0.209656  0.596637  1
  Dy  Dy3  1  0.209009  0.596762  0.597111  1
  Dy  Dy4  1  0.061291  0.437731  0.441003  1
  Dy  Dy5  1  0.437968  0.061733  0.059715  1
  Dy  Dy6  1  0.437968  0.061737  0.440583  1
  Dy  Dy7  1  0.061286  0.437730  0.059980  1
  Dy  Dy8  1  0.439017  0.438489  0.061251  1
  Dy  Dy9  1  0.059268  0.059821  0.440455  1
  Dy  Dy10  1  0.188188  0.807606  0.814802  1
  Dy  Dy11  1  0.807571  0.188597  0.190102  1
  Dy  Dy12  1  0.807572  0.188597  0.813731  1
  Dy  Dy13  1  0.188188  0.807604  0.189407  1
  Dy  Dy14  1  0.813597  0.811760  0.187321  1
  Dy  Dy15  1  0.189971  0.189685  0.810172  1
  Cd  Cd16  1  0.830199  0.830143  0.830792  1
  Cd  Cd17  1  0.830199  0.830142  0.508868  1
  Cd  Cd18  1  0.830458  0.507530  0.831006  1
  Cd  Cd19  1  0.507484  0.830364  0.831075  1
  Ir  Ir20  1  0.827805  0.394201  0.388997  1
  Os  Os21  1  0.392467  0.392487  0.387085  1
  Os  Os22  1  0.392466  0.392486  0.827963  1
  Rh  Rh23  1  0.393376  0.828235  0.389193  1
