# generated using pymatgen
data_Te8Pt
_symmetry_space_group_name_H-M   'P 1'
_cell_length_a   4.21042622
_cell_length_b   7.79750182
_cell_length_c   11.76222206
_cell_angle_alpha   100.48198809
_cell_angle_beta   122.60205974
_cell_angle_gamma   105.74259871
_symmetry_Int_Tables_number   1
_chemical_formula_structural   Te8Pt
_chemical_formula_sum   'Te8 Pt1'
_cell_volume   286.33262085
_cell_formula_units_Z   1
loop_
 _symmetry_equiv_pos_site_id
 _symmetry_equiv_pos_as_xyz
  1  'x, y, z'
loop_
 _atom_site_type_symbol
 _atom_site_label
 _atom_site_symmetry_multiplicity
 _atom_site_fract_x
 _atom_site_fract_y
 _atom_site_fract_z
 _atom_site_occupancy
  Te  Te0  1  0.842806  0.398296  0.097143  1
  Te  Te1  1  0.919511  0.969468  0.289736  1
  Te  Te2  1  0.484834  0.688652  0.427051  1
  Te  Te3  1  0.515166  0.311347  0.572950  1
  Te  Te4  1  0.080489  0.030531  0.710264  1
  Te  Te5  1  0.157194  0.601704  0.902857  1
  Te  Te6  1  0.431266  0.215413  0.217254  1
  Te  Te7  1  0.568734  0.784588  0.782747  1
  Pt  Pt8  1  0.000000  0.500000  0.500000  1
