# generated using pymatgen
data_Cd3BiP6N13
_symmetry_space_group_name_H-M   'P 1'
_cell_length_a   7.35862832
_cell_length_b   7.33305551
_cell_length_c   7.33305658
_cell_angle_alpha   109.40046762
_cell_angle_beta   109.54189201
_cell_angle_gamma   109.54188331
_symmetry_Int_Tables_number   1
_chemical_formula_structural   Cd3BiP6N13
_chemical_formula_sum   'Cd3 Bi1 P6 N13'
_cell_volume   304.34449327
_cell_formula_units_Z   1
loop_
 _symmetry_equiv_pos_site_id
 _symmetry_equiv_pos_as_xyz
  1  'x, y, z'
loop_
 _atom_site_type_symbol
 _atom_site_label
 _atom_site_symmetry_multiplicity
 _atom_site_fract_x
 _atom_site_fract_y
 _atom_site_fract_z
 _atom_site_occupancy
  Cd  Cd0  1  0.003703  0.000000  0.700809  1
  Cd  Cd1  1  0.003703  0.700809  0.000000  1
  Cd  Cd2  1  0.302894  0.299191  0.299191  1
  Bi  Bi3  1  0.701990  0.000000  0.000000  1
  P  P4  1  0.245560  0.747687  0.496195  1
  P  P5  1  0.749365  0.251492  0.503805  1
  P  P6  1  0.749365  0.503805  0.251492  1
  P  P7  1  0.245560  0.496195  0.747687  1
  P  P8  1  0.497873  0.748508  0.252313  1
  P  P9  1  0.497873  0.252313  0.748508  1
  N  N10  1  0.009987  0.000000  0.000000  1
  N  N11  1  0.714170  0.287164  0.287164  1
  N  N12  1  0.278561  0.710449  0.279535  1
  N  N13  1  0.293632  0.574173  0.574173  1
  N  N14  1  0.568112  0.569086  0.289551  1
  N  N15  1  0.427006  0.712836  0.000000  1
  N  N16  1  0.999026  0.720465  0.430914  1
  N  N17  1  0.568112  0.289551  0.569086  1
  N  N18  1  0.719458  0.000000  0.425827  1
  N  N19  1  0.427006  0.000000  0.712836  1
  N  N20  1  0.719458  0.425827  0.000000  1
  N  N21  1  0.278561  0.279535  0.710449  1
  N  N22  1  0.999026  0.430914  0.720465  1
