# generated using pymatgen
data_YU3O8
_symmetry_space_group_name_H-M   'P 1'
_cell_length_a   5.39667522
_cell_length_b   5.39667522
_cell_length_c   5.39667522
_cell_angle_alpha   89.94555440
_cell_angle_beta   89.94555440
_cell_angle_gamma   89.94555440
_symmetry_Int_Tables_number   1
_chemical_formula_structural   YU3O8
_chemical_formula_sum   'Y1 U3 O8'
_cell_volume   157.17311433
_cell_formula_units_Z   1
loop_
 _symmetry_equiv_pos_site_id
 _symmetry_equiv_pos_as_xyz
  1  'x, y, z'
loop_
 _atom_site_type_symbol
 _atom_site_label
 _atom_site_symmetry_multiplicity
 _atom_site_fract_x
 _atom_site_fract_y
 _atom_site_fract_z
 _atom_site_occupancy
  Y  Y0  1  0.000000  0.000000  0.000000  1
  U  U1  1  0.500001  0.500001  0.000000  1
  U  U2  1  0.500001  0.000000  0.500001  1
  U  U3  1  0.000000  0.500001  0.500001  1
  O  O4  1  0.251739  0.251739  0.251739  1
  O  O5  1  0.255516  0.745338  0.250646  1
  O  O6  1  0.745338  0.250646  0.255516  1
  O  O7  1  0.749355  0.744485  0.254663  1
  O  O8  1  0.250646  0.255516  0.745338  1
  O  O9  1  0.254663  0.749355  0.744485  1
  O  O10  1  0.744485  0.254663  0.749355  1
  O  O11  1  0.748262  0.748262  0.748262  1
