# generated using pymatgen
data_Dy2B4IrOs2Ru
_symmetry_space_group_name_H-M   'P 1'
_cell_length_a   6.73322250
_cell_length_b   5.97236582
_cell_length_c   5.54483897
_cell_angle_alpha   71.44296540
_cell_angle_beta   57.23339519
_cell_angle_gamma   51.71972477
_symmetry_Int_Tables_number   1
_chemical_formula_structural   Dy2B4IrOs2Ru
_chemical_formula_sum   'Dy2 B4 Ir1 Os2 Ru1'
_cell_volume   147.13386506
_cell_formula_units_Z   1
loop_
 _symmetry_equiv_pos_site_id
 _symmetry_equiv_pos_as_xyz
  1  'x, y, z'
loop_
 _atom_site_type_symbol
 _atom_site_label
 _atom_site_symmetry_multiplicity
 _atom_site_fract_x
 _atom_site_fract_y
 _atom_site_fract_z
 _atom_site_occupancy
  Dy  Dy0  1  0.499102  0.499102  0.500898  1
  Dy  Dy1  1  0.749704  0.749704  0.750296  1
  B  B2  1  0.183430  0.815105  0.184197  1
  B  B3  1  0.060001  0.442463  0.056818  1
  B  B4  1  0.815105  0.183430  0.817268  1
  B  B5  1  0.442463  0.060001  0.440718  1
  Ir  Ir6  1  0.114040  0.114040  0.385960  1
  Os  Os7  1  0.862995  0.862995  0.137005  1
  Os  Os8  1  0.136848  0.136848  0.863152  1
  Ru  Ru9  1  0.386312  0.386312  0.113688  1
