# generated using pymatgen
data_Y13Ho7(Bi2Os)4
_symmetry_space_group_name_H-M   'P 1'
_cell_length_a   7.97698235
_cell_length_b   9.02906723
_cell_length_c   12.56177524
_cell_angle_alpha   89.99852572
_cell_angle_beta   89.97750637
_cell_angle_gamma   90.02546464
_symmetry_Int_Tables_number   1
_chemical_formula_structural   Y13Ho7(Bi2Os)4
_chemical_formula_sum   'Y13 Ho7 Bi8 Os4'
_cell_volume   904.75805815
_cell_formula_units_Z   1
loop_
 _symmetry_equiv_pos_site_id
 _symmetry_equiv_pos_as_xyz
  1  'x, y, z'
loop_
 _atom_site_type_symbol
 _atom_site_label
 _atom_site_symmetry_multiplicity
 _atom_site_fract_x
 _atom_site_fract_y
 _atom_site_fract_z
 _atom_site_occupancy
  Y  Y0  1  0.839851  0.749944  0.791627  1
  Y  Y1  1  0.160234  0.250058  0.208431  1
  Y  Y2  1  0.339660  0.250204  0.708428  1
  Y  Y3  1  0.660232  0.749958  0.291503  1
  Y  Y4  1  0.374335  0.749870  0.691102  1
  Y  Y5  1  0.625463  0.250202  0.308830  1
  Y  Y6  1  0.874479  0.250104  0.808997  1
  Y  Y7  1  0.125532  0.749979  0.191080  1
  Y  Y8  1  0.944293  0.749603  0.504304  1
  Y  Y9  1  0.056050  0.250256  0.495587  1
  Y  Y10  1  0.444109  0.250039  0.995635  1
  Y  Y11  1  0.555932  0.749974  0.004396  1
  Y  Y12  1  0.674350  0.041568  0.565112  1
  Ho  Ho13  1  0.327023  0.958528  0.435409  1
  Ho  Ho14  1  0.172800  0.958515  0.935474  1
  Ho  Ho15  1  0.327168  0.541371  0.435481  1
  Ho  Ho16  1  0.827185  0.041440  0.064502  1
  Ho  Ho17  1  0.672889  0.458516  0.564563  1
  Ho  Ho18  1  0.827185  0.458562  0.064524  1
  Ho  Ho19  1  0.172823  0.541505  0.935456  1
  Bi  Bi20  1  0.566253  0.493283  0.827470  1
  Bi  Bi21  1  0.433687  0.506744  0.172529  1
  Bi  Bi22  1  0.066261  0.506752  0.672574  1
  Bi  Bi23  1  0.433701  0.993290  0.172552  1
  Bi  Bi24  1  0.933744  0.493272  0.327419  1
  Bi  Bi25  1  0.566152  0.006726  0.827531  1
  Bi  Bi26  1  0.933651  0.006729  0.327475  1
  Bi  Bi27  1  0.066380  0.993283  0.672586  1
  Os  Os28  1  0.573753  0.748922  0.509209  1
  Os  Os29  1  0.424819  0.250812  0.490169  1
  Os  Os30  1  0.074166  0.249981  0.990556  1
  Os  Os31  1  0.925840  0.750010  0.009489  1
