# generated using pymatgen
data_Pr2Th3Bi3Se
_symmetry_space_group_name_H-M   'P 1'
_cell_length_a   9.61034358
_cell_length_b   9.63503692
_cell_length_c   6.78244400
_cell_angle_alpha   90.00000000
_cell_angle_beta   90.00000000
_cell_angle_gamma   120.08503128
_symmetry_Int_Tables_number   1
_chemical_formula_structural   Pr2Th3Bi3Se
_chemical_formula_sum   'Pr4 Th6 Bi6 Se2'
_cell_volume   543.42096666
_cell_formula_units_Z   2
loop_
 _symmetry_equiv_pos_site_id
 _symmetry_equiv_pos_as_xyz
  1  'x, y, z'
loop_
 _atom_site_type_symbol
 _atom_site_label
 _atom_site_symmetry_multiplicity
 _atom_site_fract_x
 _atom_site_fract_y
 _atom_site_fract_z
 _atom_site_occupancy
  Pr  Pr0  1  0.000000  0.261290  0.750000  1
  Pr  Pr1  1  0.261266  0.260620  0.250000  1
  Pr  Pr2  1  0.738734  0.999354  0.250000  1
  Pr  Pr3  1  0.000000  0.736489  0.250000  1
  Th  Th4  1  0.664874  0.334369  0.998631  1
  Th  Th5  1  0.335126  0.669496  0.998631  1
  Th  Th6  1  0.335126  0.669496  0.501369  1
  Th  Th7  1  0.664874  0.334369  0.501369  1
  Th  Th8  1  0.740175  0.739591  0.750000  1
  Th  Th9  1  0.259825  0.999416  0.750000  1
  Bi  Bi10  1  0.388666  0.389755  0.750000  1
  Bi  Bi11  1  0.611334  0.001089  0.750000  1
  Bi  Bi12  1  0.000000  0.609803  0.750000  1
  Bi  Bi13  1  0.610194  0.610538  0.250000  1
  Bi  Bi14  1  0.389806  0.000344  0.250000  1
  Bi  Bi15  1  0.000000  0.389968  0.250000  1
  Se  Se16  1  0.000000  0.997006  0.998529  1
  Se  Se17  1  0.000000  0.997006  0.501471  1
