# generated using pymatgen
data_Y4Lu8TcOs3
_symmetry_space_group_name_H-M   'P 1'
_cell_length_a   6.20040964
_cell_length_b   7.44707064
_cell_length_c   8.82535300
_cell_angle_alpha   90.00000000
_cell_angle_beta   90.00000000
_cell_angle_gamma   90.16655001
_symmetry_Int_Tables_number   1
_chemical_formula_structural   Y4Lu8TcOs3
_chemical_formula_sum   'Y4 Lu8 Tc1 Os3'
_cell_volume   407.50797042
_cell_formula_units_Z   1
loop_
 _symmetry_equiv_pos_site_id
 _symmetry_equiv_pos_as_xyz
  1  'x, y, z'
loop_
 _atom_site_type_symbol
 _atom_site_label
 _atom_site_symmetry_multiplicity
 _atom_site_fract_x
 _atom_site_fract_y
 _atom_site_fract_z
 _atom_site_occupancy
  Y  Y0  1  0.876205  0.538529  0.250000  1
  Y  Y1  1  0.620919  0.036341  0.250000  1
  Y  Y2  1  0.125263  0.460663  0.750000  1
  Y  Y3  1  0.375715  0.963544  0.750000  1
  Lu  Lu4  1  0.341496  0.672117  0.062020  1
  Lu  Lu5  1  0.158107  0.174640  0.437630  1
  Lu  Lu6  1  0.660555  0.327164  0.562038  1
  Lu  Lu7  1  0.842251  0.826220  0.937219  1
  Lu  Lu8  1  0.660555  0.327164  0.937962  1
  Lu  Lu9  1  0.842251  0.826220  0.562781  1
  Lu  Lu10  1  0.341496  0.672117  0.437980  1
  Lu  Lu11  1  0.158107  0.174640  0.062370  1
  Tc  Tc12  1  0.047096  0.880218  0.250000  1
  Os  Os13  1  0.452749  0.380162  0.250000  1
  Os  Os14  1  0.950372  0.120042  0.750000  1
  Os  Os15  1  0.546862  0.620216  0.750000  1
