# generated using pymatgen
data_TbDy3(Lu4Sb3)4
_symmetry_space_group_name_H-M   'P 1'
_cell_length_a   7.97017015
_cell_length_b   9.15352500
_cell_length_c   11.56674200
_cell_angle_alpha   90.00000000
_cell_angle_beta   90.01094851
_cell_angle_gamma   90.00000000
_symmetry_Int_Tables_number   1
_chemical_formula_structural   TbDy3(Lu4Sb3)4
_chemical_formula_sum   'Tb1 Dy3 Lu16 Sb12'
_cell_volume   843.85340166
_cell_formula_units_Z   1
loop_
 _symmetry_equiv_pos_site_id
 _symmetry_equiv_pos_as_xyz
  1  'x, y, z'
loop_
 _atom_site_type_symbol
 _atom_site_label
 _atom_site_symmetry_multiplicity
 _atom_site_fract_x
 _atom_site_fract_y
 _atom_site_fract_z
 _atom_site_occupancy
  Tb  Tb0  1  0.185168  0.750000  0.718867  1
  Dy  Dy1  1  0.314670  0.250000  0.218856  1
  Dy  Dy2  1  0.814705  0.250000  0.281155  1
  Dy  Dy3  1  0.685212  0.750000  0.781114  1
  Lu  Lu4  1  0.352531  0.750000  0.216498  1
  Lu  Lu5  1  0.852473  0.750000  0.283438  1
  Lu  Lu6  1  0.647547  0.250000  0.783596  1
  Lu  Lu7  1  0.147507  0.250000  0.716491  1
  Lu  Lu8  1  0.691717  0.562933  0.060499  1
  Lu  Lu9  1  0.191577  0.937009  0.439476  1
  Lu  Lu10  1  0.308341  0.062967  0.939611  1
  Lu  Lu11  1  0.808457  0.437015  0.560465  1
  Lu  Lu12  1  0.308341  0.437033  0.939611  1
  Lu  Lu13  1  0.808457  0.062985  0.560465  1
  Lu  Lu14  1  0.691717  0.937067  0.060499  1
  Lu  Lu15  1  0.191577  0.562991  0.439476  1
  Lu  Lu16  1  0.474311  0.250000  0.489031  1
  Lu  Lu17  1  0.974203  0.250000  0.010973  1
  Lu  Lu18  1  0.525717  0.750000  0.510784  1
  Lu  Lu19  1  0.025772  0.750000  0.989153  1
  Sb  Sb20  1  0.406254  0.750000  0.960796  1
  Sb  Sb21  1  0.905556  0.750000  0.539048  1
  Sb  Sb22  1  0.593987  0.250000  0.039443  1
  Sb  Sb23  1  0.094059  0.250000  0.460586  1
  Sb  Sb24  1  0.565441  0.994037  0.326936  1
  Sb  Sb25  1  0.065490  0.506002  0.172997  1
  Sb  Sb26  1  0.434938  0.493724  0.672948  1
  Sb  Sb27  1  0.934202  0.006248  0.827154  1
  Sb  Sb28  1  0.434938  0.006276  0.672948  1
  Sb  Sb29  1  0.934202  0.493752  0.827154  1
  Sb  Sb30  1  0.565441  0.505963  0.326936  1
  Sb  Sb31  1  0.065490  0.993998  0.172997  1
