# generated using pymatgen
data_Li3SiGe3Ru5
_symmetry_space_group_name_H-M   'P 1'
_cell_length_a   4.22812400
_cell_length_b   5.16040353
_cell_length_c   7.33156216
_cell_angle_alpha   88.02872605
_cell_angle_beta   90.00000000
_cell_angle_gamma   90.00000000
_symmetry_Int_Tables_number   1
_chemical_formula_structural   Li3SiGe3Ru5
_chemical_formula_sum   'Li3 Si1 Ge3 Ru5'
_cell_volume   159.87141099
_cell_formula_units_Z   1
loop_
 _symmetry_equiv_pos_site_id
 _symmetry_equiv_pos_as_xyz
  1  'x, y, z'
loop_
 _atom_site_type_symbol
 _atom_site_label
 _atom_site_symmetry_multiplicity
 _atom_site_fract_x
 _atom_site_fract_y
 _atom_site_fract_z
 _atom_site_occupancy
  Li  Li0  1  0.750000  0.500160  0.750027  1
  Li  Li1  1  0.250000  0.500478  0.251058  1
  Li  Li2  1  0.750000  0.998553  0.748765  1
  Si  Si3  1  0.250000  0.773468  0.564278  1
  Ge  Ge4  1  0.250000  0.220943  0.930127  1
  Ge  Ge5  1  0.750000  0.810292  0.091738  1
  Ge  Ge6  1  0.750000  0.189204  0.411511  1
  Ru  Ru7  1  0.250000  0.998069  0.254655  1
  Ru  Ru8  1  0.250000  0.716070  0.895989  1
  Ru  Ru9  1  0.750000  0.327858  0.081396  1
  Ru  Ru10  1  0.250000  0.290804  0.594787  1
  Ru  Ru11  1  0.750000  0.674100  0.425670  1
