# generated using pymatgen
data_TbHo3(Si5Os3)2
_symmetry_space_group_name_H-M   'P 1'
_cell_length_a   8.12827139
_cell_length_b   8.12754231
_cell_length_c   5.78970299
_cell_angle_alpha   70.54368790
_cell_angle_beta   70.49516274
_cell_angle_gamma   94.03831247
_symmetry_Int_Tables_number   1
_chemical_formula_structural   TbHo3(Si5Os3)2
_chemical_formula_sum   'Tb1 Ho3 Si10 Os6'
_cell_volume   332.77211849
_cell_formula_units_Z   1
loop_
 _symmetry_equiv_pos_site_id
 _symmetry_equiv_pos_as_xyz
  1  'x, y, z'
loop_
 _atom_site_type_symbol
 _atom_site_label
 _atom_site_symmetry_multiplicity
 _atom_site_fract_x
 _atom_site_fract_y
 _atom_site_fract_z
 _atom_site_occupancy
  Tb  Tb0  1  0.867812  0.602633  0.753237  1
  Ho  Ho1  1  0.399356  0.130435  0.746221  1
  Ho  Ho2  1  0.130904  0.398529  0.246751  1
  Ho  Ho3  1  0.601595  0.868026  0.254405  1
  Si  Si4  1  0.069320  0.261370  0.833799  1
  Si  Si5  1  0.737516  0.933623  0.666606  1
  Si  Si6  1  0.932275  0.738774  0.165818  1
  Si  Si7  1  0.261641  0.068318  0.333771  1
  Si  Si8  1  0.206620  0.793875  0.749872  1
  Si  Si9  1  0.793599  0.206296  0.250314  1
  Si  Si10  1  0.511695  0.486490  0.750274  1
  Si  Si11  1  0.487083  0.511915  0.250027  1
  Si  Si12  1  0.774701  0.225085  0.749665  1
  Si  Si13  1  0.225586  0.774663  0.249718  1
  Os  Os14  1  0.255871  0.543905  0.630933  1
  Os  Os15  1  0.455837  0.743771  0.869066  1
  Os  Os16  1  0.744160  0.456121  0.368841  1
  Os  Os17  1  0.544114  0.255159  0.130817  1
  Os  Os18  1  0.002426  0.998351  0.749713  1
  Os  Os19  1  0.997887  0.002662  0.250151  1
