# generated using pymatgen
data_Sr4YSi12Ir19
_symmetry_space_group_name_H-M   'P 1'
_cell_length_a   12.93353300
_cell_length_b   12.93353313
_cell_length_c   4.05557800
_cell_angle_alpha   90.00000000
_cell_angle_beta   90.00000000
_cell_angle_gamma   120.00000223
_symmetry_Int_Tables_number   1
_chemical_formula_structural   Sr4YSi12Ir19
_chemical_formula_sum   'Sr4 Y1 Si12 Ir19'
_cell_volume   587.51334511
_cell_formula_units_Z   1
loop_
 _symmetry_equiv_pos_site_id
 _symmetry_equiv_pos_as_xyz
  1  'x, y, z'
loop_
 _atom_site_type_symbol
 _atom_site_label
 _atom_site_symmetry_multiplicity
 _atom_site_fract_x
 _atom_site_fract_y
 _atom_site_fract_z
 _atom_site_occupancy
  Sr  Sr0  1  0.000132  0.817461  0.500000  1
  Sr  Sr1  1  0.182539  0.182671  0.500000  1
  Sr  Sr2  1  0.817329  0.999868  0.500000  1
  Sr  Sr3  1  0.666667  0.333333  0.000000  1
  Y  Y4  1  0.333333  0.666667  0.000000  1
  Si  Si5  1  0.000686  0.186764  0.000000  1
  Si  Si6  1  0.813236  0.813922  0.000000  1
  Si  Si7  1  0.186078  0.999314  0.000000  1
  Si  Si8  1  0.519358  0.689321  0.500000  1
  Si  Si9  1  0.310679  0.830038  0.500000  1
  Si  Si10  1  0.169962  0.480642  0.500000  1
  Si  Si11  1  0.478853  0.167292  0.500000  1
  Si  Si12  1  0.688439  0.521147  0.500000  1
  Si  Si13  1  0.832708  0.311561  0.500000  1
  Si  Si14  1  0.999434  0.628909  0.000000  1
  Si  Si15  1  0.371091  0.370525  0.000000  1
  Si  Si16  1  0.629475  0.000566  0.000000  1
  Ir  Ir17  1  0.001240  0.287555  0.500000  1
  Ir  Ir18  1  0.712445  0.713685  0.500000  1
  Ir  Ir19  1  0.286315  0.998760  0.500000  1
  Ir  Ir20  1  0.617090  0.802581  0.000000  1
  Ir  Ir21  1  0.197419  0.814510  0.000000  1
  Ir  Ir22  1  0.185490  0.382910  0.000000  1
  Ir  Ir23  1  0.379799  0.182890  0.000000  1
  Ir  Ir24  1  0.803090  0.620201  0.000000  1
  Ir  Ir25  1  0.817110  0.196910  0.000000  1
  Ir  Ir26  1  0.509364  0.872034  0.500000  1
  Ir  Ir27  1  0.127966  0.637330  0.500000  1
  Ir  Ir28  1  0.362670  0.490636  0.500000  1
  Ir  Ir29  1  0.484845  0.362163  0.500000  1
  Ir  Ir30  1  0.877318  0.515155  0.500000  1
  Ir  Ir31  1  0.637837  0.122682  0.500000  1
  Ir  Ir32  1  0.000000  0.000000  0.000000  1
  Ir  Ir33  1  0.001418  0.448408  0.000000  1
  Ir  Ir34  1  0.551592  0.553011  0.000000  1
  Ir  Ir35  1  0.446989  0.998582  0.000000  1
