# generated using pymatgen
data_Ce2Mn5Fe3Ni4P7
_symmetry_space_group_name_H-M   'P 1'
_cell_length_a   9.20029303
_cell_length_b   9.20874675
_cell_length_c   3.67066600
_cell_angle_alpha   90.00000000
_cell_angle_beta   90.00000000
_cell_angle_gamma   120.20245041
_symmetry_Int_Tables_number   1
_chemical_formula_structural   Ce2Mn5Fe3Ni4P7
_chemical_formula_sum   'Ce2 Mn5 Fe3 Ni4 P7'
_cell_volume   268.77452248
_cell_formula_units_Z   1
loop_
 _symmetry_equiv_pos_site_id
 _symmetry_equiv_pos_as_xyz
  1  'x, y, z'
loop_
 _atom_site_type_symbol
 _atom_site_label
 _atom_site_symmetry_multiplicity
 _atom_site_fract_x
 _atom_site_fract_y
 _atom_site_fract_z
 _atom_site_occupancy
  Ce  Ce0  1  0.998666  0.001499  0.000000  1
  Ce  Ce1  1  0.335253  0.665019  0.500000  1
  Mn  Mn2  1  0.712573  0.943526  0.500000  1
  Mn  Mn3  1  0.227812  0.282887  0.500000  1
  Mn  Mn4  1  0.886624  0.437302  0.500000  1
  Mn  Mn5  1  0.557165  0.123054  0.500000  1
  Mn  Mn6  1  0.565226  0.444858  0.500000  1
  Fe  Fe7  1  0.825874  0.611554  0.000000  1
  Fe  Fe8  1  0.783633  0.178936  0.000000  1
  Fe  Fe9  1  0.394223  0.213413  0.000000  1
  Ni  Ni10  1  0.093602  0.395120  0.000000  1
  Ni  Ni11  1  0.299097  0.901264  0.000000  1
  Ni  Ni12  1  0.601501  0.695702  0.000000  1
  Ni  Ni13  1  0.057044  0.772688  0.500000  1
  P  P14  1  0.073804  0.633712  0.000000  1
  P  P15  1  0.562604  0.925639  0.000000  1
  P  P16  1  0.361209  0.433990  0.000000  1
  P  P17  1  0.779508  0.733840  0.500000  1
  P  P18  1  0.946201  0.212384  0.500000  1
  P  P19  1  0.269080  0.056631  0.500000  1
  P  P20  1  0.669300  0.336981  0.000000  1
