# generated using pymatgen
data_Dy5Y3Cd2NiIr
_symmetry_space_group_name_H-M   'P 1'
_cell_length_a   9.60897858
_cell_length_b   9.60897912
_cell_length_c   9.65726300
_cell_angle_alpha   59.83364237
_cell_angle_beta   59.83364051
_cell_angle_gamma   59.63259491
_symmetry_Int_Tables_number   1
_chemical_formula_structural   Dy5Y3Cd2NiIr
_chemical_formula_sum   'Dy10 Y6 Cd4 Ni2 Ir2'
_cell_volume   627.16606916
_cell_formula_units_Z   2
loop_
 _symmetry_equiv_pos_site_id
 _symmetry_equiv_pos_as_xyz
  1  'x, y, z'
loop_
 _atom_site_type_symbol
 _atom_site_label
 _atom_site_symmetry_multiplicity
 _atom_site_fract_x
 _atom_site_fract_y
 _atom_site_fract_z
 _atom_site_occupancy
  Dy  Dy0  1  0.600184  0.600184  0.594823  1
  Dy  Dy1  1  0.600184  0.600184  0.204809  1
  Dy  Dy2  1  0.602830  0.202664  0.597253  1
  Dy  Dy3  1  0.202664  0.602830  0.597253  1
  Dy  Dy4  1  0.059267  0.437655  0.440685  1
  Dy  Dy5  1  0.437655  0.059267  0.062393  1
  Dy  Dy6  1  0.437655  0.059267  0.440685  1
  Dy  Dy7  1  0.059267  0.437655  0.062393  1
  Dy  Dy8  1  0.439300  0.439300  0.060700  1
  Dy  Dy9  1  0.060993  0.060993  0.439007  1
  Y  Y10  1  0.187553  0.810842  0.815741  1
  Y  Y11  1  0.810842  0.187553  0.185864  1
  Y  Y12  1  0.810842  0.187553  0.815741  1
  Y  Y13  1  0.187553  0.810842  0.185864  1
  Y  Y14  1  0.815425  0.815425  0.184575  1
  Y  Y15  1  0.189023  0.189023  0.810977  1
  Cd  Cd16  1  0.829899  0.829899  0.832610  1
  Cd  Cd17  1  0.829899  0.829899  0.507589  1
  Cd  Cd18  1  0.830117  0.506154  0.831864  1
  Cd  Cd19  1  0.506154  0.830117  0.831864  1
  Ni  Ni20  1  0.391971  0.824905  0.391562  1
  Ni  Ni21  1  0.824905  0.391971  0.391562  1
  Ir  Ir22  1  0.392908  0.392908  0.391234  1
  Ir  Ir23  1  0.392908  0.392908  0.822950  1
