# generated using pymatgen
data_PrBeCu12
_symmetry_space_group_name_H-M   'P 1'
_cell_length_a   8.08439127
_cell_length_b   8.08439138
_cell_length_c   8.08439100
_cell_angle_alpha   59.99999745
_cell_angle_beta   59.99999700
_cell_angle_gamma   60.00000318
_symmetry_Int_Tables_number   1
_chemical_formula_structural   PrBeCu12
_chemical_formula_sum   'Pr2 Be2 Cu24'
_cell_volume   373.61728380
_cell_formula_units_Z   2
loop_
 _symmetry_equiv_pos_site_id
 _symmetry_equiv_pos_as_xyz
  1  'x, y, z'
loop_
 _atom_site_type_symbol
 _atom_site_label
 _atom_site_symmetry_multiplicity
 _atom_site_fract_x
 _atom_site_fract_y
 _atom_site_fract_z
 _atom_site_occupancy
  Pr  Pr0  1  0.250000  0.250000  0.250000  1
  Pr  Pr1  1  0.750000  0.750000  0.750000  1
  Be  Be2  1  0.500000  0.500000  0.500000  1
  Be  Be3  1  0.000000  0.000000  0.000000  1
  Cu  Cu4  1  0.792253  0.561781  0.207747  1
  Cu  Cu5  1  0.207747  0.438219  0.792253  1
  Cu  Cu6  1  0.561781  0.792253  0.438219  1
  Cu  Cu7  1  0.438219  0.207747  0.561781  1
  Cu  Cu8  1  0.292253  0.938219  0.707747  1
  Cu  Cu9  1  0.707747  0.061781  0.292253  1
  Cu  Cu10  1  0.938219  0.292253  0.061781  1
  Cu  Cu11  1  0.061781  0.707747  0.938219  1
  Cu  Cu12  1  0.207747  0.792253  0.561781  1
  Cu  Cu13  1  0.792253  0.207747  0.438219  1
  Cu  Cu14  1  0.438219  0.561781  0.792253  1
  Cu  Cu15  1  0.561781  0.438219  0.207747  1
  Cu  Cu16  1  0.707747  0.292253  0.938219  1
  Cu  Cu17  1  0.292253  0.707747  0.061781  1
  Cu  Cu18  1  0.061781  0.938219  0.292253  1
  Cu  Cu19  1  0.938219  0.061781  0.707747  1
  Cu  Cu20  1  0.561781  0.207747  0.792253  1
  Cu  Cu21  1  0.438219  0.792253  0.207747  1
  Cu  Cu22  1  0.792253  0.438219  0.561781  1
  Cu  Cu23  1  0.207747  0.561781  0.438219  1
  Cu  Cu24  1  0.938219  0.707747  0.292253  1
  Cu  Cu25  1  0.061781  0.292253  0.707747  1
  Cu  Cu26  1  0.292253  0.061781  0.938219  1
  Cu  Cu27  1  0.707747  0.938219  0.061781  1
