# generated using pymatgen
data_Yb4Pd3Pb2Au
_symmetry_space_group_name_H-M   'P 1'
_cell_length_a   7.86676543
_cell_length_b   7.86676543
_cell_length_c   3.74599500
_cell_angle_alpha   90.00000000
_cell_angle_beta   90.00000000
_cell_angle_gamma   90.06903084
_symmetry_Int_Tables_number   1
_chemical_formula_structural   Yb4Pd3Pb2Au
_chemical_formula_sum   'Yb4 Pd3 Pb2 Au1'
_cell_volume   231.82447191
_cell_formula_units_Z   1
loop_
 _symmetry_equiv_pos_site_id
 _symmetry_equiv_pos_as_xyz
  1  'x, y, z'
loop_
 _atom_site_type_symbol
 _atom_site_label
 _atom_site_symmetry_multiplicity
 _atom_site_fract_x
 _atom_site_fract_y
 _atom_site_fract_z
 _atom_site_occupancy
  Yb  Yb0  1  0.337318  0.837318  0.000000  1
  Yb  Yb1  1  0.667574  0.167574  0.000000  1
  Yb  Yb2  1  0.824850  0.670096  0.000000  1
  Yb  Yb3  1  0.170096  0.324850  0.000000  1
  Pd  Pd4  1  0.371981  0.130447  0.500000  1
  Pd  Pd5  1  0.630447  0.871981  0.500000  1
  Pd  Pd6  1  0.868337  0.368337  0.500000  1
  Pb  Pb7  1  0.997350  0.008768  0.500000  1
  Pb  Pb8  1  0.508768  0.497350  0.500000  1
  Au  Au9  1  0.123277  0.623277  0.500000  1
