# generated using pymatgen
data_Ce3Ho9Mn3Zn
_symmetry_space_group_name_H-M   'P 1'
_cell_length_a   6.37240000
_cell_length_b   6.96370501
_cell_length_c   9.43363100
_cell_angle_alpha   90.00000000
_cell_angle_beta   90.00000000
_cell_angle_gamma   91.08909353
_symmetry_Int_Tables_number   1
_chemical_formula_structural   Ce3Ho9Mn3Zn
_chemical_formula_sum   'Ce3 Ho9 Mn3 Zn1'
_cell_volume   418.54659757
_cell_formula_units_Z   1
loop_
 _symmetry_equiv_pos_site_id
 _symmetry_equiv_pos_as_xyz
  1  'x, y, z'
loop_
 _atom_site_type_symbol
 _atom_site_label
 _atom_site_symmetry_multiplicity
 _atom_site_fract_x
 _atom_site_fract_y
 _atom_site_fract_z
 _atom_site_occupancy
  Ce  Ce0  1  0.124462  0.422471  0.750000  1
  Ce  Ce1  1  0.379992  0.927875  0.750000  1
  Ce  Ce2  1  0.896833  0.580010  0.250000  1
  Ho  Ho3  1  0.674317  0.326362  0.937514  1
  Ho  Ho4  1  0.624964  0.015713  0.250000  1
  Ho  Ho5  1  0.161996  0.169284  0.438276  1
  Ho  Ho6  1  0.829260  0.825604  0.564842  1
  Ho  Ho7  1  0.161996  0.169284  0.061724  1
  Ho  Ho8  1  0.829260  0.825604  0.935158  1
  Ho  Ho9  1  0.674317  0.326362  0.562486  1
  Ho  Ho10  1  0.326638  0.682061  0.050782  1
  Ho  Ho11  1  0.326638  0.682061  0.449218  1
  Mn  Mn12  1  0.504108  0.648012  0.750000  1
  Mn  Mn13  1  0.988790  0.144147  0.750000  1
  Mn  Mn14  1  0.032068  0.857951  0.250000  1
  Zn  Zn15  1  0.464360  0.397204  0.250000  1
