# generated using pymatgen
data_Cs4K3(BPt)12
_symmetry_space_group_name_H-M   'P 1'
_cell_length_a   9.53973649
_cell_length_b   9.53973576
_cell_length_c   9.53973584
_cell_angle_alpha   112.12762632
_cell_angle_beta   112.12763191
_cell_angle_gamma   112.12763130
_symmetry_Int_Tables_number   1
_chemical_formula_structural   Cs4K3(BPt)12
_chemical_formula_sum   'Cs4 K3 B12 Pt12'
_cell_volume   593.59031905
_cell_formula_units_Z   1
loop_
 _symmetry_equiv_pos_site_id
 _symmetry_equiv_pos_as_xyz
  1  'x, y, z'
loop_
 _atom_site_type_symbol
 _atom_site_label
 _atom_site_symmetry_multiplicity
 _atom_site_fract_x
 _atom_site_fract_y
 _atom_site_fract_z
 _atom_site_occupancy
  Cs  Cs0  1  0.250219  0.995201  0.250219  1
  Cs  Cs1  1  0.995201  0.250219  0.250219  1
  Cs  Cs2  1  0.250219  0.250219  0.995201  1
  Cs  Cs3  1  0.523419  0.523419  0.523419  1
  K  K4  1  0.007529  0.700621  0.700621  1
  K  K5  1  0.700621  0.700621  0.007529  1
  K  K6  1  0.700621  0.007529  0.700621  1
  B  B7  1  0.277644  0.726261  0.502353  1
  B  B8  1  0.726261  0.502353  0.277644  1
  B  B9  1  0.502353  0.277644  0.726261  1
  B  B10  1  0.726261  0.277644  0.502353  1
  B  B11  1  0.277644  0.502353  0.726261  1
  B  B12  1  0.502353  0.726261  0.277644  1
  B  B13  1  0.057788  0.945995  0.505720  1
  B  B14  1  0.945995  0.505720  0.057788  1
  B  B15  1  0.505720  0.057788  0.945995  1
  B  B16  1  0.945995  0.057788  0.505720  1
  B  B17  1  0.057788  0.505720  0.945995  1
  B  B18  1  0.505720  0.945995  0.057788  1
  Pt  Pt19  1  0.675270  0.329588  0.001759  1
  Pt  Pt20  1  0.329588  0.001759  0.675270  1
  Pt  Pt21  1  0.001759  0.675270  0.329588  1
  Pt  Pt22  1  0.329588  0.675270  0.001759  1
  Pt  Pt23  1  0.675270  0.001759  0.329588  1
  Pt  Pt24  1  0.001759  0.329588  0.675270  1
  Pt  Pt25  1  0.639715  0.254437  0.254437  1
  Pt  Pt26  1  0.254437  0.254437  0.639715  1
  Pt  Pt27  1  0.254437  0.639715  0.254437  1
  Pt  Pt28  1  0.752134  0.374555  0.752134  1
  Pt  Pt29  1  0.374555  0.752134  0.752134  1
  Pt  Pt30  1  0.752134  0.752134  0.374555  1
