# generated using pymatgen
data_K2SbIr3S8
_symmetry_space_group_name_H-M   'P 1'
_cell_length_a   6.26661800
_cell_length_b   7.25898000
_cell_length_c   15.78929500
_cell_angle_alpha   90.00000000
_cell_angle_beta   90.00000000
_cell_angle_gamma   90.00000000
_symmetry_Int_Tables_number   1
_chemical_formula_structural   K2SbIr3S8
_chemical_formula_sum   'K4 Sb2 Ir6 S16'
_cell_volume   718.24326226
_cell_formula_units_Z   2
loop_
 _symmetry_equiv_pos_site_id
 _symmetry_equiv_pos_as_xyz
  1  'x, y, z'
loop_
 _atom_site_type_symbol
 _atom_site_label
 _atom_site_symmetry_multiplicity
 _atom_site_fract_x
 _atom_site_fract_y
 _atom_site_fract_z
 _atom_site_occupancy
  K  K0  1  0.381460  0.000000  0.000000  1
  K  K1  1  0.639046  0.500000  0.500000  1
  K  K2  1  0.049700  0.000000  0.500000  1
  K  K3  1  0.958465  0.500000  0.000000  1
  Sb  Sb4  1  0.997248  0.500000  0.251864  1
  Sb  Sb5  1  0.997248  0.500000  0.748136  1
  Ir  Ir6  1  0.999402  0.000000  0.250113  1
  Ir  Ir7  1  0.999402  0.000000  0.749887  1
  Ir  Ir8  1  0.499016  0.248825  0.249900  1
  Ir  Ir9  1  0.499016  0.751175  0.750100  1
  Ir  Ir10  1  0.499016  0.751175  0.249900  1
  Ir  Ir11  1  0.499016  0.248825  0.750100  1
  S  S12  1  0.819510  0.232175  0.331036  1
  S  S13  1  0.819510  0.767825  0.668964  1
  S  S14  1  0.176624  0.766810  0.169768  1
  S  S15  1  0.176624  0.233190  0.830232  1
  S  S16  1  0.176624  0.233190  0.169768  1
  S  S17  1  0.176624  0.766810  0.830232  1
  S  S18  1  0.819510  0.767825  0.331036  1
  S  S19  1  0.819510  0.232175  0.668964  1
  S  S20  1  0.665134  0.000000  0.173626  1
  S  S21  1  0.665134  0.000000  0.826374  1
  S  S22  1  0.353993  0.500000  0.330602  1
  S  S23  1  0.353993  0.500000  0.669398  1
  S  S24  1  0.333949  0.000000  0.325873  1
  S  S25  1  0.333949  0.000000  0.674127  1
  S  S26  1  0.645638  0.500000  0.169126  1
  S  S27  1  0.645638  0.500000  0.830874  1
