# generated using pymatgen
data_Ba5Si6
_symmetry_space_group_name_H-M   'P 1'
_cell_length_a   15.70979681
_cell_length_b   15.70979739
_cell_length_c   4.91782100
_cell_angle_alpha   90.00000000
_cell_angle_beta   90.00000000
_cell_angle_gamma   163.87902205
_symmetry_Int_Tables_number   1
_chemical_formula_structural   Ba5Si6
_chemical_formula_sum   'Ba5 Si6'
_cell_volume   337.00567386
_cell_formula_units_Z   1
loop_
 _symmetry_equiv_pos_site_id
 _symmetry_equiv_pos_as_xyz
  1  'x, y, z'
loop_
 _atom_site_type_symbol
 _atom_site_label
 _atom_site_symmetry_multiplicity
 _atom_site_fract_x
 _atom_site_fract_y
 _atom_site_fract_z
 _atom_site_occupancy
  Ba  Ba0  1  0.000000  0.000000  0.000000  1
  Ba  Ba1  1  0.611998  0.388000  0.000000  1
  Ba  Ba2  1  0.388000  0.611998  0.000000  1
  Ba  Ba3  1  0.806610  0.193388  0.500001  1
  Ba  Ba4  1  0.193388  0.806610  0.500001  1
  Si  Si5  1  0.735923  0.264075  0.000000  1
  Si  Si6  1  0.264075  0.735923  0.000000  1
  Si  Si7  1  0.923734  0.076265  0.500001  1
  Si  Si8  1  0.539922  0.460076  0.500001  1
  Si  Si9  1  0.460076  0.539922  0.500001  1
  Si  Si10  1  0.076265  0.923734  0.500001  1
