# generated using pymatgen
data_Dy5Er3Ti11Si16Ag
_symmetry_space_group_name_H-M   'P 1'
_cell_length_a   7.05826451
_cell_length_b   7.05760474
_cell_length_c   12.88751401
_cell_angle_alpha   90.07552092
_cell_angle_beta   89.93150356
_cell_angle_gamma   89.69414038
_symmetry_Int_Tables_number   1
_chemical_formula_structural   Dy5Er3Ti11Si16Ag
_chemical_formula_sum   'Dy5 Er3 Ti11 Si16 Ag1'
_cell_volume   641.97413822
_cell_formula_units_Z   1
loop_
 _symmetry_equiv_pos_site_id
 _symmetry_equiv_pos_as_xyz
  1  'x, y, z'
loop_
 _atom_site_type_symbol
 _atom_site_label
 _atom_site_symmetry_multiplicity
 _atom_site_fract_x
 _atom_site_fract_y
 _atom_site_fract_z
 _atom_site_occupancy
  Dy  Dy0  1  0.340619  0.002225  0.466650  1
  Dy  Dy1  1  0.497571  0.840793  0.716760  1
  Dy  Dy2  1  0.501502  0.158001  0.214454  1
  Dy  Dy3  1  0.840913  0.497491  0.283290  1
  Dy  Dy4  1  0.157841  0.501476  0.785472  1
  Er  Er5  1  0.656562  0.001131  0.968328  1
  Er  Er6  1  0.001688  0.340944  0.533527  1
  Er  Er7  1  0.001129  0.656560  0.031661  1
  Ti  Ti8  1  0.173931  0.826353  0.249894  1
  Ti  Ti9  1  0.826439  0.173994  0.750040  1
  Ti  Ti10  1  0.672881  0.672569  0.500004  1
  Ti  Ti11  1  0.147365  0.007951  0.876801  1
  Ti  Ti12  1  0.495455  0.650706  0.123057  1
  Ti  Ti13  1  0.507709  0.350118  0.625065  1
  Ti  Ti14  1  0.650751  0.495482  0.876896  1
  Ti  Ti15  1  0.350051  0.507541  0.374962  1
  Ti  Ti16  1  0.850023  0.992176  0.374267  1
  Ti  Ti17  1  0.007882  0.147459  0.123203  1
  Ti  Ti18  1  0.992069  0.850027  0.625774  1
  Si  Si19  1  0.201770  0.132826  0.683915  1
  Si  Si20  1  0.373399  0.719558  0.929260  1
  Si  Si21  1  0.631649  0.294222  0.432605  1
  Si  Si22  1  0.719553  0.373439  0.070823  1
  Si  Si23  1  0.293577  0.630743  0.567465  1
  Si  Si24  1  0.797845  0.867151  0.182006  1
  Si  Si25  1  0.132454  0.202489  0.315909  1
  Si  Si26  1  0.867204  0.797895  0.817907  1
  Si  Si27  1  0.286315  0.938412  0.065962  1
  Si  Si28  1  0.546608  0.790837  0.314361  1
  Si  Si29  1  0.455396  0.207830  0.809165  1
  Si  Si30  1  0.791342  0.546358  0.685367  1
  Si  Si31  1  0.207882  0.455385  0.190844  1
  Si  Si32  1  0.709381  0.047741  0.564220  1
  Si  Si33  1  0.938392  0.286319  0.934079  1
  Si  Si34  1  0.047359  0.708309  0.436022  1
  Ag  Ag35  1  0.327494  0.327491  0.999985  1
