# generated using pymatgen
data_Ti4AlTcOs2
_symmetry_space_group_name_H-M   'P 1'
_cell_length_a   4.39643301
_cell_length_b   4.39436615
_cell_length_c   7.65532521
_cell_angle_alpha   73.33085585
_cell_angle_beta   89.99893884
_cell_angle_gamma   120.01598272
_symmetry_Int_Tables_number   1
_chemical_formula_structural   Ti4AlTcOs2
_chemical_formula_sum   'Ti4 Al1 Tc1 Os2'
_cell_volume   120.83069257
_cell_formula_units_Z   1
loop_
 _symmetry_equiv_pos_site_id
 _symmetry_equiv_pos_as_xyz
  1  'x, y, z'
loop_
 _atom_site_type_symbol
 _atom_site_label
 _atom_site_symmetry_multiplicity
 _atom_site_fract_x
 _atom_site_fract_y
 _atom_site_fract_z
 _atom_site_occupancy
  Ti  Ti0  1  0.002717  0.005434  0.992046  1
  Ti  Ti1  1  0.496112  0.992222  0.511439  1
  Ti  Ti2  1  0.253884  0.507769  0.238570  1
  Ti  Ti3  1  0.747289  0.494577  0.757941  1
  Al  Al4  1  0.874995  0.749988  0.375018  1
  Tc  Tc5  1  0.375007  0.750014  0.874980  1
  Os  Os6  1  0.622076  0.244145  0.133737  1
  Os  Os7  1  0.127922  0.255850  0.616270  1
