# generated using pymatgen
data_Dy2Er8InSb5
_symmetry_space_group_name_H-M   'P 1'
_cell_length_a   8.90557700
_cell_length_b   8.90851801
_cell_length_c   6.34997500
_cell_angle_alpha   90.00000000
_cell_angle_beta   90.00000000
_cell_angle_gamma   119.98907614
_symmetry_Int_Tables_number   1
_chemical_formula_structural   Dy2Er8InSb5
_chemical_formula_sum   'Dy2 Er8 In1 Sb5'
_cell_volume   436.33290672
_cell_formula_units_Z   1
loop_
 _symmetry_equiv_pos_site_id
 _symmetry_equiv_pos_as_xyz
  1  'x, y, z'
loop_
 _atom_site_type_symbol
 _atom_site_label
 _atom_site_symmetry_multiplicity
 _atom_site_fract_x
 _atom_site_fract_y
 _atom_site_fract_z
 _atom_site_occupancy
  Dy  Dy0  1  0.997566  0.243737  0.250000  1
  Dy  Dy1  1  0.753829  0.756263  0.250000  1
  Er  Er2  1  0.004655  0.759294  0.750000  1
  Er  Er3  1  0.756709  0.000000  0.750000  1
  Er  Er4  1  0.245361  0.240706  0.750000  1
  Er  Er5  1  0.242322  0.000000  0.250000  1
  Er  Er6  1  0.333565  0.668898  0.499501  1
  Er  Er7  1  0.664668  0.331102  0.000499  1
  Er  Er8  1  0.664668  0.331102  0.499501  1
  Er  Er9  1  0.333565  0.668898  0.000499  1
  In  In10  1  0.396417  0.000000  0.750000  1
  Sb  Sb11  1  0.389153  0.389961  0.250000  1
  Sb  Sb12  1  0.999192  0.610039  0.250000  1
  Sb  Sb13  1  0.000808  0.389813  0.750000  1
  Sb  Sb14  1  0.610995  0.610187  0.750000  1
  Sb  Sb15  1  0.606523  0.000000  0.250000  1
