# generated using pymatgen
data_TaNb11Cr4(Co2N)4
_symmetry_space_group_name_H-M   'P 1'
_cell_length_a   8.02326015
_cell_length_b   8.01938482
_cell_length_c   8.02026669
_cell_angle_alpha   59.96415352
_cell_angle_beta   59.97369004
_cell_angle_gamma   59.98527529
_symmetry_Int_Tables_number   1
_chemical_formula_structural   TaNb11Cr4(Co2N)4
_chemical_formula_sum   'Ta1 Nb11 Cr4 Co8 N4'
_cell_volume   364.68110257
_cell_formula_units_Z   1
loop_
 _symmetry_equiv_pos_site_id
 _symmetry_equiv_pos_as_xyz
  1  'x, y, z'
loop_
 _atom_site_type_symbol
 _atom_site_label
 _atom_site_symmetry_multiplicity
 _atom_site_fract_x
 _atom_site_fract_y
 _atom_site_fract_z
 _atom_site_occupancy
  Ta  Ta0  1  0.804696  0.804610  0.195475  1
  Nb  Nb1  1  0.195297  0.195466  0.804535  1
  Nb  Nb2  1  0.803059  0.197058  0.803048  1
  Nb  Nb3  1  0.196861  0.803131  0.196910  1
  Nb  Nb4  1  0.197011  0.802874  0.803029  1
  Nb  Nb5  1  0.803230  0.197003  0.196563  1
  Nb  Nb6  1  0.443840  0.443871  0.056236  1
  Nb  Nb7  1  0.054736  0.054314  0.445436  1
  Nb  Nb8  1  0.446630  0.052892  0.447760  1
  Nb  Nb9  1  0.052950  0.447008  0.052134  1
  Nb  Nb10  1  0.052881  0.446710  0.447924  1
  Nb  Nb11  1  0.446810  0.053067  0.052341  1
  Cr  Cr12  1  0.125633  0.624866  0.624508  1
  Cr  Cr13  1  0.624228  0.125629  0.624690  1
  Cr  Cr14  1  0.625115  0.625091  0.124897  1
  Cr  Cr15  1  0.625884  0.625635  0.623964  1
  Co  Co16  1  0.727236  0.425852  0.423555  1
  Co  Co17  1  0.426021  0.727270  0.423222  1
  Co  Co18  1  0.424570  0.425377  0.726436  1
  Co  Co19  1  0.424433  0.424696  0.424631  1
  Co  Co20  1  0.523701  0.824647  0.825927  1
  Co  Co21  1  0.825381  0.523553  0.825423  1
  Co  Co22  1  0.825989  0.826095  0.522840  1
  Co  Co23  1  0.825901  0.825476  0.826278  1
  N  N24  1  0.626198  0.122174  0.125879  1
  N  N25  1  0.122017  0.626140  0.125816  1
  N  N26  1  0.124744  0.124819  0.625284  1
  N  N27  1  0.124948  0.124679  0.125258  1
