# generated using pymatgen
data_Hf11ScMn3Si12Ir
_symmetry_space_group_name_H-M   'P 1'
_cell_length_a   3.80974400
_cell_length_b   10.34201695
_cell_length_c   11.65261505
_cell_angle_alpha   90.07025633
_cell_angle_beta   90.00000000
_cell_angle_gamma   90.00000000
_symmetry_Int_Tables_number   1
_chemical_formula_structural   Hf11ScMn3Si12Ir
_chemical_formula_sum   'Hf11 Sc1 Mn3 Si12 Ir1'
_cell_volume   459.11778027
_cell_formula_units_Z   1
loop_
 _symmetry_equiv_pos_site_id
 _symmetry_equiv_pos_as_xyz
  1  'x, y, z'
loop_
 _atom_site_type_symbol
 _atom_site_label
 _atom_site_symmetry_multiplicity
 _atom_site_fract_x
 _atom_site_fract_y
 _atom_site_fract_z
 _atom_site_occupancy
  Hf  Hf0  1  0.250000  0.877156  0.022283  1
  Hf  Hf1  1  0.250000  0.624506  0.519428  1
  Hf  Hf2  1  0.750000  0.123833  0.981235  1
  Hf  Hf3  1  0.750000  0.377498  0.479741  1
  Hf  Hf4  1  0.250000  0.927572  0.596443  1
  Hf  Hf5  1  0.250000  0.571224  0.100120  1
  Hf  Hf6  1  0.750000  0.071578  0.399598  1
  Hf  Hf7  1  0.750000  0.428604  0.900071  1
  Hf  Hf8  1  0.250000  0.655017  0.801742  1
  Hf  Hf9  1  0.250000  0.840959  0.301181  1
  Hf  Hf10  1  0.750000  0.338755  0.199276  1
  Sc  Sc11  1  0.750000  0.158480  0.698583  1
  Mn  Mn12  1  0.250000  0.385213  0.676803  1
  Mn  Mn13  1  0.250000  0.118130  0.177863  1
  Mn  Mn14  1  0.750000  0.617661  0.323094  1
  Si  Si15  1  0.250000  0.019975  0.825491  1
  Si  Si16  1  0.250000  0.482865  0.325281  1
  Si  Si17  1  0.750000  0.982975  0.174195  1
  Si  Si18  1  0.750000  0.516576  0.674418  1
  Si  Si19  1  0.250000  0.252617  0.839564  1
  Si  Si20  1  0.250000  0.247714  0.342257  1
  Si  Si21  1  0.750000  0.747635  0.159464  1
  Si  Si22  1  0.750000  0.749963  0.656794  1
  Si  Si23  1  0.250000  0.194610  0.543195  1
  Si  Si24  1  0.250000  0.307294  0.041382  1
  Si  Si25  1  0.750000  0.807974  0.457557  1
  Si  Si26  1  0.750000  0.690825  0.959767  1
  Ir  Ir27  1  0.750000  0.882796  0.823175  1
