# generated using pymatgen
data_Nd5Sm(SiPt5)2
_symmetry_space_group_name_H-M   'P 1'
_cell_length_a   8.39087220
_cell_length_b   8.39799382
_cell_length_c   8.39799412
_cell_angle_alpha   127.35258059
_cell_angle_beta   126.32075840
_cell_angle_gamma   78.53967178
_symmetry_Int_Tables_number   1
_chemical_formula_structural   Nd5Sm(SiPt5)2
_chemical_formula_sum   'Nd5 Sm1 Si2 Pt10'
_cell_volume   366.89860519
_cell_formula_units_Z   1
loop_
 _symmetry_equiv_pos_site_id
 _symmetry_equiv_pos_as_xyz
  1  'x, y, z'
loop_
 _atom_site_type_symbol
 _atom_site_label
 _atom_site_symmetry_multiplicity
 _atom_site_fract_x
 _atom_site_fract_y
 _atom_site_fract_z
 _atom_site_occupancy
  Nd  Nd0  1  0.827485  0.550119  0.277367  1
  Nd  Nd1  1  0.613641  0.249865  0.363776  1
  Nd  Nd2  1  0.172499  0.449964  0.722535  1
  Nd  Nd3  1  0.386674  0.750141  0.636533  1
  Nd  Nd4  1  0.228114  0.950131  0.277982  1
  Sm  Sm5  1  0.773704  0.049910  0.723795  1
  Si  Si6  1  0.215504  0.249818  0.965686  1
  Si  Si7  1  0.783949  0.750052  0.033897  1
  Pt  Pt8  1  0.169428  0.905937  0.861412  1
  Pt  Pt9  1  0.829333  0.094061  0.136822  1
  Pt  Pt10  1  0.456708  0.191001  0.861490  1
  Pt  Pt11  1  0.544473  0.404766  0.735147  1
  Pt  Pt12  1  0.829333  0.692511  0.735272  1
  Pt  Pt13  1  0.456708  0.595217  0.265707  1
  Pt  Pt14  1  0.544473  0.809325  0.139706  1
  Pt  Pt15  1  0.169428  0.308015  0.263492  1
  Pt  Pt16  1  0.999273  0.000212  0.500319  1
  Pt  Pt17  1  0.999273  0.498954  0.999062  1
