# generated using pymatgen
data_BaSb12(IrRu)2
_symmetry_space_group_name_H-M   'P 1'
_cell_length_a   8.17934377
_cell_length_b   8.17934289
_cell_length_c   8.18673151
_cell_angle_alpha   109.47143571
_cell_angle_beta   109.46705544
_cell_angle_gamma   109.43858291
_symmetry_Int_Tables_number   1
_chemical_formula_structural   BaSb12(IrRu)2
_chemical_formula_sum   'Ba1 Sb12 Ir2 Ru2'
_cell_volume   421.81444618
_cell_formula_units_Z   1
loop_
 _symmetry_equiv_pos_site_id
 _symmetry_equiv_pos_as_xyz
  1  'x, y, z'
loop_
 _atom_site_type_symbol
 _atom_site_label
 _atom_site_symmetry_multiplicity
 _atom_site_fract_x
 _atom_site_fract_y
 _atom_site_fract_z
 _atom_site_occupancy
  Ba  Ba0  1  0.000000  0.000000  0.000000  1
  Sb  Sb1  1  0.160006  0.815264  0.659877  1
  Sb  Sb2  1  0.155387  0.500129  0.340123  1
  Sb  Sb3  1  0.499942  0.659494  0.844215  1
  Sb  Sb4  1  0.340866  0.840887  0.181754  1
  Sb  Sb5  1  0.815279  0.655727  0.155785  1
  Sb  Sb6  1  0.656130  0.843738  0.499868  1
  Sb  Sb7  1  0.184721  0.344273  0.844215  1
  Sb  Sb8  1  0.659134  0.159113  0.818246  1
  Sb  Sb9  1  0.343870  0.156262  0.500132  1
  Sb  Sb10  1  0.500058  0.340506  0.155785  1
  Sb  Sb11  1  0.844613  0.499871  0.659877  1
  Sb  Sb12  1  0.839994  0.184736  0.340123  1
  Ir  Ir13  1  0.500000  0.500000  0.500000  1
  Ir  Ir14  1  0.000000  0.000000  0.500000  1
  Ru  Ru15  1  0.500000  0.000000  0.000000  1
  Ru  Ru16  1  0.000000  0.500000  0.000000  1
