# generated using pymatgen
data_Pr2GaSiI2
_symmetry_space_group_name_H-M   'P 1'
_cell_length_a   4.22906100
_cell_length_b   4.22906139
_cell_length_c   12.28103900
_cell_angle_alpha   90.00000000
_cell_angle_beta   90.00000000
_cell_angle_gamma   119.99998912
_symmetry_Int_Tables_number   1
_chemical_formula_structural   Pr2GaSiI2
_chemical_formula_sum   'Pr2 Ga1 Si1 I2'
_cell_volume   190.21892758
_cell_formula_units_Z   1
loop_
 _symmetry_equiv_pos_site_id
 _symmetry_equiv_pos_as_xyz
  1  'x, y, z'
loop_
 _atom_site_type_symbol
 _atom_site_label
 _atom_site_symmetry_multiplicity
 _atom_site_fract_x
 _atom_site_fract_y
 _atom_site_fract_z
 _atom_site_occupancy
  Pr  Pr0  1  0.000000  0.000000  0.170623  1
  Pr  Pr1  1  0.000000  0.000000  0.828595  1
  Ga  Ga2  1  0.333333  0.666667  0.014580  1
  Si  Si3  1  0.666667  0.333333  0.986623  1
  I  I4  1  0.333333  0.666667  0.655771  1
  I  I5  1  0.666667  0.333333  0.343808  1
