# generated using pymatgen
data_LuZr2(SiRu)3
_symmetry_space_group_name_H-M   'P 1'
_cell_length_a   6.83527051
_cell_length_b   6.83526985
_cell_length_c   3.65346400
_cell_angle_alpha   90.00000000
_cell_angle_beta   90.00000000
_cell_angle_gamma   120.42727028
_symmetry_Int_Tables_number   1
_chemical_formula_structural   LuZr2(SiRu)3
_chemical_formula_sum   'Lu1 Zr2 Si3 Ru3'
_cell_volume   147.18408456
_cell_formula_units_Z   1
loop_
 _symmetry_equiv_pos_site_id
 _symmetry_equiv_pos_as_xyz
  1  'x, y, z'
loop_
 _atom_site_type_symbol
 _atom_site_label
 _atom_site_symmetry_multiplicity
 _atom_site_fract_x
 _atom_site_fract_y
 _atom_site_fract_z
 _atom_site_occupancy
  Lu  Lu0  1  0.411560  0.411560  0.500000  1
  Zr  Zr1  1  0.588643  0.002329  0.500000  1
  Zr  Zr2  1  0.002329  0.588643  0.500000  1
  Si  Si3  1  0.995323  0.995323  0.500000  1
  Si  Si4  1  0.670950  0.333557  0.000000  1
  Si  Si5  1  0.333557  0.670950  0.000000  1
  Ru  Ru6  1  0.997479  0.243863  0.000000  1
  Ru  Ru7  1  0.243863  0.997479  0.000000  1
  Ru  Ru8  1  0.756295  0.756295  0.000000  1
