# generated using pymatgen
data_Yb3DySb6Rh7
_symmetry_space_group_name_H-M   'P 1'
_cell_length_a   7.60382714
_cell_length_b   7.58006665
_cell_length_c   7.58006566
_cell_angle_alpha   109.40762894
_cell_angle_beta   109.53473639
_cell_angle_gamma   109.53473736
_symmetry_Int_Tables_number   1
_chemical_formula_structural   Yb3DySb6Rh7
_chemical_formula_sum   'Yb3 Dy1 Sb6 Rh7'
_cell_volume   336.05882720
_cell_formula_units_Z   1
loop_
 _symmetry_equiv_pos_site_id
 _symmetry_equiv_pos_as_xyz
  1  'x, y, z'
loop_
 _atom_site_type_symbol
 _atom_site_label
 _atom_site_symmetry_multiplicity
 _atom_site_fract_x
 _atom_site_fract_y
 _atom_site_fract_z
 _atom_site_occupancy
  Yb  Yb0  1  0.000000  0.500000  0.000000  1
  Yb  Yb1  1  0.000000  0.000000  0.500000  1
  Yb  Yb2  1  0.500000  0.500000  0.500000  1
  Dy  Dy3  1  0.500000  0.000000  0.000000  1
  Sb  Sb4  1  0.316109  0.000000  0.318929  1
  Sb  Sb5  1  0.997180  0.681071  0.681071  1
  Sb  Sb6  1  0.683891  0.681071  0.000000  1
  Sb  Sb7  1  0.683891  0.000000  0.681071  1
  Sb  Sb8  1  0.002820  0.318929  0.318929  1
  Sb  Sb9  1  0.316109  0.318929  0.000000  1
  Rh  Rh10  1  0.250826  0.501651  0.750826  1
  Rh  Rh11  1  0.500000  0.249174  0.750826  1
  Rh  Rh12  1  0.749174  0.249174  0.498349  1
  Rh  Rh13  1  0.500000  0.750826  0.249174  1
  Rh  Rh14  1  0.000000  0.000000  0.000000  1
  Rh  Rh15  1  0.250826  0.750826  0.501651  1
  Rh  Rh16  1  0.749174  0.498349  0.249174  1
