# generated using pymatgen
data_Tb7ErSc12Si15Sn
_symmetry_space_group_name_H-M   'P 1'
_cell_length_a   7.14268463
_cell_length_b   7.42568206
_cell_length_c   14.09426997
_cell_angle_alpha   89.98197334
_cell_angle_beta   89.65376527
_cell_angle_gamma   90.08289923
_symmetry_Int_Tables_number   1
_chemical_formula_structural   Tb7ErSc12Si15Sn
_chemical_formula_sum   'Tb7 Er1 Sc12 Si15 Sn1'
_cell_volume   747.53581465
_cell_formula_units_Z   1
loop_
 _symmetry_equiv_pos_site_id
 _symmetry_equiv_pos_as_xyz
  1  'x, y, z'
loop_
 _atom_site_type_symbol
 _atom_site_label
 _atom_site_symmetry_multiplicity
 _atom_site_fract_x
 _atom_site_fract_y
 _atom_site_fract_z
 _atom_site_occupancy
  Tb  Tb0  1  0.010523  0.175370  0.096655  1
  Tb  Tb1  1  0.988991  0.825294  0.903838  1
  Tb  Tb2  1  0.489637  0.675205  0.904436  1
  Tb  Tb3  1  0.989894  0.830235  0.598587  1
  Tb  Tb4  1  0.510097  0.324778  0.097024  1
  Tb  Tb5  1  0.005500  0.169093  0.399379  1
  Tb  Tb6  1  0.512409  0.321067  0.399463  1
  Er  Er7  1  0.502200  0.684173  0.600706  1
  Sc  Sc8  1  0.163625  0.502101  0.754929  1
  Sc  Sc9  1  0.836097  0.498206  0.249018  1
  Sc  Sc10  1  0.335854  0.002331  0.249346  1
  Sc  Sc11  1  0.665283  0.997848  0.751656  1
  Sc  Sc12  1  0.344493  0.162885  0.630803  1
  Sc  Sc13  1  0.662749  0.824445  0.372619  1
  Sc  Sc14  1  0.162655  0.682886  0.369398  1
  Sc  Sc15  1  0.666689  0.823177  0.124236  1
  Sc  Sc16  1  0.824139  0.324175  0.626207  1
  Sc  Sc17  1  0.331730  0.175998  0.875224  1
  Sc  Sc18  1  0.832168  0.323402  0.875375  1
  Sc  Sc19  1  0.167475  0.676651  0.125016  1
  Si  Si20  1  0.036464  0.120333  0.750984  1
  Si  Si21  1  0.961508  0.883476  0.247021  1
  Si  Si22  1  0.463588  0.616907  0.248580  1
  Si  Si23  1  0.534545  0.384958  0.751954  1
  Si  Si24  1  0.288701  0.870712  0.751946  1
  Si  Si25  1  0.710654  0.125003  0.247537  1
  Si  Si26  1  0.210315  0.374171  0.249183  1
  Si  Si27  1  0.789956  0.626782  0.751042  1
  Si  Si28  1  0.830434  0.539763  0.458875  1
  Si  Si29  1  0.339467  0.962471  0.460757  1
  Si  Si30  1  0.842173  0.535348  0.039472  1
  Si  Si31  1  0.661232  0.036333  0.538045  1
  Si  Si32  1  0.156521  0.464413  0.961550  1
  Si  Si33  1  0.656945  0.035905  0.961065  1
  Si  Si34  1  0.341716  0.964924  0.039630  1
  Sn  Sn35  1  0.173573  0.459185  0.538445  1
