# generated using pymatgen
data_Mg4MnAs6(IrRu)3
_symmetry_space_group_name_H-M   'P 1'
_cell_length_a   7.03092522
_cell_length_b   7.05154095
_cell_length_c   7.05154205
_cell_angle_alpha   109.64592022
_cell_angle_beta   109.28913733
_cell_angle_gamma   109.28912986
_symmetry_Int_Tables_number   1
_chemical_formula_structural   Mg4MnAs6(IrRu)3
_chemical_formula_sum   'Mg4 Mn1 As6 Ir3 Ru3'
_cell_volume   269.75276422
_cell_formula_units_Z   1
loop_
 _symmetry_equiv_pos_site_id
 _symmetry_equiv_pos_as_xyz
  1  'x, y, z'
loop_
 _atom_site_type_symbol
 _atom_site_label
 _atom_site_symmetry_multiplicity
 _atom_site_fract_x
 _atom_site_fract_y
 _atom_site_fract_z
 _atom_site_occupancy
  Mg  Mg0  1  0.988328  0.993749  0.494554  1
  Mg  Mg1  1  0.500000  0.994526  0.005474  1
  Mg  Mg2  1  0.011672  0.505446  0.006251  1
  Mg  Mg3  1  0.500000  0.506177  0.493823  1
  Mn  Mn4  1  0.500000  0.250242  0.749758  1
  As  As5  1  0.688949  0.692023  0.996760  1
  As  As6  1  0.305504  0.308381  0.996480  1
  As  As7  1  0.001297  0.685723  0.695278  1
  As  As8  1  0.998703  0.304722  0.314277  1
  As  As9  1  0.694496  0.003520  0.691619  1
  As  As10  1  0.311051  0.003240  0.307977  1
  Ir  Ir11  1  0.500000  0.749309  0.250691  1
  Ir  Ir12  1  0.748604  0.483627  0.229028  1
  Ir  Ir13  1  0.251396  0.770972  0.516373  1
  Ru  Ru14  1  0.000000  0.999975  0.000025  1
  Ru  Ru15  1  0.255264  0.486624  0.738257  1
  Ru  Ru16  1  0.744736  0.261743  0.513376  1
