# generated using pymatgen
data_AlTl3(SO4)6
_symmetry_space_group_name_H-M   'P 1'
_cell_length_a   8.67139033
_cell_length_b   8.67065480
_cell_length_c   9.36287300
_cell_angle_alpha   62.39810595
_cell_angle_beta   62.42953451
_cell_angle_gamma   60.04712107
_symmetry_Int_Tables_number   1
_chemical_formula_structural   AlTl3(SO4)6
_chemical_formula_sum   'Al1 Tl3 S6 O24'
_cell_volume   515.36671138
_cell_formula_units_Z   1
loop_
 _symmetry_equiv_pos_site_id
 _symmetry_equiv_pos_as_xyz
  1  'x, y, z'
loop_
 _atom_site_type_symbol
 _atom_site_label
 _atom_site_symmetry_multiplicity
 _atom_site_fract_x
 _atom_site_fract_y
 _atom_site_fract_z
 _atom_site_occupancy
  Al  Al0  1  0.843232  0.843334  0.470001  1
  Tl  Tl1  1  0.643888  0.643364  0.069329  1
  Tl  Tl2  1  0.353401  0.353301  0.939710  1
  Tl  Tl3  1  0.152699  0.152895  0.542395  1
  S  S4  1  0.745398  0.471836  0.740618  1
  S  S5  1  0.041816  0.745506  0.740896  1
  S  S6  1  0.567024  0.953019  0.256529  1
  S  S7  1  0.953200  0.223333  0.256610  1
  S  S8  1  0.223326  0.567380  0.256409  1
  S  S9  1  0.471948  0.041753  0.740644  1
  O  O10  1  0.922576  0.677286  0.913589  1
  O  O11  1  0.487881  0.922218  0.912899  1
  O  O12  1  0.682449  0.959912  0.329991  1
  O  O13  1  0.375363  0.966950  0.375643  1
  O  O14  1  0.005607  0.944331  0.708778  1
  O  O15  1  0.729237  0.657749  0.609063  1
  O  O16  1  0.676691  0.487861  0.912810  1
  O  O17  1  0.658866  0.767692  0.226394  1
  O  O18  1  0.944036  0.341166  0.709435  1
  O  O19  1  0.240059  0.627013  0.737302  1
  O  O20  1  0.627008  0.395089  0.737380  1
  O  O21  1  0.002539  0.728886  0.610315  1
  O  O22  1  0.966866  0.282809  0.375320  1
  O  O23  1  0.346948  0.659914  0.225210  1
  O  O24  1  0.768164  0.346522  0.225786  1
  O  O25  1  0.027831  0.682411  0.330336  1
  O  O26  1  0.395428  0.240037  0.737199  1
  O  O27  1  0.235937  0.559658  0.094945  1
  O  O28  1  0.282537  0.375802  0.375769  1
  O  O29  1  0.959956  0.027565  0.330877  1
  O  O30  1  0.657784  0.003406  0.609272  1
  O  O31  1  0.341132  0.004915  0.709421  1
  O  O32  1  0.559898  0.108868  0.094416  1
  O  O33  1  0.109273  0.236213  0.094709  1
