# generated using pymatgen
data_Np2B8IrOs
_symmetry_space_group_name_H-M   'P 1'
_cell_length_a   3.51158200
_cell_length_b   6.01807808
_cell_length_c   11.66609320
_cell_angle_alpha   90.06789735
_cell_angle_beta   90.00000000
_cell_angle_gamma   90.00000000
_symmetry_Int_Tables_number   1
_chemical_formula_structural   Np2B8IrOs
_chemical_formula_sum   'Np4 B16 Ir2 Os2'
_cell_volume   246.53907874
_cell_formula_units_Z   2
loop_
 _symmetry_equiv_pos_site_id
 _symmetry_equiv_pos_as_xyz
  1  'x, y, z'
loop_
 _atom_site_type_symbol
 _atom_site_label
 _atom_site_symmetry_multiplicity
 _atom_site_fract_x
 _atom_site_fract_y
 _atom_site_fract_z
 _atom_site_occupancy
  Np  Np0  1  0.500000  0.128018  0.648795  1
  Np  Np1  1  0.500000  0.871982  0.351205  1
  Np  Np2  1  0.500000  0.629349  0.849108  1
  Np  Np3  1  0.500000  0.370651  0.150892  1
  B  B4  1  0.000000  0.471725  0.691446  1
  B  B5  1  0.000000  0.528275  0.308554  1
  B  B6  1  0.000000  0.973780  0.807246  1
  B  B7  1  0.000000  0.026220  0.192754  1
  B  B8  1  0.000000  0.290066  0.811103  1
  B  B9  1  0.000000  0.709934  0.188897  1
  B  B10  1  0.000000  0.789593  0.687199  1
  B  B11  1  0.000000  0.210407  0.312801  1
  B  B12  1  0.000000  0.366554  0.968495  1
  B  B13  1  0.000000  0.633446  0.031505  1
  B  B14  1  0.000000  0.865999  0.531755  1
  B  B15  1  0.000000  0.134001  0.468245  1
  B  B16  1  0.000000  0.385362  0.546497  1
  B  B17  1  0.000000  0.614638  0.453503  1
  B  B18  1  0.000000  0.884671  0.952514  1
  B  B19  1  0.000000  0.115329  0.047486  1
  Ir  Ir20  1  0.500000  0.140526  0.905947  1
  Ir  Ir21  1  0.500000  0.859474  0.094053  1
  Os  Os22  1  0.500000  0.639785  0.592885  1
  Os  Os23  1  0.500000  0.360215  0.407115  1
