# generated using pymatgen
data_Dy4TmZr2P12Ir17
_symmetry_space_group_name_H-M   'P 1'
_cell_length_a   12.66132207
_cell_length_b   12.89314342
_cell_length_c   3.98587900
_cell_angle_alpha   90.00000000
_cell_angle_beta   90.00000000
_cell_angle_gamma   119.39517279
_symmetry_Int_Tables_number   1
_chemical_formula_structural   Dy4TmZr2P12Ir17
_chemical_formula_sum   'Dy4 Tm1 Zr2 P12 Ir17'
_cell_volume   566.90116178
_cell_formula_units_Z   1
loop_
 _symmetry_equiv_pos_site_id
 _symmetry_equiv_pos_as_xyz
  1  'x, y, z'
loop_
 _atom_site_type_symbol
 _atom_site_label
 _atom_site_symmetry_multiplicity
 _atom_site_fract_x
 _atom_site_fract_y
 _atom_site_fract_z
 _atom_site_occupancy
  Dy  Dy0  1  0.668635  0.338504  0.500000  1
  Dy  Dy1  1  0.000527  0.815547  0.000000  1
  Dy  Dy2  1  0.184983  0.184443  0.000000  1
  Dy  Dy3  1  0.812820  0.000017  0.000000  1
  Tm  Tm4  1  0.330212  0.661309  0.500000  1
  Zr  Zr5  1  0.997773  0.447021  0.500000  1
  Zr  Zr6  1  0.550650  0.553075  0.500000  1
  P  P7  1  0.005821  0.650888  0.500000  1
  P  P8  1  0.354979  0.349034  0.500000  1
  P  P9  1  0.644940  0.000087  0.500000  1
  P  P10  1  0.514415  0.686393  0.000000  1
  P  P11  1  0.309728  0.824801  0.000000  1
  P  P12  1  0.164898  0.481334  0.000000  1
  P  P13  1  0.484553  0.174821  0.000000  1
  P  P14  1  0.683627  0.519093  0.000000  1
  P  P15  1  0.828482  0.313626  0.000000  1
  P  P16  1  0.999336  0.174141  0.500000  1
  P  P17  1  0.825175  0.825893  0.500000  1
  P  P18  1  0.181666  0.999964  0.500000  1
  Ir  Ir19  1  0.504301  0.864151  0.000000  1
  Ir  Ir20  1  0.128579  0.644171  0.000000  1
  Ir  Ir21  1  0.354757  0.496294  0.000000  1
  Ir  Ir22  1  0.483656  0.355885  0.000000  1
  Ir  Ir23  1  0.859418  0.504542  0.000000  1
  Ir  Ir24  1  0.640125  0.135159  0.000000  1
  Ir  Ir25  1  0.464585  0.999968  0.500000  1
  Ir  Ir26  1  0.996803  0.277565  0.000000  1
  Ir  Ir27  1  0.719160  0.722465  0.000000  1
  Ir  Ir28  1  0.290317  0.999944  0.000000  1
  Ir  Ir29  1  0.623756  0.808349  0.500000  1
  Ir  Ir30  1  0.204079  0.825618  0.500000  1
  Ir  Ir31  1  0.177897  0.365928  0.500000  1
  Ir  Ir32  1  0.378208  0.174220  0.500000  1
  Ir  Ir33  1  0.811981  0.634193  0.500000  1
  Ir  Ir34  1  0.815551  0.191560  0.500000  1
  Ir  Ir35  1  0.003611  0.999994  0.500000  1
