# generated using pymatgen
data_LaNd2Sm2Al2Ru3
_symmetry_space_group_name_H-M   'P 1'
_cell_length_a   8.62683284
_cell_length_b   8.56258262
_cell_length_c   8.55915491
_cell_angle_alpha   109.48442307
_cell_angle_beta   109.77592444
_cell_angle_gamma   109.86911319
_symmetry_Int_Tables_number   1
_chemical_formula_structural   LaNd2Sm2Al2Ru3
_chemical_formula_sum   'La2 Nd4 Sm4 Al4 Ru6'
_cell_volume   482.35244684
_cell_formula_units_Z   2
loop_
 _symmetry_equiv_pos_site_id
 _symmetry_equiv_pos_as_xyz
  1  'x, y, z'
loop_
 _atom_site_type_symbol
 _atom_site_label
 _atom_site_symmetry_multiplicity
 _atom_site_fract_x
 _atom_site_fract_y
 _atom_site_fract_z
 _atom_site_occupancy
  La  La0  1  0.058736  0.747748  0.807492  1
  La  La1  1  0.806714  0.061250  0.748620  1
  Nd  Nd2  1  0.215568  0.212736  0.216866  1
  Nd  Nd3  1  0.499018  0.004724  0.285102  1
  Nd  Nd4  1  0.283882  0.498599  0.001175  1
  Nd  Nd5  1  0.001292  0.283485  0.496371  1
  Sm  Sm6  1  0.247311  0.681841  0.431227  1
  Sm  Sm7  1  0.747272  0.812634  0.067569  1
  Sm  Sm8  1  0.434385  0.250553  0.686258  1
  Sm  Sm9  1  0.682677  0.433553  0.245545  1
  Al  Al10  1  0.584210  0.585608  0.585777  1
  Al  Al11  1  0.500388  0.996084  0.909581  1
  Al  Al12  1  0.908616  0.504316  0.002608  1
  Al  Al13  1  0.001859  0.911496  0.499955  1
  Ru  Ru14  1  0.254898  0.111612  0.873976  1
  Ru  Ru15  1  0.758683  0.394361  0.635094  1
  Ru  Ru16  1  0.870439  0.248018  0.109913  1
  Ru  Ru17  1  0.121198  0.873734  0.257869  1
  Ru  Ru18  1  0.638382  0.760320  0.391055  1
  Ru  Ru19  1  0.384470  0.627326  0.747944  1
