# generated using pymatgen
data_Tb3YZn4Ir3Pd
_symmetry_space_group_name_H-M   'P 1'
_cell_length_a   4.09967100
_cell_length_b   7.00322248
_cell_length_c   8.15789304
_cell_angle_alpha   90.16288843
_cell_angle_beta   90.00000000
_cell_angle_gamma   90.00000000
_symmetry_Int_Tables_number   1
_chemical_formula_structural   Tb3YZn4Ir3Pd
_chemical_formula_sum   'Tb3 Y1 Zn4 Ir3 Pd1'
_cell_volume   234.21957081
_cell_formula_units_Z   1
loop_
 _symmetry_equiv_pos_site_id
 _symmetry_equiv_pos_as_xyz
  1  'x, y, z'
loop_
 _atom_site_type_symbol
 _atom_site_label
 _atom_site_symmetry_multiplicity
 _atom_site_fract_x
 _atom_site_fract_y
 _atom_site_fract_z
 _atom_site_occupancy
  Tb  Tb0  1  0.250000  0.029441  0.321828  1
  Tb  Tb1  1  0.750000  0.963836  0.684881  1
  Tb  Tb2  1  0.750000  0.469553  0.809324  1
  Y  Y3  1  0.250000  0.544900  0.185567  1
  Zn  Zn4  1  0.250000  0.640406  0.565525  1
  Zn  Zn5  1  0.250000  0.138619  0.932644  1
  Zn  Zn6  1  0.750000  0.359962  0.435667  1
  Zn  Zn7  1  0.750000  0.857058  0.066269  1
  Ir  Ir8  1  0.250000  0.256478  0.620079  1
  Ir  Ir9  1  0.250000  0.758075  0.880969  1
  Ir  Ir10  1  0.750000  0.741202  0.379238  1
  Pd  Pd11  1  0.750000  0.240471  0.118009  1
