# generated using pymatgen
data_La8Nd3ErIn20
_symmetry_space_group_name_H-M   'P 1'
_cell_length_a   6.84139630
_cell_length_b   10.81307700
_cell_length_c   12.77215500
_cell_angle_alpha   90.00000000
_cell_angle_beta   89.98299065
_cell_angle_gamma   90.00000000
_symmetry_Int_Tables_number   1
_chemical_formula_structural   La8Nd3ErIn20
_chemical_formula_sum   'La8 Nd3 Er1 In20'
_cell_volume   944.83985741
_cell_formula_units_Z   1
loop_
 _symmetry_equiv_pos_site_id
 _symmetry_equiv_pos_as_xyz
  1  'x, y, z'
loop_
 _atom_site_type_symbol
 _atom_site_label
 _atom_site_symmetry_multiplicity
 _atom_site_fract_x
 _atom_site_fract_y
 _atom_site_fract_z
 _atom_site_occupancy
  La  La0  1  0.888442  0.490463  0.144204  1
  La  La1  1  0.612285  0.010144  0.644171  1
  La  La2  1  0.112268  0.989275  0.856514  1
  La  La3  1  0.388243  0.509799  0.355652  1
  La  La4  1  0.112268  0.510725  0.856514  1
  La  La5  1  0.388243  0.990201  0.355652  1
  La  La6  1  0.888442  0.009537  0.144204  1
  La  La7  1  0.612285  0.489856  0.644171  1
  Nd  Nd8  1  0.150600  0.750000  0.560617  1
  Nd  Nd9  1  0.650409  0.250000  0.939824  1
  Nd  Nd10  1  0.849980  0.250000  0.439662  1
  Er  Er11  1  0.346890  0.750000  0.060355  1
  In  In12  1  0.622027  0.750000  0.502306  1
  In  In13  1  0.881746  0.750000  0.003216  1
  In  In14  1  0.378171  0.250000  0.497316  1
  In  In15  1  0.122253  0.250000  0.997606  1
  In  In16  1  0.653037  0.750000  0.242307  1
  In  In17  1  0.842189  0.750000  0.744910  1
  In  In18  1  0.342381  0.250000  0.755779  1
  In  In19  1  0.157632  0.250000  0.255671  1
  In  In20  1  0.107702  0.750000  0.284530  1
  In  In21  1  0.393054  0.750000  0.788210  1
  In  In22  1  0.894009  0.250000  0.713458  1
  In  In23  1  0.605472  0.250000  0.212800  1
  In  In24  1  0.875022  0.547109  0.404358  1
  In  In25  1  0.624006  0.952541  0.905046  1
  In  In26  1  0.126014  0.047032  0.595732  1
  In  In27  1  0.374944  0.456105  0.095038  1
  In  In28  1  0.126014  0.452968  0.595732  1
  In  In29  1  0.374944  0.043895  0.095038  1
  In  In30  1  0.875022  0.952891  0.404358  1
  In  In31  1  0.624006  0.547459  0.905046  1
