# generated using pymatgen
data_YbDyY2(B4Os)4
_symmetry_space_group_name_H-M   'P 1'
_cell_length_a   3.55963300
_cell_length_b   5.97191413
_cell_length_c   11.54355273
_cell_angle_alpha   89.96428246
_cell_angle_beta   90.00000000
_cell_angle_gamma   90.00000000
_symmetry_Int_Tables_number   1
_chemical_formula_structural   YbDyY2(B4Os)4
_chemical_formula_sum   'Yb1 Dy1 Y2 B16 Os4'
_cell_volume   245.39074876
_cell_formula_units_Z   1
loop_
 _symmetry_equiv_pos_site_id
 _symmetry_equiv_pos_as_xyz
  1  'x, y, z'
loop_
 _atom_site_type_symbol
 _atom_site_label
 _atom_site_symmetry_multiplicity
 _atom_site_fract_x
 _atom_site_fract_y
 _atom_site_fract_z
 _atom_site_occupancy
  Yb  Yb0  1  0.000000  0.370416  0.149082  1
  Dy  Dy1  1  0.000000  0.627759  0.851030  1
  Y  Y2  1  0.000000  0.127813  0.650174  1
  Y  Y3  1  0.000000  0.871663  0.348557  1
  B  B4  1  0.500000  0.475483  0.691757  1
  B  B5  1  0.500000  0.525006  0.308102  1
  B  B6  1  0.500000  0.974252  0.809244  1
  B  B7  1  0.500000  0.025705  0.190580  1
  B  B8  1  0.500000  0.289055  0.815154  1
  B  B9  1  0.500000  0.710765  0.184875  1
  B  B10  1  0.500000  0.788446  0.686273  1
  B  B11  1  0.500000  0.212849  0.313487  1
  B  B12  1  0.500000  0.363542  0.970452  1
  B  B13  1  0.500000  0.636024  0.030285  1
  B  B14  1  0.500000  0.863265  0.530230  1
  B  B15  1  0.500000  0.136595  0.470002  1
  B  B16  1  0.500000  0.387518  0.546947  1
  B  B17  1  0.500000  0.611710  0.452878  1
  B  B18  1  0.500000  0.887996  0.954164  1
  B  B19  1  0.500000  0.114213  0.047193  1
  Os  Os20  1  0.000000  0.140700  0.907060  1
  Os  Os21  1  0.000000  0.859708  0.091584  1
  Os  Os22  1  0.000000  0.640827  0.593122  1
  Os  Os23  1  0.000000  0.358690  0.407769  1
