# generated using pymatgen
data_Pr16Ag4IrRh3
_symmetry_space_group_name_H-M   'P 1'
_cell_length_a   9.94526940
_cell_length_b   9.91801167
_cell_length_c   9.91801200
_cell_angle_alpha   59.99999891
_cell_angle_beta   60.09062161
_cell_angle_gamma   60.09061901
_symmetry_Int_Tables_number   1
_chemical_formula_structural   Pr16Ag4IrRh3
_chemical_formula_sum   'Pr16 Ag4 Ir1 Rh3'
_cell_volume   692.69858923
_cell_formula_units_Z   1
loop_
 _symmetry_equiv_pos_site_id
 _symmetry_equiv_pos_as_xyz
  1  'x, y, z'
loop_
 _atom_site_type_symbol
 _atom_site_label
 _atom_site_symmetry_multiplicity
 _atom_site_fract_x
 _atom_site_fract_y
 _atom_site_fract_z
 _atom_site_occupancy
  Pr  Pr0  1  0.351658  0.351549  0.351549  1
  Pr  Pr1  1  0.351658  0.351549  0.945243  1
  Pr  Pr2  1  0.351658  0.945243  0.351549  1
  Pr  Pr3  1  0.944539  0.351820  0.351820  1
  Pr  Pr4  1  0.810411  0.189551  0.189551  1
  Pr  Pr5  1  0.189776  0.810355  0.810355  1
  Pr  Pr6  1  0.189776  0.810355  0.189513  1
  Pr  Pr7  1  0.810411  0.189551  0.810487  1
  Pr  Pr8  1  0.189776  0.189513  0.810355  1
  Pr  Pr9  1  0.810411  0.810487  0.189551  1
  Pr  Pr10  1  0.935547  0.564282  0.564282  1
  Pr  Pr11  1  0.564383  0.936361  0.936361  1
  Pr  Pr12  1  0.564383  0.936361  0.562897  1
  Pr  Pr13  1  0.935547  0.564282  0.935890  1
  Pr  Pr14  1  0.564383  0.562897  0.936361  1
  Pr  Pr15  1  0.935547  0.935890  0.564282  1
  Ag  Ag16  1  0.580686  0.580602  0.580602  1
  Ag  Ag17  1  0.580686  0.580602  0.258107  1
  Ag  Ag18  1  0.580686  0.258107  0.580602  1
  Ag  Ag19  1  0.258813  0.580396  0.580396  1
  Ir  Ir20  1  0.572630  0.142457  0.142457  1
  Rh  Rh21  1  0.142211  0.141948  0.141948  1
  Rh  Rh22  1  0.142211  0.141948  0.573892  1
  Rh  Rh23  1  0.142211  0.573892  0.141948  1
