# generated using pymatgen
data_Ta3Be2NiRu4
_symmetry_space_group_name_H-M   'P 1'
_cell_length_a   9.26507300
_cell_length_b   9.26507300
_cell_length_c   3.14325800
_cell_angle_alpha   90.00000000
_cell_angle_beta   90.00000000
_cell_angle_gamma   90.00000000
_symmetry_Int_Tables_number   1
_chemical_formula_structural   Ta3Be2NiRu4
_chemical_formula_sum   'Ta6 Be4 Ni2 Ru8'
_cell_volume   269.82222582
_cell_formula_units_Z   2
loop_
 _symmetry_equiv_pos_site_id
 _symmetry_equiv_pos_as_xyz
  1  'x, y, z'
loop_
 _atom_site_type_symbol
 _atom_site_label
 _atom_site_symmetry_multiplicity
 _atom_site_fract_x
 _atom_site_fract_y
 _atom_site_fract_z
 _atom_site_occupancy
  Ta  Ta0  1  0.821018  0.678982  0.000000  1
  Ta  Ta1  1  0.178982  0.321018  0.000000  1
  Ta  Ta2  1  0.321018  0.821018  0.000000  1
  Ta  Ta3  1  0.678982  0.178982  0.000000  1
  Ta  Ta4  1  0.500000  0.500000  0.000000  1
  Ta  Ta5  1  0.000000  0.000000  0.000000  1
  Be  Be6  1  0.610664  0.889336  0.000000  1
  Be  Be7  1  0.389336  0.110664  0.000000  1
  Be  Be8  1  0.110664  0.610664  0.000000  1
  Be  Be9  1  0.889336  0.389336  0.000000  1
  Ni  Ni10  1  0.500000  0.000000  0.500000  1
  Ni  Ni11  1  0.000000  0.500000  0.500000  1
  Ru  Ru12  1  0.561250  0.720651  0.500000  1
  Ru  Ru13  1  0.438750  0.279349  0.500000  1
  Ru  Ru14  1  0.061250  0.779349  0.500000  1
  Ru  Ru15  1  0.938750  0.220651  0.500000  1
  Ru  Ru16  1  0.279349  0.561250  0.500000  1
  Ru  Ru17  1  0.720651  0.438750  0.500000  1
  Ru  Ru18  1  0.220651  0.061250  0.500000  1
  Ru  Ru19  1  0.779349  0.938750  0.500000  1
