# generated using pymatgen
data_Fe5Si3H
_symmetry_space_group_name_H-M   'P 1'
_cell_length_a   6.72924900
_cell_length_b   6.72924845
_cell_length_c   4.68644300
_cell_angle_alpha   90.00000000
_cell_angle_beta   90.00000000
_cell_angle_gamma   120.00087875
_symmetry_Int_Tables_number   1
_chemical_formula_structural   Fe5Si3H
_chemical_formula_sum   'Fe10 Si6 H2'
_cell_volume   183.78213273
_cell_formula_units_Z   2
loop_
 _symmetry_equiv_pos_site_id
 _symmetry_equiv_pos_as_xyz
  1  'x, y, z'
loop_
 _atom_site_type_symbol
 _atom_site_label
 _atom_site_symmetry_multiplicity
 _atom_site_fract_x
 _atom_site_fract_y
 _atom_site_fract_z
 _atom_site_occupancy
  Fe  Fe0  1  0.666669  0.333333  0.000000  1
  Fe  Fe1  1  0.333333  0.666669  0.000000  1
  Fe  Fe2  1  0.762026  0.762026  0.249999  1
  Fe  Fe3  1  0.237961  0.999995  0.250001  1
  Fe  Fe4  1  0.999995  0.237961  0.250001  1
  Fe  Fe5  1  0.666671  0.333334  0.499999  1
  Fe  Fe6  1  0.333334  0.666671  0.499999  1
  Fe  Fe7  1  0.762040  0.000005  0.750000  1
  Fe  Fe8  1  0.237974  0.237974  0.750000  1
  Fe  Fe9  1  0.000005  0.762040  0.750000  1
  Si  Si10  1  0.600688  0.000012  0.249999  1
  Si  Si11  1  0.000012  0.600688  0.249999  1
  Si  Si12  1  0.399297  0.399297  0.250001  1
  Si  Si13  1  0.399313  0.999988  0.749998  1
  Si  Si14  1  0.999988  0.399313  0.749998  1
  Si  Si15  1  0.600703  0.600703  0.750000  1
  H  H16  1  0.000000  0.000000  0.000000  1
  H  H17  1  0.000000  0.000000  0.499999  1
