# generated using pymatgen
data_Ta2MnSi2Pt
_symmetry_space_group_name_H-M   'P 1'
_cell_length_a   3.70960000
_cell_length_b   6.37555702
_cell_length_c   7.41859513
_cell_angle_alpha   89.33524426
_cell_angle_beta   90.00000000
_cell_angle_gamma   90.00000000
_symmetry_Int_Tables_number   1
_chemical_formula_structural   Ta2MnSi2Pt
_chemical_formula_sum   'Ta4 Mn2 Si4 Pt2'
_cell_volume   175.44365083
_cell_formula_units_Z   2
loop_
 _symmetry_equiv_pos_site_id
 _symmetry_equiv_pos_as_xyz
  1  'x, y, z'
loop_
 _atom_site_type_symbol
 _atom_site_label
 _atom_site_symmetry_multiplicity
 _atom_site_fract_x
 _atom_site_fract_y
 _atom_site_fract_z
 _atom_site_occupancy
  Ta  Ta0  1  0.250000  0.522583  0.182130  1
  Ta  Ta1  1  0.750000  0.477417  0.817870  1
  Ta  Ta2  1  0.750000  0.970617  0.661440  1
  Ta  Ta3  1  0.250000  0.029383  0.338560  1
  Mn  Mn4  1  0.250000  0.641311  0.561469  1
  Mn  Mn5  1  0.750000  0.358689  0.438531  1
  Si  Si6  1  0.250000  0.761881  0.863027  1
  Si  Si7  1  0.750000  0.238119  0.136973  1
  Si  Si8  1  0.750000  0.724422  0.380677  1
  Si  Si9  1  0.250000  0.275578  0.619323  1
  Pt  Pt10  1  0.750000  0.849145  0.067013  1
  Pt  Pt11  1  0.250000  0.150855  0.932987  1
