# generated using pymatgen
data_CsRbUI6
_symmetry_space_group_name_H-M   'P 1'
_cell_length_a   8.60382936
_cell_length_b   8.60382907
_cell_length_c   12.26946900
_cell_angle_alpha   90.00000000
_cell_angle_beta   90.00000000
_cell_angle_gamma   90.09041380
_symmetry_Int_Tables_number   1
_chemical_formula_structural   CsRbUI6
_chemical_formula_sum   'Cs2 Rb2 U2 I12'
_cell_volume   908.25707451
_cell_formula_units_Z   2
loop_
 _symmetry_equiv_pos_site_id
 _symmetry_equiv_pos_as_xyz
  1  'x, y, z'
loop_
 _atom_site_type_symbol
 _atom_site_label
 _atom_site_symmetry_multiplicity
 _atom_site_fract_x
 _atom_site_fract_y
 _atom_site_fract_z
 _atom_site_occupancy
  Cs  Cs0  1  0.500000  0.000000  0.750000  1
  Cs  Cs1  1  0.500000  0.000000  0.250000  1
  Rb  Rb2  1  0.000000  0.500000  0.250000  1
  Rb  Rb3  1  0.000000  0.500000  0.750000  1
  U  U4  1  0.000000  0.000000  0.000000  1
  U  U5  1  0.500000  0.500000  0.500000  1
  I  I6  1  0.787772  0.279699  0.000000  1
  I  I7  1  0.212228  0.720301  0.000000  1
  I  I8  1  0.500000  0.500000  0.253681  1
  I  I9  1  0.283791  0.223602  0.500000  1
  I  I10  1  0.276398  0.216209  0.000000  1
  I  I11  1  0.779699  0.287772  0.500000  1
  I  I12  1  0.000000  0.000000  0.246319  1
  I  I13  1  0.716209  0.776398  0.500000  1
  I  I14  1  0.220301  0.712228  0.500000  1
  I  I15  1  0.500000  0.500000  0.746319  1
  I  I16  1  0.723602  0.783791  0.000000  1
  I  I17  1  0.000000  0.000000  0.753681  1
