# generated using pymatgen
data_Dy5Mn10Tc3(P2Ir)6
_symmetry_space_group_name_H-M   'P 1'
_cell_length_a   12.50049103
_cell_length_b   12.48231857
_cell_length_c   3.84385200
_cell_angle_alpha   90.00000000
_cell_angle_beta   90.00000000
_cell_angle_gamma   119.84256028
_symmetry_Int_Tables_number   1
_chemical_formula_structural   Dy5Mn10Tc3(P2Ir)6
_chemical_formula_sum   'Dy5 Mn10 Tc3 P12 Ir6'
_cell_volume   520.24322668
_cell_formula_units_Z   1
loop_
 _symmetry_equiv_pos_site_id
 _symmetry_equiv_pos_as_xyz
  1  'x, y, z'
loop_
 _atom_site_type_symbol
 _atom_site_label
 _atom_site_symmetry_multiplicity
 _atom_site_fract_x
 _atom_site_fract_y
 _atom_site_fract_z
 _atom_site_occupancy
  Dy  Dy0  1  0.336422  0.667120  0.500000  1
  Dy  Dy1  1  0.667406  0.335205  0.500000  1
  Dy  Dy2  1  0.999103  0.817932  0.000000  1
  Dy  Dy3  1  0.182488  0.181865  0.000000  1
  Dy  Dy4  1  0.817611  0.999963  0.000000  1
  Mn  Mn5  1  0.526096  0.875697  0.000000  1
  Mn  Mn6  1  0.119444  0.641605  0.000000  1
  Mn  Mn7  1  0.358737  0.478156  0.000000  1
  Mn  Mn8  1  0.477347  0.359231  0.000000  1
  Mn  Mn9  1  0.880866  0.523768  0.000000  1
  Mn  Mn10  1  0.641319  0.117818  0.000000  1
  Mn  Mn11  1  0.999164  0.285995  0.000000  1
  Mn  Mn12  1  0.711838  0.715832  0.000000  1
  Mn  Mn13  1  0.287364  0.999576  0.000000  1
  Mn  Mn14  1  0.617552  0.799169  0.500000  1
  Tc  Tc15  1  0.998308  0.449790  0.500000  1
  Tc  Tc16  1  0.547984  0.552351  0.500000  1
  Tc  Tc17  1  0.451753  0.998764  0.500000  1
  P  P18  1  0.999736  0.637990  0.500000  1
  P  P19  1  0.362831  0.363011  0.500000  1
  P  P20  1  0.636403  0.991364  0.500000  1
  P  P21  1  0.520452  0.684296  0.000000  1
  P  P22  1  0.327089  0.843349  0.000000  1
  P  P23  1  0.158419  0.480220  0.000000  1
  P  P24  1  0.480860  0.158465  0.000000  1
  P  P25  1  0.676266  0.521462  0.000000  1
  P  P26  1  0.842010  0.323160  0.000000  1
  P  P27  1  0.999003  0.185398  0.500000  1
  P  P28  1  0.809409  0.816353  0.500000  1
  P  P29  1  0.186198  0.999050  0.500000  1
  Ir  Ir30  1  0.199119  0.815560  0.500000  1
  Ir  Ir31  1  0.183040  0.380927  0.500000  1
  Ir  Ir32  1  0.382804  0.183589  0.500000  1
  Ir  Ir33  1  0.801303  0.619821  0.500000  1
  Ir  Ir34  1  0.813622  0.195996  0.500000  1
  Ir  Ir35  1  0.000634  0.000154  0.500000  1
