# generated using pymatgen
data_Ho16Mg3In(IrPd)2
_symmetry_space_group_name_H-M   'P 1'
_cell_length_a   9.64650964
_cell_length_b   9.70780081
_cell_length_c   9.70780159
_cell_angle_alpha   60.25832147
_cell_angle_beta   59.84745381
_cell_angle_gamma   59.84745286
_symmetry_Int_Tables_number   1
_chemical_formula_structural   Ho16Mg3In(IrPd)2
_chemical_formula_sum   'Ho16 Mg3 In1 Ir2 Pd2'
_cell_volume   642.58185836
_cell_formula_units_Z   1
loop_
 _symmetry_equiv_pos_site_id
 _symmetry_equiv_pos_as_xyz
  1  'x, y, z'
loop_
 _atom_site_type_symbol
 _atom_site_label
 _atom_site_symmetry_multiplicity
 _atom_site_fract_x
 _atom_site_fract_y
 _atom_site_fract_z
 _atom_site_occupancy
  Ho  Ho0  1  0.437049  0.430285  0.064431  1
  Ho  Ho1  1  0.649322  0.640002  0.056851  1
  Ho  Ho2  1  0.183500  0.813472  0.191670  1
  Ho  Ho3  1  0.063369  0.434469  0.061985  1
  Ho  Ho4  1  0.189472  0.810930  0.810930  1
  Ho  Ho5  1  0.066191  0.433555  0.433555  1
  Ho  Ho6  1  0.812180  0.189107  0.189107  1
  Ho  Ho7  1  0.658186  0.651591  0.651591  1
  Ho  Ho8  1  0.811112  0.196848  0.807001  1
  Ho  Ho9  1  0.183500  0.191670  0.813472  1
  Ho  Ho10  1  0.042003  0.649483  0.649483  1
  Ho  Ho11  1  0.437184  0.062734  0.062734  1
  Ho  Ho12  1  0.063369  0.061985  0.434469  1
  Ho  Ho13  1  0.649322  0.056851  0.640002  1
  Ho  Ho14  1  0.811112  0.807001  0.196848  1
  Ho  Ho15  1  0.437049  0.064431  0.430285  1
  Mg  Mg16  1  0.421480  0.420712  0.420712  1
  Mg  Mg17  1  0.422534  0.423740  0.735595  1
  Mg  Mg18  1  0.422534  0.735595  0.423740  1
  In  In19  1  0.746639  0.418802  0.418802  1
  Ir  Ir20  1  0.855733  0.425561  0.862715  1
  Ir  Ir21  1  0.855733  0.862715  0.425561  1
  Pd  Pd22  1  0.429500  0.859784  0.859784  1
  Pd  Pd23  1  0.851927  0.858680  0.858680  1
