# generated using pymatgen
data_Mn13Nb12Ga9Ni2
_symmetry_space_group_name_H-M   'P 1'
_cell_length_a   8.59826900
_cell_length_b   8.59826742
_cell_length_c   7.90298900
_cell_angle_alpha   90.00000000
_cell_angle_beta   90.00000000
_cell_angle_gamma   119.99998685
_symmetry_Int_Tables_number   1
_chemical_formula_structural   Mn13Nb12Ga9Ni2
_chemical_formula_sum   'Mn13 Nb12 Ga9 Ni2'
_cell_volume   505.99245727
_cell_formula_units_Z   1
loop_
 _symmetry_equiv_pos_site_id
 _symmetry_equiv_pos_as_xyz
  1  'x, y, z'
loop_
 _atom_site_type_symbol
 _atom_site_label
 _atom_site_symmetry_multiplicity
 _atom_site_fract_x
 _atom_site_fract_y
 _atom_site_fract_z
 _atom_site_occupancy
  Mn  Mn0  1  0.167934  0.506692  0.741394  1
  Mn  Mn1  1  0.840586  0.495987  0.250680  1
  Mn  Mn2  1  0.493308  0.661243  0.741394  1
  Mn  Mn3  1  0.504013  0.159414  0.749320  1
  Mn  Mn4  1  0.504013  0.344599  0.250680  1
  Mn  Mn5  1  0.493308  0.832066  0.258606  1
  Mn  Mn6  1  0.338757  0.832066  0.741394  1
  Mn  Mn7  1  0.655401  0.495987  0.749320  1
  Mn  Mn8  1  0.655401  0.159414  0.250680  1
  Mn  Mn9  1  0.338757  0.506692  0.258606  1
  Mn  Mn10  1  0.840586  0.344599  0.749320  1
  Mn  Mn11  1  0.167934  0.661243  0.258606  1
  Mn  Mn12  1  0.333333  0.666667  0.500000  1
  Nb  Nb13  1  0.336791  0.998195  0.061178  1
  Nb  Nb14  1  0.661404  0.998195  0.938822  1
  Nb  Nb15  1  0.001805  0.338596  0.061178  1
  Nb  Nb16  1  0.663437  0.999260  0.559599  1
  Nb  Nb17  1  0.000740  0.336563  0.440401  1
  Nb  Nb18  1  0.001805  0.663209  0.938822  1
  Nb  Nb19  1  0.335823  0.999260  0.440401  1
  Nb  Nb20  1  0.000740  0.664177  0.559599  1
  Nb  Nb21  1  0.661404  0.663209  0.061178  1
  Nb  Nb22  1  0.336791  0.338596  0.938822  1
  Nb  Nb23  1  0.335823  0.336563  0.559599  1
  Nb  Nb24  1  0.663437  0.664177  0.440401  1
  Ga  Ga25  1  0.666667  0.333333  0.500000  1
  Ga  Ga26  1  0.666667  0.333333  0.000000  1
  Ga  Ga27  1  0.333333  0.666667  0.000000  1
  Ga  Ga28  1  0.176173  0.999748  0.751885  1
  Ga  Ga29  1  0.823577  0.999748  0.248115  1
  Ga  Ga30  1  0.000252  0.176423  0.751885  1
  Ga  Ga31  1  0.000252  0.823827  0.248115  1
  Ga  Ga32  1  0.823577  0.823827  0.751885  1
  Ga  Ga33  1  0.176173  0.176423  0.248115  1
  Ni  Ni34  1  0.000000  0.000000  0.500000  1
  Ni  Ni35  1  0.000000  0.000000  0.000000  1
