# generated using pymatgen
data_Y2V2Ni10As7
_symmetry_space_group_name_H-M   'P 1'
_cell_length_a   3.80801500
_cell_length_b   9.42590610
_cell_length_c   9.44104028
_cell_angle_alpha   119.61582214
_cell_angle_beta   90.00000000
_cell_angle_gamma   90.00000000
_symmetry_Int_Tables_number   1
_chemical_formula_structural   Y2V2Ni10As7
_chemical_formula_sum   'Y2 V2 Ni10 As7'
_cell_volume   294.60527061
_cell_formula_units_Z   1
loop_
 _symmetry_equiv_pos_site_id
 _symmetry_equiv_pos_as_xyz
  1  'x, y, z'
loop_
 _atom_site_type_symbol
 _atom_site_label
 _atom_site_symmetry_multiplicity
 _atom_site_fract_x
 _atom_site_fract_y
 _atom_site_fract_z
 _atom_site_occupancy
  Y  Y0  1  0.000000  0.671041  0.338509  1
  Y  Y1  1  0.500000  0.330920  0.664923  1
  V  V2  1  0.500000  0.787812  0.900727  1
  V  V3  1  0.500000  0.115249  0.212960  1
  Ni  Ni4  1  0.000000  0.566507  0.941148  1
  Ni  Ni5  1  0.000000  0.371885  0.431116  1
  Ni  Ni6  1  0.000000  0.060351  0.624796  1
  Ni  Ni7  1  0.500000  0.099431  0.886555  1
  Ni  Ni8  1  0.000000  0.871812  0.154028  1
  Ni  Ni9  1  0.000000  0.284544  0.126585  1
  Ni  Ni10  1  0.000000  0.844541  0.719922  1
  Ni  Ni11  1  0.500000  0.946431  0.380766  1
  Ni  Ni12  1  0.500000  0.428307  0.047251  1
  Ni  Ni13  1  0.500000  0.620310  0.568294  1
  As  As14  1  0.000000  0.002730  0.000006  1
  As  As15  1  0.500000  0.705752  0.112463  1
  As  As16  1  0.500000  0.409029  0.295320  1
  As  As17  1  0.500000  0.890787  0.599632  1
  As  As18  1  0.000000  0.588923  0.705429  1
  As  As19  1  0.000000  0.113093  0.406342  1
  As  As20  1  0.000000  0.290545  0.883228  1
