# generated using pymatgen
data_BaTbDySi3O10
_symmetry_space_group_name_H-M   'P 1'
_cell_length_a   12.36804300
_cell_length_b   5.46864992
_cell_length_c   6.94158216
_cell_angle_alpha   73.56688196
_cell_angle_beta   90.00000000
_cell_angle_gamma   90.00000000
_symmetry_Int_Tables_number   1
_chemical_formula_structural   BaTbDySi3O10
_chemical_formula_sum   'Ba2 Tb2 Dy2 Si6 O20'
_cell_volume   450.32534143
_cell_formula_units_Z   2
loop_
 _symmetry_equiv_pos_site_id
 _symmetry_equiv_pos_as_xyz
  1  'x, y, z'
loop_
 _atom_site_type_symbol
 _atom_site_label
 _atom_site_symmetry_multiplicity
 _atom_site_fract_x
 _atom_site_fract_y
 _atom_site_fract_z
 _atom_site_occupancy
  Ba  Ba0  1  0.750000  0.762322  0.985087  1
  Ba  Ba1  1  0.250000  0.237628  0.014670  1
  Tb  Tb2  1  0.598516  0.157578  0.315781  1
  Tb  Tb3  1  0.901484  0.157578  0.315781  1
  Dy  Dy4  1  0.099158  0.841696  0.684544  1
  Dy  Dy5  1  0.400842  0.841696  0.684544  1
  Si  Si6  1  0.061733  0.695710  0.213998  1
  Si  Si7  1  0.250000  0.418815  0.487932  1
  Si  Si8  1  0.750000  0.580997  0.512445  1
  Si  Si9  1  0.438267  0.695710  0.213998  1
  Si  Si10  1  0.561245  0.304607  0.785718  1
  Si  Si11  1  0.938755  0.304607  0.785718  1
  O  O12  1  0.449317  0.895992  0.352710  1
  O  O13  1  0.143560  0.453824  0.337988  1
  O  O14  1  0.856594  0.545930  0.661750  1
  O  O15  1  0.356440  0.453824  0.337988  1
  O  O16  1  0.377994  0.836916  0.002965  1
  O  O17  1  0.877917  0.163212  0.996063  1
  O  O18  1  0.053638  0.436812  0.807763  1
  O  O19  1  0.950900  0.102562  0.648741  1
  O  O20  1  0.549100  0.102562  0.648741  1
  O  O21  1  0.250000  0.626920  0.616396  1
  O  O22  1  0.122006  0.836916  0.002965  1
  O  O23  1  0.553635  0.565492  0.191716  1
  O  O24  1  0.250000  0.124514  0.632907  1
  O  O25  1  0.643406  0.545930  0.661750  1
  O  O26  1  0.750000  0.875027  0.367096  1
  O  O27  1  0.946365  0.565492  0.191716  1
  O  O28  1  0.750000  0.373117  0.383992  1
  O  O29  1  0.446362  0.436812  0.807763  1
  O  O30  1  0.622083  0.163212  0.996063  1
  O  O31  1  0.050683  0.895992  0.352710  1
