# generated using pymatgen
data_Na5Fe3(P3Ir4)4
_symmetry_space_group_name_H-M   'P 1'
_cell_length_a   12.48320600
_cell_length_b   12.48320555
_cell_length_c   3.91607000
_cell_angle_alpha   90.00000000
_cell_angle_beta   90.00000000
_cell_angle_gamma   120.00000119
_symmetry_Int_Tables_number   1
_chemical_formula_structural   Na5Fe3(P3Ir4)4
_chemical_formula_sum   'Na5 Fe3 P12 Ir16'
_cell_volume   528.48581129
_cell_formula_units_Z   1
loop_
 _symmetry_equiv_pos_site_id
 _symmetry_equiv_pos_as_xyz
  1  'x, y, z'
loop_
 _atom_site_type_symbol
 _atom_site_label
 _atom_site_symmetry_multiplicity
 _atom_site_fract_x
 _atom_site_fract_y
 _atom_site_fract_z
 _atom_site_occupancy
  Na  Na0  1  0.000000  0.176794  0.500000  1
  Na  Na1  1  0.823206  0.823206  0.500000  1
  Na  Na2  1  0.176794  0.000000  0.500000  1
  Na  Na3  1  0.666667  0.333333  0.000000  1
  Na  Na4  1  0.333333  0.666667  0.000000  1
  Fe  Fe5  1  0.000000  0.706191  0.500000  1
  Fe  Fe6  1  0.293809  0.293809  0.500000  1
  Fe  Fe7  1  0.706191  0.000000  0.500000  1
  P  P8  1  0.000000  0.817611  0.000000  1
  P  P9  1  0.182389  0.182389  0.000000  1
  P  P10  1  0.817611  0.000000  0.000000  1
  P  P11  1  0.685869  0.165137  0.500000  1
  P  P12  1  0.834863  0.520732  0.500000  1
  P  P13  1  0.479268  0.314131  0.500000  1
  P  P14  1  0.165137  0.685869  0.500000  1
  P  P15  1  0.520732  0.834863  0.500000  1
  P  P16  1  0.314131  0.479268  0.500000  1
  P  P17  1  0.000000  0.359523  0.000000  1
  P  P18  1  0.640477  0.640477  0.000000  1
  P  P19  1  0.359523  0.000000  0.000000  1
  Ir  Ir20  1  0.000000  0.544709  0.000000  1
  Ir  Ir21  1  0.455291  0.455291  0.000000  1
  Ir  Ir22  1  0.544709  0.000000  0.000000  1
  Ir  Ir23  1  0.802735  0.177965  0.000000  1
  Ir  Ir24  1  0.822035  0.624771  0.000000  1
  Ir  Ir25  1  0.375229  0.197265  0.000000  1
  Ir  Ir26  1  0.177965  0.802735  0.000000  1
  Ir  Ir27  1  0.624771  0.822035  0.000000  1
  Ir  Ir28  1  0.197265  0.375229  0.000000  1
  Ir  Ir29  1  0.870411  0.357724  0.500000  1
  Ir  Ir30  1  0.642276  0.512687  0.500000  1
  Ir  Ir31  1  0.487313  0.129589  0.500000  1
  Ir  Ir32  1  0.357724  0.870411  0.500000  1
  Ir  Ir33  1  0.512687  0.642276  0.500000  1
  Ir  Ir34  1  0.129589  0.487313  0.500000  1
  Ir  Ir35  1  0.000000  0.000000  0.000000  1
