# generated using pymatgen
data_Ta7Nb9Cu4(NiN)4
_symmetry_space_group_name_H-M   'P 1'
_cell_length_a   8.27944972
_cell_length_b   8.26968101
_cell_length_c   8.28257363
_cell_angle_alpha   60.02566739
_cell_angle_beta   60.09481950
_cell_angle_gamma   60.06234359
_symmetry_Int_Tables_number   1
_chemical_formula_structural   Ta7Nb9Cu4(NiN)4
_chemical_formula_sum   'Ta7 Nb9 Cu4 Ni4 N4'
_cell_volume   401.55002731
_cell_formula_units_Z   1
loop_
 _symmetry_equiv_pos_site_id
 _symmetry_equiv_pos_as_xyz
  1  'x, y, z'
loop_
 _atom_site_type_symbol
 _atom_site_label
 _atom_site_symmetry_multiplicity
 _atom_site_fract_x
 _atom_site_fract_y
 _atom_site_fract_z
 _atom_site_occupancy
  Ta  Ta0  1  0.118341  0.627435  0.627610  1
  Ta  Ta1  1  0.627876  0.118243  0.627234  1
  Ta  Ta2  1  0.627614  0.626616  0.118338  1
  Ta  Ta3  1  0.627231  0.626610  0.627869  1
  Ta  Ta4  1  0.065108  0.434884  0.065112  1
  Ta  Ta5  1  0.064917  0.434761  0.435319  1
  Ta  Ta6  1  0.435309  0.065010  0.064920  1
  Nb  Nb7  1  0.815050  0.815386  0.184867  1
  Nb  Nb8  1  0.184905  0.184643  0.815061  1
  Nb  Nb9  1  0.816288  0.183696  0.816275  1
  Nb  Nb10  1  0.182979  0.817029  0.182975  1
  Nb  Nb11  1  0.182264  0.817964  0.817488  1
  Nb  Nb12  1  0.817518  0.182231  0.182281  1
  Nb  Nb13  1  0.434779  0.434438  0.065339  1
  Nb  Nb14  1  0.065337  0.065454  0.434772  1
  Nb  Nb15  1  0.434632  0.065369  0.434640  1
  Cu  Cu16  1  0.748446  0.418037  0.416753  1
  Cu  Cu17  1  0.418086  0.747101  0.416718  1
  Cu  Cu18  1  0.416787  0.416796  0.748490  1
  Cu  Cu19  1  0.416680  0.418190  0.418080  1
  Ni  Ni20  1  0.512136  0.829562  0.829629  1
  Ni  Ni21  1  0.830066  0.511921  0.829075  1
  Ni  Ni22  1  0.829545  0.828604  0.512141  1
  Ni  Ni23  1  0.829135  0.828964  0.830067  1
  N  N24  1  0.621128  0.125044  0.125274  1
  N  N25  1  0.124524  0.619657  0.128016  1
  N  N26  1  0.125284  0.128551  0.621127  1
  N  N27  1  0.128033  0.127802  0.124526  1
