# generated using pymatgen
data_DyHo7(AlRu)8
_symmetry_space_group_name_H-M   'P 1'
_cell_length_a   4.08002700
_cell_length_b   6.96988083
_cell_length_c   15.91655253
_cell_angle_alpha   90.04770141
_cell_angle_beta   90.00000000
_cell_angle_gamma   90.00000000
_symmetry_Int_Tables_number   1
_chemical_formula_structural   DyHo7(AlRu)8
_chemical_formula_sum   'Dy1 Ho7 Al8 Ru8'
_cell_volume   452.62365413
_cell_formula_units_Z   1
loop_
 _symmetry_equiv_pos_site_id
 _symmetry_equiv_pos_as_xyz
  1  'x, y, z'
loop_
 _atom_site_type_symbol
 _atom_site_label
 _atom_site_symmetry_multiplicity
 _atom_site_fract_x
 _atom_site_fract_y
 _atom_site_fract_z
 _atom_site_occupancy
  Dy  Dy0  1  0.250000  0.536610  0.719210  1
  Ho  Ho1  1  0.750000  0.963624  0.219499  1
  Ho  Ho2  1  0.250000  0.160646  0.562845  1
  Ho  Ho3  1  0.750000  0.842871  0.436604  1
  Ho  Ho4  1  0.750000  0.463784  0.280858  1
  Ho  Ho5  1  0.750000  0.339994  0.063359  1
  Ho  Ho6  1  0.250000  0.656507  0.936878  1
  Ho  Ho7  1  0.250000  0.036225  0.780711  1
  Al  Al8  1  0.750000  0.503996  0.565252  1
  Al  Al9  1  0.750000  0.363213  0.849640  1
  Al  Al10  1  0.750000  0.997922  0.934309  1
  Al  Al11  1  0.750000  0.868806  0.650739  1
  Al  Al12  1  0.250000  0.500410  0.434081  1
  Al  Al13  1  0.250000  0.996818  0.066216  1
  Al  Al14  1  0.250000  0.633434  0.151285  1
  Al  Al15  1  0.250000  0.135156  0.348777  1
  Ru  Ru16  1  0.750000  0.745209  0.812282  1
  Ru  Ru17  1  0.250000  0.232581  0.937437  1
  Ru  Ru18  1  0.750000  0.265601  0.436583  1
  Ru  Ru19  1  0.250000  0.753475  0.312014  1
  Ru  Ru20  1  0.750000  0.762760  0.063741  1
  Ru  Ru21  1  0.750000  0.248524  0.687347  1
  Ru  Ru22  1  0.250000  0.252905  0.187621  1
  Ru  Ru23  1  0.250000  0.738932  0.562715  1
