# generated using pymatgen
data_Yb5(InAs3)2
_symmetry_space_group_name_H-M   'P 1'
_cell_length_a   4.25685800
_cell_length_b   7.02165300
_cell_length_c   21.88913400
_cell_angle_alpha   90.00000000
_cell_angle_beta   90.00000000
_cell_angle_gamma   90.00000000
_symmetry_Int_Tables_number   1
_chemical_formula_structural   Yb5(InAs3)2
_chemical_formula_sum   'Yb10 In4 As12'
_cell_volume   654.27014975
_cell_formula_units_Z   2
loop_
 _symmetry_equiv_pos_site_id
 _symmetry_equiv_pos_as_xyz
  1  'x, y, z'
loop_
 _atom_site_type_symbol
 _atom_site_label
 _atom_site_symmetry_multiplicity
 _atom_site_fract_x
 _atom_site_fract_y
 _atom_site_fract_z
 _atom_site_occupancy
  Yb  Yb0  1  0.500000  0.051210  0.909323  1
  Yb  Yb1  1  0.500000  0.551210  0.590677  1
  Yb  Yb2  1  0.500000  0.948790  0.090677  1
  Yb  Yb3  1  0.500000  0.231071  0.746425  1
  Yb  Yb4  1  0.500000  0.448790  0.409323  1
  Yb  Yb5  1  0.500000  0.500000  0.000000  1
  Yb  Yb6  1  0.500000  0.268929  0.246425  1
  Yb  Yb7  1  0.500000  0.768929  0.253575  1
  Yb  Yb8  1  0.500000  0.731071  0.753575  1
  Yb  Yb9  1  0.500000  0.000000  0.500000  1
  In  In10  1  0.000000  0.324315  0.119965  1
  In  In11  1  0.000000  0.675685  0.880035  1
  In  In12  1  0.000000  0.824315  0.380035  1
  In  In13  1  0.000000  0.175685  0.619965  1
  As  As14  1  0.000000  0.682975  0.499799  1
  As  As15  1  0.500000  0.043952  0.363919  1
  As  As16  1  0.000000  0.012384  0.189724  1
  As  As17  1  0.000000  0.512384  0.310276  1
  As  As18  1  0.000000  0.987616  0.810276  1
  As  As19  1  0.000000  0.487616  0.689724  1
  As  As20  1  0.500000  0.456048  0.863919  1
  As  As21  1  0.000000  0.182975  0.000201  1
  As  As22  1  0.500000  0.543952  0.136081  1
  As  As23  1  0.000000  0.317025  0.500201  1
  As  As24  1  0.000000  0.817025  0.999799  1
  As  As25  1  0.500000  0.956048  0.636081  1
