# generated using pymatgen
data_Nb6Ni3Os3C2
_symmetry_space_group_name_H-M   'P 1'
_cell_length_a   8.24860144
_cell_length_b   8.24860048
_cell_length_c   8.24860121
_cell_angle_alpha   119.91987183
_cell_angle_beta   120.00995266
_cell_angle_gamma   90.06080086
_symmetry_Int_Tables_number   1
_chemical_formula_structural   Nb6Ni3Os3C2
_chemical_formula_sum   'Nb12 Ni6 Os6 C4'
_cell_volume   397.05948195
_cell_formula_units_Z   2
loop_
 _symmetry_equiv_pos_site_id
 _symmetry_equiv_pos_as_xyz
  1  'x, y, z'
loop_
 _atom_site_type_symbol
 _atom_site_label
 _atom_site_symmetry_multiplicity
 _atom_site_fract_x
 _atom_site_fract_y
 _atom_site_fract_z
 _atom_site_occupancy
  Nb  Nb0  1  0.058894  0.058894  0.000000  1
  Nb  Nb1  1  0.675370  0.675370  0.000000  1
  Nb  Nb2  1  0.685999  0.067141  0.002961  1
  Nb  Nb3  1  0.064180  0.683038  0.997039  1
  Nb  Nb4  1  0.064180  0.067141  0.381142  1
  Nb  Nb5  1  0.685999  0.683038  0.618858  1
  Nb  Nb6  1  0.426934  0.926934  0.500000  1
  Nb  Nb7  1  0.813610  0.313610  0.500000  1
  Nb  Nb8  1  0.821573  0.930378  0.501975  1
  Nb  Nb9  1  0.428403  0.319598  0.498025  1
  Nb  Nb10  1  0.428403  0.930378  0.108805  1
  Nb  Nb11  1  0.821573  0.319598  0.891195  1
  Ni  Ni12  1  0.456910  0.288261  0.831350  1
  Ni  Ni13  1  0.456910  0.625560  0.168650  1
  Ni  Ni14  1  0.040085  0.712785  0.327301  1
  Ni  Ni15  1  0.385484  0.712785  0.672699  1
  Ni  Ni16  1  0.042975  0.700419  0.657444  1
  Ni  Ni17  1  0.042975  0.385531  0.342556  1
  Os  Os18  1  0.254639  0.504696  0.749942  1
  Os  Os19  1  0.754755  0.504696  0.250058  1
  Os  Os20  1  0.247141  0.503464  0.256323  1
  Os  Os21  1  0.247141  0.990818  0.743677  1
  Os  Os22  1  0.459139  0.301357  0.157782  1
  Os  Os23  1  0.143575  0.301357  0.842218  1
  C  C24  1  0.746462  0.999103  0.747358  1
  C  C25  1  0.251745  0.999103  0.252642  1
  C  C26  1  0.747474  0.995259  0.247785  1
  C  C27  1  0.747474  0.499689  0.752215  1
