# generated using pymatgen
data_Tm5Lu3Re2(B12Os)2
_symmetry_space_group_name_H-M   'P 1'
_cell_length_a   3.62075000
_cell_length_b   9.07233927
_cell_length_c   11.44398402
_cell_angle_alpha   90.13595277
_cell_angle_beta   90.00000000
_cell_angle_gamma   90.00000000
_symmetry_Int_Tables_number   1
_chemical_formula_structural   Tm5Lu3Re2(B12Os)2
_chemical_formula_sum   'Tm5 Lu3 Re2 B24 Os2'
_cell_volume   375.91862381
_cell_formula_units_Z   1
loop_
 _symmetry_equiv_pos_site_id
 _symmetry_equiv_pos_as_xyz
  1  'x, y, z'
loop_
 _atom_site_type_symbol
 _atom_site_label
 _atom_site_symmetry_multiplicity
 _atom_site_fract_x
 _atom_site_fract_y
 _atom_site_fract_z
 _atom_site_occupancy
  Tm  Tm0  1  0.000000  0.320263  0.412417  1
  Tm  Tm1  1  0.000000  0.679711  0.587723  1
  Tm  Tm2  1  0.000000  0.824002  0.084567  1
  Tm  Tm3  1  0.000000  0.176070  0.915250  1
  Tm  Tm4  1  0.000000  0.943574  0.371115  1
  Lu  Lu5  1  0.000000  0.056567  0.629349  1
  Lu  Lu6  1  0.000000  0.442779  0.128239  1
  Lu  Lu7  1  0.000000  0.557284  0.871516  1
  Re  Re8  1  0.000000  0.139348  0.179897  1
  Re  Re9  1  0.000000  0.861193  0.820021  1
  B  B10  1  0.500000  0.553260  0.433494  1
  B  B11  1  0.500000  0.446311  0.566584  1
  B  B12  1  0.500000  0.053234  0.066556  1
  B  B13  1  0.500000  0.946993  0.933331  1
  B  B14  1  0.500000  0.749249  0.419256  1
  B  B15  1  0.500000  0.250103  0.580882  1
  B  B16  1  0.500000  0.250230  0.080445  1
  B  B17  1  0.500000  0.749878  0.919443  1
  B  B18  1  0.500000  0.791195  0.265358  1
  B  B19  1  0.500000  0.208286  0.734481  1
  B  B20  1  0.500000  0.293192  0.234905  1
  B  B21  1  0.500000  0.707148  0.765022  1
  B  B22  1  0.500000  0.630058  0.184926  1
  B  B23  1  0.500000  0.369705  0.814920  1
  B  B24  1  0.500000  0.131248  0.315613  1
  B  B25  1  0.500000  0.869239  0.684314  1
  B  B26  1  0.500000  0.981817  0.212485  1
  B  B27  1  0.500000  0.018579  0.787100  1
  B  B28  1  0.500000  0.481751  0.287550  1
  B  B29  1  0.500000  0.518053  0.712337  1
  B  B30  1  0.500000  0.601445  0.028289  1
  B  B31  1  0.500000  0.398513  0.971547  1
  B  B32  1  0.500000  0.102544  0.472447  1
  B  B33  1  0.500000  0.897879  0.528559  1
  Os  Os34  1  0.000000  0.637110  0.321311  1
  Os  Os35  1  0.000000  0.362186  0.678750  1
