# generated using pymatgen
data_La6Nd(DyRh3)2
_symmetry_space_group_name_H-M   'P 1'
_cell_length_a   7.68320246
_cell_length_b   7.68320173
_cell_length_c   7.68320305
_cell_angle_alpha   70.79972173
_cell_angle_beta   70.79973322
_cell_angle_gamma   70.79971965
_symmetry_Int_Tables_number   1
_chemical_formula_structural   La6Nd(DyRh3)2
_chemical_formula_sum   'La6 Nd1 Dy2 Rh6'
_cell_volume   391.91440852
_cell_formula_units_Z   1
loop_
 _symmetry_equiv_pos_site_id
 _symmetry_equiv_pos_as_xyz
  1  'x, y, z'
loop_
 _atom_site_type_symbol
 _atom_site_label
 _atom_site_symmetry_multiplicity
 _atom_site_fract_x
 _atom_site_fract_y
 _atom_site_fract_z
 _atom_site_occupancy
  La  La0  1  0.159943  0.385509  0.672187  1
  La  La1  1  0.672187  0.159943  0.385509  1
  La  La2  1  0.385509  0.672187  0.159943  1
  La  La3  1  0.842422  0.610716  0.327665  1
  La  La4  1  0.327665  0.842422  0.610716  1
  La  La5  1  0.610716  0.327665  0.842422  1
  Nd  Nd6  1  0.801040  0.801040  0.801040  1
  Dy  Dy7  1  0.000553  0.000553  0.000553  1
  Dy  Dy8  1  0.197330  0.197330  0.197330  1
  Rh  Rh9  1  0.960543  0.164378  0.590544  1
  Rh  Rh10  1  0.590544  0.960543  0.164378  1
  Rh  Rh11  1  0.164378  0.590544  0.960543  1
  Rh  Rh12  1  0.046585  0.841139  0.399446  1
  Rh  Rh13  1  0.399446  0.046585  0.841139  1
  Rh  Rh14  1  0.841139  0.399446  0.046585  1
