# generated using pymatgen
data_Tb3MgNb(ReN4)3
_symmetry_space_group_name_H-M   'P 1'
_cell_length_a   11.13849306
_cell_length_b   11.13849254
_cell_length_c   11.13849245
_cell_angle_alpha   109.48750128
_cell_angle_beta   109.48749960
_cell_angle_gamma   109.48750240
_symmetry_Int_Tables_number   1
_chemical_formula_structural   Tb3MgNb(ReN4)3
_chemical_formula_sum   'Tb12 Mg4 Nb4 Re12 N48'
_cell_volume   1063.15191557
_cell_formula_units_Z   4
loop_
 _symmetry_equiv_pos_site_id
 _symmetry_equiv_pos_as_xyz
  1  'x, y, z'
loop_
 _atom_site_type_symbol
 _atom_site_label
 _atom_site_symmetry_multiplicity
 _atom_site_fract_x
 _atom_site_fract_y
 _atom_site_fract_z
 _atom_site_occupancy
  Tb  Tb0  1  0.377018  0.747706  0.126234  1
  Tb  Tb1  1  0.256089  0.379695  0.129398  1
  Tb  Tb2  1  0.379695  0.129398  0.256089  1
  Tb  Tb3  1  0.873766  0.622982  0.252294  1
  Tb  Tb4  1  0.747706  0.126234  0.377018  1
  Tb  Tb5  1  0.129398  0.256089  0.379695  1
  Tb  Tb6  1  0.870602  0.743911  0.620306  1
  Tb  Tb7  1  0.252294  0.873766  0.622982  1
  Tb  Tb8  1  0.126234  0.377018  0.747706  1
  Tb  Tb9  1  0.620306  0.870602  0.743911  1
  Tb  Tb10  1  0.622982  0.252294  0.873766  1
  Tb  Tb11  1  0.743911  0.620306  0.870602  1
  Mg  Mg12  1  0.500000  0.500000  0.000000  1
  Mg  Mg13  1  0.500000  0.000000  0.500000  1
  Mg  Mg14  1  0.000000  0.500000  0.500000  1
  Mg  Mg15  1  0.500000  0.500000  0.500000  1
  Nb  Nb16  1  0.000000  0.000000  0.000000  1
  Nb  Nb17  1  0.500000  0.000000  0.000000  1
  Nb  Nb18  1  0.000000  0.500000  0.000000  1
  Nb  Nb19  1  0.000000  0.000000  0.500000  1
  Re  Re20  1  0.876226  0.249452  0.125365  1
  Re  Re21  1  0.750547  0.874635  0.123774  1
  Re  Re22  1  0.625760  0.376028  0.249705  1
  Re  Re23  1  0.125365  0.876226  0.249452  1
  Re  Re24  1  0.249705  0.625760  0.376028  1
  Re  Re25  1  0.623972  0.750295  0.374241  1
  Re  Re26  1  0.376028  0.249705  0.625760  1
  Re  Re27  1  0.750295  0.374241  0.623972  1
  Re  Re28  1  0.874635  0.123774  0.750547  1
  Re  Re29  1  0.374241  0.623972  0.750295  1
  Re  Re30  1  0.249452  0.125365  0.876226  1
  Re  Re31  1  0.123774  0.750547  0.874635  1
  N  N32  1  0.313298  0.901017  0.018323  1
  N  N33  1  0.205698  0.118409  0.020687  1
  N  N34  1  0.883114  0.402937  0.089813  1
  N  N35  1  0.713330  0.693121  0.091698  1
  N  N36  1  0.623239  0.410565  0.100847  1
  N  N37  1  0.981676  0.686702  0.098983  1
  N  N38  1  0.020687  0.205698  0.118409  1
  N  N39  1  0.597062  0.910186  0.116886  1
  N  N40  1  0.206139  0.588143  0.184684  1
  N  N41  1  0.475443  0.599461  0.190794  1
  N  N42  1  0.118409  0.020687  0.205698  1
  N  N43  1  0.588143  0.184684  0.206139  1
  N  N44  1  0.306879  0.908302  0.286670  1
  N  N45  1  0.477687  0.377088  0.284918  1
  N  N46  1  0.908302  0.286670  0.306879  1
  N  N47  1  0.901017  0.018323  0.313298  1
  N  N48  1  0.284918  0.477687  0.377088  1
  N  N49  1  0.589435  0.899153  0.376761  1
  N  N50  1  0.809206  0.524558  0.400540  1
  N  N51  1  0.089813  0.883114  0.402937  1
  N  N52  1  0.100847  0.623239  0.410565  1
  N  N53  1  0.815315  0.793860  0.411857  1
  N  N54  1  0.599461  0.190794  0.475443  1
  N  N55  1  0.377088  0.284918  0.477687  1
  N  N56  1  0.622911  0.715082  0.522313  1
  N  N57  1  0.400540  0.809206  0.524558  1
  N  N58  1  0.184684  0.206139  0.588143  1
  N  N59  1  0.899153  0.376761  0.589435  1
  N  N60  1  0.910186  0.116886  0.597062  1
  N  N61  1  0.190794  0.475443  0.599461  1
  N  N62  1  0.410565  0.100847  0.623239  1
  N  N63  1  0.715082  0.522313  0.622911  1
  N  N64  1  0.091698  0.713330  0.693121  1
  N  N65  1  0.098983  0.981676  0.686702  1
  N  N66  1  0.522313  0.622911  0.715082  1
  N  N67  1  0.693121  0.091698  0.713330  1
  N  N68  1  0.881592  0.979314  0.794303  1
  N  N69  1  0.411857  0.815315  0.793860  1
  N  N70  1  0.524558  0.400540  0.809206  1
  N  N71  1  0.793860  0.411857  0.815315  1
  N  N72  1  0.402937  0.089813  0.883114  1
  N  N73  1  0.979314  0.794303  0.881592  1
  N  N74  1  0.018323  0.313298  0.901017  1
  N  N75  1  0.376761  0.589435  0.899153  1
  N  N76  1  0.286670  0.306879  0.908302  1
  N  N77  1  0.116886  0.597062  0.910186  1
  N  N78  1  0.686702  0.098983  0.981676  1
  N  N79  1  0.794303  0.881592  0.979314  1
