# generated using pymatgen
data_Hf4Nb4GeAs3
_symmetry_space_group_name_H-M   'P 1'
_cell_length_a   3.61102100
_cell_length_b   7.06650575
_cell_length_c   8.58742615
_cell_angle_alpha   89.81291170
_cell_angle_beta   90.00000000
_cell_angle_gamma   90.00000000
_symmetry_Int_Tables_number   1
_chemical_formula_structural   Hf4Nb4GeAs3
_chemical_formula_sum   'Hf4 Nb4 Ge1 As3'
_cell_volume   219.12676669
_cell_formula_units_Z   1
loop_
 _symmetry_equiv_pos_site_id
 _symmetry_equiv_pos_as_xyz
  1  'x, y, z'
loop_
 _atom_site_type_symbol
 _atom_site_label
 _atom_site_symmetry_multiplicity
 _atom_site_fract_x
 _atom_site_fract_y
 _atom_site_fract_z
 _atom_site_occupancy
  Hf  Hf0  1  0.250000  0.043301  0.663307  1
  Hf  Hf1  1  0.250000  0.540274  0.833908  1
  Hf  Hf2  1  0.750000  0.457581  0.164836  1
  Hf  Hf3  1  0.750000  0.959511  0.335392  1
  Nb  Nb4  1  0.750000  0.860828  0.939576  1
  Nb  Nb5  1  0.250000  0.636944  0.440377  1
  Nb  Nb6  1  0.750000  0.365135  0.561641  1
  Nb  Nb7  1  0.250000  0.135495  0.059353  1
  Ge  Ge8  1  0.250000  0.256503  0.356828  1
  As  As9  1  0.250000  0.756914  0.145431  1
  As  As10  1  0.750000  0.745915  0.643404  1
  As  As11  1  0.750000  0.241599  0.855946  1
