# generated using pymatgen
data_Yb4Zn6IrRu
_symmetry_space_group_name_H-M   'P 1'
_cell_length_a   5.39509004
_cell_length_b   5.39509042
_cell_length_c   8.81643001
_cell_angle_alpha   90.00367960
_cell_angle_beta   89.99632347
_cell_angle_gamma   119.99382425
_symmetry_Int_Tables_number   1
_chemical_formula_structural   Yb4Zn6IrRu
_chemical_formula_sum   'Yb4 Zn6 Ir1 Ru1'
_cell_volume   222.25310784
_cell_formula_units_Z   1
loop_
 _symmetry_equiv_pos_site_id
 _symmetry_equiv_pos_as_xyz
  1  'x, y, z'
loop_
 _atom_site_type_symbol
 _atom_site_label
 _atom_site_symmetry_multiplicity
 _atom_site_fract_x
 _atom_site_fract_y
 _atom_site_fract_z
 _atom_site_occupancy
  Yb  Yb0  1  0.666705  0.333295  0.554804  1
  Yb  Yb1  1  0.333295  0.666705  0.445196  1
  Yb  Yb2  1  0.333312  0.666688  0.053098  1
  Yb  Yb3  1  0.666688  0.333312  0.946902  1
  Zn  Zn4  1  0.163747  0.327379  0.750828  1
  Zn  Zn5  1  0.163741  0.836259  0.750828  1
  Zn  Zn6  1  0.672621  0.836253  0.750828  1
  Zn  Zn7  1  0.836253  0.672621  0.249172  1
  Zn  Zn8  1  0.836259  0.163741  0.249172  1
  Zn  Zn9  1  0.327379  0.163747  0.249172  1
  Ir  Ir10  1  0.000000  0.000000  0.500000  1
  Ru  Ru11  1  0.000000  0.000000  0.000000  1
