# generated using pymatgen
data_CaYbGaAg6
_symmetry_space_group_name_H-M   'P 1'
_cell_length_a   5.49450928
_cell_length_b   5.49450874
_cell_length_c   13.91964800
_cell_angle_alpha   90.00000000
_cell_angle_beta   90.00000000
_cell_angle_gamma   117.75864783
_symmetry_Int_Tables_number   1
_chemical_formula_structural   CaYbGaAg6
_chemical_formula_sum   'Ca2 Yb2 Ga2 Ag12'
_cell_volume   371.86794506
_cell_formula_units_Z   2
loop_
 _symmetry_equiv_pos_site_id
 _symmetry_equiv_pos_as_xyz
  1  'x, y, z'
loop_
 _atom_site_type_symbol
 _atom_site_label
 _atom_site_symmetry_multiplicity
 _atom_site_fract_x
 _atom_site_fract_y
 _atom_site_fract_z
 _atom_site_occupancy
  Ca  Ca0  1  0.322854  0.322854  0.382008  1
  Ca  Ca1  1  0.677146  0.677146  0.882008  1
  Yb  Yb2  1  0.321770  0.321770  0.117828  1
  Yb  Yb3  1  0.678230  0.678230  0.617828  1
  Ga  Ga4  1  0.829546  0.829546  0.249973  1
  Ga  Ga5  1  0.170454  0.170454  0.749973  1
  Ag  Ag6  1  0.828327  0.332151  0.249635  1
  Ag  Ag7  1  0.171673  0.667849  0.749635  1
  Ag  Ag8  1  0.332151  0.828327  0.249635  1
  Ag  Ag9  1  0.667849  0.171673  0.749635  1
  Ag  Ag10  1  0.990425  0.667773  0.076484  1
  Ag  Ag11  1  0.009575  0.332227  0.576484  1
  Ag  Ag12  1  0.667408  0.989327  0.423977  1
  Ag  Ag13  1  0.332592  0.010673  0.923977  1
  Ag  Ag14  1  0.010673  0.332592  0.923977  1
  Ag  Ag15  1  0.989327  0.667408  0.423977  1
  Ag  Ag16  1  0.332227  0.009575  0.576484  1
  Ag  Ag17  1  0.667773  0.990425  0.076484  1
