# generated using pymatgen
data_LaNd2Al7Cu2
_symmetry_space_group_name_H-M   'P 1'
_cell_length_a   9.24654585
_cell_length_b   9.24654701
_cell_length_c   9.24654700
_cell_angle_alpha   35.53783549
_cell_angle_beta   35.53782546
_cell_angle_gamma   35.53781722
_symmetry_Int_Tables_number   1
_chemical_formula_structural   LaNd2Al7Cu2
_chemical_formula_sum   'La1 Nd2 Al7 Cu2'
_cell_volume   238.69614255
_cell_formula_units_Z   1
loop_
 _symmetry_equiv_pos_site_id
 _symmetry_equiv_pos_as_xyz
  1  'x, y, z'
loop_
 _atom_site_type_symbol
 _atom_site_label
 _atom_site_symmetry_multiplicity
 _atom_site_fract_x
 _atom_site_fract_y
 _atom_site_fract_z
 _atom_site_occupancy
  La  La0  1  0.000000  0.000000  0.000000  1
  Nd  Nd1  1  0.858382  0.858382  0.858382  1
  Nd  Nd2  1  0.141618  0.141618  0.141618  1
  Al  Al3  1  0.418782  0.418782  0.928233  1
  Al  Al4  1  0.928233  0.418782  0.418782  1
  Al  Al5  1  0.418782  0.928233  0.418782  1
  Al  Al6  1  0.500000  0.500000  0.500000  1
  Al  Al7  1  0.581218  0.071767  0.581218  1
  Al  Al8  1  0.071767  0.581218  0.581218  1
  Al  Al9  1  0.581218  0.581218  0.071767  1
  Cu  Cu10  1  0.664272  0.664272  0.664272  1
  Cu  Cu11  1  0.335728  0.335728  0.335728  1
