# generated using pymatgen
data_Mn13Cr7Ge(MoC3)2
_symmetry_space_group_name_H-M   'P 1'
_cell_length_a   7.45238498
_cell_length_b   7.45190650
_cell_length_c   7.45309088
_cell_angle_alpha   60.10686878
_cell_angle_beta   60.00314267
_cell_angle_gamma   59.99787170
_symmetry_Int_Tables_number   1
_chemical_formula_structural   Mn13Cr7Ge(MoC3)2
_chemical_formula_sum   'Mn13 Cr7 Ge1 Mo2 C6'
_cell_volume   292.91186636
_cell_formula_units_Z   1
loop_
 _symmetry_equiv_pos_site_id
 _symmetry_equiv_pos_as_xyz
  1  'x, y, z'
loop_
 _atom_site_type_symbol
 _atom_site_label
 _atom_site_symmetry_multiplicity
 _atom_site_fract_x
 _atom_site_fract_y
 _atom_site_fract_z
 _atom_site_occupancy
  Mn  Mn0  1  0.616364  0.614895  0.152376  1
  Mn  Mn1  1  0.616697  0.152198  0.614405  1
  Mn  Mn2  1  0.152501  0.616067  0.615908  1
  Mn  Mn3  1  0.615521  0.616067  0.615908  1
  Mn  Mn4  1  0.384216  0.383806  0.847763  1
  Mn  Mn5  1  0.384431  0.847964  0.383176  1
  Mn  Mn6  1  0.848334  0.383857  0.383320  1
  Mn  Mn7  1  0.384490  0.383857  0.383320  1
  Mn  Mn8  1  0.999808  0.999613  0.341812  1
  Mn  Mn9  1  0.658767  0.999613  0.341812  1
  Mn  Mn10  1  0.999058  0.659263  0.342621  1
  Mn  Mn11  1  0.658438  0.341563  0.999837  1
  Mn  Mn12  1  0.000162  0.341563  0.999837  1
  Cr  Cr13  1  0.999559  0.343212  0.657671  1
  Cr  Cr14  1  0.342467  0.656755  0.000604  1
  Cr  Cr15  1  0.342575  0.000743  0.656751  1
  Cr  Cr16  1  0.341148  0.000014  0.000752  1
  Cr  Cr17  1  0.999931  0.000743  0.656751  1
  Cr  Cr18  1  0.000173  0.656755  0.000604  1
  Cr  Cr19  1  0.658086  0.000014  0.000752  1
  Ge  Ge20  1  0.998291  0.000710  0.002708  1
  Mo  Mo21  1  0.750300  0.750232  0.749168  1
  Mo  Mo22  1  0.249529  0.249983  0.250959  1
  C  C23  1  0.719082  0.719353  0.282765  1
  C  C24  1  0.278800  0.719353  0.282765  1
  C  C25  1  0.721293  0.278865  0.278548  1
  C  C26  1  0.281127  0.282232  0.719575  1
  C  C27  1  0.717066  0.282232  0.719575  1
  C  C28  1  0.281785  0.718474  0.717955  1
