# generated using pymatgen
data_Mn4ReMo
_symmetry_space_group_name_H-M   'P 1'
_cell_length_a   4.67755200
_cell_length_b   4.67755076
_cell_length_c   7.72079800
_cell_angle_alpha   90.00000000
_cell_angle_beta   90.00000000
_cell_angle_gamma   119.99999466
_symmetry_Int_Tables_number   1
_chemical_formula_structural   Mn4ReMo
_chemical_formula_sum   'Mn8 Re2 Mo2'
_cell_volume   146.29516669
_cell_formula_units_Z   2
loop_
 _symmetry_equiv_pos_site_id
 _symmetry_equiv_pos_as_xyz
  1  'x, y, z'
loop_
 _atom_site_type_symbol
 _atom_site_label
 _atom_site_symmetry_multiplicity
 _atom_site_fract_x
 _atom_site_fract_y
 _atom_site_fract_z
 _atom_site_occupancy
  Mn  Mn0  1  0.000000  0.000000  0.999720  1
  Mn  Mn1  1  0.172839  0.345678  0.250000  1
  Mn  Mn2  1  0.172841  0.827162  0.250000  1
  Mn  Mn3  1  0.654322  0.827162  0.250000  1
  Mn  Mn4  1  0.000000  0.000000  0.500280  1
  Mn  Mn5  1  0.345271  0.172635  0.750000  1
  Mn  Mn6  1  0.827364  0.172635  0.750000  1
  Mn  Mn7  1  0.827365  0.654728  0.750000  1
  Re  Re8  1  0.333333  0.666667  0.568813  1
  Re  Re9  1  0.333333  0.666667  0.931187  1
  Mo  Mo10  1  0.666668  0.333335  0.063614  1
  Mo  Mo11  1  0.666668  0.333335  0.436386  1
