# generated using pymatgen
data_Li4CePaSe6
_symmetry_space_group_name_H-M   'P 1'
_cell_length_a   7.09505376
_cell_length_b   7.09505418
_cell_length_c   6.88039400
_cell_angle_alpha   100.03703977
_cell_angle_beta   100.03704038
_cell_angle_gamma   119.80528316
_symmetry_Int_Tables_number   1
_chemical_formula_structural   Li4CePaSe6
_chemical_formula_sum   'Li4 Ce1 Pa1 Se6'
_cell_volume   281.80628630
_cell_formula_units_Z   1
loop_
 _symmetry_equiv_pos_site_id
 _symmetry_equiv_pos_as_xyz
  1  'x, y, z'
loop_
 _atom_site_type_symbol
 _atom_site_label
 _atom_site_symmetry_multiplicity
 _atom_site_fract_x
 _atom_site_fract_y
 _atom_site_fract_z
 _atom_site_occupancy
  Li  Li0  1  0.498912  0.501086  0.000000  1
  Li  Li1  1  0.006429  0.993570  0.499999  1
  Li  Li2  1  0.666373  0.333627  0.500001  1
  Li  Li3  1  0.330081  0.669919  0.500001  1
  Ce  Ce4  1  0.832253  0.167746  0.000000  1
  Pa  Pa5  1  0.166804  0.833194  0.000000  1
  Se  Se6  1  0.926642  0.598188  0.249053  1
  Se  Se7  1  0.570790  0.913538  0.252567  1
  Se  Se8  1  0.252139  0.238701  0.254056  1
  Se  Se9  1  0.761300  0.747862  0.745943  1
  Se  Se10  1  0.086464  0.429212  0.747435  1
  Se  Se11  1  0.401814  0.073360  0.750948  1
