# generated using pymatgen
data_Tb4ZnPt3
_symmetry_space_group_name_H-M   'P 1'
_cell_length_a   4.56299500
_cell_length_b   5.60571124
_cell_length_c   7.14817634
_cell_angle_alpha   89.96555975
_cell_angle_beta   90.00000000
_cell_angle_gamma   90.00000000
_symmetry_Int_Tables_number   1
_chemical_formula_structural   Tb4ZnPt3
_chemical_formula_sum   'Tb4 Zn1 Pt3'
_cell_volume   182.84197124
_cell_formula_units_Z   1
loop_
 _symmetry_equiv_pos_site_id
 _symmetry_equiv_pos_as_xyz
  1  'x, y, z'
loop_
 _atom_site_type_symbol
 _atom_site_label
 _atom_site_symmetry_multiplicity
 _atom_site_fract_x
 _atom_site_fract_y
 _atom_site_fract_z
 _atom_site_occupancy
  Tb  Tb0  1  0.250000  0.359375  0.688097  1
  Tb  Tb1  1  0.250000  0.150063  0.178290  1
  Tb  Tb2  1  0.750000  0.630856  0.306294  1
  Tb  Tb3  1  0.750000  0.861162  0.828443  1
  Zn  Zn4  1  0.250000  0.864232  0.532191  1
  Pt  Pt5  1  0.250000  0.665029  0.043114  1
  Pt  Pt6  1  0.750000  0.124265  0.469326  1
  Pt  Pt7  1  0.750000  0.345019  0.954245  1
