# generated using pymatgen
data_Tb3ZrAl17GaRh6
_symmetry_space_group_name_H-M   'P 1'
_cell_length_a   7.53858919
_cell_length_b   7.52526880
_cell_length_c   9.44015300
_cell_angle_alpha   90.00000000
_cell_angle_beta   90.00000000
_cell_angle_gamma   119.42078223
_symmetry_Int_Tables_number   1
_chemical_formula_structural   Tb3ZrAl17GaRh6
_chemical_formula_sum   'Tb3 Zr1 Al17 Ga1 Rh6'
_cell_volume   466.47361052
_cell_formula_units_Z   1
loop_
 _symmetry_equiv_pos_site_id
 _symmetry_equiv_pos_as_xyz
  1  'x, y, z'
loop_
 _atom_site_type_symbol
 _atom_site_label
 _atom_site_symmetry_multiplicity
 _atom_site_fract_x
 _atom_site_fract_y
 _atom_site_fract_z
 _atom_site_occupancy
  Tb  Tb0  1  0.006445  0.325216  0.750000  1
  Tb  Tb1  1  0.671819  0.995716  0.250000  1
  Tb  Tb2  1  0.326405  0.006864  0.750000  1
  Zr  Zr3  1  0.996260  0.671792  0.250000  1
  Al  Al4  1  0.125207  0.122514  0.250000  1
  Al  Al5  1  0.000468  0.339112  0.079631  1
  Al  Al6  1  0.999136  0.664531  0.929483  1
  Al  Al7  1  0.999136  0.664531  0.570517  1
  Al  Al8  1  0.332158  0.997591  0.420326  1
  Al  Al9  1  0.000468  0.339112  0.420369  1
  Al  Al10  1  0.663847  0.997738  0.574887  1
  Al  Al11  1  0.663847  0.997738  0.925113  1
  Al  Al12  1  0.332158  0.997591  0.079674  1
  Al  Al13  1  0.334306  0.334374  0.546396  1
  Al  Al14  1  0.669746  0.667341  0.443232  1
  Al  Al15  1  0.669746  0.667341  0.056768  1
  Al  Al16  1  0.334306  0.334374  0.953604  1
  Al  Al17  1  0.335764  0.551456  0.250000  1
  Al  Al18  1  0.661596  0.450693  0.750000  1
  Al  Al19  1  0.557078  0.344737  0.250000  1
  Al  Al20  1  0.448961  0.659400  0.750000  1
  Ga  Ga21  1  0.868760  0.866981  0.750000  1
  Rh  Rh22  1  0.672994  0.329017  0.001048  1
  Rh  Rh23  1  0.328430  0.672824  0.001592  1
  Rh  Rh24  1  0.328430  0.672824  0.498408  1
  Rh  Rh25  1  0.672994  0.329017  0.498952  1
  Rh  Rh26  1  0.999769  0.999787  0.003343  1
  Rh  Rh27  1  0.999769  0.999787  0.496657  1
