# generated using pymatgen
data_Ca2Pa3O10
_symmetry_space_group_name_H-M   'P 1'
_cell_length_a   6.59366771
_cell_length_b   6.59366751
_cell_length_c   8.45496900
_cell_angle_alpha   50.21069336
_cell_angle_beta   50.21069481
_cell_angle_gamma   48.29117991
_symmetry_Int_Tables_number   1
_chemical_formula_structural   Ca2Pa3O10
_chemical_formula_sum   'Ca2 Pa3 O10'
_cell_volume   195.61817751
_cell_formula_units_Z   1
loop_
 _symmetry_equiv_pos_site_id
 _symmetry_equiv_pos_as_xyz
  1  'x, y, z'
loop_
 _atom_site_type_symbol
 _atom_site_label
 _atom_site_symmetry_multiplicity
 _atom_site_fract_x
 _atom_site_fract_y
 _atom_site_fract_z
 _atom_site_occupancy
  Ca  Ca0  1  0.301381  0.301381  0.096560  1
  Ca  Ca1  1  0.698619  0.698619  0.903440  1
  Pa  Pa2  1  0.096273  0.096273  0.704364  1
  Pa  Pa3  1  0.500000  0.500000  0.500000  1
  Pa  Pa4  1  0.903727  0.903727  0.295636  1
  O  O5  1  0.665325  0.163218  0.778211  1
  O  O6  1  0.163218  0.665325  0.778211  1
  O  O7  1  0.459646  0.941050  0.405920  1
  O  O8  1  0.941050  0.459646  0.405920  1
  O  O9  1  0.836782  0.334675  0.221789  1
  O  O10  1  0.231002  0.768998  0.000000  1
  O  O11  1  0.334675  0.836782  0.221789  1
  O  O12  1  0.768998  0.231002  0.000000  1
  O  O13  1  0.058950  0.540354  0.594080  1
  O  O14  1  0.540354  0.058950  0.594080  1
