# generated using pymatgen
data_Ho16Cd2NiHg2Ru3
_symmetry_space_group_name_H-M   'P 1'
_cell_length_a   9.50357924
_cell_length_b   9.54191599
_cell_length_c   9.61112134
_cell_angle_alpha   59.81757804
_cell_angle_beta   59.66169181
_cell_angle_gamma   59.76656291
_symmetry_Int_Tables_number   1
_chemical_formula_structural   Ho16Cd2NiHg2Ru3
_chemical_formula_sum   'Ho16 Cd2 Ni1 Hg2 Ru3'
_cell_volume   612.76488101
_cell_formula_units_Z   1
loop_
 _symmetry_equiv_pos_site_id
 _symmetry_equiv_pos_as_xyz
  1  'x, y, z'
loop_
 _atom_site_type_symbol
 _atom_site_label
 _atom_site_symmetry_multiplicity
 _atom_site_fract_x
 _atom_site_fract_y
 _atom_site_fract_z
 _atom_site_occupancy
  Ho  Ho0  1  0.351108  0.346480  0.344613  1
  Ho  Ho1  1  0.350871  0.346658  0.957716  1
  Ho  Ho2  1  0.352552  0.957787  0.344848  1
  Ho  Ho3  1  0.955660  0.348433  0.347987  1
  Ho  Ho4  1  0.809699  0.187794  0.190242  1
  Ho  Ho5  1  0.186456  0.810198  0.812112  1
  Ho  Ho6  1  0.186411  0.810194  0.191394  1
  Ho  Ho7  1  0.809816  0.187814  0.812168  1
  Ho  Ho8  1  0.187944  0.187488  0.812348  1
  Ho  Ho9  1  0.808172  0.809375  0.191256  1
  Ho  Ho10  1  0.939177  0.559458  0.560914  1
  Ho  Ho11  1  0.558773  0.936262  0.937620  1
  Ho  Ho12  1  0.558755  0.936217  0.567653  1
  Ho  Ho13  1  0.939159  0.559427  0.940672  1
  Ho  Ho14  1  0.558421  0.566665  0.937505  1
  Ho  Ho15  1  0.940188  0.939757  0.560088  1
  Cd  Cd16  1  0.578950  0.259507  0.580729  1
  Cd  Cd17  1  0.259751  0.579681  0.580230  1
  Ni  Ni18  1  0.576255  0.144564  0.138775  1
  Hg  Hg19  1  0.582707  0.584359  0.586650  1
  Hg  Hg20  1  0.582494  0.584175  0.246577  1
  Ru  Ru21  1  0.142238  0.139930  0.139378  1
  Ru  Ru22  1  0.142244  0.139927  0.578499  1
  Ru  Ru23  1  0.142199  0.577850  0.140027  1
