# generated using pymatgen
data_Cs2S2O7
_symmetry_space_group_name_H-M   'P 1'
_cell_length_a   7.94978653
_cell_length_b   7.94978596
_cell_length_c   8.09467678
_cell_angle_alpha   89.67656899
_cell_angle_beta   89.67657098
_cell_angle_gamma   61.02907403
_symmetry_Int_Tables_number   1
_chemical_formula_structural   Cs2S2O7
_chemical_formula_sum   'Cs4 S4 O14'
_cell_volume   447.55089959
_cell_formula_units_Z   2
loop_
 _symmetry_equiv_pos_site_id
 _symmetry_equiv_pos_as_xyz
  1  'x, y, z'
loop_
 _atom_site_type_symbol
 _atom_site_label
 _atom_site_symmetry_multiplicity
 _atom_site_fract_x
 _atom_site_fract_y
 _atom_site_fract_z
 _atom_site_occupancy
  Cs  Cs0  1  0.983404  0.304343  0.665928  1
  Cs  Cs1  1  0.304343  0.983404  0.165928  1
  Cs  Cs2  1  0.695657  0.016596  0.834072  1
  Cs  Cs3  1  0.016596  0.695657  0.334072  1
  S  S4  1  0.408765  0.780313  0.658734  1
  S  S5  1  0.780313  0.408765  0.158734  1
  S  S6  1  0.219687  0.591235  0.841266  1
  S  S7  1  0.591235  0.219687  0.341266  1
  O  O8  1  0.609036  0.697664  0.607826  1
  O  O9  1  0.697664  0.609036  0.107826  1
  O  O10  1  0.352078  0.927786  0.786910  1
  O  O11  1  0.927786  0.352078  0.286910  1
  O  O12  1  0.838150  0.270554  0.023308  1
  O  O13  1  0.270554  0.838150  0.523308  1
  O  O14  1  0.410545  0.589455  0.750000  1
  O  O15  1  0.589455  0.410545  0.250000  1
  O  O16  1  0.729446  0.161850  0.476692  1
  O  O17  1  0.161850  0.729446  0.976692  1
  O  O18  1  0.072214  0.647922  0.713090  1
  O  O19  1  0.647922  0.072214  0.213090  1
  O  O20  1  0.302336  0.390964  0.892174  1
  O  O21  1  0.390964  0.302336  0.392174  1
