# generated using pymatgen
data_Hf6Ta4ZnSi5N2
_symmetry_space_group_name_H-M   'P 1'
_cell_length_a   7.74749200
_cell_length_b   7.75499359
_cell_length_c   5.41211300
_cell_angle_alpha   90.00000000
_cell_angle_beta   90.00000000
_cell_angle_gamma   119.96801489
_symmetry_Int_Tables_number   1
_chemical_formula_structural   Hf6Ta4ZnSi5N2
_chemical_formula_sum   'Hf6 Ta4 Zn1 Si5 N2'
_cell_volume   281.69552709
_cell_formula_units_Z   1
loop_
 _symmetry_equiv_pos_site_id
 _symmetry_equiv_pos_as_xyz
  1  'x, y, z'
loop_
 _atom_site_type_symbol
 _atom_site_label
 _atom_site_symmetry_multiplicity
 _atom_site_fract_x
 _atom_site_fract_y
 _atom_site_fract_z
 _atom_site_occupancy
  Hf  Hf0  1  0.238267  0.000000  0.250000  1
  Hf  Hf1  1  0.764017  0.000000  0.750000  1
  Hf  Hf2  1  0.002286  0.237912  0.250000  1
  Hf  Hf3  1  0.999551  0.763032  0.750000  1
  Hf  Hf4  1  0.764374  0.762088  0.250000  1
  Hf  Hf5  1  0.236519  0.236968  0.750000  1
  Ta  Ta6  1  0.330372  0.663466  0.999148  1
  Ta  Ta7  1  0.666907  0.336534  0.999148  1
  Ta  Ta8  1  0.666907  0.336534  0.500852  1
  Ta  Ta9  1  0.330372  0.663466  0.500852  1
  Zn  Zn10  1  0.592942  0.000000  0.250000  1
  Si  Si11  1  0.410113  0.000000  0.750000  1
  Si  Si12  1  0.000092  0.592309  0.250000  1
  Si  Si13  1  0.997499  0.405101  0.750000  1
  Si  Si14  1  0.407783  0.407691  0.250000  1
  Si  Si15  1  0.592398  0.594899  0.750000  1
  N  N16  1  0.999800  0.000000  0.000553  1
  N  N17  1  0.999800  0.000000  0.499447  1
