# generated using pymatgen
data_Sr2InSn3Pd8
_symmetry_space_group_name_H-M   'P 1'
_cell_length_a   7.23610321
_cell_length_b   7.23610345
_cell_length_c   7.26613941
_cell_angle_alpha   110.26565980
_cell_angle_beta   110.26565758
_cell_angle_gamma   107.72073022
_symmetry_Int_Tables_number   1
_chemical_formula_structural   Sr2InSn3Pd8
_chemical_formula_sum   'Sr2 In1 Sn3 Pd8'
_cell_volume   293.31998199
_cell_formula_units_Z   1
loop_
 _symmetry_equiv_pos_site_id
 _symmetry_equiv_pos_as_xyz
  1  'x, y, z'
loop_
 _atom_site_type_symbol
 _atom_site_label
 _atom_site_symmetry_multiplicity
 _atom_site_fract_x
 _atom_site_fract_y
 _atom_site_fract_z
 _atom_site_occupancy
  Sr  Sr0  1  0.249910  0.250090  0.000000  1
  Sr  Sr1  1  0.749910  0.750090  0.000000  1
  In  In2  1  0.848733  0.651267  0.500000  1
  Sn  Sn3  1  0.650766  0.151676  0.802443  1
  Sn  Sn4  1  0.348324  0.849234  0.197557  1
  Sn  Sn5  1  0.150320  0.349680  0.500000  1
  Pd  Pd6  1  0.190216  0.983856  0.500000  1
  Pd  Pd7  1  0.690956  0.189040  0.205898  1
  Pd  Pd8  1  0.985059  0.483144  0.794102  1
  Pd  Pd9  1  0.482793  0.690948  0.500000  1
  Pd  Pd10  1  0.516144  0.309784  0.500000  1
  Pd  Pd11  1  0.310960  0.809044  0.794102  1
  Pd  Pd12  1  0.809052  0.017207  0.500000  1
  Pd  Pd13  1  0.016856  0.514941  0.205898  1
