# generated using pymatgen
data_DyTm7In3Ru
_symmetry_space_group_name_H-M   'P 1'
_cell_length_a   10.27808099
_cell_length_b   10.27808151
_cell_length_c   7.00066270
_cell_angle_alpha   89.95392558
_cell_angle_beta   90.04606845
_cell_angle_gamma   120.04401694
_symmetry_Int_Tables_number   1
_chemical_formula_structural   DyTm7In3Ru
_chemical_formula_sum   'Dy2 Tm14 In6 Ru2'
_cell_volume   640.17821558
_cell_formula_units_Z   2
loop_
 _symmetry_equiv_pos_site_id
 _symmetry_equiv_pos_as_xyz
  1  'x, y, z'
loop_
 _atom_site_type_symbol
 _atom_site_label
 _atom_site_symmetry_multiplicity
 _atom_site_fract_x
 _atom_site_fract_y
 _atom_site_fract_z
 _atom_site_occupancy
  Dy  Dy0  1  0.532402  0.065066  0.515618  1
  Dy  Dy1  1  0.934934  0.467598  0.515618  1
  Tm  Tm2  1  0.532855  0.467145  0.516312  1
  Tm  Tm3  1  0.466393  0.932766  0.015965  1
  Tm  Tm4  1  0.067234  0.533607  0.015965  1
  Tm  Tm5  1  0.466709  0.533291  0.016465  1
  Tm  Tm6  1  0.177838  0.354771  0.719910  1
  Tm  Tm7  1  0.645229  0.822162  0.719910  1
  Tm  Tm8  1  0.177044  0.822956  0.720278  1
  Tm  Tm9  1  0.822502  0.645736  0.218668  1
  Tm  Tm10  1  0.354264  0.177498  0.218668  1
  Tm  Tm11  1  0.823115  0.176885  0.218192  1
  Tm  Tm12  1  0.666281  0.333719  0.896025  1
  Tm  Tm13  1  0.333743  0.666257  0.395212  1
  Tm  Tm14  1  0.000007  0.999993  0.499978  1
  Tm  Tm15  1  0.000079  0.999921  0.000349  1
  In  In16  1  0.836819  0.674346  0.762390  1
  In  In17  1  0.325654  0.163181  0.762390  1
  In  In18  1  0.837431  0.162569  0.762642  1
  In  In19  1  0.163081  0.326046  0.262076  1
  In  In20  1  0.673954  0.836919  0.262076  1
  In  In21  1  0.163051  0.836949  0.262171  1
  Ru  Ru22  1  0.666130  0.333870  0.289862  1
  Ru  Ru23  1  0.333254  0.666746  0.791263  1
