# generated using pymatgen
data_CaLa(In2Rh)2
_symmetry_space_group_name_H-M   'P 1'
_cell_length_a   5.61969736
_cell_length_b   5.61969775
_cell_length_c   8.14657900
_cell_angle_alpha   90.00000000
_cell_angle_beta   90.00000000
_cell_angle_gamma   133.59850243
_symmetry_Int_Tables_number   1
_chemical_formula_structural   CaLa(In2Rh)2
_chemical_formula_sum   'Ca1 La1 In4 Rh2'
_cell_volume   186.31748574
_cell_formula_units_Z   1
loop_
 _symmetry_equiv_pos_site_id
 _symmetry_equiv_pos_as_xyz
  1  'x, y, z'
loop_
 _atom_site_type_symbol
 _atom_site_label
 _atom_site_symmetry_multiplicity
 _atom_site_fract_x
 _atom_site_fract_y
 _atom_site_fract_z
 _atom_site_occupancy
  Ca  Ca0  1  0.063967  0.936033  0.250000  1
  La  La1  1  0.938482  0.061518  0.750000  1
  In  In2  1  0.648873  0.351127  0.546079  1
  In  In3  1  0.350995  0.649005  0.442605  1
  In  In4  1  0.648873  0.351127  0.953921  1
  In  In5  1  0.350995  0.649005  0.057395  1
  Rh  Rh6  1  0.214767  0.785233  0.750000  1
  Rh  Rh7  1  0.783047  0.216953  0.250000  1
