# generated using pymatgen
data_Tm12AlNi4Sn
_symmetry_space_group_name_H-M   'P 1'
_cell_length_a   8.26151927
_cell_length_b   8.26227021
_cell_length_c   8.26181011
_cell_angle_alpha   105.89934712
_cell_angle_beta   109.99355254
_cell_angle_gamma   112.59092918
_symmetry_Int_Tables_number   1
_chemical_formula_structural   Tm12AlNi4Sn
_chemical_formula_sum   'Tm12 Al1 Ni4 Sn1'
_cell_volume   432.62565549
_cell_formula_units_Z   1
loop_
 _symmetry_equiv_pos_site_id
 _symmetry_equiv_pos_as_xyz
  1  'x, y, z'
loop_
 _atom_site_type_symbol
 _atom_site_label
 _atom_site_symmetry_multiplicity
 _atom_site_fract_x
 _atom_site_fract_y
 _atom_site_fract_z
 _atom_site_occupancy
  Tm  Tm0  1  0.700738  0.269132  0.969873  1
  Tm  Tm1  1  0.299248  0.730892  0.030136  1
  Tm  Tm2  1  0.700734  0.730907  0.431626  1
  Tm  Tm3  1  0.299258  0.269066  0.568337  1
  Tm  Tm4  1  0.807032  0.130934  0.323908  1
  Tm  Tm5  1  0.807079  0.483204  0.676105  1
  Tm  Tm6  1  0.192958  0.869066  0.676109  1
  Tm  Tm7  1  0.192942  0.516822  0.323916  1
  Tm  Tm8  1  0.607834  0.787977  0.819866  1
  Tm  Tm9  1  0.968098  0.788007  0.180109  1
  Tm  Tm10  1  0.031884  0.211974  0.819877  1
  Tm  Tm11  1  0.392173  0.212031  0.180112  1
  Al  Al12  1  0.499955  0.499994  0.999949  1
  Ni  Ni13  1  0.848002  0.499978  0.348044  1
  Ni  Ni14  1  0.152063  0.500009  0.652011  1
  Ni  Ni15  1  0.999980  0.124108  0.124080  1
  Ni  Ni16  1  0.000019  0.875898  0.875935  1
  Sn  Sn17  1  0.500004  0.000002  0.500007  1
