# generated using pymatgen
data_Dy20(PtRh3)3
_symmetry_space_group_name_H-M   'P 1'
_cell_length_a   10.99855152
_cell_length_b   10.99855123
_cell_length_c   6.33918302
_cell_angle_alpha   89.96912082
_cell_angle_beta   89.96912044
_cell_angle_gamma   90.15768540
_symmetry_Int_Tables_number   1
_chemical_formula_structural   Dy20(PtRh3)3
_chemical_formula_sum   'Dy20 Pt3 Rh9'
_cell_volume   766.83600318
_cell_formula_units_Z   1
loop_
 _symmetry_equiv_pos_site_id
 _symmetry_equiv_pos_as_xyz
  1  'x, y, z'
loop_
 _atom_site_type_symbol
 _atom_site_label
 _atom_site_symmetry_multiplicity
 _atom_site_fract_x
 _atom_site_fract_y
 _atom_site_fract_z
 _atom_site_occupancy
  Dy  Dy0  1  0.292720  0.087922  0.373373  1
  Dy  Dy1  1  0.292230  0.908550  0.877487  1
  Dy  Dy2  1  0.706759  0.089914  0.874618  1
  Dy  Dy3  1  0.705601  0.909951  0.374540  1
  Dy  Dy4  1  0.587292  0.790974  0.878810  1
  Dy  Dy5  1  0.587892  0.209091  0.378769  1
  Dy  Dy6  1  0.409451  0.790697  0.379122  1
  Dy  Dy7  1  0.411969  0.209285  0.878548  1
  Dy  Dy8  1  0.209026  0.412708  0.621190  1
  Dy  Dy9  1  0.209303  0.590549  0.120878  1
  Dy  Dy10  1  0.790909  0.412108  0.121231  1
  Dy  Dy11  1  0.790715  0.588031  0.621452  1
  Dy  Dy12  1  0.912078  0.707280  0.126627  1
  Dy  Dy13  1  0.910086  0.293241  0.625382  1
  Dy  Dy14  1  0.091450  0.707770  0.622513  1
  Dy  Dy15  1  0.090049  0.294399  0.125460  1
  Dy  Dy16  1  0.000761  0.998172  0.499710  1
  Dy  Dy17  1  0.001828  0.999239  0.000290  1
  Dy  Dy18  1  0.499704  0.499930  0.000440  1
  Dy  Dy19  1  0.500070  0.500296  0.499560  1
  Pt  Pt20  1  0.845977  0.154023  0.250000  1
  Pt  Pt21  1  0.844784  0.844968  0.750083  1
  Pt  Pt22  1  0.155032  0.155216  0.749917  1
  Rh  Rh23  1  0.153386  0.846614  0.250000  1
  Rh  Rh24  1  0.654649  0.345351  0.750000  1
  Rh  Rh25  1  0.655294  0.654669  0.249413  1
  Rh  Rh26  1  0.345331  0.344706  0.250587  1
  Rh  Rh27  1  0.345813  0.654187  0.750000  1
  Rh  Rh28  1  0.499957  0.999811  0.123993  1
  Rh  Rh29  1  0.499900  0.000206  0.624913  1
  Rh  Rh30  1  0.999794  0.500100  0.875087  1
  Rh  Rh31  1  0.000189  0.500043  0.376007  1
