# generated using pymatgen
data_YSc6FeCo5Sn23
_symmetry_space_group_name_H-M   'P 1'
_cell_length_a   9.56379688
_cell_length_b   9.56379894
_cell_length_c   9.78833295
_cell_angle_alpha   90.17845335
_cell_angle_beta   89.82154566
_cell_angle_gamma   119.96802892
_symmetry_Int_Tables_number   1
_chemical_formula_structural   YSc6FeCo5Sn23
_chemical_formula_sum   'Y1 Sc6 Fe1 Co5 Sn23'
_cell_volume   775.59885651
_cell_formula_units_Z   1
loop_
 _symmetry_equiv_pos_site_id
 _symmetry_equiv_pos_as_xyz
  1  'x, y, z'
loop_
 _atom_site_type_symbol
 _atom_site_label
 _atom_site_symmetry_multiplicity
 _atom_site_fract_x
 _atom_site_fract_y
 _atom_site_fract_z
 _atom_site_occupancy
  Y  Y0  1  0.001705  0.998295  0.997909  1
  Sc  Sc1  1  0.035211  0.517727  0.307835  1
  Sc  Sc2  1  0.482273  0.964789  0.307835  1
  Sc  Sc3  1  0.482974  0.517026  0.307305  1
  Sc  Sc4  1  0.967332  0.484765  0.693542  1
  Sc  Sc5  1  0.515235  0.032668  0.693542  1
  Sc  Sc6  1  0.516824  0.483176  0.692659  1
  Fe  Fe7  1  0.168754  0.831246  0.800757  1
  Co  Co8  1  0.661775  0.830605  0.801258  1
  Co  Co9  1  0.169395  0.338225  0.801258  1
  Co  Co10  1  0.830498  0.169502  0.198696  1
  Co  Co11  1  0.338578  0.169679  0.198661  1
  Co  Co12  1  0.830321  0.661422  0.198661  1
  Sn  Sn13  1  0.000244  0.999756  0.498807  1
  Sn  Sn14  1  0.122189  0.877811  0.276625  1
  Sn  Sn15  1  0.756350  0.878625  0.277048  1
  Sn  Sn16  1  0.121375  0.243650  0.277048  1
  Sn  Sn17  1  0.877964  0.122036  0.723129  1
  Sn  Sn18  1  0.243119  0.121575  0.723483  1
  Sn  Sn19  1  0.878425  0.756881  0.723483  1
  Sn  Sn20  1  0.347783  0.999661  0.999623  1
  Sn  Sn21  1  0.651549  0.651655  0.999944  1
  Sn  Sn22  1  0.000007  0.347961  0.000384  1
  Sn  Sn23  1  0.348345  0.348451  0.999944  1
  Sn  Sn24  1  0.000339  0.652217  0.999623  1
  Sn  Sn25  1  0.652039  0.999993  0.000384  1
  Sn  Sn26  1  0.779375  0.558693  0.453994  1
  Sn  Sn27  1  0.779098  0.220902  0.453604  1
  Sn  Sn28  1  0.441307  0.220625  0.453994  1
  Sn  Sn29  1  0.220906  0.441669  0.546377  1
  Sn  Sn30  1  0.220394  0.779606  0.545999  1
  Sn  Sn31  1  0.558331  0.779094  0.546377  1
  Sn  Sn32  1  0.666687  0.333313  0.177857  1
  Sn  Sn33  1  0.332628  0.667372  0.822447  1
  Sn  Sn34  1  0.666831  0.333169  0.862073  1
  Sn  Sn35  1  0.333839  0.666161  0.137836  1
