# generated using pymatgen
data_Er3LuAl18Pd5W
_symmetry_space_group_name_H-M   'P 1'
_cell_length_a   7.61618371
_cell_length_b   7.61323761
_cell_length_c   9.49071891
_cell_angle_alpha   89.58757029
_cell_angle_beta   89.62066957
_cell_angle_gamma   118.71364905
_symmetry_Int_Tables_number   1
_chemical_formula_structural   Er3LuAl18Pd5W
_chemical_formula_sum   'Er3 Lu1 Al18 Pd5 W1'
_cell_volume   482.59329611
_cell_formula_units_Z   1
loop_
 _symmetry_equiv_pos_site_id
 _symmetry_equiv_pos_as_xyz
  1  'x, y, z'
loop_
 _atom_site_type_symbol
 _atom_site_label
 _atom_site_symmetry_multiplicity
 _atom_site_fract_x
 _atom_site_fract_y
 _atom_site_fract_z
 _atom_site_occupancy
  Er  Er0  1  0.004897  0.319264  0.753690  1
  Er  Er1  1  0.680911  0.994976  0.246352  1
  Er  Er2  1  0.319065  0.004651  0.753797  1
  Lu  Lu3  1  0.994985  0.681862  0.245654  1
  Al  Al4  1  0.136125  0.135929  0.249610  1
  Al  Al5  1  0.863710  0.863562  0.750562  1
  Al  Al6  1  0.002939  0.337322  0.078137  1
  Al  Al7  1  0.997002  0.663041  0.922887  1
  Al  Al8  1  0.999055  0.660329  0.578693  1
  Al  Al9  1  0.339248  0.000546  0.420449  1
  Al  Al10  1  0.001076  0.340370  0.420357  1
  Al  Al11  1  0.660190  0.998949  0.579138  1
  Al  Al12  1  0.663336  0.997001  0.922420  1
  Al  Al13  1  0.336244  0.002278  0.078243  1
  Al  Al14  1  0.332788  0.332731  0.554631  1
  Al  Al15  1  0.667672  0.667128  0.444906  1
  Al  Al16  1  0.667560  0.667007  0.052928  1
  Al  Al17  1  0.332792  0.332747  0.947551  1
  Al  Al18  1  0.342871  0.553048  0.250275  1
  Al  Al19  1  0.656950  0.447110  0.749776  1
  Al  Al20  1  0.553540  0.343481  0.250224  1
  Al  Al21  1  0.447050  0.656840  0.749826  1
  Pd  Pd22  1  0.672796  0.327563  0.000065  1
  Pd  Pd23  1  0.327217  0.672726  0.000081  1
  Pd  Pd24  1  0.327569  0.672226  0.499894  1
  Pd  Pd25  1  0.672465  0.328098  0.499896  1
  Pd  Pd26  1  0.999981  0.999483  0.499665  1
  W  W27  1  0.999968  0.999731  0.000292  1
