# generated using pymatgen
data_Hf18ZnCoRe8
_symmetry_space_group_name_H-M   'P 1'
_cell_length_a   8.61277800
_cell_length_b   8.61277703
_cell_length_c   8.53704900
_cell_angle_alpha   90.00000000
_cell_angle_beta   90.00000000
_cell_angle_gamma   119.99999605
_symmetry_Int_Tables_number   1
_chemical_formula_structural   Hf18ZnCoRe8
_chemical_formula_sum   'Hf18 Zn1 Co1 Re8'
_cell_volume   548.43464336
_cell_formula_units_Z   1
loop_
 _symmetry_equiv_pos_site_id
 _symmetry_equiv_pos_as_xyz
  1  'x, y, z'
loop_
 _atom_site_type_symbol
 _atom_site_label
 _atom_site_symmetry_multiplicity
 _atom_site_fract_x
 _atom_site_fract_y
 _atom_site_fract_z
 _atom_site_occupancy
  Hf  Hf0  1  0.192885  0.807115  0.450664  1
  Hf  Hf1  1  0.192885  0.385771  0.450664  1
  Hf  Hf2  1  0.614229  0.807115  0.450664  1
  Hf  Hf3  1  0.799894  0.200106  0.557404  1
  Hf  Hf4  1  0.799894  0.599787  0.557404  1
  Hf  Hf5  1  0.400213  0.200106  0.557404  1
  Hf  Hf6  1  0.799894  0.200106  0.942596  1
  Hf  Hf7  1  0.799894  0.599787  0.942596  1
  Hf  Hf8  1  0.400213  0.200106  0.942596  1
  Hf  Hf9  1  0.192885  0.807115  0.049336  1
  Hf  Hf10  1  0.192885  0.385771  0.049336  1
  Hf  Hf11  1  0.614229  0.807115  0.049336  1
  Hf  Hf12  1  0.540594  0.459406  0.250000  1
  Hf  Hf13  1  0.540594  0.081187  0.250000  1
  Hf  Hf14  1  0.918813  0.459406  0.250000  1
  Hf  Hf15  1  0.459457  0.540543  0.750000  1
  Hf  Hf16  1  0.459457  0.918914  0.750000  1
  Hf  Hf17  1  0.081086  0.540543  0.750000  1
  Zn  Zn18  1  0.333333  0.666667  0.250000  1
  Co  Co19  1  0.666667  0.333333  0.750000  1
  Re  Re20  1  0.888816  0.111184  0.250000  1
  Re  Re21  1  0.888816  0.777633  0.250000  1
  Re  Re22  1  0.222367  0.111184  0.250000  1
  Re  Re23  1  0.110563  0.889437  0.750000  1
  Re  Re24  1  0.110563  0.221124  0.750000  1
  Re  Re25  1  0.778876  0.889437  0.750000  1
  Re  Re26  1  0.000000  0.000000  0.500387  1
  Re  Re27  1  0.000000  0.000000  0.999613  1
