# generated using pymatgen
data_TbErTl(P3Pd10)2
_symmetry_space_group_name_H-M   'P 1'
_cell_length_a   8.69222108
_cell_length_b   8.69222035
_cell_length_c   8.69222000
_cell_angle_alpha   59.99999371
_cell_angle_beta   59.99999648
_cell_angle_gamma   60.00000148
_symmetry_Int_Tables_number   1
_chemical_formula_structural   TbErTl(P3Pd10)2
_chemical_formula_sum   'Tb1 Er1 Tl1 P6 Pd20'
_cell_volume   464.38392224
_cell_formula_units_Z   1
loop_
 _symmetry_equiv_pos_site_id
 _symmetry_equiv_pos_as_xyz
  1  'x, y, z'
loop_
 _atom_site_type_symbol
 _atom_site_label
 _atom_site_symmetry_multiplicity
 _atom_site_fract_x
 _atom_site_fract_y
 _atom_site_fract_z
 _atom_site_occupancy
  Tb  Tb0  1  0.250000  0.250000  0.250000  1
  Er  Er1  1  0.000000  0.000000  0.000000  1
  Tl  Tl2  1  0.750000  0.750000  0.750000  1
  P  P3  1  0.736133  0.263867  0.263867  1
  P  P4  1  0.736133  0.736133  0.263867  1
  P  P5  1  0.736133  0.263867  0.736133  1
  P  P6  1  0.263867  0.736133  0.263867  1
  P  P7  1  0.263867  0.736133  0.736133  1
  P  P8  1  0.263867  0.263867  0.736133  1
  Pd  Pd9  1  0.343641  0.000916  0.000916  1
  Pd  Pd10  1  0.000916  0.654526  0.343641  1
  Pd  Pd11  1  0.343641  0.000916  0.654526  1
  Pd  Pd12  1  0.000916  0.654526  0.000916  1
  Pd  Pd13  1  0.654526  0.343641  0.000916  1
  Pd  Pd14  1  0.615827  0.615827  0.152520  1
  Pd  Pd15  1  0.384814  0.845559  0.384814  1
  Pd  Pd16  1  0.152520  0.615827  0.615827  1
  Pd  Pd17  1  0.654526  0.000916  0.343641  1
  Pd  Pd18  1  0.000916  0.343641  0.654526  1
  Pd  Pd19  1  0.654526  0.000916  0.000916  1
  Pd  Pd20  1  0.000916  0.000916  0.343641  1
  Pd  Pd21  1  0.615827  0.152520  0.615827  1
  Pd  Pd22  1  0.343641  0.654526  0.000916  1
  Pd  Pd23  1  0.384814  0.384814  0.384814  1
  Pd  Pd24  1  0.615827  0.615827  0.615827  1
  Pd  Pd25  1  0.384814  0.384814  0.845559  1
  Pd  Pd26  1  0.000916  0.000916  0.654526  1
  Pd  Pd27  1  0.845559  0.384814  0.384814  1
  Pd  Pd28  1  0.000916  0.343641  0.000916  1
