# generated using pymatgen
data_TbHo3(ReN3)4
_symmetry_space_group_name_H-M   'P 1'
_cell_length_a   7.36705705
_cell_length_b   7.36705669
_cell_length_c   6.27710613
_cell_angle_alpha   73.03667834
_cell_angle_beta   73.03667620
_cell_angle_gamma   82.21312288
_symmetry_Int_Tables_number   1
_chemical_formula_structural   TbHo3(ReN3)4
_chemical_formula_sum   'Tb1 Ho3 Re4 N12'
_cell_volume   311.20807079
_cell_formula_units_Z   1
loop_
 _symmetry_equiv_pos_site_id
 _symmetry_equiv_pos_as_xyz
  1  'x, y, z'
loop_
 _atom_site_type_symbol
 _atom_site_label
 _atom_site_symmetry_multiplicity
 _atom_site_fract_x
 _atom_site_fract_y
 _atom_site_fract_z
 _atom_site_occupancy
  Tb  Tb0  1  0.708687  0.291313  0.250000  1
  Ho  Ho1  1  0.907859  0.092141  0.750000  1
  Ho  Ho2  1  0.290241  0.709759  0.750000  1
  Ho  Ho3  1  0.093115  0.906885  0.250000  1
  Re  Re4  1  0.620657  0.796224  0.276686  1
  Re  Re5  1  0.203776  0.379343  0.223314  1
  Re  Re6  1  0.378581  0.203826  0.723845  1
  Re  Re7  1  0.796174  0.621419  0.776155  1
  N  N8  1  0.337621  0.362107  0.923113  1
  N  N9  1  0.006088  0.219106  0.339843  1
  N  N10  1  0.780894  0.993912  0.160157  1
  N  N11  1  0.220623  0.003801  0.840046  1
  N  N12  1  0.661046  0.639768  0.074772  1
  N  N13  1  0.873168  0.371661  0.839563  1
  N  N14  1  0.128082  0.629274  0.156146  1
  N  N15  1  0.996199  0.779377  0.659954  1
  N  N16  1  0.370726  0.871918  0.343854  1
  N  N17  1  0.637893  0.662379  0.576887  1
  N  N18  1  0.628339  0.126832  0.660437  1
  N  N19  1  0.360232  0.338954  0.425228  1
