# generated using pymatgen
data_Tm2UFe2Si7
_symmetry_space_group_name_H-M   'P 1'
_cell_length_a   12.20845043
_cell_length_b   12.20845124
_cell_length_c   4.03086100
_cell_angle_alpha   90.00000000
_cell_angle_beta   90.00000000
_cell_angle_gamma   161.04870418
_symmetry_Int_Tables_number   1
_chemical_formula_structural   Tm2UFe2Si7
_chemical_formula_sum   'Tm2 U1 Fe2 Si7'
_cell_volume   195.11345670
_cell_formula_units_Z   1
loop_
 _symmetry_equiv_pos_site_id
 _symmetry_equiv_pos_as_xyz
  1  'x, y, z'
loop_
 _atom_site_type_symbol
 _atom_site_label
 _atom_site_symmetry_multiplicity
 _atom_site_fract_x
 _atom_site_fract_y
 _atom_site_fract_z
 _atom_site_occupancy
  Tm  Tm0  1  0.315861  0.684139  0.000000  1
  Tm  Tm1  1  0.684139  0.315861  0.000000  1
  U  U2  1  0.000000  0.000000  0.500000  1
  Fe  Fe3  1  0.125952  0.874048  0.500000  1
  Fe  Fe4  1  0.874048  0.125952  0.500000  1
  Si  Si5  1  0.220597  0.779403  0.500000  1
  Si  Si6  1  0.779403  0.220597  0.500000  1
  Si  Si7  1  0.086471  0.913529  0.000000  1
  Si  Si8  1  0.913529  0.086471  0.000000  1
  Si  Si9  1  0.413375  0.586625  0.500000  1
  Si  Si10  1  0.500000  0.500000  0.000000  1
  Si  Si11  1  0.586625  0.413375  0.500000  1
