# generated using pymatgen
data_La6NdTm3(Sn3Cl)2
_symmetry_space_group_name_H-M   'P 1'
_cell_length_a   9.48069800
_cell_length_b   9.48069723
_cell_length_c   6.76393500
_cell_angle_alpha   90.00000000
_cell_angle_beta   90.00000000
_cell_angle_gamma   119.99999571
_symmetry_Int_Tables_number   1
_chemical_formula_structural   La6NdTm3(Sn3Cl)2
_chemical_formula_sum   'La6 Nd1 Tm3 Sn6 Cl2'
_cell_volume   526.51490005
_cell_formula_units_Z   1
loop_
 _symmetry_equiv_pos_site_id
 _symmetry_equiv_pos_as_xyz
  1  'x, y, z'
loop_
 _atom_site_type_symbol
 _atom_site_label
 _atom_site_symmetry_multiplicity
 _atom_site_fract_x
 _atom_site_fract_y
 _atom_site_fract_z
 _atom_site_occupancy
  La  La0  1  0.736842  0.000294  0.749095  1
  La  La1  1  0.736842  0.736548  0.250905  1
  La  La2  1  0.999706  0.263158  0.250905  1
  La  La3  1  0.999706  0.736548  0.749095  1
  La  La4  1  0.263452  0.263158  0.749095  1
  La  La5  1  0.263452  0.000294  0.250905  1
  Nd  Nd6  1  0.333333  0.666667  0.000000  1
  Tm  Tm7  1  0.666667  0.333333  0.000000  1
  Tm  Tm8  1  0.333333  0.666667  0.500000  1
  Tm  Tm9  1  0.666667  0.333333  0.500000  1
  Sn  Sn10  1  0.609859  0.606025  0.747191  1
  Sn  Sn11  1  0.996166  0.606025  0.252809  1
  Sn  Sn12  1  0.609859  0.003834  0.252809  1
  Sn  Sn13  1  0.393975  0.003834  0.747191  1
  Sn  Sn14  1  0.996166  0.390141  0.747191  1
  Sn  Sn15  1  0.393975  0.390141  0.252809  1
  Cl  Cl16  1  0.000000  0.000000  0.500000  1
  Cl  Cl17  1  0.000000  0.000000  0.000000  1
