# generated using pymatgen
data_Sr2Sc3Bi4
_symmetry_space_group_name_H-M   'P 1'
_cell_length_a   8.43783600
_cell_length_b   8.29577700
_cell_length_c   15.40495300
_cell_angle_alpha   90.00000000
_cell_angle_beta   90.00000000
_cell_angle_gamma   90.00000000
_symmetry_Int_Tables_number   1
_chemical_formula_structural   Sr2Sc3Bi4
_chemical_formula_sum   'Sr8 Sc12 Bi16'
_cell_volume   1078.32215171
_cell_formula_units_Z   4
loop_
 _symmetry_equiv_pos_site_id
 _symmetry_equiv_pos_as_xyz
  1  'x, y, z'
loop_
 _atom_site_type_symbol
 _atom_site_label
 _atom_site_symmetry_multiplicity
 _atom_site_fract_x
 _atom_site_fract_y
 _atom_site_fract_z
 _atom_site_occupancy
  Sr  Sr0  1  0.028107  0.174397  0.093254  1
  Sr  Sr1  1  0.528107  0.325603  0.406746  1
  Sr  Sr2  1  0.471893  0.674397  0.906746  1
  Sr  Sr3  1  0.971893  0.825603  0.593254  1
  Sr  Sr4  1  0.971893  0.825603  0.906746  1
  Sr  Sr5  1  0.471893  0.674397  0.593254  1
  Sr  Sr6  1  0.528107  0.325603  0.093254  1
  Sr  Sr7  1  0.028107  0.174397  0.406746  1
  Sc  Sc8  1  0.854839  0.646129  0.127171  1
  Sc  Sc9  1  0.354839  0.853871  0.372829  1
  Sc  Sc10  1  0.645161  0.146129  0.872829  1
  Sc  Sc11  1  0.145161  0.353871  0.627171  1
  Sc  Sc12  1  0.145161  0.353871  0.872829  1
  Sc  Sc13  1  0.645161  0.146129  0.627171  1
  Sc  Sc14  1  0.354839  0.853871  0.127171  1
  Sc  Sc15  1  0.854839  0.646129  0.372829  1
  Sc  Sc16  1  0.693401  0.994189  0.250000  1
  Sc  Sc17  1  0.193401  0.505811  0.250000  1
  Sc  Sc18  1  0.806599  0.494189  0.750000  1
  Sc  Sc19  1  0.306599  0.005811  0.750000  1
  Bi  Bi20  1  0.049771  0.850311  0.250000  1
  Bi  Bi21  1  0.549771  0.649689  0.250000  1
  Bi  Bi22  1  0.450229  0.350311  0.750000  1
  Bi  Bi23  1  0.950229  0.149689  0.750000  1
  Bi  Bi24  1  0.844935  0.349751  0.250000  1
  Bi  Bi25  1  0.344935  0.150249  0.250000  1
  Bi  Bi26  1  0.655065  0.849751  0.750000  1
  Bi  Bi27  1  0.155065  0.650249  0.750000  1
  Bi  Bi28  1  0.804915  0.446204  0.948908  1
  Bi  Bi29  1  0.304915  0.053796  0.551092  1
  Bi  Bi30  1  0.695085  0.946204  0.051092  1
  Bi  Bi31  1  0.195085  0.553796  0.448908  1
  Bi  Bi32  1  0.195085  0.553796  0.051092  1
  Bi  Bi33  1  0.695085  0.946204  0.448908  1
  Bi  Bi34  1  0.304915  0.053796  0.948908  1
  Bi  Bi35  1  0.804915  0.446204  0.551092  1
