# generated using pymatgen
data_Ho4Er4SiPd24
_symmetry_space_group_name_H-M   'P 1'
_cell_length_a   8.30148300
_cell_length_b   8.30153000
_cell_length_c   8.30153000
_cell_angle_alpha   90.00064875
_cell_angle_beta   90.00211196
_cell_angle_gamma   90.00211196
_symmetry_Int_Tables_number   1
_chemical_formula_structural   Ho4Er4SiPd24
_chemical_formula_sum   'Ho4 Er4 Si1 Pd24'
_cell_volume   572.10002396
_cell_formula_units_Z   1
loop_
 _symmetry_equiv_pos_site_id
 _symmetry_equiv_pos_as_xyz
  1  'x, y, z'
loop_
 _atom_site_type_symbol
 _atom_site_label
 _atom_site_symmetry_multiplicity
 _atom_site_fract_x
 _atom_site_fract_y
 _atom_site_fract_z
 _atom_site_occupancy
  Ho  Ho0  1  0.253783  0.253778  0.253778  1
  Ho  Ho1  1  0.746239  0.746242  0.746242  1
  Ho  Ho2  1  0.746230  0.746224  0.253765  1
  Ho  Ho3  1  0.746230  0.253765  0.746224  1
  Er  Er4  1  0.253735  0.253751  0.746270  1
  Er  Er5  1  0.253735  0.746270  0.253751  1
  Er  Er6  1  0.253749  0.746237  0.746237  1
  Er  Er7  1  0.746269  0.253732  0.253732  1
  Si  Si8  1  0.999994  0.000001  0.000001  1
  Pd  Pd9  1  0.257215  0.500115  0.999886  1
  Pd  Pd10  1  0.742798  0.499890  0.000114  1
  Pd  Pd11  1  0.000020  0.257207  0.499998  1
  Pd  Pd12  1  0.499994  0.257204  0.000001  1
  Pd  Pd13  1  0.000245  0.742796  0.500002  1
  Pd  Pd14  1  0.499778  0.742793  0.999998  1
  Pd  Pd15  1  0.499994  0.000001  0.257204  1
  Pd  Pd16  1  0.257215  0.999886  0.500115  1
  Pd  Pd17  1  0.499778  0.999998  0.742793  1
  Pd  Pd18  1  0.742798  0.000114  0.499890  1
  Pd  Pd19  1  0.000020  0.499998  0.257207  1
  Pd  Pd20  1  0.000245  0.500002  0.742796  1
  Pd  Pd21  1  0.252054  0.500125  0.500125  1
  Pd  Pd22  1  0.747956  0.499873  0.499873  1
  Pd  Pd23  1  0.499992  0.252051  0.499997  1
  Pd  Pd24  1  0.499738  0.747949  0.500000  1
  Pd  Pd25  1  0.499992  0.499997  0.252051  1
  Pd  Pd26  1  0.499738  0.500000  0.747949  1
  Pd  Pd27  1  0.279792  0.999889  0.999889  1
  Pd  Pd28  1  0.720167  0.000111  0.000111  1
  Pd  Pd29  1  0.000011  0.279812  0.999999  1
  Pd  Pd30  1  0.000240  0.720190  0.000001  1
  Pd  Pd31  1  0.000011  0.999999  0.279812  1
  Pd  Pd32  1  0.000240  0.000001  0.720190  1
