# generated using pymatgen
data_Ho(Tm3Bi2)3
_symmetry_space_group_name_H-M   'P 1'
_cell_length_a   8.17212800
_cell_length_b   9.44871900
_cell_length_c   11.89535800
_cell_angle_alpha   90.00000000
_cell_angle_beta   90.00000000
_cell_angle_gamma   90.00000000
_symmetry_Int_Tables_number   1
_chemical_formula_structural   Ho(Tm3Bi2)3
_chemical_formula_sum   'Ho2 Tm18 Bi12'
_cell_volume   918.51364181
_cell_formula_units_Z   2
loop_
 _symmetry_equiv_pos_site_id
 _symmetry_equiv_pos_as_xyz
  1  'x, y, z'
loop_
 _atom_site_type_symbol
 _atom_site_label
 _atom_site_symmetry_multiplicity
 _atom_site_fract_x
 _atom_site_fract_y
 _atom_site_fract_z
 _atom_site_occupancy
  Ho  Ho0  1  0.685667  0.750000  0.781879  1
  Ho  Ho1  1  0.185667  0.750000  0.718121  1
  Tm  Tm2  1  0.353783  0.750000  0.216693  1
  Tm  Tm3  1  0.853783  0.750000  0.283307  1
  Tm  Tm4  1  0.646237  0.250000  0.783304  1
  Tm  Tm5  1  0.146237  0.250000  0.716696  1
  Tm  Tm6  1  0.692305  0.564987  0.059248  1
  Tm  Tm7  1  0.192305  0.935013  0.440752  1
  Tm  Tm8  1  0.307739  0.064957  0.940851  1
  Tm  Tm9  1  0.807739  0.435043  0.559149  1
  Tm  Tm10  1  0.307739  0.435043  0.940851  1
  Tm  Tm11  1  0.807739  0.064957  0.559149  1
  Tm  Tm12  1  0.692305  0.935013  0.059248  1
  Tm  Tm13  1  0.192305  0.564987  0.440752  1
  Tm  Tm14  1  0.477037  0.250000  0.489071  1
  Tm  Tm15  1  0.977037  0.250000  0.010929  1
  Tm  Tm16  1  0.522995  0.750000  0.510706  1
  Tm  Tm17  1  0.022995  0.750000  0.989294  1
  Tm  Tm18  1  0.314159  0.250000  0.217859  1
  Tm  Tm19  1  0.814159  0.250000  0.282141  1
  Bi  Bi20  1  0.404971  0.750000  0.957832  1
  Bi  Bi21  1  0.904971  0.750000  0.542168  1
  Bi  Bi22  1  0.594883  0.250000  0.042573  1
  Bi  Bi23  1  0.094883  0.250000  0.457427  1
  Bi  Bi24  1  0.565991  0.996336  0.325629  1
  Bi  Bi25  1  0.065991  0.503664  0.174371  1
  Bi  Bi26  1  0.434100  0.495919  0.674239  1
  Bi  Bi27  1  0.934100  0.004081  0.825761  1
  Bi  Bi28  1  0.434100  0.004081  0.674239  1
  Bi  Bi29  1  0.934100  0.495919  0.825761  1
  Bi  Bi30  1  0.565991  0.503664  0.325629  1
  Bi  Bi31  1  0.065991  0.996336  0.174371  1
