# generated using pymatgen
data_Nd5Dy(In4Te)2
_symmetry_space_group_name_H-M   'P 1'
_cell_length_a   8.57213251
_cell_length_b   8.57213198
_cell_length_c   8.57213304
_cell_angle_alpha   119.20331258
_cell_angle_beta   119.20331114
_cell_angle_gamma   91.38553646
_symmetry_Int_Tables_number   1
_chemical_formula_structural   Nd5Dy(In4Te)2
_chemical_formula_sum   'Nd5 Dy1 In8 Te2'
_cell_volume   450.62234271
_cell_formula_units_Z   1
loop_
 _symmetry_equiv_pos_site_id
 _symmetry_equiv_pos_as_xyz
  1  'x, y, z'
loop_
 _atom_site_type_symbol
 _atom_site_label
 _atom_site_symmetry_multiplicity
 _atom_site_fract_x
 _atom_site_fract_y
 _atom_site_fract_z
 _atom_site_occupancy
  Nd  Nd0  1  0.250000  0.250000  0.000000  1
  Nd  Nd1  1  0.659288  0.159288  0.818577  1
  Nd  Nd2  1  0.340712  0.840712  0.181423  1
  Nd  Nd3  1  0.159288  0.340712  0.500000  1
  Nd  Nd4  1  0.840712  0.659288  0.500000  1
  Dy  Dy5  1  0.750000  0.750000  0.000000  1
  In  In6  1  0.333175  0.831781  0.791874  1
  In  In7  1  0.668219  0.166825  0.208126  1
  In  In8  1  0.039906  0.541299  0.208126  1
  In  In9  1  0.831781  0.039906  0.498606  1
  In  In10  1  0.460094  0.668219  0.501394  1
  In  In11  1  0.958701  0.460094  0.791874  1
  In  In12  1  0.166825  0.958701  0.498606  1
  In  In13  1  0.541299  0.333175  0.501394  1
  Te  Te14  1  0.504053  0.504053  0.000000  1
  Te  Te15  1  0.995947  0.995947  0.000000  1
