# generated using pymatgen
data_Y3Ho3(Ir7Rh2)2
_symmetry_space_group_name_H-M   'P 1'
_cell_length_a   5.30941900
_cell_length_b   5.30941985
_cell_length_c   17.47737800
_cell_angle_alpha   90.00000000
_cell_angle_beta   90.00000000
_cell_angle_gamma   119.99998849
_symmetry_Int_Tables_number   1
_chemical_formula_structural   Y3Ho3(Ir7Rh2)2
_chemical_formula_sum   'Y3 Ho3 Ir14 Rh4'
_cell_volume   426.67876545
_cell_formula_units_Z   1
loop_
 _symmetry_equiv_pos_site_id
 _symmetry_equiv_pos_as_xyz
  1  'x, y, z'
loop_
 _atom_site_type_symbol
 _atom_site_label
 _atom_site_symmetry_multiplicity
 _atom_site_fract_x
 _atom_site_fract_y
 _atom_site_fract_z
 _atom_site_occupancy
  Y  Y0  1  0.333333  0.666667  0.540889  1
  Y  Y1  1  0.333333  0.666667  0.750057  1
  Y  Y2  1  0.666667  0.333333  0.249993  1
  Ho  Ho3  1  0.333333  0.666667  0.958981  1
  Ho  Ho4  1  0.666667  0.333333  0.041020  1
  Ho  Ho5  1  0.666667  0.333333  0.458884  1
  Ir  Ir6  1  0.167567  0.832433  0.374386  1
  Ir  Ir7  1  0.167567  0.335134  0.374386  1
  Ir  Ir8  1  0.664866  0.832433  0.374386  1
  Ir  Ir9  1  0.832401  0.167599  0.625706  1
  Ir  Ir10  1  0.832401  0.664801  0.625706  1
  Ir  Ir11  1  0.335199  0.167599  0.625706  1
  Ir  Ir12  1  0.832377  0.167623  0.874488  1
  Ir  Ir13  1  0.832377  0.664754  0.874488  1
  Ir  Ir14  1  0.335246  0.167623  0.874488  1
  Ir  Ir15  1  0.167635  0.832365  0.125509  1
  Ir  Ir16  1  0.167635  0.335270  0.125509  1
  Ir  Ir17  1  0.664730  0.832365  0.125509  1
  Ir  Ir18  1  0.000000  0.000000  0.499947  1
  Ir  Ir19  1  0.000000  0.000000  0.999998  1
  Rh  Rh20  1  0.333333  0.666667  0.250005  1
  Rh  Rh21  1  0.666667  0.333333  0.749999  1
  Rh  Rh22  1  0.000000  0.000000  0.249963  1
  Rh  Rh23  1  0.000000  0.000000  0.749996  1
