# generated using pymatgen
data_Zn(PH3)2
_symmetry_space_group_name_H-M   'P 1'
_cell_length_a   4.21948667
_cell_length_b   4.21536755
_cell_length_c   8.18397607
_cell_angle_alpha   85.68684187
_cell_angle_beta   104.77885740
_cell_angle_gamma   89.84187817
_symmetry_Int_Tables_number   1
_chemical_formula_structural   Zn(PH3)2
_chemical_formula_sum   'Zn1 P2 H6'
_cell_volume   140.31517715
_cell_formula_units_Z   1
loop_
 _symmetry_equiv_pos_site_id
 _symmetry_equiv_pos_as_xyz
  1  'x, y, z'
loop_
 _atom_site_type_symbol
 _atom_site_label
 _atom_site_symmetry_multiplicity
 _atom_site_fract_x
 _atom_site_fract_y
 _atom_site_fract_z
 _atom_site_occupancy
  Zn  Zn0  1  0.674852  0.549323  0.212500  1
  P  P1  1  0.248831  0.509338  0.359756  1
  P  P2  1  0.599640  0.071755  0.062952  1
  H  H3  1  0.861866  0.625645  0.760252  1
  H  H4  1  0.787593  0.085492  0.941291  1
  H  H5  1  0.288076  0.089703  0.943931  1
  H  H6  1  0.318595  0.705111  0.497990  1
  H  H7  1  0.030544  0.601927  0.748539  1
  H  H8  1  0.296813  0.214708  0.459857  1
