# generated using pymatgen
data_CaTb2Sm4PtI12
_symmetry_space_group_name_H-M   'P 1'
_cell_length_a   9.93012526
_cell_length_b   9.94312885
_cell_length_c   9.90157400
_cell_angle_alpha   106.94320167
_cell_angle_beta   107.23553092
_cell_angle_gamma   106.92416145
_symmetry_Int_Tables_number   1
_chemical_formula_structural   CaTb2Sm4PtI12
_chemical_formula_sum   'Ca1 Tb2 Sm4 Pt1 I12'
_cell_volume   813.42489011
_cell_formula_units_Z   1
loop_
 _symmetry_equiv_pos_site_id
 _symmetry_equiv_pos_as_xyz
  1  'x, y, z'
loop_
 _atom_site_type_symbol
 _atom_site_label
 _atom_site_symmetry_multiplicity
 _atom_site_fract_x
 _atom_site_fract_y
 _atom_site_fract_z
 _atom_site_occupancy
  Ca  Ca0  1  0.499980  0.500576  0.499408  1
  Tb  Tb1  1  0.025147  0.299579  0.098537  1
  Tb  Tb2  1  0.300517  0.099689  0.026446  1
  Sm  Sm3  1  0.900471  0.974259  0.695245  1
  Sm  Sm4  1  0.974257  0.695467  0.900518  1
  Sm  Sm5  1  0.695300  0.901284  0.974192  1
  Sm  Sm6  1  0.101903  0.025741  0.305806  1
  Pt  Pt7  1  0.000582  0.000315  0.000686  1
  I  I8  1  0.539435  0.844538  0.616788  1
  I  I9  1  0.844167  0.618584  0.538307  1
  I  I10  1  0.618203  0.539911  0.845306  1
  I  I11  1  0.461476  0.156365  0.378918  1
  I  I12  1  0.154346  0.380911  0.457570  1
  I  I13  1  0.376573  0.456016  0.151134  1
  I  I14  1  0.679401  0.226612  0.071740  1
  I  I15  1  0.227712  0.073140  0.682760  1
  I  I16  1  0.071999  0.675526  0.225767  1
  I  I17  1  0.322521  0.780716  0.930105  1
  I  I18  1  0.776673  0.929020  0.322608  1
  I  I19  1  0.929336  0.321752  0.778160  1
