# generated using pymatgen
data_YHo2Lu7(Si5Ir2)4
_symmetry_space_group_name_H-M   'P 1'
_cell_length_a   12.52170701
_cell_length_b   12.59420650
_cell_length_c   4.22569700
_cell_angle_alpha   90.00000000
_cell_angle_beta   90.00000000
_cell_angle_gamma   89.90843871
_symmetry_Int_Tables_number   1
_chemical_formula_structural   YHo2Lu7(Si5Ir2)4
_chemical_formula_sum   'Y1 Ho2 Lu7 Si20 Ir8'
_cell_volume   666.39563854
_cell_formula_units_Z   1
loop_
 _symmetry_equiv_pos_site_id
 _symmetry_equiv_pos_as_xyz
  1  'x, y, z'
loop_
 _atom_site_type_symbol
 _atom_site_label
 _atom_site_symmetry_multiplicity
 _atom_site_fract_x
 _atom_site_fract_y
 _atom_site_fract_z
 _atom_site_occupancy
  Y  Y0  1  0.614996  0.883577  0.500000  1
  Ho  Ho1  1  0.115111  0.616552  0.500000  1
  Ho  Ho2  1  0.384923  0.116503  0.500000  1
  Lu  Lu3  1  0.500289  0.499837  0.000000  1
  Lu  Lu4  1  0.999962  0.000286  0.000000  1
  Lu  Lu5  1  0.675812  0.175837  0.500000  1
  Lu  Lu6  1  0.324168  0.824328  0.500000  1
  Lu  Lu7  1  0.175246  0.324615  0.500000  1
  Lu  Lu8  1  0.824585  0.675129  0.500000  1
  Lu  Lu9  1  0.884505  0.383049  0.500000  1
  Si  Si10  1  0.565611  0.066833  0.000000  1
  Si  Si11  1  0.434298  0.933212  0.000000  1
  Si  Si12  1  0.065311  0.433523  0.000000  1
  Si  Si13  1  0.934689  0.566457  0.000000  1
  Si  Si14  1  0.663467  0.701182  0.000000  1
  Si  Si15  1  0.336478  0.298196  0.000000  1
  Si  Si16  1  0.163280  0.798269  0.000000  1
  Si  Si17  1  0.836510  0.202104  0.000000  1
  Si  Si18  1  0.299419  0.663839  0.000000  1
  Si  Si19  1  0.700673  0.335865  0.000000  1
  Si  Si20  1  0.200005  0.164281  0.000000  1
  Si  Si21  1  0.799691  0.835989  0.000000  1
  Si  Si22  1  0.654831  0.502844  0.500000  1
  Si  Si23  1  0.345746  0.496644  0.500000  1
  Si  Si24  1  0.154241  0.997186  0.500000  1
  Si  Si25  1  0.845841  0.003569  0.500000  1
  Si  Si26  1  0.496733  0.654809  0.500000  1
  Si  Si27  1  0.503775  0.344930  0.500000  1
  Si  Si28  1  0.003326  0.155504  0.500000  1
  Si  Si29  1  0.996460  0.845117  0.500000  1
  Ir  Ir30  1  0.746177  0.520264  0.000000  1
  Ir  Ir31  1  0.254767  0.478700  0.000000  1
  Ir  Ir32  1  0.244884  0.978975  0.000000  1
  Ir  Ir33  1  0.755443  0.021604  0.000000  1
  Ir  Ir34  1  0.477756  0.744118  0.000000  1
  Ir  Ir35  1  0.521995  0.255299  0.000000  1
  Ir  Ir36  1  0.020995  0.246020  0.000000  1
  Ir  Ir37  1  0.978000  0.754952  0.000000  1
