# generated using pymatgen
data_DyHoFe14(SiC)3
_symmetry_space_group_name_H-M   'P 1'
_cell_length_a   6.44106795
_cell_length_b   6.44106785
_cell_length_c   6.44106800
_cell_angle_alpha   83.51099555
_cell_angle_beta   83.51100035
_cell_angle_gamma   83.51098530
_symmetry_Int_Tables_number   1
_chemical_formula_structural   DyHoFe14(SiC)3
_chemical_formula_sum   'Dy1 Ho1 Fe14 Si3 C3'
_cell_volume   262.44650442
_cell_formula_units_Z   1
loop_
 _symmetry_equiv_pos_site_id
 _symmetry_equiv_pos_as_xyz
  1  'x, y, z'
loop_
 _atom_site_type_symbol
 _atom_site_label
 _atom_site_symmetry_multiplicity
 _atom_site_fract_x
 _atom_site_fract_y
 _atom_site_fract_z
 _atom_site_occupancy
  Dy  Dy0  1  0.653339  0.653339  0.653339  1
  Ho  Ho1  1  0.346617  0.346617  0.346617  1
  Fe  Fe2  1  0.715466  0.284501  0.000048  1
  Fe  Fe3  1  0.000048  0.715466  0.284501  1
  Fe  Fe4  1  0.284501  0.000048  0.715466  1
  Fe  Fe5  1  0.000048  0.284501  0.715466  1
  Fe  Fe6  1  0.715466  0.000048  0.284501  1
  Fe  Fe7  1  0.284501  0.715466  0.000048  1
  Fe  Fe8  1  0.340513  0.862188  0.340513  1
  Fe  Fe9  1  0.340513  0.340513  0.862188  1
  Fe  Fe10  1  0.862188  0.340513  0.340513  1
  Fe  Fe11  1  0.659442  0.137854  0.659442  1
  Fe  Fe12  1  0.659442  0.659442  0.137854  1
  Fe  Fe13  1  0.137854  0.659442  0.659442  1
  Fe  Fe14  1  0.902994  0.902994  0.902994  1
  Fe  Fe15  1  0.097039  0.097039  0.097039  1
  Si  Si16  1  0.000009  0.000009  0.499995  1
  Si  Si17  1  0.499995  0.000009  0.000009  1
  Si  Si18  1  0.000009  0.499995  0.000009  1
  C  C19  1  0.499925  0.499925  0.000168  1
  C  C20  1  0.000168  0.499925  0.499925  1
  C  C21  1  0.499925  0.000168  0.499925  1
