# generated using pymatgen
data_Dy4Co9NiB4
_symmetry_space_group_name_H-M   'P 1'
_cell_length_a   5.06037700
_cell_length_b   5.06037722
_cell_length_c   19.96588500
_cell_angle_alpha   90.00000000
_cell_angle_beta   90.00000000
_cell_angle_gamma   120.00000510
_symmetry_Int_Tables_number   1
_chemical_formula_structural   Dy4Co9NiB4
_chemical_formula_sum   'Dy8 Co18 Ni2 B8'
_cell_volume   442.77688424
_cell_formula_units_Z   2
loop_
 _symmetry_equiv_pos_site_id
 _symmetry_equiv_pos_as_xyz
  1  'x, y, z'
loop_
 _atom_site_type_symbol
 _atom_site_label
 _atom_site_symmetry_multiplicity
 _atom_site_fract_x
 _atom_site_fract_y
 _atom_site_fract_z
 _atom_site_occupancy
  Dy  Dy0  1  0.666667  0.333333  0.824797  1
  Dy  Dy1  1  0.666667  0.333333  0.977051  1
  Dy  Dy2  1  0.333333  0.666667  0.477051  1
  Dy  Dy3  1  0.333333  0.666667  0.022949  1
  Dy  Dy4  1  0.333333  0.666667  0.175203  1
  Dy  Dy5  1  0.666667  0.333333  0.522949  1
  Dy  Dy6  1  0.666667  0.333333  0.675203  1
  Dy  Dy7  1  0.333333  0.666667  0.324797  1
  Co  Co8  1  0.163331  0.326662  0.894224  1
  Co  Co9  1  0.163331  0.836669  0.605776  1
  Co  Co10  1  0.836669  0.163331  0.394224  1
  Co  Co11  1  0.334491  0.167246  0.250000  1
  Co  Co12  1  0.326662  0.163331  0.394224  1
  Co  Co13  1  0.836669  0.673338  0.105776  1
  Co  Co14  1  0.836669  0.673338  0.394224  1
  Co  Co15  1  0.832754  0.665509  0.250000  1
  Co  Co16  1  0.673338  0.836669  0.605776  1
  Co  Co17  1  0.665509  0.832754  0.750000  1
  Co  Co18  1  0.836669  0.163331  0.105776  1
  Co  Co19  1  0.673338  0.836669  0.894224  1
  Co  Co20  1  0.167246  0.334491  0.750000  1
  Co  Co21  1  0.167246  0.832754  0.750000  1
  Co  Co22  1  0.832754  0.167246  0.250000  1
  Co  Co23  1  0.326662  0.163331  0.105776  1
  Co  Co24  1  0.163331  0.836669  0.894224  1
  Co  Co25  1  0.163331  0.326662  0.605776  1
  Ni  Ni26  1  0.000000  0.000000  0.000000  1
  Ni  Ni27  1  0.000000  0.000000  0.500000  1
  B  B28  1  0.333333  0.666667  0.825183  1
  B  B29  1  0.333333  0.666667  0.674817  1
  B  B30  1  0.666667  0.333333  0.325183  1
  B  B31  1  0.000000  0.000000  0.822853  1
  B  B32  1  0.666667  0.333333  0.174817  1
  B  B33  1  0.000000  0.000000  0.677147  1
  B  B34  1  0.000000  0.000000  0.322853  1
  B  B35  1  0.000000  0.000000  0.177147  1
