# generated using pymatgen
data_Li3Eu2Er2ZnPt4
_symmetry_space_group_name_H-M   'P 1'
_cell_length_a   4.07206000
_cell_length_b   7.15574332
_cell_length_c   8.43207712
_cell_angle_alpha   90.73616181
_cell_angle_beta   90.00000000
_cell_angle_gamma   90.00000000
_symmetry_Int_Tables_number   1
_chemical_formula_structural   Li3Eu2Er2ZnPt4
_chemical_formula_sum   'Li3 Eu2 Er2 Zn1 Pt4'
_cell_volume   245.67877823
_cell_formula_units_Z   1
loop_
 _symmetry_equiv_pos_site_id
 _symmetry_equiv_pos_as_xyz
  1  'x, y, z'
loop_
 _atom_site_type_symbol
 _atom_site_label
 _atom_site_symmetry_multiplicity
 _atom_site_fract_x
 _atom_site_fract_y
 _atom_site_fract_z
 _atom_site_occupancy
  Li  Li0  1  0.250000  0.624425  0.557734  1
  Li  Li1  1  0.250000  0.129948  0.942583  1
  Li  Li2  1  0.750000  0.376412  0.442418  1
  Eu  Eu3  1  0.250000  0.042379  0.315386  1
  Eu  Eu4  1  0.750000  0.956683  0.685595  1
  Er  Er5  1  0.250000  0.543326  0.175678  1
  Er  Er6  1  0.750000  0.456933  0.822613  1
  Zn  Zn7  1  0.750000  0.869815  0.061697  1
  Pt  Pt8  1  0.250000  0.267543  0.633106  1
  Pt  Pt9  1  0.250000  0.740034  0.886606  1
  Pt  Pt10  1  0.750000  0.734244  0.363372  1
  Pt  Pt11  1  0.750000  0.258262  0.113211  1
