# generated using pymatgen
data_Tb8Dy2B2I15
_symmetry_space_group_name_H-M   'P 1'
_cell_length_a   9.64806081
_cell_length_b   10.38919915
_cell_length_c   11.34126349
_cell_angle_alpha   91.75776994
_cell_angle_beta   114.41747803
_cell_angle_gamma   110.43604158
_symmetry_Int_Tables_number   1
_chemical_formula_structural   Tb8Dy2B2I15
_chemical_formula_sum   'Tb8 Dy2 B2 I15'
_cell_volume   949.34981210
_cell_formula_units_Z   1
loop_
 _symmetry_equiv_pos_site_id
 _symmetry_equiv_pos_as_xyz
  1  'x, y, z'
loop_
 _atom_site_type_symbol
 _atom_site_label
 _atom_site_symmetry_multiplicity
 _atom_site_fract_x
 _atom_site_fract_y
 _atom_site_fract_z
 _atom_site_occupancy
  Tb  Tb0  1  0.784865  0.393885  0.267994  1
  Tb  Tb1  1  0.215135  0.606115  0.732006  1
  Tb  Tb2  1  0.663550  0.751993  0.825420  1
  Tb  Tb3  1  0.336450  0.248007  0.174580  1
  Tb  Tb4  1  0.523214  0.712598  0.086020  1
  Tb  Tb5  1  0.476786  0.287402  0.913980  1
  Tb  Tb6  1  0.580623  0.043560  0.309296  1
  Tb  Tb7  1  0.419377  0.956440  0.690704  1
  Dy  Dy8  1  0.707333  0.069924  0.045560  1
  Dy  Dy9  1  0.292667  0.930076  0.954440  1
  B  B10  1  0.468593  0.823223  0.880306  1
  B  B11  1  0.531407  0.176777  0.119694  1
  I  I12  1  0.000000  0.000000  0.000000  1
  I  I13  1  0.638645  0.882451  0.582903  1
  I  I14  1  0.361355  0.117549  0.417097  1
  I  I15  1  0.884806  0.299219  0.531221  1
  I  I16  1  0.115194  0.700781  0.468779  1
  I  I17  1  0.284357  0.760103  0.177325  1
  I  I18  1  0.715643  0.239897  0.822675  1
  I  I19  1  0.054718  0.340019  0.225525  1
  I  I20  1  0.159867  0.055852  0.702049  1
  I  I21  1  0.840133  0.944148  0.297951  1
  I  I22  1  0.227972  0.409763  0.942004  1
  I  I23  1  0.772028  0.590237  0.057996  1
  I  I24  1  0.409724  0.459454  0.659781  1
  I  I25  1  0.590276  0.540546  0.340219  1
  I  I26  1  0.945282  0.659981  0.774475  1
