# generated using pymatgen
data_Tb7Y9(AlCo)4
_symmetry_space_group_name_H-M   'P 1'
_cell_length_a   9.43881943
_cell_length_b   9.43059506
_cell_length_c   9.44776067
_cell_angle_alpha   59.99740746
_cell_angle_beta   60.10422243
_cell_angle_gamma   60.09153796
_symmetry_Int_Tables_number   1
_chemical_formula_structural   Tb7Y9(AlCo)4
_chemical_formula_sum   'Tb7 Y9 Al4 Co4'
_cell_volume   595.52919059
_cell_formula_units_Z   1
loop_
 _symmetry_equiv_pos_site_id
 _symmetry_equiv_pos_as_xyz
  1  'x, y, z'
loop_
 _atom_site_type_symbol
 _atom_site_label
 _atom_site_symmetry_multiplicity
 _atom_site_fract_x
 _atom_site_fract_y
 _atom_site_fract_z
 _atom_site_occupancy
  Tb  Tb0  1  0.349277  0.347981  0.349315  1
  Tb  Tb1  1  0.350401  0.348949  0.951735  1
  Tb  Tb2  1  0.349315  0.953428  0.349277  1
  Tb  Tb3  1  0.951735  0.348916  0.350401  1
  Tb  Tb4  1  0.807939  0.191882  0.190908  1
  Tb  Tb5  1  0.190908  0.809270  0.807939  1
  Tb  Tb6  1  0.191330  0.808670  0.191330  1
  Y  Y7  1  0.808036  0.191964  0.808036  1
  Y  Y8  1  0.191462  0.192413  0.807342  1
  Y  Y9  1  0.807342  0.808783  0.191462  1
  Y  Y10  1  0.938383  0.561719  0.561971  1
  Y  Y11  1  0.561971  0.937928  0.938383  1
  Y  Y12  1  0.561771  0.938229  0.561771  1
  Y  Y13  1  0.938415  0.561585  0.938415  1
  Y  Y14  1  0.561785  0.561538  0.938546  1
  Y  Y15  1  0.938546  0.938131  0.561785  1
  Al  Al16  1  0.577470  0.577136  0.577055  1
  Al  Al17  1  0.577195  0.577283  0.268659  1
  Al  Al18  1  0.577055  0.268337  0.577470  1
  Al  Al19  1  0.268659  0.576861  0.577195  1
  Co  Co20  1  0.140655  0.140316  0.142170  1
  Co  Co21  1  0.141940  0.140154  0.576239  1
  Co  Co22  1  0.142170  0.576860  0.140655  1
  Co  Co23  1  0.576239  0.141668  0.141940  1
