# generated using pymatgen
data_Yb3Lu(Si4Tc3)2
_symmetry_space_group_name_H-M   'P 1'
_cell_length_a   6.77804439
_cell_length_b   6.68593892
_cell_length_c   6.76302200
_cell_angle_alpha   70.47580031
_cell_angle_beta   90.08458218
_cell_angle_gamma   89.82822771
_symmetry_Int_Tables_number   1
_chemical_formula_structural   Yb3Lu(Si4Tc3)2
_chemical_formula_sum   'Yb3 Lu1 Si8 Tc6'
_cell_volume   288.85887299
_cell_formula_units_Z   1
loop_
 _symmetry_equiv_pos_site_id
 _symmetry_equiv_pos_as_xyz
  1  'x, y, z'
loop_
 _atom_site_type_symbol
 _atom_site_label
 _atom_site_symmetry_multiplicity
 _atom_site_fract_x
 _atom_site_fract_y
 _atom_site_fract_z
 _atom_site_occupancy
  Yb  Yb0  1  0.661804  0.445663  0.182044  1
  Yb  Yb1  1  0.164260  0.055756  0.814045  1
  Yb  Yb2  1  0.336995  0.554304  0.817172  1
  Lu  Lu3  1  0.833331  0.942106  0.193184  1
  Si  Si4  1  0.452390  0.118851  0.101599  1
  Si  Si5  1  0.953630  0.380069  0.896924  1
  Si  Si6  1  0.547358  0.880769  0.897453  1
  Si  Si7  1  0.045936  0.621378  0.101267  1
  Si  Si8  1  0.861300  0.136286  0.504829  1
  Si  Si9  1  0.360799  0.367029  0.493884  1
  Si  Si10  1  0.141761  0.866311  0.495458  1
  Si  Si11  1  0.637924  0.630482  0.508001  1
  Tc  Tc12  1  0.502938  0.000143  0.496824  1
  Tc  Tc13  1  0.999439  0.502732  0.498194  1
  Tc  Tc14  1  0.155463  0.242974  0.242490  1
  Tc  Tc15  1  0.660169  0.252900  0.758881  1
  Tc  Tc16  1  0.842921  0.758287  0.755603  1
  Tc  Tc17  1  0.341583  0.743959  0.242151  1
