# generated using pymatgen
data_RbBaVSe4
_symmetry_space_group_name_H-M   'P 1'
_cell_length_a   7.15810800
_cell_length_b   10.32347400
_cell_length_c   12.68390900
_cell_angle_alpha   90.00000000
_cell_angle_beta   90.00000000
_cell_angle_gamma   90.00000000
_symmetry_Int_Tables_number   1
_chemical_formula_structural   RbBaVSe4
_chemical_formula_sum   'Rb4 Ba4 V4 Se16'
_cell_volume   937.29701195
_cell_formula_units_Z   4
loop_
 _symmetry_equiv_pos_site_id
 _symmetry_equiv_pos_as_xyz
  1  'x, y, z'
loop_
 _atom_site_type_symbol
 _atom_site_label
 _atom_site_symmetry_multiplicity
 _atom_site_fract_x
 _atom_site_fract_y
 _atom_site_fract_z
 _atom_site_occupancy
  Rb  Rb0  1  0.250000  0.354416  0.090661  1
  Rb  Rb1  1  0.750000  0.645584  0.909339  1
  Rb  Rb2  1  0.750000  0.854416  0.409339  1
  Rb  Rb3  1  0.250000  0.145584  0.590661  1
  Ba  Ba4  1  0.250000  0.605390  0.646463  1
  Ba  Ba5  1  0.750000  0.394610  0.353537  1
  Ba  Ba6  1  0.750000  0.105390  0.853537  1
  Ba  Ba7  1  0.250000  0.894610  0.146463  1
  V  V8  1  0.250000  0.611535  0.329787  1
  V  V9  1  0.750000  0.388465  0.670213  1
  V  V10  1  0.750000  0.111535  0.170213  1
  V  V11  1  0.250000  0.888465  0.829787  1
  Se  Se12  1  0.250000  0.074772  0.927406  1
  Se  Se13  1  0.750000  0.925228  0.072594  1
  Se  Se14  1  0.750000  0.574772  0.572594  1
  Se  Se15  1  0.250000  0.425228  0.427406  1
  Se  Se16  1  0.250000  0.794149  0.433406  1
  Se  Se17  1  0.750000  0.205851  0.566594  1
  Se  Se18  1  0.750000  0.294149  0.066594  1
  Se  Se19  1  0.250000  0.705851  0.933406  1
  Se  Se20  1  0.005446  0.119019  0.278434  1
  Se  Se21  1  0.505446  0.880981  0.721566  1
  Se  Se22  1  0.994554  0.619019  0.221566  1
  Se  Se23  1  0.494554  0.380981  0.778434  1
  Se  Se24  1  0.994554  0.880981  0.721566  1
  Se  Se25  1  0.494554  0.119019  0.278434  1
  Se  Se26  1  0.005446  0.380981  0.778434  1
  Se  Se27  1  0.505446  0.619019  0.221566  1
