# generated using pymatgen
data_SmBiRh2F14
_symmetry_space_group_name_H-M   'P 1'
_cell_length_a   5.61880100
_cell_length_b   9.10666011
_cell_length_c   12.12163953
_cell_angle_alpha   62.16099484
_cell_angle_beta   90.00000000
_cell_angle_gamma   90.00000000
_symmetry_Int_Tables_number   1
_chemical_formula_structural   SmBiRh2F14
_chemical_formula_sum   'Sm2 Bi2 Rh4 F28'
_cell_volume   548.46097195
_cell_formula_units_Z   2
loop_
 _symmetry_equiv_pos_site_id
 _symmetry_equiv_pos_as_xyz
  1  'x, y, z'
loop_
 _atom_site_type_symbol
 _atom_site_label
 _atom_site_symmetry_multiplicity
 _atom_site_fract_x
 _atom_site_fract_y
 _atom_site_fract_z
 _atom_site_occupancy
  Sm  Sm0  1  0.239359  0.188682  0.234644  1
  Sm  Sm1  1  0.739359  0.811318  0.265356  1
  Bi  Bi2  1  0.763653  0.813960  0.763240  1
  Bi  Bi3  1  0.263653  0.186040  0.736760  1
  Rh  Rh4  1  0.756569  0.272200  0.957837  1
  Rh  Rh5  1  0.256569  0.727800  0.542163  1
  Rh  Rh6  1  0.243217  0.726342  0.043201  1
  Rh  Rh7  1  0.743217  0.273658  0.456799  1
  F  F8  1  0.433681  0.705915  0.916812  1
  F  F9  1  0.933681  0.294085  0.583188  1
  F  F10  1  0.564665  0.291943  0.084468  1
  F  F11  1  0.064665  0.708057  0.415532  1
  F  F12  1  0.446038  0.280461  0.540741  1
  F  F13  1  0.946038  0.719539  0.959259  1
  F  F14  1  0.551489  0.719823  0.457919  1
  F  F15  1  0.051489  0.280177  0.042081  1
  F  F16  1  0.769368  0.510677  0.862143  1
  F  F17  1  0.269368  0.489323  0.637857  1
  F  F18  1  0.231999  0.486127  0.138759  1
  F  F19  1  0.731999  0.513873  0.361241  1
  F  F20  1  0.757426  0.032275  0.049570  1
  F  F21  1  0.257426  0.967725  0.450430  1
  F  F22  1  0.242919  0.968031  0.950731  1
  F  F23  1  0.742919  0.031969  0.549269  1
  F  F24  1  0.965174  0.728495  0.630415  1
  F  F25  1  0.465174  0.271505  0.869585  1
  F  F26  1  0.030460  0.270525  0.366760  1
  F  F27  1  0.530460  0.729475  0.133240  1
  F  F28  1  0.053434  0.744333  0.171679  1
  F  F29  1  0.553434  0.255667  0.328321  1
  F  F30  1  0.941085  0.256034  0.826988  1
  F  F31  1  0.441085  0.743966  0.673012  1
  F  F32  1  0.411473  0.969951  0.230492  1
  F  F33  1  0.911473  0.030049  0.269508  1
  F  F34  1  0.597989  0.031732  0.771983  1
  F  F35  1  0.097989  0.968268  0.728017  1
