# generated using pymatgen
data_Ta4MnNi(P2O7)6
_symmetry_space_group_name_H-M   'P 1'
_cell_length_a   8.07290980
_cell_length_b   6.64922849
_cell_length_c   16.95236588
_cell_angle_alpha   67.38519783
_cell_angle_beta   89.90113527
_cell_angle_gamma   89.95048672
_symmetry_Int_Tables_number   1
_chemical_formula_structural   Ta4MnNi(P2O7)6
_chemical_formula_sum   'Ta4 Mn1 Ni1 P12 O42'
_cell_volume   840.01085549
_cell_formula_units_Z   1
loop_
 _symmetry_equiv_pos_site_id
 _symmetry_equiv_pos_as_xyz
  1  'x, y, z'
loop_
 _atom_site_type_symbol
 _atom_site_label
 _atom_site_symmetry_multiplicity
 _atom_site_fract_x
 _atom_site_fract_y
 _atom_site_fract_z
 _atom_site_occupancy
  Ta  Ta0  1  0.980046  0.699215  0.834164  1
  Ta  Ta1  1  0.019954  0.300785  0.165836  1
  Ta  Ta2  1  0.478814  0.297310  0.667641  1
  Ta  Ta3  1  0.521186  0.702690  0.332359  1
  Mn  Mn4  1  0.000000  0.000000  0.500000  1
  Ni  Ni5  1  0.500000  0.000000  0.000000  1
  P  P6  1  0.396344  0.821344  0.839586  1
  P  P7  1  0.603656  0.178656  0.160414  1
  P  P8  1  0.896200  0.179352  0.664005  1
  P  P9  1  0.103800  0.820648  0.335995  1
  P  P10  1  0.109502  0.543675  0.669296  1
  P  P11  1  0.890498  0.456325  0.330704  1
  P  P12  1  0.607220  0.448943  0.834323  1
  P  P13  1  0.392780  0.551057  0.165677  1
  P  P14  1  0.884038  0.797183  0.015788  1
  P  P15  1  0.115962  0.202817  0.984212  1
  P  P16  1  0.389733  0.208104  0.483288  1
  P  P17  1  0.610267  0.791896  0.516712  1
  O  O18  1  0.777162  0.819261  0.547381  1
  O  O19  1  0.222838  0.180739  0.452619  1
  O  O20  1  0.283522  0.167053  0.956425  1
  O  O21  1  0.716478  0.832947  0.043575  1
  O  O22  1  0.394696  0.233067  0.570862  1
  O  O23  1  0.605304  0.766933  0.429138  1
  O  O24  1  0.892929  0.765359  0.929733  1
  O  O25  1  0.107071  0.234641  0.070267  1
  O  O26  1  0.448512  0.598735  0.829965  1
  O  O27  1  0.551488  0.401265  0.170035  1
  O  O28  1  0.946641  0.399184  0.676070  1
  O  O29  1  0.053359  0.600816  0.323930  1
  O  O30  1  0.257003  0.381082  0.695560  1
  O  O31  1  0.742997  0.618918  0.304440  1
  O  O32  1  0.759458  0.603867  0.810770  1
  O  O33  1  0.240542  0.396133  0.189230  1
  O  O34  1  0.428565  0.999074  0.748502  1
  O  O35  1  0.571435  0.000926  0.251498  1
  O  O36  1  0.924003  0.996551  0.754183  1
  O  O37  1  0.075997  0.003449  0.245817  1
  O  O38  1  0.205673  0.795215  0.852127  1
  O  O39  1  0.794327  0.204785  0.147873  1
  O  O40  1  0.706153  0.207446  0.649255  1
  O  O41  1  0.293847  0.792554  0.350745  1
  O  O42  1  0.133470  0.719861  0.584037  1
  O  O43  1  0.866530  0.280139  0.415963  1
  O  O44  1  0.626707  0.266682  0.918362  1
  O  O45  1  0.373293  0.733318  0.081638  1
  O  O46  1  0.077750  0.625645  0.742077  1
  O  O47  1  0.922250  0.374355  0.257923  1
  O  O48  1  0.574233  0.377386  0.758802  1
  O  O49  1  0.425767  0.622614  0.241198  1
  O  O50  1  0.488503  0.858154  0.908172  1
  O  O51  1  0.511497  0.141846  0.091828  1
  O  O52  1  0.991916  0.147106  0.595271  1
  O  O53  1  0.008084  0.852894  0.404729  1
  O  O54  1  0.974084  0.601646  0.083982  1
  O  O55  1  0.025916  0.398354  0.916018  1
  O  O56  1  0.485485  0.400798  0.416546  1
  O  O57  1  0.514515  0.599202  0.583454  1
  O  O58  1  0.500000  0.000000  0.500000  1
  O  O59  1  0.000000  0.000000  0.000000  1
