# generated using pymatgen
data_TbY4Ho3Au4
_symmetry_space_group_name_H-M   'P 1'
_cell_length_a   4.95096000
_cell_length_b   7.15082371
_cell_length_c   8.97358200
_cell_angle_alpha   90.09380607
_cell_angle_beta   90.00000000
_cell_angle_gamma   90.00000000
_symmetry_Int_Tables_number   1
_chemical_formula_structural   TbY4Ho3Au4
_chemical_formula_sum   'Tb1 Y4 Ho3 Au4'
_cell_volume   317.69526547
_cell_formula_units_Z   1
loop_
 _symmetry_equiv_pos_site_id
 _symmetry_equiv_pos_as_xyz
  1  'x, y, z'
loop_
 _atom_site_type_symbol
 _atom_site_label
 _atom_site_symmetry_multiplicity
 _atom_site_fract_x
 _atom_site_fract_y
 _atom_site_fract_z
 _atom_site_occupancy
  Tb  Tb0  1  0.750000  0.648499  0.419206  1
  Y  Y1  1  0.250000  0.486439  0.176671  1
  Y  Y2  1  0.750000  0.513194  0.823429  1
  Y  Y3  1  0.250000  0.987529  0.323214  1
  Y  Y4  1  0.750000  0.013656  0.677043  1
  Ho  Ho5  1  0.250000  0.351599  0.580992  1
  Ho  Ho6  1  0.750000  0.148514  0.080071  1
  Ho  Ho7  1  0.250000  0.851664  0.919707  1
  Au  Au8  1  0.250000  0.255616  0.900486  1
  Au  Au9  1  0.750000  0.744507  0.098146  1
  Au  Au10  1  0.250000  0.756225  0.600582  1
  Au  Au11  1  0.750000  0.242558  0.400452  1
