# generated using pymatgen
data_Er7Lu3(SiHg)4
_symmetry_space_group_name_H-M   'P 1'
_cell_length_a   8.67713771
_cell_length_b   8.68177821
_cell_length_c   7.47599371
_cell_angle_alpha   90.03602661
_cell_angle_beta   90.00398655
_cell_angle_gamma   129.08527709
_symmetry_Int_Tables_number   1
_chemical_formula_structural   Er7Lu3(SiHg)4
_chemical_formula_sum   'Er7 Lu3 Si4 Hg4'
_cell_volume   437.15183115
_cell_formula_units_Z   1
loop_
 _symmetry_equiv_pos_site_id
 _symmetry_equiv_pos_as_xyz
  1  'x, y, z'
loop_
 _atom_site_type_symbol
 _atom_site_label
 _atom_site_symmetry_multiplicity
 _atom_site_fract_x
 _atom_site_fract_y
 _atom_site_fract_z
 _atom_site_occupancy
  Er  Er0  1  0.948173  0.693481  0.673959  1
  Er  Er1  1  0.448088  0.193330  0.826008  1
  Er  Er2  1  0.806649  0.551851  0.174079  1
  Er  Er3  1  0.551911  0.806720  0.174087  1
  Er  Er4  1  0.193205  0.448021  0.825959  1
  Er  Er5  1  0.693435  0.948271  0.673776  1
  Er  Er6  1  0.306689  0.051894  0.326092  1
  Lu  Lu7  1  0.051743  0.306155  0.326274  1
  Lu  Lu8  1  0.000001  0.000227  0.000159  1
  Lu  Lu9  1  0.499803  0.499943  0.499910  1
  Si  Si10  1  0.377449  0.377877  0.125318  1
  Si  Si11  1  0.622104  0.622128  0.874961  1
  Si  Si12  1  0.121983  0.122137  0.624606  1
  Si  Si13  1  0.878157  0.878355  0.375056  1
  Hg  Hg14  1  0.784313  0.216189  0.000426  1
  Hg  Hg15  1  0.216077  0.783975  0.999975  1
  Hg  Hg16  1  0.716620  0.284000  0.499688  1
  Hg  Hg17  1  0.283602  0.715448  0.499667  1
