# generated using pymatgen
data_Dy18Zr2IrRh11
_symmetry_space_group_name_H-M   'P 1'
_cell_length_a   10.88179615
_cell_length_b   10.88179615
_cell_length_c   6.31718515
_cell_angle_alpha   90.04918120
_cell_angle_beta   90.04918120
_cell_angle_gamma   90.05235787
_symmetry_Int_Tables_number   1
_chemical_formula_structural   Dy18Zr2IrRh11
_chemical_formula_sum   'Dy18 Zr2 Ir1 Rh11'
_cell_volume   748.03906066
_cell_formula_units_Z   1
loop_
 _symmetry_equiv_pos_site_id
 _symmetry_equiv_pos_as_xyz
  1  'x, y, z'
loop_
 _atom_site_type_symbol
 _atom_site_label
 _atom_site_symmetry_multiplicity
 _atom_site_fract_x
 _atom_site_fract_y
 _atom_site_fract_z
 _atom_site_occupancy
  Dy  Dy0  1  0.288002  0.085722  0.376259  1
  Dy  Dy1  1  0.288043  0.912730  0.877140  1
  Dy  Dy2  1  0.711903  0.087076  0.877082  1
  Dy  Dy3  1  0.711616  0.912723  0.376211  1
  Dy  Dy4  1  0.588166  0.792653  0.876078  1
  Dy  Dy5  1  0.588077  0.207303  0.376122  1
  Dy  Dy6  1  0.409797  0.793103  0.375734  1
  Dy  Dy7  1  0.411519  0.207065  0.876086  1
  Dy  Dy8  1  0.207347  0.411834  0.623922  1
  Dy  Dy9  1  0.206897  0.590203  0.124266  1
  Dy  Dy10  1  0.792697  0.411923  0.123878  1
  Dy  Dy11  1  0.792935  0.588481  0.623914  1
  Dy  Dy12  1  0.914278  0.711998  0.123741  1
  Dy  Dy13  1  0.912924  0.288097  0.622918  1
  Dy  Dy14  1  0.087270  0.711957  0.622860  1
  Dy  Dy15  1  0.087277  0.288384  0.123789  1
  Dy  Dy16  1  0.499899  0.499928  0.000259  1
  Dy  Dy17  1  0.500072  0.500101  0.499741  1
  Zr  Zr18  1  0.000242  0.999674  0.500048  1
  Zr  Zr19  1  0.000326  0.999758  0.999952  1
  Ir  Ir20  1  0.144143  0.855857  0.250000  1
  Rh  Rh21  1  0.855951  0.144049  0.250000  1
  Rh  Rh22  1  0.854888  0.855941  0.749811  1
  Rh  Rh23  1  0.144059  0.145112  0.750189  1
  Rh  Rh24  1  0.655615  0.344385  0.750000  1
  Rh  Rh25  1  0.655555  0.655415  0.250131  1
  Rh  Rh26  1  0.344585  0.344445  0.249869  1
  Rh  Rh27  1  0.345054  0.654946  0.750000  1
  Rh  Rh28  1  0.500885  0.000199  0.121713  1
  Rh  Rh29  1  0.500431  0.000253  0.622261  1
  Rh  Rh30  1  0.999747  0.499569  0.877739  1
  Rh  Rh31  1  0.999801  0.499115  0.378287  1
