# generated using pymatgen
data_Tm9Th3Co3Ru
_symmetry_space_group_name_H-M   'P 1'
_cell_length_a   6.23007236
_cell_length_b   6.94129735
_cell_length_c   9.41276200
_cell_angle_alpha   90.00000000
_cell_angle_beta   90.00000000
_cell_angle_gamma   89.44995936
_symmetry_Int_Tables_number   1
_chemical_formula_structural   Tm9Th3Co3Ru
_chemical_formula_sum   'Tm9 Th3 Co3 Ru1'
_cell_volume   407.03410999
_cell_formula_units_Z   1
loop_
 _symmetry_equiv_pos_site_id
 _symmetry_equiv_pos_as_xyz
  1  'x, y, z'
loop_
 _atom_site_type_symbol
 _atom_site_label
 _atom_site_symmetry_multiplicity
 _atom_site_fract_x
 _atom_site_fract_y
 _atom_site_fract_z
 _atom_site_occupancy
  Tm  Tm0  1  0.853428  0.536854  0.250000  1
  Tm  Tm1  1  0.171336  0.177455  0.066584  1
  Tm  Tm2  1  0.832926  0.825046  0.932859  1
  Tm  Tm3  1  0.670505  0.328424  0.929937  1
  Tm  Tm4  1  0.832926  0.825046  0.567141  1
  Tm  Tm5  1  0.328678  0.669517  0.069573  1
  Tm  Tm6  1  0.171336  0.177455  0.433416  1
  Tm  Tm7  1  0.328678  0.669517  0.430427  1
  Tm  Tm8  1  0.670505  0.328424  0.570063  1
  Th  Th9  1  0.642537  0.051494  0.250000  1
  Th  Th10  1  0.348012  0.949212  0.750000  1
  Th  Th11  1  0.154175  0.448945  0.750000  1
  Co  Co12  1  0.457570  0.366678  0.250000  1
  Co  Co13  1  0.538021  0.630485  0.750000  1
  Co  Co14  1  0.963629  0.129082  0.750000  1
  Ru  Ru15  1  0.035738  0.886364  0.250000  1
