# generated using pymatgen
data_Tb2NdRuO7
_symmetry_space_group_name_H-M   'P 1'
_cell_length_a   6.48501593
_cell_length_b   6.48501576
_cell_length_c   7.52588300
_cell_angle_alpha   90.00000000
_cell_angle_beta   90.00000000
_cell_angle_gamma   110.36607198
_symmetry_Int_Tables_number   1
_chemical_formula_structural   Tb2NdRuO7
_chemical_formula_sum   'Tb4 Nd2 Ru2 O14'
_cell_volume   296.71900992
_cell_formula_units_Z   2
loop_
 _symmetry_equiv_pos_site_id
 _symmetry_equiv_pos_as_xyz
  1  'x, y, z'
loop_
 _atom_site_type_symbol
 _atom_site_label
 _atom_site_symmetry_multiplicity
 _atom_site_fract_x
 _atom_site_fract_y
 _atom_site_fract_z
 _atom_site_occupancy
  Tb  Tb0  1  0.520522  0.073824  0.250000  1
  Tb  Tb1  1  0.926176  0.479478  0.750000  1
  Tb  Tb2  1  0.479478  0.926176  0.750000  1
  Tb  Tb3  1  0.073824  0.520522  0.250000  1
  Nd  Nd4  1  0.000000  0.000000  0.500000  1
  Nd  Nd5  1  0.000000  0.000000  0.000000  1
  Ru  Ru6  1  0.500000  0.500000  0.500000  1
  Ru  Ru7  1  0.500000  0.500000  0.000000  1
  O  O8  1  0.440139  0.182725  0.537668  1
  O  O9  1  0.817275  0.559861  0.462332  1
  O  O10  1  0.440139  0.182725  0.962332  1
  O  O11  1  0.817275  0.559861  0.037668  1
  O  O12  1  0.559861  0.817275  0.462332  1
  O  O13  1  0.182725  0.440139  0.537668  1
  O  O14  1  0.559861  0.817275  0.037668  1
  O  O15  1  0.182725  0.440139  0.962332  1
  O  O16  1  0.162113  0.885753  0.250000  1
  O  O17  1  0.114247  0.837887  0.750000  1
  O  O18  1  0.837887  0.114247  0.750000  1
  O  O19  1  0.885753  0.162113  0.250000  1
  O  O20  1  0.411649  0.411649  0.250000  1
  O  O21  1  0.588351  0.588351  0.750000  1
