# generated using pymatgen
data_Y4Ni2C5
_symmetry_space_group_name_H-M   'P 1'
_cell_length_a   3.66008200
_cell_length_b   3.70075300
_cell_length_c   11.67035900
_cell_angle_alpha   90.00000000
_cell_angle_beta   90.00000000
_cell_angle_gamma   90.00000000
_symmetry_Int_Tables_number   1
_chemical_formula_structural   Y4Ni2C5
_chemical_formula_sum   'Y4 Ni2 C5'
_cell_volume   158.07570636
_cell_formula_units_Z   1
loop_
 _symmetry_equiv_pos_site_id
 _symmetry_equiv_pos_as_xyz
  1  'x, y, z'
loop_
 _atom_site_type_symbol
 _atom_site_label
 _atom_site_symmetry_multiplicity
 _atom_site_fract_x
 _atom_site_fract_y
 _atom_site_fract_z
 _atom_site_occupancy
  Y  Y0  1  0.500000  0.503769  0.203739  1
  Y  Y1  1  0.500000  0.503769  0.796261  1
  Y  Y2  1  0.500000  0.206052  0.500000  1
  Y  Y3  1  0.000000  0.000566  0.000000  1
  Ni  Ni4  1  0.000000  0.697700  0.383921  1
  Ni  Ni5  1  0.000000  0.697700  0.616079  1
  C  C6  1  0.000000  0.000649  0.231100  1
  C  C7  1  0.000000  0.000649  0.768900  1
  C  C8  1  0.000000  0.196957  0.332731  1
  C  C9  1  0.000000  0.196957  0.667269  1
  C  C10  1  0.500000  0.496730  0.000000  1
