# generated using pymatgen
data_Ce2Ho3Os2
_symmetry_space_group_name_H-M   'P 1'
_cell_length_a   6.39822587
_cell_length_b   7.15255389
_cell_length_c   8.70056682
_cell_angle_alpha   95.88104362
_cell_angle_beta   111.57323309
_cell_angle_gamma   90.00000129
_symmetry_Int_Tables_number   1
_chemical_formula_structural   Ce2Ho3Os2
_chemical_formula_sum   'Ce4 Ho6 Os4'
_cell_volume   368.02284434
_cell_formula_units_Z   2
loop_
 _symmetry_equiv_pos_site_id
 _symmetry_equiv_pos_as_xyz
  1  'x, y, z'
loop_
 _atom_site_type_symbol
 _atom_site_label
 _atom_site_symmetry_multiplicity
 _atom_site_fract_x
 _atom_site_fract_y
 _atom_site_fract_z
 _atom_site_occupancy
  Ce  Ce0  1  0.980495  0.907035  0.187417  1
  Ce  Ce1  1  0.793078  0.592965  0.812583  1
  Ce  Ce2  1  0.019505  0.092965  0.812583  1
  Ce  Ce3  1  0.206922  0.407035  0.187417  1
  Ho  Ho4  1  0.641132  0.817334  0.434798  1
  Ho  Ho5  1  0.206334  0.682666  0.565202  1
  Ho  Ho6  1  0.358868  0.182666  0.565202  1
  Ho  Ho7  1  0.793666  0.317334  0.434798  1
  Ho  Ho8  1  0.420848  0.750000  0.000000  1
  Ho  Ho9  1  0.579152  0.250000  0.000000  1
  Os  Os10  1  0.839205  0.586144  0.220160  1
  Os  Os11  1  0.619045  0.913856  0.779840  1
  Os  Os12  1  0.160795  0.413856  0.779840  1
  Os  Os13  1  0.380955  0.086144  0.220160  1
