# generated using pymatgen
data_Sr12Pr8Si15Hg
_symmetry_space_group_name_H-M   'P 1'
_cell_length_a   8.24074545
_cell_length_b   8.19956986
_cell_length_c   15.48241885
_cell_angle_alpha   89.84952806
_cell_angle_beta   89.63396619
_cell_angle_gamma   89.69938942
_symmetry_Int_Tables_number   1
_chemical_formula_structural   Sr12Pr8Si15Hg
_chemical_formula_sum   'Sr12 Pr8 Si15 Hg1'
_cell_volume   1046.11657220
_cell_formula_units_Z   1
loop_
 _symmetry_equiv_pos_site_id
 _symmetry_equiv_pos_as_xyz
  1  'x, y, z'
loop_
 _atom_site_type_symbol
 _atom_site_label
 _atom_site_symmetry_multiplicity
 _atom_site_fract_x
 _atom_site_fract_y
 _atom_site_fract_z
 _atom_site_occupancy
  Sr  Sr0  1  0.314214  0.310835  0.000557  1
  Sr  Sr1  1  0.189340  0.810582  0.250207  1
  Sr  Sr2  1  0.805607  0.186929  0.751139  1
  Sr  Sr3  1  0.683609  0.689449  0.497766  1
  Sr  Sr4  1  0.365487  0.013444  0.455156  1
  Sr  Sr5  1  0.489513  0.863315  0.707825  1
  Sr  Sr6  1  0.512750  0.132900  0.207677  1
  Sr  Sr7  1  0.866875  0.487336  0.291657  1
  Sr  Sr8  1  0.133700  0.518878  0.796728  1
  Sr  Sr9  1  0.632320  0.989702  0.957401  1
  Sr  Sr10  1  0.005918  0.365855  0.536345  1
  Sr  Sr11  1  0.989798  0.631516  0.045614  1
  Pr  Pr12  1  0.131670  0.989816  0.878585  1
  Pr  Pr13  1  0.511269  0.628636  0.125100  1
  Pr  Pr14  1  0.500262  0.374901  0.624432  1
  Pr  Pr15  1  0.636219  0.512730  0.879080  1
  Pr  Pr16  1  0.369569  0.488852  0.374530  1
  Pr  Pr17  1  0.868758  0.009928  0.373328  1
  Pr  Pr18  1  0.991488  0.130041  0.126278  1
  Pr  Pr19  1  0.999632  0.860609  0.621401  1
  Si  Si20  1  0.349265  0.710464  0.946719  1
  Si  Si21  1  0.649642  0.287816  0.442832  1
  Si  Si22  1  0.715089  0.348895  0.057471  1
  Si  Si23  1  0.285516  0.649907  0.554390  1
  Si  Si24  1  0.788137  0.848476  0.194481  1
  Si  Si25  1  0.151069  0.211485  0.305414  1
  Si  Si26  1  0.849671  0.791531  0.804872  1
  Si  Si27  1  0.277891  0.913970  0.055130  1
  Si  Si28  1  0.584481  0.777650  0.303385  1
  Si  Si29  1  0.427676  0.227784  0.809125  1
  Si  Si30  1  0.777326  0.586193  0.696965  1
  Si  Si31  1  0.222556  0.414573  0.196322  1
  Si  Si32  1  0.717180  0.083819  0.552440  1
  Si  Si33  1  0.917417  0.276556  0.947253  1
  Si  Si34  1  0.084923  0.720356  0.444757  1
  Hg  Hg35  1  0.204160  0.154271  0.687637  1
