# generated using pymatgen
data_Sc6FeNi
_symmetry_space_group_name_H-M   'P 1'
_cell_length_a   5.93169600
_cell_length_b   6.49848500
_cell_length_c   8.49657800
_cell_angle_alpha   90.00000000
_cell_angle_beta   90.00000000
_cell_angle_gamma   90.00000000
_symmetry_Int_Tables_number   1
_chemical_formula_structural   Sc6FeNi
_chemical_formula_sum   'Sc12 Fe2 Ni2'
_cell_volume   327.51791062
_cell_formula_units_Z   2
loop_
 _symmetry_equiv_pos_site_id
 _symmetry_equiv_pos_as_xyz
  1  'x, y, z'
loop_
 _atom_site_type_symbol
 _atom_site_label
 _atom_site_symmetry_multiplicity
 _atom_site_fract_x
 _atom_site_fract_y
 _atom_site_fract_z
 _atom_site_occupancy
  Sc  Sc0  1  0.319072  0.678964  0.066917  1
  Sc  Sc1  1  0.180928  0.178964  0.433083  1
  Sc  Sc2  1  0.675848  0.319021  0.555610  1
  Sc  Sc3  1  0.824152  0.819021  0.944390  1
  Sc  Sc4  1  0.675848  0.319021  0.944390  1
  Sc  Sc5  1  0.824152  0.819021  0.555610  1
  Sc  Sc6  1  0.319072  0.678964  0.433083  1
  Sc  Sc7  1  0.180928  0.178964  0.066917  1
  Sc  Sc8  1  0.883739  0.539524  0.250000  1
  Sc  Sc9  1  0.616261  0.039524  0.250000  1
  Sc  Sc10  1  0.123263  0.467345  0.750000  1
  Sc  Sc11  1  0.376737  0.967345  0.750000  1
  Fe  Fe12  1  0.027280  0.893661  0.250000  1
  Fe  Fe13  1  0.472720  0.393661  0.250000  1
  Ni  Ni14  1  0.955929  0.103500  0.750000  1
  Ni  Ni15  1  0.544071  0.603500  0.750000  1
