# generated using pymatgen
data_Al4V7Tc5
_symmetry_space_group_name_H-M   'P 1'
_cell_length_a   4.80450692
_cell_length_b   4.78850004
_cell_length_c   9.64143441
_cell_angle_alpha   89.89860756
_cell_angle_beta   89.82327483
_cell_angle_gamma   89.90703504
_symmetry_Int_Tables_number   1
_chemical_formula_structural   Al4V7Tc5
_chemical_formula_sum   'Al4 V7 Tc5'
_cell_volume   221.81282623
_cell_formula_units_Z   1
loop_
 _symmetry_equiv_pos_site_id
 _symmetry_equiv_pos_as_xyz
  1  'x, y, z'
loop_
 _atom_site_type_symbol
 _atom_site_label
 _atom_site_symmetry_multiplicity
 _atom_site_fract_x
 _atom_site_fract_y
 _atom_site_fract_z
 _atom_site_occupancy
  Al  Al0  1  0.500458  0.498411  0.499116  1
  Al  Al1  1  0.494545  0.500413  0.998959  1
  Al  Al2  1  0.002071  0.000282  0.250449  1
  Al  Al3  1  0.001972  0.001025  0.752096  1
  V  V4  1  0.997682  0.751912  0.000096  1
  V  V5  1  0.499676  0.999271  0.376243  1
  V  V6  1  0.498911  0.001937  0.874106  1
  V  V7  1  0.249275  0.499048  0.250489  1
  V  V8  1  0.249142  0.499780  0.750406  1
  V  V9  1  0.002517  0.250062  0.499575  1
  V  V10  1  0.998351  0.249863  0.999809  1
  Tc  Tc11  1  0.499863  0.000613  0.624260  1
  Tc  Tc12  1  0.499967  0.000470  0.124446  1
  Tc  Tc13  1  0.751076  0.498714  0.248458  1
  Tc  Tc14  1  0.752537  0.500704  0.751957  1
  Tc  Tc15  1  0.001958  0.747495  0.499535  1
