# generated using pymatgen
data_BeNb6Al8Cu3
_symmetry_space_group_name_H-M   'P 1'
_cell_length_a   8.71642889
_cell_length_b   8.77884825
_cell_length_c   8.21657400
_cell_angle_alpha   90.00000000
_cell_angle_beta   90.00000000
_cell_angle_gamma   120.97278119
_symmetry_Int_Tables_number   1
_chemical_formula_structural   BeNb6Al8Cu3
_chemical_formula_sum   'Be2 Nb12 Al16 Cu6'
_cell_volume   539.08394695
_cell_formula_units_Z   2
loop_
 _symmetry_equiv_pos_site_id
 _symmetry_equiv_pos_as_xyz
  1  'x, y, z'
loop_
 _atom_site_type_symbol
 _atom_site_label
 _atom_site_symmetry_multiplicity
 _atom_site_fract_x
 _atom_site_fract_y
 _atom_site_fract_z
 _atom_site_occupancy
  Be  Be0  1  0.000000  0.000000  0.500000  1
  Be  Be1  1  0.000000  0.000000  0.000000  1
  Nb  Nb2  1  0.325490  0.992237  0.062530  1
  Nb  Nb3  1  0.674510  0.007763  0.937470  1
  Nb  Nb4  1  0.997925  0.326460  0.065174  1
  Nb  Nb5  1  0.674510  0.007763  0.562530  1
  Nb  Nb6  1  0.997925  0.326460  0.434826  1
  Nb  Nb7  1  0.002075  0.673540  0.934826  1
  Nb  Nb8  1  0.325490  0.992237  0.437470  1
  Nb  Nb9  1  0.002075  0.673540  0.565174  1
  Nb  Nb10  1  0.670294  0.666806  0.062262  1
  Nb  Nb11  1  0.329706  0.333194  0.937738  1
  Nb  Nb12  1  0.329706  0.333194  0.562262  1
  Nb  Nb13  1  0.670294  0.666806  0.437738  1
  Al  Al14  1  0.344966  0.847551  0.750000  1
  Al  Al15  1  0.653521  0.504688  0.750000  1
  Al  Al16  1  0.655034  0.152449  0.250000  1
  Al  Al17  1  0.346479  0.495312  0.250000  1
  Al  Al18  1  0.844605  0.342963  0.750000  1
  Al  Al19  1  0.155395  0.657037  0.250000  1
  Al  Al20  1  0.340196  0.665260  0.505269  1
  Al  Al21  1  0.659804  0.334740  0.494731  1
  Al  Al22  1  0.659804  0.334740  0.005269  1
  Al  Al23  1  0.340196  0.665260  0.994731  1
  Al  Al24  1  0.178509  0.009582  0.750000  1
  Al  Al25  1  0.821491  0.990418  0.250000  1
  Al  Al26  1  0.009201  0.179981  0.750000  1
  Al  Al27  1  0.990799  0.820019  0.250000  1
  Al  Al28  1  0.826203  0.835582  0.750000  1
  Al  Al29  1  0.173797  0.164418  0.250000  1
  Cu  Cu30  1  0.166963  0.502619  0.750000  1
  Cu  Cu31  1  0.833037  0.497381  0.250000  1
  Cu  Cu32  1  0.505055  0.672344  0.750000  1
  Cu  Cu33  1  0.503979  0.170399  0.750000  1
  Cu  Cu34  1  0.494945  0.327656  0.250000  1
  Cu  Cu35  1  0.496021  0.829601  0.250000  1
