# generated using pymatgen
data_YHo3Lu(In2Pt)2
_symmetry_space_group_name_H-M   'P 1'
_cell_length_a   3.60236000
_cell_length_b   8.15091602
_cell_length_c   18.18992513
_cell_angle_alpha   89.99689643
_cell_angle_beta   90.00000000
_cell_angle_gamma   90.00000000
_symmetry_Int_Tables_number   1
_chemical_formula_structural   YHo3Lu(In2Pt)2
_chemical_formula_sum   'Y2 Ho6 Lu2 In8 Pt4'
_cell_volume   534.10229112
_cell_formula_units_Z   2
loop_
 _symmetry_equiv_pos_site_id
 _symmetry_equiv_pos_as_xyz
  1  'x, y, z'
loop_
 _atom_site_type_symbol
 _atom_site_label
 _atom_site_symmetry_multiplicity
 _atom_site_fract_x
 _atom_site_fract_y
 _atom_site_fract_z
 _atom_site_occupancy
  Y  Y0  1  0.000000  0.000000  0.000000  1
  Y  Y1  1  0.000000  0.500000  0.500000  1
  Ho  Ho2  1  0.000000  0.382914  0.914727  1
  Ho  Ho3  1  0.000000  0.617086  0.085273  1
  Ho  Ho4  1  0.000000  0.242897  0.220257  1
  Ho  Ho5  1  0.000000  0.757103  0.779743  1
  Ho  Ho6  1  0.000000  0.256938  0.719918  1
  Ho  Ho7  1  0.000000  0.743062  0.280082  1
  Lu  Lu8  1  0.000000  0.116538  0.413840  1
  Lu  Lu9  1  0.000000  0.883462  0.586160  1
  In  In10  1  0.500000  0.421862  0.351197  1
  In  In11  1  0.500000  0.578138  0.648803  1
  In  In12  1  0.500000  0.076145  0.850566  1
  In  In13  1  0.500000  0.923855  0.149434  1
  In  In14  1  0.500000  0.292418  0.066713  1
  In  In15  1  0.500000  0.707582  0.933287  1
  In  In16  1  0.500000  0.205381  0.565887  1
  In  In17  1  0.500000  0.794619  0.434113  1
  Pt  Pt18  1  0.500000  0.025677  0.304794  1
  Pt  Pt19  1  0.500000  0.974323  0.695206  1
  Pt  Pt20  1  0.500000  0.475174  0.803213  1
  Pt  Pt21  1  0.500000  0.524826  0.196787  1
