# generated using pymatgen
data_LiHf2(PPd)3
_symmetry_space_group_name_H-M   'P 1'
_cell_length_a   6.53811300
_cell_length_b   6.66461554
_cell_length_c   3.69701800
_cell_angle_alpha   90.00000000
_cell_angle_beta   90.00000000
_cell_angle_gamma   119.37407271
_symmetry_Int_Tables_number   1
_chemical_formula_structural   LiHf2(PPd)3
_chemical_formula_sum   'Li1 Hf2 P3 Pd3'
_cell_volume   140.38299969
_cell_formula_units_Z   1
loop_
 _symmetry_equiv_pos_site_id
 _symmetry_equiv_pos_as_xyz
  1  'x, y, z'
loop_
 _atom_site_type_symbol
 _atom_site_label
 _atom_site_symmetry_multiplicity
 _atom_site_fract_x
 _atom_site_fract_y
 _atom_site_fract_z
 _atom_site_occupancy
  Li  Li0  1  0.601015  0.000000  0.000000  1
  Hf  Hf1  1  0.997178  0.594659  0.000000  1
  Hf  Hf2  1  0.402520  0.405341  0.000000  1
  P  P3  1  0.321449  0.654003  0.500000  1
  P  P4  1  0.667447  0.345997  0.500000  1
  P  P5  1  0.009756  0.000000  0.000000  1
  Pd  Pd6  1  0.280629  0.000000  0.500000  1
  Pd  Pd7  1  0.983107  0.246208  0.500000  1
  Pd  Pd8  1  0.736898  0.753792  0.500000  1
