# generated using pymatgen
data_La3Nd3RuBr10
_symmetry_space_group_name_H-M   'P 1'
_cell_length_a   7.77769483
_cell_length_b   9.43385979
_cell_length_c   9.76365559
_cell_angle_alpha   109.28035389
_cell_angle_beta   97.36535742
_cell_angle_gamma   105.89564886
_symmetry_Int_Tables_number   1
_chemical_formula_structural   La3Nd3RuBr10
_chemical_formula_sum   'La3 Nd3 Ru1 Br10'
_cell_volume   631.21688255
_cell_formula_units_Z   1
loop_
 _symmetry_equiv_pos_site_id
 _symmetry_equiv_pos_as_xyz
  1  'x, y, z'
loop_
 _atom_site_type_symbol
 _atom_site_label
 _atom_site_symmetry_multiplicity
 _atom_site_fract_x
 _atom_site_fract_y
 _atom_site_fract_z
 _atom_site_occupancy
  La  La0  1  0.028241  0.712996  0.910060  1
  La  La1  1  0.378010  0.150592  0.196077  1
  La  La2  1  0.970458  0.286070  0.088048  1
  Nd  Nd3  1  0.129528  0.048870  0.748442  1
  Nd  Nd4  1  0.628176  0.854215  0.809599  1
  Nd  Nd5  1  0.867224  0.948159  0.250035  1
  Ru  Ru6  1  0.000268  0.000109  0.000498  1
  Br  Br7  1  0.204071  0.743944  0.648896  1
  Br  Br8  1  0.637095  0.536797  0.723226  1
  Br  Br9  1  0.244658  0.080006  0.453722  1
  Br  Br10  1  0.804173  0.258291  0.354566  1
  Br  Br11  1  0.548728  0.172027  0.916334  1
  Br  Br12  1  0.749469  0.916420  0.547734  1
  Br  Br13  1  0.906782  0.630788  0.171844  1
  Br  Br14  1  0.358381  0.468764  0.275945  1
  Br  Br15  1  0.092476  0.367936  0.826832  1
  Br  Br16  1  0.452264  0.824018  0.078140  1
