# generated using pymatgen
data_KPaPtS3
_symmetry_space_group_name_H-M   'P 1'
_cell_length_a   7.42075643
_cell_length_b   7.42075611
_cell_length_c   10.15033200
_cell_angle_alpha   90.00000000
_cell_angle_beta   90.00000000
_cell_angle_gamma   148.71063141
_symmetry_Int_Tables_number   1
_chemical_formula_structural   KPaPtS3
_chemical_formula_sum   'K2 Pa2 Pt2 S6'
_cell_volume   290.29900396
_cell_formula_units_Z   2
loop_
 _symmetry_equiv_pos_site_id
 _symmetry_equiv_pos_as_xyz
  1  'x, y, z'
loop_
 _atom_site_type_symbol
 _atom_site_label
 _atom_site_symmetry_multiplicity
 _atom_site_fract_x
 _atom_site_fract_y
 _atom_site_fract_z
 _atom_site_occupancy
  K  K0  1  0.747029  0.252972  0.250000  1
  K  K1  1  0.252972  0.747029  0.750000  1
  Pa  Pa2  1  0.000000  0.000000  0.000000  1
  Pa  Pa3  1  0.000000  0.000000  0.500000  1
  Pt  Pt4  1  0.468820  0.531181  0.250000  1
  Pt  Pt5  1  0.531181  0.468820  0.750000  1
  S  S6  1  0.375500  0.624501  0.051644  1
  S  S7  1  0.066870  0.933132  0.250000  1
  S  S8  1  0.375500  0.624501  0.448355  1
  S  S9  1  0.624501  0.375500  0.551645  1
  S  S10  1  0.933132  0.066870  0.750000  1
  S  S11  1  0.624501  0.375500  0.948356  1
