# generated using pymatgen
data_Ho4FeRe4Os3
_symmetry_space_group_name_H-M   'P 1'
_cell_length_a   5.27551346
_cell_length_b   5.25616560
_cell_length_c   8.94649800
_cell_angle_alpha   90.00000000
_cell_angle_beta   90.00000000
_cell_angle_gamma   61.16540459
_symmetry_Int_Tables_number   1
_chemical_formula_structural   Ho4FeRe4Os3
_chemical_formula_sum   'Ho4 Fe1 Re4 Os3'
_cell_volume   217.31950247
_cell_formula_units_Z   1
loop_
 _symmetry_equiv_pos_site_id
 _symmetry_equiv_pos_as_xyz
  1  'x, y, z'
loop_
 _atom_site_type_symbol
 _atom_site_label
 _atom_site_symmetry_multiplicity
 _atom_site_fract_x
 _atom_site_fract_y
 _atom_site_fract_z
 _atom_site_occupancy
  Ho  Ho0  1  0.331460  0.332611  0.564317  1
  Ho  Ho1  1  0.664842  0.667288  0.440640  1
  Ho  Ho2  1  0.664842  0.667288  0.059360  1
  Ho  Ho3  1  0.331460  0.332611  0.935683  1
  Fe  Fe4  1  0.340485  0.835515  0.750000  1
  Re  Re5  1  0.837339  0.831478  0.750000  1
  Re  Re6  1  0.169189  0.659652  0.250000  1
  Re  Re7  1  0.661706  0.169218  0.250000  1
  Re  Re8  1  0.169618  0.169782  0.250000  1
  Os  Os9  1  0.998022  0.992079  0.505181  1
  Os  Os10  1  0.998022  0.992079  0.994819  1
  Os  Os11  1  0.833015  0.350400  0.750000  1
