# generated using pymatgen
data_TiCo4Si4Mo3
_symmetry_space_group_name_H-M   'P 1'
_cell_length_a   3.60848500
_cell_length_b   6.08782833
_cell_length_c   6.94570785
_cell_angle_alpha   90.38404585
_cell_angle_beta   90.00000000
_cell_angle_gamma   90.00000000
_symmetry_Int_Tables_number   1
_chemical_formula_structural   TiCo4Si4Mo3
_chemical_formula_sum   'Ti1 Co4 Si4 Mo3'
_cell_volume   152.57875169
_cell_formula_units_Z   1
loop_
 _symmetry_equiv_pos_site_id
 _symmetry_equiv_pos_as_xyz
  1  'x, y, z'
loop_
 _atom_site_type_symbol
 _atom_site_label
 _atom_site_symmetry_multiplicity
 _atom_site_fract_x
 _atom_site_fract_y
 _atom_site_fract_z
 _atom_site_occupancy
  Ti  Ti0  1  0.750000  0.977185  0.178862  1
  Co  Co1  1  0.250000  0.646842  0.060703  1
  Co  Co2  1  0.750000  0.358240  0.940241  1
  Co  Co3  1  0.250000  0.140114  0.437206  1
  Co  Co4  1  0.750000  0.854210  0.558501  1
  Si  Si5  1  0.750000  0.728305  0.876909  1
  Si  Si6  1  0.250000  0.768911  0.378088  1
  Si  Si7  1  0.750000  0.226311  0.622402  1
  Si  Si8  1  0.250000  0.274807  0.120986  1
  Mo  Mo9  1  0.250000  0.025601  0.824353  1
  Mo  Mo10  1  0.750000  0.474161  0.326718  1
  Mo  Mo11  1  0.250000  0.525313  0.675029  1
