# generated using pymatgen
data_La10Nd6Cd4IrPd3
_symmetry_space_group_name_H-M   'P 1'
_cell_length_a   10.16442922
_cell_length_b   10.14018553
_cell_length_c   10.14018600
_cell_angle_alpha   59.99999846
_cell_angle_beta   60.07886728
_cell_angle_gamma   60.07887369
_symmetry_Int_Tables_number   1
_chemical_formula_structural   La10Nd6Cd4IrPd3
_chemical_formula_sum   'La10 Nd6 Cd4 Ir1 Pd3'
_cell_volume   739.90595411
_cell_formula_units_Z   1
loop_
 _symmetry_equiv_pos_site_id
 _symmetry_equiv_pos_as_xyz
  1  'x, y, z'
loop_
 _atom_site_type_symbol
 _atom_site_label
 _atom_site_symmetry_multiplicity
 _atom_site_fract_x
 _atom_site_fract_y
 _atom_site_fract_z
 _atom_site_occupancy
  La  La0  1  0.351282  0.345956  0.345956  1
  La  La1  1  0.351282  0.345956  0.956807  1
  La  La2  1  0.351282  0.956807  0.345956  1
  La  La3  1  0.942322  0.352559  0.352559  1
  La  La4  1  0.804175  0.191624  0.191624  1
  La  La5  1  0.199250  0.804003  0.804003  1
  La  La6  1  0.199250  0.804003  0.192744  1
  La  La7  1  0.804175  0.191624  0.812577  1
  La  La8  1  0.199250  0.192744  0.804003  1
  La  La9  1  0.804175  0.812577  0.191624  1
  Nd  Nd10  1  0.934940  0.567531  0.567531  1
  Nd  Nd11  1  0.570751  0.933474  0.933474  1
  Nd  Nd12  1  0.570751  0.933474  0.562301  1
  Nd  Nd13  1  0.934940  0.567531  0.929997  1
  Nd  Nd14  1  0.570751  0.562301  0.933474  1
  Nd  Nd15  1  0.934940  0.929997  0.567531  1
  Cd  Cd16  1  0.577669  0.581810  0.581810  1
  Cd  Cd17  1  0.577669  0.581810  0.258709  1
  Cd  Cd18  1  0.577669  0.258709  0.581810  1
  Cd  Cd19  1  0.260668  0.579777  0.579777  1
  Ir  Ir20  1  0.573971  0.142010  0.142010  1
  Pd  Pd21  1  0.136277  0.144674  0.144674  1
  Pd  Pd22  1  0.136277  0.144674  0.574374  1
  Pd  Pd23  1  0.136277  0.574374  0.144674  1
