# generated using pymatgen
data_Dy4Ho(SiHg)2
_symmetry_space_group_name_H-M   'P 1'
_cell_length_a   8.77862810
_cell_length_b   8.77862918
_cell_length_c   7.55971400
_cell_angle_alpha   90.00000000
_cell_angle_beta   90.00000000
_cell_angle_gamma   129.19001642
_symmetry_Int_Tables_number   1
_chemical_formula_structural   Dy4Ho(SiHg)2
_chemical_formula_sum   'Dy8 Ho2 Si4 Hg4'
_cell_volume   451.53458665
_cell_formula_units_Z   2
loop_
 _symmetry_equiv_pos_site_id
 _symmetry_equiv_pos_as_xyz
  1  'x, y, z'
loop_
 _atom_site_type_symbol
 _atom_site_label
 _atom_site_symmetry_multiplicity
 _atom_site_fract_x
 _atom_site_fract_y
 _atom_site_fract_z
 _atom_site_occupancy
  Dy  Dy0  1  0.053555  0.308286  0.324498  1
  Dy  Dy1  1  0.946445  0.691714  0.675502  1
  Dy  Dy2  1  0.446445  0.191714  0.824498  1
  Dy  Dy3  1  0.808286  0.553555  0.175502  1
  Dy  Dy4  1  0.553555  0.808286  0.175502  1
  Dy  Dy5  1  0.191714  0.446445  0.824498  1
  Dy  Dy6  1  0.691714  0.946445  0.675502  1
  Dy  Dy7  1  0.308286  0.053555  0.324498  1
  Ho  Ho8  1  0.000000  0.000000  0.000000  1
  Ho  Ho9  1  0.500000  0.500000  0.500000  1
  Si  Si10  1  0.380018  0.380018  0.122119  1
  Si  Si11  1  0.619982  0.619982  0.877881  1
  Si  Si12  1  0.119982  0.119982  0.622119  1
  Si  Si13  1  0.880018  0.880018  0.377881  1
  Hg  Hg14  1  0.782717  0.217283  0.000000  1
  Hg  Hg15  1  0.217283  0.782717  0.000000  1
  Hg  Hg16  1  0.717283  0.282717  0.500000  1
  Hg  Hg17  1  0.282717  0.717283  0.500000  1
