# generated using pymatgen
data_Tb8Ho2Tl3In5Pt4
_symmetry_space_group_name_H-M   'P 1'
_cell_length_a   3.65426300
_cell_length_b   8.20836288
_cell_length_c   18.37303003
_cell_angle_alpha   89.78180144
_cell_angle_beta   90.00000000
_cell_angle_gamma   90.00000000
_symmetry_Int_Tables_number   1
_chemical_formula_structural   Tb8Ho2Tl3In5Pt4
_chemical_formula_sum   'Tb8 Ho2 Tl3 In5 Pt4'
_cell_volume   551.10453369
_cell_formula_units_Z   1
loop_
 _symmetry_equiv_pos_site_id
 _symmetry_equiv_pos_as_xyz
  1  'x, y, z'
loop_
 _atom_site_type_symbol
 _atom_site_label
 _atom_site_symmetry_multiplicity
 _atom_site_fract_x
 _atom_site_fract_y
 _atom_site_fract_z
 _atom_site_occupancy
  Tb  Tb0  1  0.000000  0.497012  0.500380  1
  Tb  Tb1  1  0.000000  0.000140  0.999938  1
  Tb  Tb2  1  0.000000  0.742497  0.282823  1
  Tb  Tb3  1  0.000000  0.258538  0.717409  1
  Tb  Tb4  1  0.000000  0.757629  0.779755  1
  Tb  Tb5  1  0.000000  0.242460  0.219477  1
  Tb  Tb6  1  0.000000  0.615477  0.087313  1
  Tb  Tb7  1  0.000000  0.385061  0.912654  1
  Ho  Ho8  1  0.000000  0.885043  0.586720  1
  Ho  Ho9  1  0.000000  0.114762  0.414087  1
  Tl  Tl10  1  0.500000  0.709820  0.934050  1
  Tl  Tl11  1  0.500000  0.290937  0.065540  1
  Tl  Tl12  1  0.500000  0.792680  0.436306  1
  In  In13  1  0.500000  0.205190  0.565372  1
  In  In14  1  0.500000  0.580146  0.648310  1
  In  In15  1  0.500000  0.415992  0.351048  1
  In  In16  1  0.500000  0.918753  0.150808  1
  In  In17  1  0.500000  0.080829  0.849046  1
  Pt  Pt18  1  0.500000  0.530458  0.199552  1
  Pt  Pt19  1  0.500000  0.471791  0.800748  1
  Pt  Pt20  1  0.500000  0.975058  0.695672  1
  Pt  Pt21  1  0.500000  0.029727  0.302991  1
