# generated using pymatgen
data_Th5ZnBi3
_symmetry_space_group_name_H-M   'P 1'
_cell_length_a   9.69408900
_cell_length_b   9.69408932
_cell_length_c   6.55803000
_cell_angle_alpha   90.00000000
_cell_angle_beta   90.00000000
_cell_angle_gamma   119.99999549
_symmetry_Int_Tables_number   1
_chemical_formula_structural   Th5ZnBi3
_chemical_formula_sum   'Th10 Zn2 Bi6'
_cell_volume   533.72564415
_cell_formula_units_Z   2
loop_
 _symmetry_equiv_pos_site_id
 _symmetry_equiv_pos_as_xyz
  1  'x, y, z'
loop_
 _atom_site_type_symbol
 _atom_site_label
 _atom_site_symmetry_multiplicity
 _atom_site_fract_x
 _atom_site_fract_y
 _atom_site_fract_z
 _atom_site_occupancy
  Th  Th0  1  0.666667  0.333333  0.500000  1
  Th  Th1  1  0.333333  0.666667  0.500000  1
  Th  Th2  1  0.333333  0.666667  0.000000  1
  Th  Th3  1  0.666667  0.333333  0.000000  1
  Th  Th4  1  0.735433  0.735433  0.250000  1
  Th  Th5  1  0.264567  0.000000  0.250000  1
  Th  Th6  1  0.000000  0.264567  0.250000  1
  Th  Th7  1  0.264567  0.264567  0.750000  1
  Th  Th8  1  0.735433  0.000000  0.750000  1
  Th  Th9  1  0.000000  0.735433  0.750000  1
  Zn  Zn10  1  0.000000  0.000000  0.500000  1
  Zn  Zn11  1  0.000000  0.000000  0.000000  1
  Bi  Bi12  1  0.384177  0.384177  0.250000  1
  Bi  Bi13  1  0.615823  0.000000  0.250000  1
  Bi  Bi14  1  0.000000  0.615823  0.250000  1
  Bi  Bi15  1  0.615823  0.615823  0.750000  1
  Bi  Bi16  1  0.384177  0.000000  0.750000  1
  Bi  Bi17  1  0.000000  0.384177  0.750000  1
