# generated using pymatgen
data_Pa4FeB14
_symmetry_space_group_name_H-M   'P 1'
_cell_length_a   7.20911300
_cell_length_b   7.20911300
_cell_length_c   7.63543400
_cell_angle_alpha   90.00000000
_cell_angle_beta   90.00000000
_cell_angle_gamma   90.00000000
_symmetry_Int_Tables_number   1
_chemical_formula_structural   Pa4FeB14
_chemical_formula_sum   'Pa8 Fe2 B28'
_cell_volume   396.82350928
_cell_formula_units_Z   2
loop_
 _symmetry_equiv_pos_site_id
 _symmetry_equiv_pos_as_xyz
  1  'x, y, z'
loop_
 _atom_site_type_symbol
 _atom_site_label
 _atom_site_symmetry_multiplicity
 _atom_site_fract_x
 _atom_site_fract_y
 _atom_site_fract_z
 _atom_site_occupancy
  Pa  Pa0  1  0.191685  0.326185  0.000000  1
  Pa  Pa1  1  0.673815  0.191685  0.000000  1
  Pa  Pa2  1  0.326185  0.808315  0.000000  1
  Pa  Pa3  1  0.691685  0.173815  0.500000  1
  Pa  Pa4  1  0.308315  0.826185  0.500000  1
  Pa  Pa5  1  0.808315  0.673815  0.000000  1
  Pa  Pa6  1  0.826185  0.691685  0.500000  1
  Pa  Pa7  1  0.173815  0.308315  0.500000  1
  Fe  Fe8  1  0.000000  0.000000  0.000000  1
  Fe  Fe9  1  0.500000  0.500000  0.500000  1
  B  B10  1  0.174403  0.039644  0.232386  1
  B  B11  1  0.960356  0.174403  0.232386  1
  B  B12  1  0.039644  0.825597  0.232386  1
  B  B13  1  0.674403  0.460356  0.267614  1
  B  B14  1  0.325597  0.539644  0.267614  1
  B  B15  1  0.825597  0.960356  0.232386  1
  B  B16  1  0.539644  0.674403  0.267614  1
  B  B17  1  0.460356  0.325597  0.267614  1
  B  B18  1  0.825597  0.960356  0.767614  1
  B  B19  1  0.039644  0.825597  0.767614  1
  B  B20  1  0.960356  0.174403  0.767614  1
  B  B21  1  0.325597  0.539644  0.732386  1
  B  B22  1  0.674403  0.460356  0.732386  1
  B  B23  1  0.174403  0.039644  0.767614  1
  B  B24  1  0.460356  0.325597  0.732386  1
  B  B25  1  0.539644  0.674403  0.732386  1
  B  B26  1  0.089904  0.589904  0.250000  1
  B  B27  1  0.410096  0.089904  0.250000  1
  B  B28  1  0.589904  0.910096  0.250000  1
  B  B29  1  0.910096  0.410096  0.250000  1
  B  B30  1  0.910096  0.410096  0.750000  1
  B  B31  1  0.589904  0.910096  0.750000  1
  B  B32  1  0.410096  0.089904  0.750000  1
  B  B33  1  0.089904  0.589904  0.750000  1
  B  B34  1  0.000000  0.000000  0.392538  1
  B  B35  1  0.500000  0.500000  0.107462  1
  B  B36  1  0.000000  0.000000  0.607462  1
  B  B37  1  0.500000  0.500000  0.892538  1
