# generated using pymatgen
data_ScTi4(Re3Tc)6
_symmetry_space_group_name_H-M   'P 1'
_cell_length_a   8.37805378
_cell_length_b   8.37805260
_cell_length_c   8.36037262
_cell_angle_alpha   109.46481131
_cell_angle_beta   109.46481156
_cell_angle_gamma   109.56954108
_symmetry_Int_Tables_number   1
_chemical_formula_structural   ScTi4(Re3Tc)6
_chemical_formula_sum   'Sc1 Ti4 Re18 Tc6'
_cell_volume   451.26379151
_cell_formula_units_Z   1
loop_
 _symmetry_equiv_pos_site_id
 _symmetry_equiv_pos_as_xyz
  1  'x, y, z'
loop_
 _atom_site_type_symbol
 _atom_site_label
 _atom_site_symmetry_multiplicity
 _atom_site_fract_x
 _atom_site_fract_y
 _atom_site_fract_z
 _atom_site_occupancy
  Sc  Sc0  1  0.999378  0.999378  0.000000  1
  Ti  Ti1  1  0.630043  0.999589  0.000000  1
  Ti  Ti2  1  0.999589  0.630043  0.000000  1
  Ti  Ti3  1  0.999639  0.999639  0.630870  1
  Ti  Ti4  1  0.368770  0.368770  0.369130  1
  Re  Re5  1  0.319748  0.319748  0.720537  1
  Re  Re6  1  0.001010  0.680737  0.399874  1
  Re  Re7  1  0.680737  0.001010  0.399874  1
  Re  Re8  1  0.599209  0.599209  0.279463  1
  Re  Re9  1  0.280863  0.601135  0.600126  1
  Re  Re10  1  0.601135  0.280863  0.600126  1
  Re  Re11  1  0.376166  0.194197  0.000000  1
  Re  Re12  1  0.181123  0.806446  0.805719  1
  Re  Re13  1  0.375404  0.000727  0.194281  1
  Re  Re14  1  0.194197  0.376166  0.000000  1
  Re  Re15  1  0.000727  0.375404  0.194281  1
  Re  Re16  1  0.806446  0.181123  0.805719  1
  Re  Re17  1  0.807004  0.807004  0.183127  1
  Re  Re18  1  0.000889  0.193822  0.377988  1
  Re  Re19  1  0.193822  0.000889  0.377988  1
  Re  Re20  1  0.623876  0.623876  0.816873  1
  Re  Re21  1  0.815834  0.622901  0.622012  1
  Re  Re22  1  0.622901  0.815834  0.622012  1
  Tc  Tc23  1  0.399938  0.682125  0.000000  1
  Tc  Tc24  1  0.718768  0.317969  0.317023  1
  Tc  Tc25  1  0.401745  0.000946  0.682977  1
  Tc  Tc26  1  0.682125  0.399938  0.000000  1
  Tc  Tc27  1  0.000946  0.401745  0.682977  1
  Tc  Tc28  1  0.317969  0.718768  0.317023  1
