# generated using pymatgen
data_EuDy6NiI12
_symmetry_space_group_name_H-M   'P 1'
_cell_length_a   9.77069064
_cell_length_b   9.77068957
_cell_length_c   9.77069026
_cell_angle_alpha   106.54765658
_cell_angle_beta   106.54764372
_cell_angle_gamma   106.54765017
_symmetry_Int_Tables_number   1
_chemical_formula_structural   EuDy6NiI12
_chemical_formula_sum   'Eu1 Dy6 Ni1 I12'
_cell_volume   786.21059847
_cell_formula_units_Z   1
loop_
 _symmetry_equiv_pos_site_id
 _symmetry_equiv_pos_as_xyz
  1  'x, y, z'
loop_
 _atom_site_type_symbol
 _atom_site_label
 _atom_site_symmetry_multiplicity
 _atom_site_fract_x
 _atom_site_fract_y
 _atom_site_fract_z
 _atom_site_occupancy
  Eu  Eu0  1  0.500000  0.500000  0.500000  1
  Dy  Dy1  1  0.906100  0.976575  0.708024  1
  Dy  Dy2  1  0.708024  0.906100  0.976575  1
  Dy  Dy3  1  0.976575  0.708024  0.906100  1
  Dy  Dy4  1  0.093900  0.023425  0.291976  1
  Dy  Dy5  1  0.291976  0.093900  0.023425  1
  Dy  Dy6  1  0.023425  0.291976  0.093900  1
  Ni  Ni7  1  0.000000  0.000000  0.000000  1
  I  I8  1  0.926112  0.321447  0.776732  1
  I  I9  1  0.776732  0.926112  0.321447  1
  I  I10  1  0.321447  0.776732  0.926112  1
  I  I11  1  0.073888  0.678553  0.223268  1
  I  I12  1  0.223268  0.073888  0.678553  1
  I  I13  1  0.678553  0.223268  0.073888  1
  I  I14  1  0.546725  0.859025  0.625776  1
  I  I15  1  0.625776  0.546725  0.859025  1
  I  I16  1  0.859025  0.625776  0.546725  1
  I  I17  1  0.453275  0.140975  0.374224  1
  I  I18  1  0.374224  0.453275  0.140975  1
  I  I19  1  0.140975  0.374224  0.453275  1
