# generated using pymatgen
data_Ta3Al2IrC
_symmetry_space_group_name_H-M   'P 1'
_cell_length_a   8.31610458
_cell_length_b   8.31610458
_cell_length_c   8.31610400
_cell_angle_alpha   60.00000232
_cell_angle_beta   60.00000233
_cell_angle_gamma   59.99999925
_symmetry_Int_Tables_number   1
_chemical_formula_structural   Ta3Al2IrC
_chemical_formula_sum   'Ta12 Al8 Ir4 C4'
_cell_volume   406.67250581
_cell_formula_units_Z   4
loop_
 _symmetry_equiv_pos_site_id
 _symmetry_equiv_pos_as_xyz
  1  'x, y, z'
loop_
 _atom_site_type_symbol
 _atom_site_label
 _atom_site_symmetry_multiplicity
 _atom_site_fract_x
 _atom_site_fract_y
 _atom_site_fract_z
 _atom_site_occupancy
  Ta  Ta0  1  0.563706  0.936294  0.563706  1
  Ta  Ta1  1  0.313706  0.686294  0.686294  1
  Ta  Ta2  1  0.686294  0.313706  0.313706  1
  Ta  Ta3  1  0.313706  0.686294  0.313706  1
  Ta  Ta4  1  0.686294  0.686294  0.313706  1
  Ta  Ta5  1  0.313706  0.313706  0.686294  1
  Ta  Ta6  1  0.563706  0.563706  0.936294  1
  Ta  Ta7  1  0.936294  0.563706  0.563706  1
  Ta  Ta8  1  0.563706  0.936294  0.936294  1
  Ta  Ta9  1  0.936294  0.936294  0.563706  1
  Ta  Ta10  1  0.686294  0.313706  0.686294  1
  Ta  Ta11  1  0.936294  0.563706  0.936294  1
  Al  Al12  1  0.916514  0.916514  0.916514  1
  Al  Al13  1  0.999540  0.333486  0.333486  1
  Al  Al14  1  0.333486  0.999540  0.333486  1
  Al  Al15  1  0.333486  0.333486  0.999540  1
  Al  Al16  1  0.916514  0.250460  0.916514  1
  Al  Al17  1  0.916514  0.916514  0.250460  1
  Al  Al18  1  0.250460  0.916514  0.916514  1
  Al  Al19  1  0.333486  0.333486  0.333486  1
  Ir  Ir20  1  0.125000  0.125000  0.125000  1
  Ir  Ir21  1  0.625000  0.125000  0.125000  1
  Ir  Ir22  1  0.125000  0.625000  0.125000  1
  Ir  Ir23  1  0.125000  0.125000  0.625000  1
  C  C24  1  0.625000  0.625000  0.625000  1
  C  C25  1  0.125000  0.625000  0.625000  1
  C  C26  1  0.625000  0.125000  0.625000  1
  C  C27  1  0.625000  0.625000  0.125000  1
