# generated using pymatgen
data_Ba6DyHo(NiO6)2
_symmetry_space_group_name_H-M   'P 1'
_cell_length_a   7.14320102
_cell_length_b   7.14320122
_cell_length_c   7.14320122
_cell_angle_alpha   93.57889963
_cell_angle_beta   93.57891212
_cell_angle_gamma   93.57887609
_symmetry_Int_Tables_number   1
_chemical_formula_structural   Ba6DyHo(NiO6)2
_chemical_formula_sum   'Ba6 Dy1 Ho1 Ni2 O12'
_cell_volume   362.25830753
_cell_formula_units_Z   1
loop_
 _symmetry_equiv_pos_site_id
 _symmetry_equiv_pos_as_xyz
  1  'x, y, z'
loop_
 _atom_site_type_symbol
 _atom_site_label
 _atom_site_symmetry_multiplicity
 _atom_site_fract_x
 _atom_site_fract_y
 _atom_site_fract_z
 _atom_site_occupancy
  Ba  Ba0  1  0.380634  0.119365  0.750000  1
  Ba  Ba1  1  0.750000  0.380635  0.119366  1
  Ba  Ba2  1  0.249999  0.619520  0.880481  1
  Ba  Ba3  1  0.619519  0.880480  0.250001  1
  Ba  Ba4  1  0.119366  0.750000  0.380635  1
  Ba  Ba5  1  0.880480  0.250000  0.619520  1
  Dy  Dy6  1  0.250001  0.250000  0.250000  1
  Ho  Ho7  1  0.750000  0.750001  0.750000  1
  Ni  Ni8  1  0.500005  0.500005  0.500005  1
  Ni  Ni9  1  0.999995  0.999995  0.999995  1
  O  O10  1  0.782588  0.593629  0.466888  1
  O  O11  1  0.593630  0.466887  0.782588  1
  O  O12  1  0.466887  0.782588  0.593630  1
  O  O13  1  0.033112  0.906371  0.717413  1
  O  O14  1  0.906370  0.717412  0.033112  1
  O  O15  1  0.717413  0.033112  0.906370  1
  O  O16  1  0.217438  0.407028  0.534185  1
  O  O17  1  0.407028  0.534184  0.217438  1
  O  O18  1  0.534184  0.217438  0.407027  1
  O  O19  1  0.965816  0.092972  0.282563  1
  O  O20  1  0.282563  0.965815  0.092971  1
  O  O21  1  0.092971  0.282562  0.965815  1
