# generated using pymatgen
data_CePr7(Si3Pd)4
_symmetry_space_group_name_H-M   'P 1'
_cell_length_a   8.37779000
_cell_length_b   8.37778953
_cell_length_c   8.40586500
_cell_angle_alpha   90.00000000
_cell_angle_beta   90.00000000
_cell_angle_gamma   119.99999397
_symmetry_Int_Tables_number   1
_chemical_formula_structural   CePr7(Si3Pd)4
_chemical_formula_sum   'Ce1 Pr7 Si12 Pd4'
_cell_volume   510.94244812
_cell_formula_units_Z   1
loop_
 _symmetry_equiv_pos_site_id
 _symmetry_equiv_pos_as_xyz
  1  'x, y, z'
loop_
 _atom_site_type_symbol
 _atom_site_label
 _atom_site_symmetry_multiplicity
 _atom_site_fract_x
 _atom_site_fract_y
 _atom_site_fract_z
 _atom_site_occupancy
  Ce  Ce0  1  0.000000  0.000000  0.250000  1
  Pr  Pr1  1  0.499766  0.500234  0.750000  1
  Pr  Pr2  1  0.500231  0.499769  0.250000  1
  Pr  Pr3  1  0.000469  0.500234  0.750000  1
  Pr  Pr4  1  0.999538  0.499769  0.250000  1
  Pr  Pr5  1  0.499766  0.999531  0.750000  1
  Pr  Pr6  1  0.500231  0.000462  0.250000  1
  Pr  Pr7  1  0.000000  0.000000  0.750000  1
  Si  Si8  1  0.835143  0.164857  0.002038  1
  Si  Si9  1  0.164842  0.835158  0.002516  1
  Si  Si10  1  0.329716  0.164857  0.002038  1
  Si  Si11  1  0.164842  0.835158  0.497484  1
  Si  Si12  1  0.670316  0.835158  0.002516  1
  Si  Si13  1  0.835143  0.164857  0.497962  1
  Si  Si14  1  0.835143  0.670284  0.002038  1
  Si  Si15  1  0.670316  0.835158  0.497484  1
  Si  Si16  1  0.164842  0.329684  0.002516  1
  Si  Si17  1  0.329716  0.164857  0.497962  1
  Si  Si18  1  0.164842  0.329684  0.497484  1
  Si  Si19  1  0.835143  0.670284  0.497962  1
  Pd  Pd20  1  0.666667  0.333333  0.998304  1
  Pd  Pd21  1  0.333333  0.666667  0.999981  1
  Pd  Pd22  1  0.333333  0.666667  0.500019  1
  Pd  Pd23  1  0.666667  0.333333  0.501696  1
