# generated using pymatgen
data_Yb2ZnCuIr2
_symmetry_space_group_name_H-M   'P 1'
_cell_length_a   5.12316739
_cell_length_b   5.30148660
_cell_length_c   5.30148666
_cell_angle_alpha   62.46286175
_cell_angle_beta   60.08041488
_cell_angle_gamma   60.08040527
_symmetry_Int_Tables_number   1
_chemical_formula_structural   Yb2ZnCuIr2
_chemical_formula_sum   'Yb2 Zn1 Cu1 Ir2'
_cell_volume   103.70563083
_cell_formula_units_Z   1
loop_
 _symmetry_equiv_pos_site_id
 _symmetry_equiv_pos_as_xyz
  1  'x, y, z'
loop_
 _atom_site_type_symbol
 _atom_site_label
 _atom_site_symmetry_multiplicity
 _atom_site_fract_x
 _atom_site_fract_y
 _atom_site_fract_z
 _atom_site_occupancy
  Yb  Yb0  1  0.129422  0.119675  0.119675  1
  Yb  Yb1  1  0.870578  0.880325  0.880325  1
  Zn  Zn2  1  0.000000  0.500000  0.500000  1
  Cu  Cu3  1  0.500000  0.500000  0.500000  1
  Ir  Ir4  1  0.500000  0.000000  0.500000  1
  Ir  Ir5  1  0.500000  0.500000  0.000000  1
