# generated using pymatgen
data_Tb5Y(TcB7)2
_symmetry_space_group_name_H-M   'P 1'
_cell_length_a   8.13844490
_cell_length_b   8.13844476
_cell_length_c   9.37168200
_cell_angle_alpha   90.00000000
_cell_angle_beta   90.00000000
_cell_angle_gamma   154.79407260
_symmetry_Int_Tables_number   1
_chemical_formula_structural   Tb5Y(TcB7)2
_chemical_formula_sum   'Tb5 Y1 Tc2 B14'
_cell_volume   264.35065591
_cell_formula_units_Z   1
loop_
 _symmetry_equiv_pos_site_id
 _symmetry_equiv_pos_as_xyz
  1  'x, y, z'
loop_
 _atom_site_type_symbol
 _atom_site_label
 _atom_site_symmetry_multiplicity
 _atom_site_fract_x
 _atom_site_fract_y
 _atom_site_fract_z
 _atom_site_occupancy
  Tb  Tb0  1  0.895176  0.104824  0.439170  1
  Tb  Tb1  1  0.104787  0.895213  0.561224  1
  Tb  Tb2  1  0.895176  0.104824  0.060830  1
  Tb  Tb3  1  0.104787  0.895213  0.938776  1
  Tb  Tb4  1  0.241141  0.758859  0.250000  1
  Y  Y5  1  0.759065  0.240935  0.750000  1
  Tc  Tc6  1  0.053199  0.946801  0.250000  1
  Tc  Tc7  1  0.946771  0.053229  0.750000  1
  B  B8  1  0.726937  0.273063  0.467531  1
  B  B9  1  0.273006  0.726994  0.533402  1
  B  B10  1  0.726937  0.273063  0.032469  1
  B  B11  1  0.273006  0.726994  0.966598  1
  B  B12  1  0.631627  0.368373  0.150864  1
  B  B13  1  0.368462  0.631538  0.849014  1
  B  B14  1  0.631627  0.368373  0.349136  1
  B  B15  1  0.368462  0.631538  0.650986  1
  B  B16  1  0.521414  0.478586  0.095781  1
  B  B17  1  0.478564  0.521436  0.904288  1
  B  B18  1  0.521414  0.478586  0.404219  1
  B  B19  1  0.478564  0.521436  0.595712  1
  B  B20  1  0.459402  0.540598  0.250000  1
  B  B21  1  0.540474  0.459526  0.750000  1
