# generated using pymatgen
data_Dy3AlSi2Au3
_symmetry_space_group_name_H-M   'P 1'
_cell_length_a   7.06922400
_cell_length_b   7.06922387
_cell_length_c   4.17342900
_cell_angle_alpha   90.00000000
_cell_angle_beta   90.00000000
_cell_angle_gamma   119.99999123
_symmetry_Int_Tables_number   1
_chemical_formula_structural   Dy3AlSi2Au3
_chemical_formula_sum   'Dy3 Al1 Si2 Au3'
_cell_volume   180.62055741
_cell_formula_units_Z   1
loop_
 _symmetry_equiv_pos_site_id
 _symmetry_equiv_pos_as_xyz
  1  'x, y, z'
loop_
 _atom_site_type_symbol
 _atom_site_label
 _atom_site_symmetry_multiplicity
 _atom_site_fract_x
 _atom_site_fract_y
 _atom_site_fract_z
 _atom_site_occupancy
  Dy  Dy0  1  0.000000  0.573602  0.000000  1
  Dy  Dy1  1  0.573602  0.000000  0.000000  1
  Dy  Dy2  1  0.426398  0.426398  0.000000  1
  Al  Al3  1  0.000000  0.000000  0.000000  1
  Si  Si4  1  0.666667  0.333333  0.500000  1
  Si  Si5  1  0.333333  0.666667  0.500000  1
  Au  Au6  1  0.744091  0.744091  0.500000  1
  Au  Au7  1  0.255909  0.000000  0.500000  1
  Au  Au8  1  0.000000  0.255909  0.500000  1
