# generated using pymatgen
data_NaHf2MgF11
_symmetry_space_group_name_H-M   'P 1'
_cell_length_a   5.66906570
_cell_length_b   5.66906539
_cell_length_c   7.75026100
_cell_angle_alpha   69.48406302
_cell_angle_beta   69.48406633
_cell_angle_gamma   73.10152794
_symmetry_Int_Tables_number   1
_chemical_formula_structural   NaHf2MgF11
_chemical_formula_sum   'Na1 Hf2 Mg1 F11'
_cell_volume   214.44896605
_cell_formula_units_Z   1
loop_
 _symmetry_equiv_pos_site_id
 _symmetry_equiv_pos_as_xyz
  1  'x, y, z'
loop_
 _atom_site_type_symbol
 _atom_site_label
 _atom_site_symmetry_multiplicity
 _atom_site_fract_x
 _atom_site_fract_y
 _atom_site_fract_z
 _atom_site_occupancy
  Na  Na0  1  0.008474  0.008474  0.993160  1
  Hf  Hf1  1  0.501451  0.501451  0.233439  1
  Hf  Hf2  1  0.517385  0.517385  0.757952  1
  Mg  Mg3  1  0.008780  0.008780  0.497281  1
  F  F4  1  0.785247  0.198683  0.311953  1
  F  F5  1  0.198683  0.785247  0.311953  1
  F  F6  1  0.231336  0.818279  0.681816  1
  F  F7  1  0.818279  0.231336  0.681816  1
  F  F8  1  0.739222  0.739222  0.096965  1
  F  F9  1  0.279192  0.279192  0.870081  1
  F  F10  1  0.763466  0.763466  0.647188  1
  F  F11  1  0.254825  0.254825  0.352628  1
  F  F12  1  0.673630  0.333536  0.998268  1
  F  F13  1  0.333536  0.673630  0.998268  1
  F  F14  1  0.526396  0.526396  0.486131  1
