# generated using pymatgen
data_Nd8Zn8Ir6PdRh
_symmetry_space_group_name_H-M   'P 1'
_cell_length_a   4.03341400
_cell_length_b   7.35295289
_cell_length_c   16.67850300
_cell_angle_alpha   90.02854556
_cell_angle_beta   90.00000000
_cell_angle_gamma   90.00000000
_symmetry_Int_Tables_number   1
_chemical_formula_structural   Nd8Zn8Ir6PdRh
_chemical_formula_sum   'Nd8 Zn8 Ir6 Pd1 Rh1'
_cell_volume   494.64269326
_cell_formula_units_Z   1
loop_
 _symmetry_equiv_pos_site_id
 _symmetry_equiv_pos_as_xyz
  1  'x, y, z'
loop_
 _atom_site_type_symbol
 _atom_site_label
 _atom_site_symmetry_multiplicity
 _atom_site_fract_x
 _atom_site_fract_y
 _atom_site_fract_z
 _atom_site_occupancy
  Nd  Nd0  1  0.250000  0.167906  0.938544  1
  Nd  Nd1  1  0.250000  0.665378  0.565509  1
  Nd  Nd2  1  0.750000  0.328518  0.439756  1
  Nd  Nd3  1  0.750000  0.955309  0.280276  1
  Nd  Nd4  1  0.750000  0.831594  0.060041  1
  Nd  Nd5  1  0.750000  0.450639  0.215069  1
  Nd  Nd6  1  0.250000  0.049058  0.716590  1
  Nd  Nd7  1  0.250000  0.547636  0.785018  1
  Zn  Zn8  1  0.750000  0.004243  0.562910  1
  Zn  Zn9  1  0.250000  0.620117  0.345327  1
  Zn  Zn10  1  0.750000  0.376927  0.651977  1
  Zn  Zn11  1  0.250000  0.499824  0.059840  1
  Zn  Zn12  1  0.750000  0.500970  0.940391  1
  Zn  Zn13  1  0.250000  0.001839  0.439806  1
  Zn  Zn14  1  0.250000  0.123805  0.150141  1
  Zn  Zn15  1  0.750000  0.877133  0.849018  1
  Ir  Ir16  1  0.250000  0.244313  0.314413  1
  Ir  Ir17  1  0.750000  0.254051  0.813657  1
  Ir  Ir18  1  0.750000  0.755665  0.685354  1
  Ir  Ir19  1  0.250000  0.244909  0.564915  1
  Ir  Ir20  1  0.250000  0.744545  0.187540  1
  Ir  Ir21  1  0.250000  0.744230  0.934670  1
  Pd  Pd22  1  0.750000  0.756103  0.433951  1
  Rh  Rh23  1  0.750000  0.255287  0.065288  1
