# generated using pymatgen
data_Ti3CoSi(TcGe)2
_symmetry_space_group_name_H-M   'P 1'
_cell_length_a   6.75244080
_cell_length_b   6.75244097
_cell_length_c   3.31111200
_cell_angle_alpha   90.00000000
_cell_angle_beta   90.00000000
_cell_angle_gamma   120.89141904
_symmetry_Int_Tables_number   1
_chemical_formula_structural   Ti3CoSi(TcGe)2
_chemical_formula_sum   'Ti3 Co1 Si1 Tc2 Ge2'
_cell_volume   129.55509996
_cell_formula_units_Z   1
loop_
 _symmetry_equiv_pos_site_id
 _symmetry_equiv_pos_as_xyz
  1  'x, y, z'
loop_
 _atom_site_type_symbol
 _atom_site_label
 _atom_site_symmetry_multiplicity
 _atom_site_fract_x
 _atom_site_fract_y
 _atom_site_fract_z
 _atom_site_occupancy
  Ti  Ti0  1  0.614237  0.614237  0.500000  1
  Ti  Ti1  1  0.398952  0.982717  0.500000  1
  Ti  Ti2  1  0.982717  0.398952  0.500000  1
  Co  Co3  1  0.251918  0.251918  0.000000  1
  Si  Si4  1  0.028271  0.028271  0.500000  1
  Tc  Tc5  1  0.749473  0.000961  0.000000  1
  Tc  Tc6  1  0.000961  0.749473  0.000000  1
  Ge  Ge7  1  0.646211  0.327259  0.000000  1
  Ge  Ge8  1  0.327259  0.646211  0.000000  1
