# generated using pymatgen
data_Er3Tm9Tc3Ir
_symmetry_space_group_name_H-M   'P 1'
_cell_length_a   6.21658001
_cell_length_b   7.33469720
_cell_length_c   8.99650300
_cell_angle_alpha   90.00000000
_cell_angle_beta   90.00000000
_cell_angle_gamma   89.98903066
_symmetry_Int_Tables_number   1
_chemical_formula_structural   Er3Tm9Tc3Ir
_chemical_formula_sum   'Er3 Tm9 Tc3 Ir1'
_cell_volume   410.21112832
_cell_formula_units_Z   1
loop_
 _symmetry_equiv_pos_site_id
 _symmetry_equiv_pos_as_xyz
  1  'x, y, z'
loop_
 _atom_site_type_symbol
 _atom_site_label
 _atom_site_symmetry_multiplicity
 _atom_site_fract_x
 _atom_site_fract_y
 _atom_site_fract_z
 _atom_site_occupancy
  Er  Er0  1  0.623935  0.038056  0.250000  1
  Er  Er1  1  0.130171  0.458547  0.750000  1
  Er  Er2  1  0.372697  0.960446  0.750000  1
  Tm  Tm3  1  0.334461  0.676019  0.063817  1
  Tm  Tm4  1  0.161686  0.175405  0.437048  1
  Tm  Tm5  1  0.663416  0.322938  0.561248  1
  Tm  Tm6  1  0.836711  0.825532  0.938488  1
  Tm  Tm7  1  0.663416  0.322938  0.938752  1
  Tm  Tm8  1  0.836711  0.825532  0.561512  1
  Tm  Tm9  1  0.334461  0.676019  0.436183  1
  Tm  Tm10  1  0.161686  0.175405  0.062952  1
  Tm  Tm11  1  0.875373  0.540041  0.250000  1
  Tc  Tc12  1  0.039595  0.883515  0.250000  1
  Tc  Tc13  1  0.462747  0.385986  0.250000  1
  Tc  Tc14  1  0.960299  0.116807  0.750000  1
  Ir  Ir15  1  0.542636  0.616817  0.750000  1
