# generated using pymatgen
data_NaBe4P3
_symmetry_space_group_name_H-M   'P 1'
_cell_length_a   3.60484149
_cell_length_b   3.60907833
_cell_length_c   9.23988142
_cell_angle_alpha   95.13671616
_cell_angle_beta   86.52206807
_cell_angle_gamma   90.74905912
_symmetry_Int_Tables_number   1
_chemical_formula_structural   NaBe4P3
_chemical_formula_sum   'Na1 Be4 P3'
_cell_volume   119.50546333
_cell_formula_units_Z   1
loop_
 _symmetry_equiv_pos_site_id
 _symmetry_equiv_pos_as_xyz
  1  'x, y, z'
loop_
 _atom_site_type_symbol
 _atom_site_label
 _atom_site_symmetry_multiplicity
 _atom_site_fract_x
 _atom_site_fract_y
 _atom_site_fract_z
 _atom_site_occupancy
  Na  Na0  1  0.640275  0.834972  0.457343  1
  Be  Be1  1  0.596668  0.293116  0.123980  1
  Be  Be2  1  0.138084  0.728108  0.817065  1
  Be  Be3  1  0.092227  0.787792  0.123704  1
  Be  Be4  1  0.640711  0.226427  0.817979  1
  P  P5  1  0.614013  0.760413  0.971974  1
  P  P6  1  0.077709  0.317652  0.253051  1
  P  P7  1  0.159940  0.199979  0.690186  1
