# generated using pymatgen
data_Zr18CuNi3P8
_symmetry_space_group_name_H-M   'P 1'
_cell_length_a   12.10234824
_cell_length_b   12.10230237
_cell_length_c   3.70360200
_cell_angle_alpha   90.00000000
_cell_angle_beta   90.00000000
_cell_angle_gamma   90.05972328
_symmetry_Int_Tables_number   1
_chemical_formula_structural   Zr18CuNi3P8
_chemical_formula_sum   'Zr18 Cu1 Ni3 P8'
_cell_volume   542.45250466
_cell_formula_units_Z   1
loop_
 _symmetry_equiv_pos_site_id
 _symmetry_equiv_pos_as_xyz
  1  'x, y, z'
loop_
 _atom_site_type_symbol
 _atom_site_label
 _atom_site_symmetry_multiplicity
 _atom_site_fract_x
 _atom_site_fract_y
 _atom_site_fract_z
 _atom_site_occupancy
  Zr  Zr0  1  0.000608  0.000469  0.000000  1
  Zr  Zr1  1  0.499536  0.499384  0.000000  1
  Zr  Zr2  1  0.099692  0.181496  0.500000  1
  Zr  Zr3  1  0.180653  0.896171  0.500000  1
  Zr  Zr4  1  0.819604  0.103049  0.500000  1
  Zr  Zr5  1  0.897075  0.819406  0.500000  1
  Zr  Zr6  1  0.396949  0.680386  0.500000  1
  Zr  Zr7  1  0.603818  0.319355  0.500000  1
  Zr  Zr8  1  0.680583  0.602919  0.500000  1
  Zr  Zr9  1  0.318508  0.400316  0.500000  1
  Zr  Zr10  1  0.094006  0.406003  0.000000  1
  Zr  Zr11  1  0.403959  0.902453  0.000000  1
  Zr  Zr12  1  0.597552  0.096052  0.000000  1
  Zr  Zr13  1  0.903409  0.596594  0.000000  1
  Zr  Zr14  1  0.383005  0.117006  0.500000  1
  Zr  Zr15  1  0.118913  0.619653  0.500000  1
  Zr  Zr16  1  0.880341  0.381094  0.500000  1
  Zr  Zr17  1  0.619333  0.880668  0.500000  1
  Cu  Cu18  1  0.256014  0.243989  0.000000  1
  Ni  Ni19  1  0.245290  0.745537  0.000000  1
  Ni  Ni20  1  0.754460  0.254710  0.000000  1
  Ni  Ni21  1  0.745528  0.754464  0.000000  1
  P  P22  1  0.224688  0.054037  0.000000  1
  P  P23  1  0.055742  0.775458  0.000000  1
  P  P24  1  0.943987  0.225345  0.000000  1
  P  P25  1  0.775835  0.944258  0.000000  1
  P  P26  1  0.274659  0.556003  0.000000  1
  P  P27  1  0.724539  0.444247  0.000000  1
  P  P28  1  0.555748  0.724157  0.000000  1
  P  P29  1  0.445969  0.275318  0.000000  1
