# generated using pymatgen
data_Nd2VReH18
_symmetry_space_group_name_H-M   'P 1'
_cell_length_a   4.74081567
_cell_length_b   4.74081666
_cell_length_c   8.96803500
_cell_angle_alpha   90.00000000
_cell_angle_beta   90.00000000
_cell_angle_gamma   119.96273949
_symmetry_Int_Tables_number   1
_chemical_formula_structural   Nd2VReH18
_chemical_formula_sum   'Nd2 V1 Re1 H18'
_cell_volume   174.62125088
_cell_formula_units_Z   1
loop_
 _symmetry_equiv_pos_site_id
 _symmetry_equiv_pos_as_xyz
  1  'x, y, z'
loop_
 _atom_site_type_symbol
 _atom_site_label
 _atom_site_symmetry_multiplicity
 _atom_site_fract_x
 _atom_site_fract_y
 _atom_site_fract_z
 _atom_site_occupancy
  Nd  Nd0  1  0.001114  0.998886  0.529491  1
  Nd  Nd1  1  0.001114  0.998886  0.970509  1
  V  V2  1  0.332366  0.667634  0.750000  1
  Re  Re3  1  0.667152  0.332848  0.250000  1
  H  H4  1  0.484889  0.515111  0.616784  1
  H  H5  1  0.521853  0.478147  0.387043  1
  H  H6  1  0.484889  0.515111  0.883216  1
  H  H7  1  0.521853  0.478147  0.112957  1
  H  H8  1  0.478571  0.960781  0.888377  1
  H  H9  1  0.966384  0.482529  0.116979  1
  H  H10  1  0.478571  0.960781  0.611623  1
  H  H11  1  0.966384  0.482529  0.383021  1
  H  H12  1  0.517471  0.033616  0.116979  1
  H  H13  1  0.039219  0.521429  0.888377  1
  H  H14  1  0.517471  0.033616  0.383021  1
  H  H15  1  0.039219  0.521429  0.611623  1
  H  H16  1  0.732753  0.876437  0.750000  1
  H  H17  1  0.862128  0.737648  0.250000  1
  H  H18  1  0.262352  0.137872  0.250000  1
  H  H19  1  0.123563  0.267247  0.750000  1
  H  H20  1  0.131523  0.868477  0.750000  1
  H  H21  1  0.869160  0.130840  0.250000  1
