# generated using pymatgen
data_MgUReB6
_symmetry_space_group_name_H-M   'P 1'
_cell_length_a   3.60385000
_cell_length_b   8.89933000
_cell_length_c   11.24871700
_cell_angle_alpha   90.00000000
_cell_angle_beta   90.00000000
_cell_angle_gamma   90.00000000
_symmetry_Int_Tables_number   1
_chemical_formula_structural   MgUReB6
_chemical_formula_sum   'Mg4 U4 Re4 B24'
_cell_volume   360.76716905
_cell_formula_units_Z   4
loop_
 _symmetry_equiv_pos_site_id
 _symmetry_equiv_pos_as_xyz
  1  'x, y, z'
loop_
 _atom_site_type_symbol
 _atom_site_label
 _atom_site_symmetry_multiplicity
 _atom_site_fract_x
 _atom_site_fract_y
 _atom_site_fract_z
 _atom_site_occupancy
  Mg  Mg0  1  0.000000  0.946991  0.377705  1
  Mg  Mg1  1  0.000000  0.053009  0.622295  1
  Mg  Mg2  1  0.000000  0.446991  0.122295  1
  Mg  Mg3  1  0.000000  0.553009  0.877705  1
  U  U4  1  0.000000  0.321062  0.413473  1
  U  U5  1  0.000000  0.678938  0.586527  1
  U  U6  1  0.000000  0.821062  0.086527  1
  U  U7  1  0.000000  0.178938  0.913473  1
  Re  Re8  1  0.000000  0.640552  0.320103  1
  Re  Re9  1  0.000000  0.359448  0.679897  1
  Re  Re10  1  0.000000  0.140552  0.179897  1
  Re  Re11  1  0.000000  0.859448  0.820103  1
  B  B12  1  0.500000  0.553896  0.434105  1
  B  B13  1  0.500000  0.446104  0.565895  1
  B  B14  1  0.500000  0.053896  0.065895  1
  B  B15  1  0.500000  0.946104  0.934105  1
  B  B16  1  0.500000  0.753913  0.420280  1
  B  B17  1  0.500000  0.246087  0.579720  1
  B  B18  1  0.500000  0.253913  0.079720  1
  B  B19  1  0.500000  0.746087  0.920280  1
  B  B20  1  0.500000  0.794151  0.263028  1
  B  B21  1  0.500000  0.205849  0.736972  1
  B  B22  1  0.500000  0.294151  0.236972  1
  B  B23  1  0.500000  0.705849  0.763028  1
  B  B24  1  0.500000  0.629855  0.181835  1
  B  B25  1  0.500000  0.370145  0.818165  1
  B  B26  1  0.500000  0.129855  0.318165  1
  B  B27  1  0.500000  0.870145  0.681835  1
  B  B28  1  0.500000  0.980517  0.212658  1
  B  B29  1  0.500000  0.019483  0.787342  1
  B  B30  1  0.500000  0.480517  0.287342  1
  B  B31  1  0.500000  0.519483  0.712658  1
  B  B32  1  0.500000  0.600413  0.027943  1
  B  B33  1  0.500000  0.399587  0.972057  1
  B  B34  1  0.500000  0.100413  0.472057  1
  B  B35  1  0.500000  0.899587  0.527943  1
