# generated using pymatgen
data_Y5PtSe4
_symmetry_space_group_name_H-M   'P 1'
_cell_length_a   7.11229200
_cell_length_b   7.11229256
_cell_length_c   7.11229308
_cell_angle_alpha   99.70269848
_cell_angle_beta   99.70270225
_cell_angle_gamma   131.52359131
_symmetry_Int_Tables_number   1
_chemical_formula_structural   Y5PtSe4
_chemical_formula_sum   'Y5 Pt1 Se4'
_cell_volume   245.61137087
_cell_formula_units_Z   1
loop_
 _symmetry_equiv_pos_site_id
 _symmetry_equiv_pos_as_xyz
  1  'x, y, z'
loop_
 _atom_site_type_symbol
 _atom_site_label
 _atom_site_symmetry_multiplicity
 _atom_site_fract_x
 _atom_site_fract_y
 _atom_site_fract_z
 _atom_site_occupancy
  Y  Y0  1  0.401459  0.788860  0.190320  1
  Y  Y1  1  0.000000  0.000000  0.000000  1
  Y  Y2  1  0.598541  0.211140  0.809680  1
  Y  Y3  1  0.211140  0.401459  0.612599  1
  Y  Y4  1  0.788860  0.598541  0.387401  1
  Pt  Pt5  1  0.500000  0.500000  0.000000  1
  Se  Se6  1  0.094298  0.694741  0.789038  1
  Se  Se7  1  0.694741  0.905702  0.600444  1
  Se  Se8  1  0.305259  0.094298  0.399556  1
  Se  Se9  1  0.905702  0.305259  0.210962  1
