# generated using pymatgen
data_LiYTlPt3
_symmetry_space_group_name_H-M   'P 1'
_cell_length_a   5.46802253
_cell_length_b   5.46802333
_cell_length_c   5.18844700
_cell_angle_alpha   58.20091955
_cell_angle_beta   58.20092670
_cell_angle_gamma   60.00001186
_symmetry_Int_Tables_number   1
_chemical_formula_structural   LiYTlPt3
_chemical_formula_sum   'Li1 Y1 Tl1 Pt3'
_cell_volume   106.61584920
_cell_formula_units_Z   1
loop_
 _symmetry_equiv_pos_site_id
 _symmetry_equiv_pos_as_xyz
  1  'x, y, z'
loop_
 _atom_site_type_symbol
 _atom_site_label
 _atom_site_symmetry_multiplicity
 _atom_site_fract_x
 _atom_site_fract_y
 _atom_site_fract_z
 _atom_site_occupancy
  Li  Li0  1  0.621684  0.621684  0.134948  1
  Y  Y1  1  0.005787  0.005787  0.982639  1
  Tl  Tl2  1  0.252621  0.252621  0.242138  1
  Pt  Pt3  1  0.624080  0.121747  0.630091  1
  Pt  Pt4  1  0.624080  0.624080  0.630091  1
  Pt  Pt5  1  0.121747  0.624080  0.630091  1
