# generated using pymatgen
data_Zr10Sn6P
_symmetry_space_group_name_H-M   'P 1'
_cell_length_a   5.87503603
_cell_length_b   8.59772734
_cell_length_c   8.59771103
_cell_angle_alpha   120.00006991
_cell_angle_beta   90.00003853
_cell_angle_gamma   89.99992329
_symmetry_Int_Tables_number   1
_chemical_formula_structural   Zr10Sn6P
_chemical_formula_sum   'Zr10 Sn6 P1'
_cell_volume   376.10349843
_cell_formula_units_Z   1
loop_
 _symmetry_equiv_pos_site_id
 _symmetry_equiv_pos_as_xyz
  1  'x, y, z'
loop_
 _atom_site_type_symbol
 _atom_site_label
 _atom_site_symmetry_multiplicity
 _atom_site_fract_x
 _atom_site_fract_y
 _atom_site_fract_z
 _atom_site_occupancy
  Zr  Zr0  1  0.500000  0.333334  0.666669  1
  Zr  Zr1  1  0.500000  0.666665  0.333331  1
  Zr  Zr2  1  0.000000  0.666665  0.333330  1
  Zr  Zr3  1  0.000000  0.333336  0.666670  1
  Zr  Zr4  1  0.753917  0.250314  0.000000  1
  Zr  Zr5  1  0.753910  0.749686  0.749684  1
  Zr  Zr6  1  0.753910  0.000001  0.250316  1
  Zr  Zr7  1  0.246083  0.749686  0.000000  1
  Zr  Zr8  1  0.246090  0.250316  0.250316  1
  Zr  Zr9  1  0.246090  0.000000  0.749684  1
  Sn  Sn10  1  0.750017  0.606214  0.000000  1
  Sn  Sn11  1  0.750022  0.393787  0.393788  1
  Sn  Sn12  1  0.750022  0.999999  0.606212  1
  Sn  Sn13  1  0.249983  0.393786  0.000000  1
  Sn  Sn14  1  0.249978  0.606213  0.606212  1
  Sn  Sn15  1  0.249978  0.000001  0.393788  1
  P  P16  1  0.499999  0.000001  0.000000  1
