# generated using pymatgen
data_Er6Tm2Ti11Si16Ag
_symmetry_space_group_name_H-M   'P 1'
_cell_length_a   7.02577773
_cell_length_b   7.02584596
_cell_length_c   12.82816207
_cell_angle_alpha   90.07876635
_cell_angle_beta   89.93858563
_cell_angle_gamma   89.66987308
_symmetry_Int_Tables_number   1
_chemical_formula_structural   Er6Tm2Ti11Si16Ag
_chemical_formula_sum   'Er6 Tm2 Ti11 Si16 Ag1'
_cell_volume   633.21266950
_cell_formula_units_Z   1
loop_
 _symmetry_equiv_pos_site_id
 _symmetry_equiv_pos_as_xyz
  1  'x, y, z'
loop_
 _atom_site_type_symbol
 _atom_site_label
 _atom_site_symmetry_multiplicity
 _atom_site_fract_x
 _atom_site_fract_y
 _atom_site_fract_z
 _atom_site_occupancy
  Er  Er0  1  0.501246  0.157710  0.214716  1
  Er  Er1  1  0.840716  0.497988  0.283322  1
  Er  Er2  1  0.157731  0.501298  0.785288  1
  Er  Er3  1  0.656451  0.000981  0.968267  1
  Er  Er4  1  0.001815  0.341003  0.533405  1
  Er  Er5  1  0.001062  0.656444  0.031663  1
  Tm  Tm6  1  0.341111  0.001655  0.466619  1
  Tm  Tm7  1  0.497995  0.840966  0.716673  1
  Ti  Ti8  1  0.174019  0.826380  0.250106  1
  Ti  Ti9  1  0.826326  0.173913  0.749926  1
  Ti  Ti10  1  0.672654  0.672822  0.500039  1
  Ti  Ti11  1  0.147593  0.007635  0.876601  1
  Ti  Ti12  1  0.495526  0.650523  0.123235  1
  Ti  Ti13  1  0.507449  0.350496  0.625061  1
  Ti  Ti14  1  0.650472  0.495563  0.876730  1
  Ti  Ti15  1  0.350476  0.507503  0.374950  1
  Ti  Ti16  1  0.850173  0.992311  0.374274  1
  Ti  Ti17  1  0.007736  0.147534  0.123355  1
  Ti  Ti18  1  0.992395  0.850161  0.625739  1
  Si  Si19  1  0.202436  0.132931  0.683794  1
  Si  Si20  1  0.373353  0.719214  0.928610  1
  Si  Si21  1  0.631564  0.294073  0.432155  1
  Si  Si22  1  0.719137  0.373334  0.071323  1
  Si  Si23  1  0.294326  0.631965  0.567904  1
  Si  Si24  1  0.797302  0.866840  0.182291  1
  Si  Si25  1  0.133179  0.202183  0.316261  1
  Si  Si26  1  0.866664  0.797386  0.817667  1
  Si  Si27  1  0.286817  0.938542  0.066127  1
  Si  Si28  1  0.546530  0.791536  0.314521  1
  Si  Si29  1  0.455280  0.207321  0.808893  1
  Si  Si30  1  0.791343  0.546714  0.685558  1
  Si  Si31  1  0.207605  0.455245  0.191043  1
  Si  Si32  1  0.708101  0.047125  0.564219  1
  Si  Si33  1  0.938558  0.286764  0.933839  1
  Si  Si34  1  0.047390  0.708483  0.435814  1
  Ag  Ag35  1  0.327471  0.327460  0.000012  1
