# generated using pymatgen
data_SrHg(BrO3)4
_symmetry_space_group_name_H-M   'P 1'
_cell_length_a   7.32338437
_cell_length_b   7.04550656
_cell_length_c   7.40715033
_cell_angle_alpha   79.54112945
_cell_angle_beta   72.97059804
_cell_angle_gamma   118.72206589
_symmetry_Int_Tables_number   1
_chemical_formula_structural   SrHg(BrO3)4
_chemical_formula_sum   'Sr1 Hg1 Br4 O12'
_cell_volume   295.85351460
_cell_formula_units_Z   1
loop_
 _symmetry_equiv_pos_site_id
 _symmetry_equiv_pos_as_xyz
  1  'x, y, z'
loop_
 _atom_site_type_symbol
 _atom_site_label
 _atom_site_symmetry_multiplicity
 _atom_site_fract_x
 _atom_site_fract_y
 _atom_site_fract_z
 _atom_site_occupancy
  Sr  Sr0  1  0.374632  0.615849  0.492664  1
  Hg  Hg1  1  0.592169  0.424782  0.958833  1
  Br  Br2  1  0.440340  0.841731  0.944570  1
  Br  Br3  1  0.743808  0.388737  0.430240  1
  Br  Br4  1  0.002463  0.104538  0.036956  1
  Br  Br5  1  0.079317  0.927694  0.538878  1
  O  O6  1  0.469203  0.660859  0.105009  1
  O  O7  1  0.594167  0.447648  0.610901  1
  O  O8  1  0.739828  0.531050  0.222943  1
  O  O9  1  0.552174  0.834007  0.715878  1
  O  O10  1  0.646491  0.109464  0.920805  1
  O  O11  1  0.016817  0.552913  0.400147  1
  O  O12  1  0.122342  0.386525  0.904128  1
  O  O13  1  0.342858  0.976834  0.434067  1
  O  O14  1  0.970941  0.730019  0.782905  1
  O  O15  1  0.804447  0.029795  0.268703  1
  O  O16  1  0.220870  0.108206  0.090862  1
  O  O17  1  0.129735  0.171951  0.574115  1
