# generated using pymatgen
data_EuErCuSe3
_symmetry_space_group_name_H-M   'P 1'
_cell_length_a   6.99678750
_cell_length_b   6.99678775
_cell_length_c   10.52330500
_cell_angle_alpha   90.00000000
_cell_angle_beta   90.00000000
_cell_angle_gamma   146.33442375
_symmetry_Int_Tables_number   1
_chemical_formula_structural   EuErCuSe3
_chemical_formula_sum   'Eu2 Er2 Cu2 Se6'
_cell_volume   285.58097432
_cell_formula_units_Z   2
loop_
 _symmetry_equiv_pos_site_id
 _symmetry_equiv_pos_as_xyz
  1  'x, y, z'
loop_
 _atom_site_type_symbol
 _atom_site_label
 _atom_site_symmetry_multiplicity
 _atom_site_fract_x
 _atom_site_fract_y
 _atom_site_fract_z
 _atom_site_occupancy
  Eu  Eu0  1  0.753935  0.246067  0.250000  1
  Eu  Eu1  1  0.246067  0.753935  0.750000  1
  Er  Er2  1  0.000000  0.000000  0.000000  1
  Er  Er3  1  0.000000  0.000000  0.500000  1
  Cu  Cu4  1  0.471857  0.528145  0.250000  1
  Cu  Cu5  1  0.528145  0.471857  0.750000  1
  Se  Se6  1  0.358808  0.641194  0.065981  1
  Se  Se7  1  0.081398  0.918605  0.250000  1
  Se  Se8  1  0.358808  0.641194  0.434019  1
  Se  Se9  1  0.641194  0.358808  0.565982  1
  Se  Se10  1  0.918605  0.081398  0.750000  1
  Se  Se11  1  0.641194  0.358808  0.934018  1
