# generated using pymatgen
data_ErTm2In3SnPt2
_symmetry_space_group_name_H-M   'P 1'
_cell_length_a   7.56853872
_cell_length_b   7.56698042
_cell_length_c   4.14535700
_cell_angle_alpha   90.00000000
_cell_angle_beta   90.00000000
_cell_angle_gamma   119.95679196
_symmetry_Int_Tables_number   1
_chemical_formula_structural   ErTm2In3SnPt2
_chemical_formula_sum   'Er1 Tm2 In3 Sn1 Pt2'
_cell_volume   205.69140344
_cell_formula_units_Z   1
loop_
 _symmetry_equiv_pos_site_id
 _symmetry_equiv_pos_as_xyz
  1  'x, y, z'
loop_
 _atom_site_type_symbol
 _atom_site_label
 _atom_site_symmetry_multiplicity
 _atom_site_fract_x
 _atom_site_fract_y
 _atom_site_fract_z
 _atom_site_occupancy
  Er  Er0  1  0.978028  0.585470  0.500000  1
  Tm  Tm1  1  0.607902  0.022486  0.500000  1
  Tm  Tm2  1  0.414553  0.392005  0.500000  1
  In  In3  1  0.754942  0.744081  0.000000  1
  In  In4  1  0.988959  0.244854  0.000000  1
  In  In5  1  0.255985  0.011105  0.000000  1
  Sn  Sn6  1  0.333611  0.666757  0.000000  1
  Pt  Pt7  1  0.666059  0.332876  0.000000  1
  Pt  Pt8  1  0.999962  0.000365  0.500000  1
