# generated using pymatgen
data_Ac(PRh)2
_symmetry_space_group_name_H-M   'P 1'
_cell_length_a   4.29334800
_cell_length_b   4.29334800
_cell_length_c   9.82172400
_cell_angle_alpha   90.00000000
_cell_angle_beta   90.00000000
_cell_angle_gamma   90.00000000
_symmetry_Int_Tables_number   1
_chemical_formula_structural   Ac(PRh)2
_chemical_formula_sum   'Ac2 P4 Rh4'
_cell_volume   181.04223803
_cell_formula_units_Z   2
loop_
 _symmetry_equiv_pos_site_id
 _symmetry_equiv_pos_as_xyz
  1  'x, y, z'
loop_
 _atom_site_type_symbol
 _atom_site_label
 _atom_site_symmetry_multiplicity
 _atom_site_fract_x
 _atom_site_fract_y
 _atom_site_fract_z
 _atom_site_occupancy
  Ac  Ac0  1  0.500000  0.000000  0.740918  1
  Ac  Ac1  1  0.000000  0.500000  0.259082  1
  P  P2  1  0.500000  0.500000  0.500000  1
  P  P3  1  0.500000  0.000000  0.136078  1
  P  P4  1  0.000000  0.000000  0.500000  1
  P  P5  1  0.000000  0.500000  0.863922  1
  Rh  Rh6  1  0.000000  0.500000  0.607175  1
  Rh  Rh7  1  0.500000  0.000000  0.392825  1
  Rh  Rh8  1  0.000000  0.000000  0.000000  1
  Rh  Rh9  1  0.500000  0.500000  0.000000  1
