# generated using pymatgen
data_Eu2Cd14Pd3
_symmetry_space_group_name_H-M   'P 1'
_cell_length_a   7.60453951
_cell_length_b   7.60453984
_cell_length_c   7.60453888
_cell_angle_alpha   82.97810805
_cell_angle_beta   82.97811057
_cell_angle_gamma   82.97812040
_symmetry_Int_Tables_number   1
_chemical_formula_structural   Eu2Cd14Pd3
_chemical_formula_sum   'Eu2 Cd14 Pd3'
_cell_volume   430.61311587
_cell_formula_units_Z   1
loop_
 _symmetry_equiv_pos_site_id
 _symmetry_equiv_pos_as_xyz
  1  'x, y, z'
loop_
 _atom_site_type_symbol
 _atom_site_label
 _atom_site_symmetry_multiplicity
 _atom_site_fract_x
 _atom_site_fract_y
 _atom_site_fract_z
 _atom_site_occupancy
  Eu  Eu0  1  0.661431  0.661431  0.661431  1
  Eu  Eu1  1  0.338569  0.338569  0.338569  1
  Cd  Cd2  1  0.348374  0.348374  0.851433  1
  Cd  Cd3  1  0.851433  0.348374  0.348374  1
  Cd  Cd4  1  0.106156  0.106156  0.106156  1
  Cd  Cd5  1  0.893844  0.893844  0.893844  1
  Cd  Cd6  1  0.297891  0.702109  0.000000  1
  Cd  Cd7  1  0.702109  0.000000  0.297891  1
  Cd  Cd8  1  0.000000  0.297891  0.702109  1
  Cd  Cd9  1  0.702109  0.297891  0.000000  1
  Cd  Cd10  1  0.297891  0.000000  0.702109  1
  Cd  Cd11  1  0.000000  0.702109  0.297891  1
  Cd  Cd12  1  0.148567  0.651626  0.651626  1
  Cd  Cd13  1  0.651626  0.651626  0.148567  1
  Cd  Cd14  1  0.651626  0.148567  0.651626  1
  Cd  Cd15  1  0.348374  0.851433  0.348374  1
  Pd  Pd16  1  0.000000  0.000000  0.500000  1
  Pd  Pd17  1  0.000000  0.500000  0.000000  1
  Pd  Pd18  1  0.500000  0.000000  0.000000  1
