# generated using pymatgen
data_Ho2OF4
_symmetry_space_group_name_H-M   'P 1'
_cell_length_a   6.73208076
_cell_length_b   6.73208157
_cell_length_c   5.67192249
_cell_angle_alpha   79.82975484
_cell_angle_beta   79.82975171
_cell_angle_gamma   46.27332577
_symmetry_Int_Tables_number   1
_chemical_formula_structural   Ho2OF4
_chemical_formula_sum   'Ho4 O2 F8'
_cell_volume   182.30413528
_cell_formula_units_Z   2
loop_
 _symmetry_equiv_pos_site_id
 _symmetry_equiv_pos_as_xyz
  1  'x, y, z'
loop_
 _atom_site_type_symbol
 _atom_site_label
 _atom_site_symmetry_multiplicity
 _atom_site_fract_x
 _atom_site_fract_y
 _atom_site_fract_z
 _atom_site_occupancy
  Ho  Ho0  1  0.104053  0.681562  0.577757  1
  Ho  Ho1  1  0.681562  0.104053  0.077757  1
  Ho  Ho2  1  0.318438  0.895947  0.922243  1
  Ho  Ho3  1  0.895947  0.318438  0.422243  1
  O  O4  1  0.950402  0.049598  0.750000  1
  O  O5  1  0.049598  0.950402  0.250000  1
  F  F6  1  0.316484  0.514308  0.923176  1
  F  F7  1  0.514308  0.316484  0.423176  1
  F  F8  1  0.706164  0.853501  0.828970  1
  F  F9  1  0.853501  0.706164  0.328970  1
  F  F10  1  0.146499  0.293836  0.671030  1
  F  F11  1  0.293836  0.146499  0.171030  1
  F  F12  1  0.485692  0.683516  0.576824  1
  F  F13  1  0.683516  0.485692  0.076824  1
