# generated using pymatgen
data_V17Cr(Si6Ni)2
_symmetry_space_group_name_H-M   'P 1'
_cell_length_a   7.03268100
_cell_length_b   7.03268081
_cell_length_c   13.23240200
_cell_angle_alpha   90.00000000
_cell_angle_beta   90.00000000
_cell_angle_gamma   140.51617450
_symmetry_Int_Tables_number   1
_chemical_formula_structural   V17Cr(Si6Ni)2
_chemical_formula_sum   'V17 Cr1 Si12 Ni2'
_cell_volume   416.14268757
_cell_formula_units_Z   1
loop_
 _symmetry_equiv_pos_site_id
 _symmetry_equiv_pos_as_xyz
  1  'x, y, z'
loop_
 _atom_site_type_symbol
 _atom_site_label
 _atom_site_symmetry_multiplicity
 _atom_site_fract_x
 _atom_site_fract_y
 _atom_site_fract_z
 _atom_site_occupancy
  V  V0  1  0.072190  0.423107  0.399442  1
  V  V1  1  0.569141  0.932466  0.901523  1
  V  V2  1  0.423107  0.072190  0.600558  1
  V  V3  1  0.932466  0.569141  0.098477  1
  V  V4  1  0.849699  0.652723  0.677930  1
  V  V5  1  0.350541  0.150482  0.178899  1
  V  V6  1  0.652723  0.849699  0.322070  1
  V  V7  1  0.150482  0.350541  0.821101  1
  V  V8  1  0.652723  0.849699  0.677930  1
  V  V9  1  0.150482  0.350541  0.178899  1
  V  V10  1  0.849699  0.652723  0.322070  1
  V  V11  1  0.350541  0.150482  0.821101  1
  V  V12  1  0.423107  0.072190  0.399442  1
  V  V13  1  0.932466  0.569141  0.901523  1
  V  V14  1  0.072190  0.423107  0.600558  1
  V  V15  1  0.569141  0.932466  0.098477  1
  V  V16  1  0.998224  0.998224  0.500000  1
  Cr  Cr17  1  0.498370  0.498370  0.500000  1
  Si  Si18  1  0.250280  0.749860  0.750005  1
  Si  Si19  1  0.749860  0.250280  0.249995  1
  Si  Si20  1  0.749860  0.250280  0.750005  1
  Si  Si21  1  0.250280  0.749860  0.249995  1
  Si  Si22  1  0.251998  0.251998  0.663524  1
  Si  Si23  1  0.751453  0.751453  0.155697  1
  Si  Si24  1  0.251998  0.251998  0.336476  1
  Si  Si25  1  0.751453  0.751453  0.844303  1
  Si  Si26  1  0.581139  0.909558  0.500000  1
  Si  Si27  1  0.095864  0.406378  0.000000  1
  Si  Si28  1  0.909558  0.581139  0.500000  1
  Si  Si29  1  0.406378  0.095864  0.000000  1
  Ni  Ni30  1  0.501309  0.501309  0.000000  1
  Ni  Ni31  1  0.001273  0.001273  0.000000  1
