# generated using pymatgen
data_Pr4PdAu3
_symmetry_space_group_name_H-M   'P 1'
_cell_length_a   4.83417800
_cell_length_b   5.89028175
_cell_length_c   7.49127557
_cell_angle_alpha   89.13320936
_cell_angle_beta   90.00000000
_cell_angle_gamma   90.00000000
_symmetry_Int_Tables_number   1
_chemical_formula_structural   Pr4PdAu3
_chemical_formula_sum   'Pr4 Pd1 Au3'
_cell_volume   213.28719338
_cell_formula_units_Z   1
loop_
 _symmetry_equiv_pos_site_id
 _symmetry_equiv_pos_as_xyz
  1  'x, y, z'
loop_
 _atom_site_type_symbol
 _atom_site_label
 _atom_site_symmetry_multiplicity
 _atom_site_fract_x
 _atom_site_fract_y
 _atom_site_fract_z
 _atom_site_occupancy
  Pr  Pr0  1  0.250000  0.358092  0.682364  1
  Pr  Pr1  1  0.250000  0.142534  0.188053  1
  Pr  Pr2  1  0.750000  0.647071  0.319214  1
  Pr  Pr3  1  0.750000  0.855467  0.809379  1
  Pd  Pd4  1  0.250000  0.851407  0.540939  1
  Au  Au5  1  0.250000  0.650134  0.041661  1
  Au  Au6  1  0.750000  0.145467  0.459441  1
  Au  Au7  1  0.750000  0.349827  0.958949  1
