# generated using pymatgen
data_Ho3Lu3Al24AgOs7
_symmetry_space_group_name_H-M   'P 1'
_cell_length_a   8.83366436
_cell_length_b   8.84107420
_cell_length_c   9.53577481
_cell_angle_alpha   90.20958704
_cell_angle_beta   89.98471470
_cell_angle_gamma   119.89760220
_symmetry_Int_Tables_number   1
_chemical_formula_structural   Ho3Lu3Al24AgOs7
_chemical_formula_sum   'Ho3 Lu3 Al24 Ag1 Os7'
_cell_volume   645.61875107
_cell_formula_units_Z   1
loop_
 _symmetry_equiv_pos_site_id
 _symmetry_equiv_pos_as_xyz
  1  'x, y, z'
loop_
 _atom_site_type_symbol
 _atom_site_label
 _atom_site_symmetry_multiplicity
 _atom_site_fract_x
 _atom_site_fract_y
 _atom_site_fract_z
 _atom_site_occupancy
  Ho  Ho0  1  0.386202  0.195963  0.748517  1
  Ho  Ho1  1  0.190234  0.804635  0.251329  1
  Ho  Ho2  1  0.809986  0.195977  0.748685  1
  Lu  Lu3  1  0.196904  0.393669  0.254553  1
  Lu  Lu4  1  0.803573  0.606173  0.745536  1
  Lu  Lu5  1  0.609776  0.801139  0.252672  1
  Al  Al6  1  0.328624  0.657422  0.025698  1
  Al  Al7  1  0.671836  0.343555  0.975381  1
  Al  Al8  1  0.666245  0.331856  0.518861  1
  Al  Al9  1  0.333932  0.668036  0.480671  1
  Al  Al10  1  0.163394  0.326298  0.575084  1
  Al  Al11  1  0.836879  0.674257  0.424288  1
  Al  Al12  1  0.674428  0.836502  0.574777  1
  Al  Al13  1  0.836565  0.673911  0.076481  1
  Al  Al14  1  0.325978  0.163584  0.423933  1
  Al  Al15  1  0.163750  0.327154  0.924512  1
  Al  Al16  1  0.162500  0.836302  0.575230  1
  Al  Al17  1  0.322162  0.171901  0.081827  1
  Al  Al18  1  0.837354  0.162932  0.424084  1
  Al  Al19  1  0.678365  0.828489  0.919537  1
  Al  Al20  1  0.849530  0.171401  0.081654  1
  Al  Al21  1  0.150524  0.828188  0.918746  1
  Al  Al22  1  0.563934  0.126548  0.255309  1
  Al  Al23  1  0.436724  0.872763  0.743842  1
  Al  Al24  1  0.878988  0.440023  0.249415  1
  Al  Al25  1  0.121368  0.560080  0.750485  1
  Al  Al26  1  0.561351  0.440646  0.249483  1
  Al  Al27  1  0.439494  0.560346  0.750707  1
  Al  Al28  1  0.997751  0.000931  0.250362  1
  Al  Al29  1  0.998835  0.997244  0.749392  1
  Ag  Ag30  1  0.500154  0.000214  0.999818  1
  Os  Os31  1  0.000281  0.500189  0.000038  1
  Os  Os32  1  0.500318  0.999578  0.499304  1
  Os  Os33  1  0.500277  0.500804  0.000796  1
  Os  Os34  1  0.000300  0.500078  0.499888  1
  Os  Os35  1  0.500424  0.500611  0.499409  1
  Os  Os36  1  0.000650  0.000386  0.999773  1
  Os  Os37  1  0.000410  0.000216  0.499922  1
