# generated using pymatgen
data_Nb5Re23Tc
_symmetry_space_group_name_H-M   'P 1'
_cell_length_a   8.41200183
_cell_length_b   8.41200365
_cell_length_c   8.40883444
_cell_angle_alpha   109.41975245
_cell_angle_beta   109.41976165
_cell_angle_gamma   109.53081143
_symmetry_Int_Tables_number   1
_chemical_formula_structural   Nb5Re23Tc
_chemical_formula_sum   'Nb5 Re23 Tc1'
_cell_volume   458.29420961
_cell_formula_units_Z   1
loop_
 _symmetry_equiv_pos_site_id
 _symmetry_equiv_pos_as_xyz
  1  'x, y, z'
loop_
 _atom_site_type_symbol
 _atom_site_label
 _atom_site_symmetry_multiplicity
 _atom_site_fract_x
 _atom_site_fract_y
 _atom_site_fract_z
 _atom_site_occupancy
  Nb  Nb0  1  0.999250  0.999250  0.998458  1
  Nb  Nb1  1  0.000390  0.000390  0.635090  1
  Nb  Nb2  1  0.635855  0.999628  0.998726  1
  Nb  Nb3  1  0.999628  0.635855  0.998726  1
  Nb  Nb4  1  0.363272  0.363272  0.362776  1
  Re  Re5  1  0.400639  0.684143  0.001920  1
  Re  Re6  1  0.684143  0.400639  0.001920  1
  Re  Re7  1  0.599530  0.282428  0.600983  1
  Re  Re8  1  0.399730  0.001384  0.683337  1
  Re  Re9  1  0.001384  0.399730  0.683337  1
  Re  Re10  1  0.282428  0.599530  0.600983  1
  Re  Re11  1  0.716835  0.316559  0.318095  1
  Re  Re12  1  0.316559  0.716835  0.318095  1
  Re  Re13  1  0.684058  0.001036  0.400620  1
  Re  Re14  1  0.001036  0.684058  0.400620  1
  Re  Re15  1  0.601042  0.601042  0.283100  1
  Re  Re16  1  0.805081  0.805081  0.181468  1
  Re  Re17  1  0.377848  0.194474  0.000885  1
  Re  Re18  1  0.194474  0.377848  0.000885  1
  Re  Re19  1  0.622122  0.816290  0.622687  1
  Re  Re20  1  0.378104  0.000122  0.194270  1
  Re  Re21  1  0.000122  0.378104  0.194270  1
  Re  Re22  1  0.816290  0.622122  0.622687  1
  Re  Re23  1  0.182994  0.805847  0.805742  1
  Re  Re24  1  0.805847  0.182994  0.805742  1
  Re  Re25  1  0.194122  0.000391  0.377030  1
  Re  Re26  1  0.000391  0.194122  0.377030  1
  Re  Re27  1  0.620470  0.620470  0.814733  1
  Tc  Tc28  1  0.316356  0.316356  0.715784  1
