# generated using pymatgen
data_Dy4Y(FeTe)2
_symmetry_space_group_name_H-M   'P 1'
_cell_length_a   7.81862010
_cell_length_b   7.81861901
_cell_length_c   15.21364500
_cell_angle_alpha   89.99895679
_cell_angle_beta   90.00104388
_cell_angle_gamma   150.76335855
_symmetry_Int_Tables_number   1
_chemical_formula_structural   Dy4Y(FeTe)2
_chemical_formula_sum   'Dy8 Y2 Fe4 Te4'
_cell_volume   454.23953319
_cell_formula_units_Z   2
loop_
 _symmetry_equiv_pos_site_id
 _symmetry_equiv_pos_as_xyz
  1  'x, y, z'
loop_
 _atom_site_type_symbol
 _atom_site_label
 _atom_site_symmetry_multiplicity
 _atom_site_fract_x
 _atom_site_fract_y
 _atom_site_fract_z
 _atom_site_occupancy
  Dy  Dy0  1  0.961016  0.038984  0.380521  1
  Dy  Dy1  1  0.038959  0.961041  0.619691  1
  Dy  Dy2  1  0.038956  0.961044  0.880309  1
  Dy  Dy3  1  0.961017  0.038983  0.119479  1
  Dy  Dy4  1  0.742268  0.257732  0.629051  1
  Dy  Dy5  1  0.257798  0.742202  0.371007  1
  Dy  Dy6  1  0.257795  0.742205  0.128989  1
  Dy  Dy7  1  0.742272  0.257728  0.870951  1
  Y  Y8  1  0.396522  0.603478  0.749995  1
  Y  Y9  1  0.603492  0.396508  0.250005  1
  Fe  Fe10  1  0.830415  0.169585  0.249995  1
  Fe  Fe11  1  0.169608  0.830392  0.750007  1
  Fe  Fe12  1  0.405772  0.594228  0.249987  1
  Fe  Fe13  1  0.594296  0.405704  0.750014  1
  Te  Te14  1  0.617837  0.382163  0.039423  1
  Te  Te15  1  0.382070  0.617930  0.960551  1
  Te  Te16  1  0.382070  0.617930  0.539447  1
  Te  Te17  1  0.617837  0.382163  0.460577  1
