# generated using pymatgen
data_U4Ga3Ge3Ru7
_symmetry_space_group_name_H-M   'P 1'
_cell_length_a   7.19292278
_cell_length_b   7.19292184
_cell_length_c   7.19292229
_cell_angle_alpha   109.53949578
_cell_angle_beta   109.44051501
_cell_angle_gamma   109.43366760
_symmetry_Int_Tables_number   1
_chemical_formula_structural   U4Ga3Ge3Ru7
_chemical_formula_sum   'U4 Ga3 Ge3 Ru7'
_cell_volume   286.47965206
_cell_formula_units_Z   1
loop_
 _symmetry_equiv_pos_site_id
 _symmetry_equiv_pos_as_xyz
  1  'x, y, z'
loop_
 _atom_site_type_symbol
 _atom_site_label
 _atom_site_symmetry_multiplicity
 _atom_site_fract_x
 _atom_site_fract_y
 _atom_site_fract_z
 _atom_site_occupancy
  U  U0  1  0.001270  0.999999  0.503673  1
  U  U1  1  0.503674  0.000001  0.001271  1
  U  U2  1  0.001270  0.497597  0.001271  1
  U  U3  1  0.503674  0.502403  0.503673  1
  Ga  Ga4  1  0.301346  0.000000  0.301346  1
  Ga  Ga5  1  0.002733  0.308581  0.311313  1
  Ga  Ga6  1  0.002733  0.691419  0.694152  1
  Ge  Ge7  1  0.307589  0.304916  0.002673  1
  Ge  Ge8  1  0.697756  0.695084  0.002673  1
  Ge  Ge9  1  0.687532  0.000000  0.687532  1
  Ru  Ru10  1  0.749859  0.500000  0.249859  1
  Ru  Ru11  1  0.499034  0.749399  0.248433  1
  Ru  Ru12  1  0.499034  0.250601  0.749633  1
  Ru  Ru13  1  0.748733  0.249475  0.499259  1
  Ru  Ru14  1  0.249784  0.750525  0.499259  1
  Ru  Ru15  1  0.252199  0.500000  0.752199  1
  Ru  Ru16  1  0.991781  0.000000  0.991781  1
