# generated using pymatgen
data_SmNiAs2Rh
_symmetry_space_group_name_H-M   'P 1'
_cell_length_a   4.21317400
_cell_length_b   4.21317400
_cell_length_c   9.70595100
_cell_angle_alpha   90.00000000
_cell_angle_beta   90.00000000
_cell_angle_gamma   90.00000000
_symmetry_Int_Tables_number   1
_chemical_formula_structural   SmNiAs2Rh
_chemical_formula_sum   'Sm2 Ni2 As4 Rh2'
_cell_volume   172.28873622
_cell_formula_units_Z   2
loop_
 _symmetry_equiv_pos_site_id
 _symmetry_equiv_pos_as_xyz
  1  'x, y, z'
loop_
 _atom_site_type_symbol
 _atom_site_label
 _atom_site_symmetry_multiplicity
 _atom_site_fract_x
 _atom_site_fract_y
 _atom_site_fract_z
 _atom_site_occupancy
  Sm  Sm0  1  0.000000  0.500000  0.256562  1
  Sm  Sm1  1  0.500000  0.000000  0.743438  1
  Ni  Ni2  1  0.000000  0.500000  0.615086  1
  Ni  Ni3  1  0.500000  0.000000  0.384914  1
  As  As4  1  0.000000  0.000000  0.500000  1
  As  As5  1  0.500000  0.500000  0.500000  1
  As  As6  1  0.000000  0.500000  0.855290  1
  As  As7  1  0.500000  0.000000  0.144710  1
  Rh  Rh8  1  0.000000  0.000000  0.000000  1
  Rh  Rh9  1  0.500000  0.500000  0.000000  1
