# generated using pymatgen
data_SrPt4Pb
_symmetry_space_group_name_H-M   'P 1'
_cell_length_a   5.53010576
_cell_length_b   5.53010516
_cell_length_c   5.53010500
_cell_angle_alpha   59.99999498
_cell_angle_beta   59.99999854
_cell_angle_gamma   60.00000583
_symmetry_Int_Tables_number   1
_chemical_formula_structural   SrPt4Pb
_chemical_formula_sum   'Sr1 Pt4 Pb1'
_cell_volume   119.58733947
_cell_formula_units_Z   1
loop_
 _symmetry_equiv_pos_site_id
 _symmetry_equiv_pos_as_xyz
  1  'x, y, z'
loop_
 _atom_site_type_symbol
 _atom_site_label
 _atom_site_symmetry_multiplicity
 _atom_site_fract_x
 _atom_site_fract_y
 _atom_site_fract_z
 _atom_site_occupancy
  Sr  Sr0  1  0.250000  0.250000  0.250000  1
  Pt  Pt1  1  0.123769  0.625411  0.625411  1
  Pt  Pt2  1  0.625411  0.625411  0.625411  1
  Pt  Pt3  1  0.625411  0.625411  0.123769  1
  Pt  Pt4  1  0.625411  0.123769  0.625411  1
  Pb  Pb5  1  0.000000  0.000000  0.000000  1
