# generated using pymatgen
data_Rb4CeO4
_symmetry_space_group_name_H-M   'P 1'
_cell_length_a   7.05595109
_cell_length_b   7.04707376
_cell_length_c   10.50808689
_cell_angle_alpha   71.67162064
_cell_angle_beta   79.51015429
_cell_angle_gamma   67.02244843
_symmetry_Int_Tables_number   1
_chemical_formula_structural   Rb4CeO4
_chemical_formula_sum   'Rb8 Ce2 O8'
_cell_volume   455.58958688
_cell_formula_units_Z   2
loop_
 _symmetry_equiv_pos_site_id
 _symmetry_equiv_pos_as_xyz
  1  'x, y, z'
loop_
 _atom_site_type_symbol
 _atom_site_label
 _atom_site_symmetry_multiplicity
 _atom_site_fract_x
 _atom_site_fract_y
 _atom_site_fract_z
 _atom_site_occupancy
  Rb  Rb0  1  0.741842  0.590823  0.175741  1
  Rb  Rb1  1  0.258158  0.409177  0.824259  1
  Rb  Rb2  1  0.760398  0.241647  0.976358  1
  Rb  Rb3  1  0.239602  0.758353  0.023642  1
  Rb  Rb4  1  0.271731  0.511469  0.441477  1
  Rb  Rb5  1  0.728269  0.488531  0.558523  1
  Rb  Rb6  1  0.775251  0.044019  0.386684  1
  Rb  Rb7  1  0.224749  0.955981  0.613316  1
  Ce  Ce8  1  0.718120  0.849099  0.758305  1
  Ce  Ce9  1  0.281880  0.150901  0.241695  1
  O  O10  1  0.861996  0.842076  0.920872  1
  O  O11  1  0.138004  0.157924  0.079128  1
  O  O12  1  0.037087  0.290812  0.374987  1
  O  O13  1  0.962913  0.709188  0.625013  1
  O  O14  1  0.469697  0.343596  0.193524  1
  O  O15  1  0.530303  0.656404  0.806476  1
  O  O16  1  0.463010  0.839720  0.356816  1
  O  O17  1  0.536990  0.160280  0.643184  1
