# generated using pymatgen
data_Pu3UC6
_symmetry_space_group_name_H-M   'P 1'
_cell_length_a   7.06500051
_cell_length_b   7.06413185
_cell_length_c   7.04281687
_cell_angle_alpha   109.46622499
_cell_angle_beta   109.47123318
_cell_angle_gamma   109.60097885
_symmetry_Int_Tables_number   1
_chemical_formula_structural   Pu3UC6
_chemical_formula_sum   'Pu6 U2 C12'
_cell_volume   270.16205230
_cell_formula_units_Z   2
loop_
 _symmetry_equiv_pos_site_id
 _symmetry_equiv_pos_as_xyz
  1  'x, y, z'
loop_
 _atom_site_type_symbol
 _atom_site_label
 _atom_site_symmetry_multiplicity
 _atom_site_fract_x
 _atom_site_fract_y
 _atom_site_fract_z
 _atom_site_occupancy
  Pu  Pu0  1  0.599823  0.597096  0.595065  1
  Pu  Pu1  1  0.504758  0.002031  0.404935  1
  Pu  Pu2  1  0.003903  0.403752  0.507169  1
  Pu  Pu3  1  0.398056  0.499618  0.994421  1
  Pu  Pu4  1  0.996734  0.896582  0.492831  1
  Pu  Pu5  1  0.903635  0.505197  0.005579  1
  U  U6  1  0.500493  0.001053  0.894593  1
  U  U7  1  0.105901  0.106460  0.105407  1
  C  C8  1  0.790904  0.072173  0.783168  1
  C  C9  1  0.966669  0.204400  0.756778  1
  C  C10  1  0.225692  0.514685  0.291942  1
  C  C11  1  0.295911  0.227816  0.516784  1
  C  C12  1  0.761780  0.977187  0.207108  1
  C  C13  1  0.213625  0.759077  0.966685  1
  C  C14  1  0.709892  0.447622  0.243222  1
  C  C15  1  0.433749  0.222742  0.708058  1
  C  C16  1  0.507736  0.289005  0.216832  1
  C  C17  1  0.279127  0.711031  0.483216  1
  C  C18  1  0.746939  0.792392  0.033315  1
  C  C19  1  0.054673  0.770080  0.792892  1
