# generated using pymatgen
data_Ti8Cr3Ir4Rh
_symmetry_space_group_name_H-M   'P 1'
_cell_length_a   6.15993100
_cell_length_b   4.35130300
_cell_length_c   8.67213200
_cell_angle_alpha   90.00000000
_cell_angle_beta   89.99990724
_cell_angle_gamma   90.00000000
_symmetry_Int_Tables_number   1
_chemical_formula_structural   Ti8Cr3Ir4Rh
_chemical_formula_sum   'Ti8 Cr3 Ir4 Rh1'
_cell_volume   232.44545205
_cell_formula_units_Z   1
loop_
 _symmetry_equiv_pos_site_id
 _symmetry_equiv_pos_as_xyz
  1  'x, y, z'
loop_
 _atom_site_type_symbol
 _atom_site_label
 _atom_site_symmetry_multiplicity
 _atom_site_fract_x
 _atom_site_fract_y
 _atom_site_fract_z
 _atom_site_occupancy
  Ti  Ti0  1  0.490806  0.750000  0.125001  1
  Ti  Ti1  1  0.009179  0.750000  0.125004  1
  Ti  Ti2  1  0.496676  0.250000  0.379823  1
  Ti  Ti3  1  0.003318  0.250000  0.379822  1
  Ti  Ti4  1  0.999623  0.750000  0.624993  1
  Ti  Ti5  1  0.500369  0.750000  0.624995  1
  Ti  Ti6  1  0.003323  0.250000  0.870175  1
  Ti  Ti7  1  0.496687  0.250000  0.870173  1
  Cr  Cr8  1  0.249988  0.750000  0.372603  1
  Cr  Cr9  1  0.750011  0.250000  0.625006  1
  Cr  Cr10  1  0.250032  0.750000  0.877421  1
  Ir  Ir11  1  0.249993  0.250000  0.124993  1
  Ir  Ir12  1  0.749995  0.750000  0.374628  1
  Ir  Ir13  1  0.250000  0.250000  0.624996  1
  Ir  Ir14  1  0.750004  0.750000  0.875366  1
  Rh  Rh15  1  0.749996  0.250000  0.125003  1
