# generated using pymatgen
data_Y6MgCr(Co4P3)4
_symmetry_space_group_name_H-M   'P 1'
_cell_length_a   3.70883100
_cell_length_b   10.57863500
_cell_length_c   12.26736800
_cell_angle_alpha   90.00000000
_cell_angle_beta   90.00000000
_cell_angle_gamma   90.00000000
_symmetry_Int_Tables_number   1
_chemical_formula_structural   Y6MgCr(Co4P3)4
_chemical_formula_sum   'Y6 Mg1 Cr1 Co16 P12'
_cell_volume   481.30244799
_cell_formula_units_Z   1
loop_
 _symmetry_equiv_pos_site_id
 _symmetry_equiv_pos_as_xyz
  1  'x, y, z'
loop_
 _atom_site_type_symbol
 _atom_site_label
 _atom_site_symmetry_multiplicity
 _atom_site_fract_x
 _atom_site_fract_y
 _atom_site_fract_z
 _atom_site_occupancy
  Y  Y0  1  0.000000  0.500000  0.524918  1
  Y  Y1  1  0.500000  0.000000  0.477903  1
  Y  Y2  1  0.500000  0.821462  0.205846  1
  Y  Y3  1  0.500000  0.178538  0.205846  1
  Y  Y4  1  0.000000  0.682244  0.794530  1
  Y  Y5  1  0.000000  0.317756  0.794530  1
  Mg  Mg6  1  0.500000  0.500000  0.153239  1
  Cr  Cr7  1  0.000000  0.000000  0.842175  1
  Co  Co8  1  0.500000  0.500000  0.704292  1
  Co  Co9  1  0.000000  0.000000  0.296864  1
  Co  Co10  1  0.000000  0.500000  0.986058  1
  Co  Co11  1  0.500000  0.000000  0.010412  1
  Co  Co12  1  0.500000  0.328823  0.992544  1
  Co  Co13  1  0.500000  0.671177  0.992544  1
  Co  Co14  1  0.000000  0.163744  0.003044  1
  Co  Co15  1  0.000000  0.836256  0.003044  1
  Co  Co16  1  0.500000  0.295050  0.433329  1
  Co  Co17  1  0.500000  0.704950  0.433329  1
  Co  Co18  1  0.000000  0.202720  0.570734  1
  Co  Co19  1  0.000000  0.797280  0.570734  1
  Co  Co20  1  0.500000  0.880247  0.708388  1
  Co  Co21  1  0.500000  0.119753  0.708388  1
  Co  Co22  1  0.000000  0.623041  0.293914  1
  Co  Co23  1  0.000000  0.376959  0.293914  1
  P  P24  1  0.500000  0.500000  0.883648  1
  P  P25  1  0.000000  0.000000  0.116506  1
  P  P26  1  0.500000  0.500000  0.353110  1
  P  P27  1  0.000000  0.000000  0.653987  1
  P  P28  1  0.500000  0.309999  0.616881  1
  P  P29  1  0.500000  0.690001  0.616881  1
  P  P30  1  0.000000  0.189266  0.385600  1
  P  P31  1  0.000000  0.810734  0.385600  1
  P  P32  1  0.500000  0.848556  0.889888  1
  P  P33  1  0.500000  0.151444  0.889888  1
  P  P34  1  0.000000  0.661671  0.103747  1
  P  P35  1  0.000000  0.338329  0.103747  1
