# generated using pymatgen
data_LuU(B4Ru)2
_symmetry_space_group_name_H-M   'P 1'
_cell_length_a   3.52913400
_cell_length_b   5.93775753
_cell_length_c   11.49107436
_cell_angle_alpha   89.79494420
_cell_angle_beta   90.00000000
_cell_angle_gamma   90.00000000
_symmetry_Int_Tables_number   1
_chemical_formula_structural   LuU(B4Ru)2
_chemical_formula_sum   'Lu2 U2 B16 Ru4'
_cell_volume   240.79555248
_cell_formula_units_Z   2
loop_
 _symmetry_equiv_pos_site_id
 _symmetry_equiv_pos_as_xyz
  1  'x, y, z'
loop_
 _atom_site_type_symbol
 _atom_site_label
 _atom_site_symmetry_multiplicity
 _atom_site_fract_x
 _atom_site_fract_y
 _atom_site_fract_z
 _atom_site_occupancy
  Lu  Lu0  1  0.000000  0.129634  0.148076  1
  Lu  Lu1  1  0.000000  0.870366  0.851924  1
  U  U2  1  0.000000  0.628807  0.348758  1
  U  U3  1  0.000000  0.371193  0.651242  1
  B  B4  1  0.500000  0.791330  0.186767  1
  B  B5  1  0.500000  0.208670  0.813233  1
  B  B6  1  0.500000  0.291499  0.312382  1
  B  B7  1  0.500000  0.708501  0.687618  1
  B  B8  1  0.500000  0.864750  0.030391  1
  B  B9  1  0.500000  0.135250  0.969609  1
  B  B10  1  0.500000  0.368030  0.467200  1
  B  B11  1  0.500000  0.631970  0.532800  1
  B  B12  1  0.500000  0.886069  0.452480  1
  B  B13  1  0.500000  0.113931  0.547520  1
  B  B14  1  0.500000  0.385758  0.046478  1
  B  B15  1  0.500000  0.614242  0.953522  1
  B  B16  1  0.500000  0.976615  0.306505  1
  B  B17  1  0.500000  0.023385  0.693495  1
  B  B18  1  0.500000  0.473946  0.191695  1
  B  B19  1  0.500000  0.526054  0.808305  1
  Ru  Ru20  1  0.000000  0.639955  0.094693  1
  Ru  Ru21  1  0.000000  0.360045  0.905307  1
  Ru  Ru22  1  0.000000  0.140889  0.405946  1
  Ru  Ru23  1  0.000000  0.859111  0.594054  1
