# generated using pymatgen
data_Ti2Nb4V6Si9Ge
_symmetry_space_group_name_H-M   'P 1'
_cell_length_a   4.95941082
_cell_length_b   7.75155388
_cell_length_c   9.38525086
_cell_angle_alpha   65.16412450
_cell_angle_beta   74.67979538
_cell_angle_gamma   89.99998530
_symmetry_Int_Tables_number   1
_chemical_formula_structural   Ti2Nb4V6Si9Ge
_chemical_formula_sum   'Ti2 Nb4 V6 Si9 Ge1'
_cell_volume   313.24590982
_cell_formula_units_Z   1
loop_
 _symmetry_equiv_pos_site_id
 _symmetry_equiv_pos_as_xyz
  1  'x, y, z'
loop_
 _atom_site_type_symbol
 _atom_site_label
 _atom_site_symmetry_multiplicity
 _atom_site_fract_x
 _atom_site_fract_y
 _atom_site_fract_z
 _atom_site_occupancy
  Ti  Ti0  1  0.064362  0.320314  0.871277  1
  Ti  Ti1  1  0.935647  0.680225  0.128706  1
  Nb  Nb2  1  0.358229  0.739695  0.283542  1
  Nb  Nb3  1  0.641220  0.261993  0.717560  1
  Nb  Nb4  1  0.140128  0.027528  0.719746  1
  Nb  Nb5  1  0.859887  0.972242  0.280227  1
  V  V6  1  0.943353  0.687030  0.619947  1
  V  V7  1  0.560489  0.312633  0.378549  1
  V  V8  1  0.060962  0.312633  0.378549  1
  V  V9  1  0.436700  0.687030  0.619947  1
  V  V10  1  0.437582  0.191369  0.124836  1
  V  V11  1  0.560892  0.807695  0.878216  1
  Si  Si12  1  0.436385  0.516533  0.127228  1
  Si  Si13  1  0.563519  0.484582  0.872963  1
  Si  Si14  1  0.065373  0.651072  0.869254  1
  Si  Si15  1  0.934643  0.349398  0.130714  1
  Si  Si16  1  0.254457  0.000159  0.999996  1
  Si  Si17  1  0.745547  0.000159  0.999996  1
  Si  Si18  1  0.215851  0.420321  0.568300  1
  Si  Si19  1  0.784154  0.578639  0.431691  1
  Si  Si20  1  0.287889  0.991548  0.424223  1
  Ge  Ge21  1  0.712731  0.007202  0.574537  1
