# generated using pymatgen
data_Pr2Cr2TeWO12
_symmetry_space_group_name_H-M   'P 1'
_cell_length_a   5.23515401
_cell_length_b   5.23487191
_cell_length_c   10.32915601
_cell_angle_alpha   89.99783671
_cell_angle_beta   90.00013135
_cell_angle_gamma   119.99478063
_symmetry_Int_Tables_number   1
_chemical_formula_structural   Pr2Cr2TeWO12
_chemical_formula_sum   'Pr2 Cr2 Te1 W1 O12'
_cell_volume   245.16238000
_cell_formula_units_Z   1
loop_
 _symmetry_equiv_pos_site_id
 _symmetry_equiv_pos_as_xyz
  1  'x, y, z'
loop_
 _atom_site_type_symbol
 _atom_site_label
 _atom_site_symmetry_multiplicity
 _atom_site_fract_x
 _atom_site_fract_y
 _atom_site_fract_z
 _atom_site_occupancy
  Pr  Pr0  1  0.999999  0.000034  0.000216  1
  Pr  Pr1  1  0.999951  0.999977  0.499753  1
  Cr  Cr2  1  0.333292  0.666664  0.250270  1
  Cr  Cr3  1  0.666811  0.333314  0.749836  1
  Te  Te4  1  0.333452  0.666644  0.749954  1
  W  W5  1  0.666595  0.333313  0.249903  1
  O  O6  1  0.637383  0.627391  0.144432  1
  O  O7  1  0.989888  0.362565  0.144427  1
  O  O8  1  0.372572  0.010074  0.144437  1
  O  O9  1  0.372591  0.362464  0.355719  1
  O  O10  1  0.989737  0.627344  0.355714  1
  O  O11  1  0.637475  0.010192  0.355714  1
  O  O12  1  0.363588  0.990324  0.643798  1
  O  O13  1  0.626813  0.636450  0.643785  1
  O  O14  1  0.009743  0.373253  0.643764  1
  O  O15  1  0.009595  0.636393  0.856085  1
  O  O16  1  0.626843  0.990437  0.856114  1
  O  O17  1  0.363670  0.373177  0.856079  1
