# generated using pymatgen
data_CaZr8(In2Ru)7
_symmetry_space_group_name_H-M   'P 1'
_cell_length_a   9.76591377
_cell_length_b   9.76609404
_cell_length_c   9.76616406
_cell_angle_alpha   59.47035634
_cell_angle_beta   59.48005144
_cell_angle_gamma   59.48036215
_symmetry_Int_Tables_number   1
_chemical_formula_structural   CaZr8(In2Ru)7
_chemical_formula_sum   'Ca1 Zr8 In14 Ru7'
_cell_volume   650.79566104
_cell_formula_units_Z   1
loop_
 _symmetry_equiv_pos_site_id
 _symmetry_equiv_pos_as_xyz
  1  'x, y, z'
loop_
 _atom_site_type_symbol
 _atom_site_label
 _atom_site_symmetry_multiplicity
 _atom_site_fract_x
 _atom_site_fract_y
 _atom_site_fract_z
 _atom_site_occupancy
  Ca  Ca0  1  0.500000  0.500000  0.500000  1
  Zr  Zr1  1  0.122276  0.636626  0.122234  1
  Zr  Zr2  1  0.363380  0.877722  0.877732  1
  Zr  Zr3  1  0.878482  0.878429  0.878408  1
  Zr  Zr4  1  0.636620  0.122278  0.122268  1
  Zr  Zr5  1  0.877733  0.877765  0.363379  1
  Zr  Zr6  1  0.121518  0.121571  0.121592  1
  Zr  Zr7  1  0.877724  0.363374  0.877766  1
  Zr  Zr8  1  0.122267  0.122235  0.636621  1
  In  In9  1  0.499984  0.842999  0.157023  1
  In  In10  1  0.499736  0.845324  0.499704  1
  In  In11  1  0.500264  0.154676  0.500296  1
  In  In12  1  0.499723  0.499692  0.845341  1
  In  In13  1  0.154690  0.500267  0.500286  1
  In  In14  1  0.842940  0.157043  0.500030  1
  In  In15  1  0.157060  0.842957  0.499970  1
  In  In16  1  0.500016  0.157001  0.842977  1
  In  In17  1  0.157051  0.499992  0.842966  1
  In  In18  1  0.500277  0.500308  0.154659  1
  In  In19  1  0.845310  0.499733  0.499714  1
  In  In20  1  0.842949  0.500008  0.157034  1
  In  In21  1  0.250524  0.250526  0.250521  1
  In  In22  1  0.749476  0.749474  0.749479  1
  Ru  Ru23  1  0.778211  0.778200  0.220377  1
  Ru  Ru24  1  0.000000  0.000000  0.000000  1
  Ru  Ru25  1  0.221807  0.779587  0.221840  1
  Ru  Ru26  1  0.220437  0.778148  0.778146  1
  Ru  Ru27  1  0.221789  0.221800  0.779623  1
  Ru  Ru28  1  0.778193  0.220413  0.778160  1
  Ru  Ru29  1  0.779563  0.221852  0.221854  1
