# generated using pymatgen
data_Pr8Dy12Si15Br
_symmetry_space_group_name_H-M   'P 1'
_cell_length_a   7.65912713
_cell_length_b   7.80752562
_cell_length_c   14.88962420
_cell_angle_alpha   89.75093160
_cell_angle_beta   86.69709539
_cell_angle_gamma   90.00004967
_symmetry_Int_Tables_number   1
_chemical_formula_structural   Pr8Dy12Si15Br
_chemical_formula_sum   'Pr8 Dy12 Si15 Br1'
_cell_volume   888.89468237
_cell_formula_units_Z   1
loop_
 _symmetry_equiv_pos_site_id
 _symmetry_equiv_pos_as_xyz
  1  'x, y, z'
loop_
 _atom_site_type_symbol
 _atom_site_label
 _atom_site_symmetry_multiplicity
 _atom_site_fract_x
 _atom_site_fract_y
 _atom_site_fract_z
 _atom_site_occupancy
  Pr  Pr0  1  0.009077  0.828797  0.103286  1
  Pr  Pr1  1  0.478453  0.681632  0.398549  1
  Pr  Pr2  1  0.487733  0.311023  0.897885  1
  Pr  Pr3  1  0.020556  0.177659  0.600210  1
  Pr  Pr4  1  0.998450  0.173677  0.900004  1
  Pr  Pr5  1  0.521193  0.317271  0.599621  1
  Pr  Pr6  1  0.494449  0.690429  0.103379  1
  Pr  Pr7  1  0.979354  0.818005  0.399750  1
  Dy  Dy8  1  0.671879  0.994664  0.247303  1
  Dy  Dy9  1  0.169818  0.506773  0.245326  1
  Dy  Dy10  1  0.832066  0.491173  0.743792  1
  Dy  Dy11  1  0.326928  0.006405  0.751613  1
  Dy  Dy12  1  0.636812  0.844273  0.877935  1
  Dy  Dy13  1  0.173964  0.675730  0.623985  1
  Dy  Dy14  1  0.859037  0.328282  0.123892  1
  Dy  Dy15  1  0.328172  0.178545  0.377665  1
  Dy  Dy16  1  0.358061  0.168288  0.119858  1
  Dy  Dy17  1  0.827390  0.323239  0.376849  1
  Dy  Dy18  1  0.155995  0.668198  0.880479  1
  Dy  Dy19  1  0.673094  0.819747  0.623381  1
  Si  Si20  1  0.785671  0.621891  0.250880  1
  Si  Si21  1  0.286683  0.881240  0.252204  1
  Si  Si22  1  0.711997  0.122099  0.748904  1
  Si  Si23  1  0.211404  0.375963  0.749746  1
  Si  Si24  1  0.048415  0.116489  0.251905  1
  Si  Si25  1  0.547268  0.387140  0.250100  1
  Si  Si26  1  0.456082  0.610881  0.752161  1
  Si  Si27  1  0.951869  0.879940  0.752125  1
  Si  Si28  1  0.357892  0.967705  0.541062  1
  Si  Si29  1  0.702136  0.038788  0.042175  1
  Si  Si30  1  0.144586  0.468288  0.459895  1
  Si  Si31  1  0.200566  0.464171  0.043885  1
  Si  Si32  1  0.644862  0.029377  0.459183  1
  Si  Si33  1  0.301203  0.964478  0.955369  1
  Si  Si34  1  0.858831  0.528199  0.541444  1
  Br  Br35  1  0.788056  0.539545  0.954199  1
