# generated using pymatgen
data_Mg4Al2Pd9Pt
_symmetry_space_group_name_H-M   'P 1'
_cell_length_a   4.16615900
_cell_length_b   5.49063405
_cell_length_c   10.73997410
_cell_angle_alpha   90.01600507
_cell_angle_beta   90.00000000
_cell_angle_gamma   90.00000000
_symmetry_Int_Tables_number   1
_chemical_formula_structural   Mg4Al2Pd9Pt
_chemical_formula_sum   'Mg4 Al2 Pd9 Pt1'
_cell_volume   245.67533516
_cell_formula_units_Z   1
loop_
 _symmetry_equiv_pos_site_id
 _symmetry_equiv_pos_as_xyz
  1  'x, y, z'
loop_
 _atom_site_type_symbol
 _atom_site_label
 _atom_site_symmetry_multiplicity
 _atom_site_fract_x
 _atom_site_fract_y
 _atom_site_fract_z
 _atom_site_occupancy
  Mg  Mg0  1  0.500000  0.163691  0.359002  1
  Mg  Mg1  1  0.500000  0.836074  0.640850  1
  Mg  Mg2  1  0.500000  0.664349  0.140768  1
  Mg  Mg3  1  0.500000  0.336080  0.859517  1
  Al  Al4  1  0.000000  0.000862  0.000371  1
  Al  Al5  1  0.000000  0.500066  0.499851  1
  Pd  Pd6  1  0.500000  0.822447  0.894338  1
  Pd  Pd7  1  0.500000  0.676790  0.394902  1
  Pd  Pd8  1  0.500000  0.323039  0.605254  1
  Pd  Pd9  1  0.000000  0.999826  0.500058  1
  Pd  Pd10  1  0.000000  0.500570  0.999993  1
  Pd  Pd11  1  0.000000  0.910997  0.237749  1
  Pd  Pd12  1  0.000000  0.088514  0.762593  1
  Pd  Pd13  1  0.000000  0.411445  0.262907  1
  Pd  Pd14  1  0.000000  0.588741  0.737188  1
  Pt  Pt15  1  0.500000  0.176508  0.104661  1
