# generated using pymatgen
data_Yb4ErTm(Si3Ru)8
_symmetry_space_group_name_H-M   'P 1'
_cell_length_a   10.15040646
_cell_length_b   10.15013900
_cell_length_c   8.13165350
_cell_angle_alpha   89.93465137
_cell_angle_beta   90.04222974
_cell_angle_gamma   132.75277129
_symmetry_Int_Tables_number   1
_chemical_formula_structural   Yb4ErTm(Si3Ru)8
_chemical_formula_sum   'Yb4 Er1 Tm1 Si24 Ru8'
_cell_volume   615.17889417
_cell_formula_units_Z   1
loop_
 _symmetry_equiv_pos_site_id
 _symmetry_equiv_pos_as_xyz
  1  'x, y, z'
loop_
 _atom_site_type_symbol
 _atom_site_label
 _atom_site_symmetry_multiplicity
 _atom_site_fract_x
 _atom_site_fract_y
 _atom_site_fract_z
 _atom_site_occupancy
  Yb  Yb0  1  0.498800  0.998932  0.250116  1
  Yb  Yb1  1  0.000979  0.501069  0.749950  1
  Yb  Yb2  1  0.501772  0.001662  0.749959  1
  Yb  Yb3  1  0.500249  0.500295  0.500160  1
  Er  Er4  1  0.999872  0.499754  0.249985  1
  Tm  Tm5  1  0.000316  0.000280  0.999778  1
  Si  Si6  1  0.389100  0.154218  0.005176  1
  Si  Si7  1  0.652765  0.886800  0.493931  1
  Si  Si8  1  0.112769  0.345670  0.506107  1
  Si  Si9  1  0.844135  0.610400  0.994821  1
  Si  Si10  1  0.610989  0.845572  0.994087  1
  Si  Si11  1  0.347033  0.113351  0.506755  1
  Si  Si12  1  0.886927  0.653806  0.492191  1
  Si  Si13  1  0.155302  0.389302  0.006965  1
  Si  Si14  1  0.610143  0.377356  0.229243  1
  Si  Si15  1  0.876871  0.110100  0.271676  1
  Si  Si16  1  0.889364  0.123248  0.728990  1
  Si  Si17  1  0.622973  0.389363  0.770119  1
  Si  Si18  1  0.389546  0.623302  0.770103  1
  Si  Si19  1  0.123746  0.889597  0.729065  1
  Si  Si20  1  0.705711  0.293838  0.999890  1
  Si  Si21  1  0.794035  0.205625  0.500135  1
  Si  Si22  1  0.294880  0.706340  0.999000  1
  Si  Si23  1  0.206088  0.794912  0.501003  1
  Si  Si24  1  0.167122  0.168160  0.333667  1
  Si  Si25  1  0.666319  0.665250  0.168364  1
  Si  Si26  1  0.336277  0.333643  0.831405  1
  Si  Si27  1  0.831734  0.834325  0.666571  1
  Si  Si28  1  0.376359  0.609210  0.229179  1
  Si  Si29  1  0.109091  0.875820  0.271659  1
  Ru  Ru30  1  0.628467  0.629225  0.875783  1
  Ru  Ru31  1  0.125909  0.125206  0.627516  1
  Ru  Ru32  1  0.874644  0.874709  0.372809  1
  Ru  Ru33  1  0.371298  0.371302  0.123956  1
  Ru  Ru34  1  0.327955  0.668385  0.498354  1
  Ru  Ru35  1  0.167249  0.828945  0.001562  1
  Ru  Ru36  1  0.670894  0.331177  0.498547  1
  Ru  Ru37  1  0.832315  0.169847  0.001422  1
