# generated using pymatgen
data_AcY2SbO7
_symmetry_space_group_name_H-M   'P 1'
_cell_length_a   6.59733500
_cell_length_b   6.59733472
_cell_length_c   7.68703400
_cell_angle_alpha   90.00000000
_cell_angle_beta   90.00000000
_cell_angle_gamma   70.44654190
_symmetry_Int_Tables_number   1
_chemical_formula_structural   AcY2SbO7
_chemical_formula_sum   'Ac2 Y4 Sb2 O14'
_cell_volume   315.28165828
_cell_formula_units_Z   2
loop_
 _symmetry_equiv_pos_site_id
 _symmetry_equiv_pos_as_xyz
  1  'x, y, z'
loop_
 _atom_site_type_symbol
 _atom_site_label
 _atom_site_symmetry_multiplicity
 _atom_site_fract_x
 _atom_site_fract_y
 _atom_site_fract_z
 _atom_site_occupancy
  Ac  Ac0  1  0.500033  0.499966  0.250001  1
  Ac  Ac1  1  0.499966  0.500033  0.750000  1
  Y  Y2  1  0.530287  0.999077  0.000577  1
  Y  Y3  1  0.000923  0.469714  0.499424  1
  Y  Y4  1  0.469714  0.000923  0.500576  1
  Y  Y5  1  0.999077  0.530287  0.999423  1
  Sb  Sb6  1  0.000190  0.999809  0.250001  1
  Sb  Sb7  1  0.999809  0.000190  0.750000  1
  O  O8  1  0.356254  0.356254  0.000000  1
  O  O9  1  0.647608  0.647608  0.000000  1
  O  O10  1  0.934291  0.934291  0.000000  1
  O  O11  1  0.935844  0.317049  0.220047  1
  O  O12  1  0.317752  0.935208  0.221027  1
  O  O13  1  0.064792  0.682248  0.278972  1
  O  O14  1  0.682951  0.064156  0.279953  1
  O  O15  1  0.065709  0.065709  0.500000  1
  O  O16  1  0.352392  0.352392  0.500000  1
  O  O17  1  0.643747  0.643747  0.500000  1
  O  O18  1  0.064156  0.682951  0.720048  1
  O  O19  1  0.682248  0.064792  0.721028  1
  O  O20  1  0.935208  0.317752  0.778972  1
  O  O21  1  0.317049  0.935844  0.779952  1
