# generated using pymatgen
data_Zr6Nb3Al13Os7
_symmetry_space_group_name_H-M   'P 1'
_cell_length_a   8.85620006
_cell_length_b   8.85619914
_cell_length_c   8.85620002
_cell_angle_alpha   59.83633378
_cell_angle_beta   59.83633073
_cell_angle_gamma   59.83633978
_symmetry_Int_Tables_number   1
_chemical_formula_structural   Zr6Nb3Al13Os7
_chemical_formula_sum   'Zr6 Nb3 Al13 Os7'
_cell_volume   489.34033990
_cell_formula_units_Z   1
loop_
 _symmetry_equiv_pos_site_id
 _symmetry_equiv_pos_as_xyz
  1  'x, y, z'
loop_
 _atom_site_type_symbol
 _atom_site_label
 _atom_site_symmetry_multiplicity
 _atom_site_fract_x
 _atom_site_fract_y
 _atom_site_fract_z
 _atom_site_occupancy
  Zr  Zr0  1  0.711913  0.294853  0.294853  1
  Zr  Zr1  1  0.700195  0.302655  0.700195  1
  Zr  Zr2  1  0.700195  0.700195  0.302655  1
  Zr  Zr3  1  0.302655  0.700195  0.700195  1
  Zr  Zr4  1  0.294853  0.711913  0.294853  1
  Zr  Zr5  1  0.294853  0.294853  0.711913  1
  Nb  Nb6  1  0.637901  0.121571  0.121571  1
  Nb  Nb7  1  0.121571  0.637901  0.121571  1
  Nb  Nb8  1  0.121571  0.121571  0.637901  1
  Al  Al9  1  0.119540  0.119540  0.119540  1
  Al  Al10  1  0.362264  0.879354  0.879354  1
  Al  Al11  1  0.879354  0.362264  0.879354  1
  Al  Al12  1  0.879354  0.879354  0.362264  1
  Al  Al13  1  0.878792  0.878792  0.878792  1
  Al  Al14  1  0.990423  0.334643  0.334643  1
  Al  Al15  1  0.334643  0.990423  0.334643  1
  Al  Al16  1  0.334643  0.334643  0.990423  1
  Al  Al17  1  0.340687  0.340687  0.340687  1
  Al  Al18  1  0.005851  0.663757  0.663757  1
  Al  Al19  1  0.663757  0.005851  0.663757  1
  Al  Al20  1  0.663757  0.663757  0.005851  1
  Al  Al21  1  0.665509  0.665509  0.665509  1
  Os  Os22  1  0.999334  0.999334  0.999334  1
  Os  Os23  1  0.500164  0.999856  0.999856  1
  Os  Os24  1  0.498095  0.000319  0.498095  1
  Os  Os25  1  0.498095  0.498095  0.000319  1
  Os  Os26  1  0.000319  0.498095  0.498095  1
  Os  Os27  1  0.999856  0.500164  0.999856  1
  Os  Os28  1  0.999856  0.999856  0.500164  1
