# generated using pymatgen
data_Ho10Ir5Pd
_symmetry_space_group_name_H-M   'P 1'
_cell_length_a   10.91368935
_cell_length_b   10.90686900
_cell_length_c   6.32417903
_cell_angle_alpha   90.00000000
_cell_angle_beta   89.94302765
_cell_angle_gamma   90.00000000
_symmetry_Int_Tables_number   1
_chemical_formula_structural   Ho10Ir5Pd
_chemical_formula_sum   'Ho20 Ir10 Pd2'
_cell_volume   752.79309317
_cell_formula_units_Z   2
loop_
 _symmetry_equiv_pos_site_id
 _symmetry_equiv_pos_as_xyz
  1  'x, y, z'
loop_
 _atom_site_type_symbol
 _atom_site_label
 _atom_site_symmetry_multiplicity
 _atom_site_fract_x
 _atom_site_fract_y
 _atom_site_fract_z
 _atom_site_occupancy
  Ho  Ho0  1  0.291312  0.088346  0.375892  1
  Ho  Ho1  1  0.291312  0.911654  0.875892  1
  Ho  Ho2  1  0.703966  0.091028  0.872806  1
  Ho  Ho3  1  0.703966  0.908972  0.372806  1
  Ho  Ho4  1  0.583069  0.790611  0.878718  1
  Ho  Ho5  1  0.583069  0.209389  0.378718  1
  Ho  Ho6  1  0.410551  0.791518  0.377681  1
  Ho  Ho7  1  0.410551  0.208482  0.877681  1
  Ho  Ho8  1  0.209013  0.411412  0.621909  1
  Ho  Ho9  1  0.209013  0.588588  0.121909  1
  Ho  Ho10  1  0.790545  0.416025  0.122325  1
  Ho  Ho11  1  0.790545  0.583975  0.622325  1
  Ho  Ho12  1  0.913847  0.706399  0.128349  1
  Ho  Ho13  1  0.913847  0.293601  0.628349  1
  Ho  Ho14  1  0.092966  0.706228  0.622227  1
  Ho  Ho15  1  0.092966  0.293772  0.122227  1
  Ho  Ho16  1  0.004044  0.999451  0.499761  1
  Ho  Ho17  1  0.004044  0.000549  0.999761  1
  Ho  Ho18  1  0.499809  0.499414  0.999907  1
  Ho  Ho19  1  0.499809  0.500586  0.499907  1
  Ir  Ir20  1  0.152618  0.153901  0.750198  1
  Ir  Ir21  1  0.152618  0.846099  0.250198  1
  Ir  Ir22  1  0.655468  0.345495  0.749419  1
  Ir  Ir23  1  0.655468  0.654505  0.249419  1
  Ir  Ir24  1  0.346760  0.346115  0.250767  1
  Ir  Ir25  1  0.346760  0.653885  0.750767  1
  Ir  Ir26  1  0.501401  0.999829  0.123813  1
  Ir  Ir27  1  0.501401  0.000171  0.623813  1
  Ir  Ir28  1  0.999196  0.500365  0.876571  1
  Ir  Ir29  1  0.999196  0.499635  0.376571  1
  Pd  Pd30  1  0.845436  0.153393  0.249658  1
  Pd  Pd31  1  0.845436  0.846607  0.749658  1
