# generated using pymatgen
data_Zr8Nb2Si4Ge2C
_symmetry_space_group_name_H-M   'P 1'
_cell_length_a   7.94779189
_cell_length_b   7.95429155
_cell_length_c   5.55325500
_cell_angle_alpha   89.99896573
_cell_angle_beta   90.00051749
_cell_angle_gamma   120.02704900
_symmetry_Int_Tables_number   1
_chemical_formula_structural   Zr8Nb2Si4Ge2C
_chemical_formula_sum   'Zr8 Nb2 Si4 Ge2 C1'
_cell_volume   303.95395753
_cell_formula_units_Z   1
loop_
 _symmetry_equiv_pos_site_id
 _symmetry_equiv_pos_as_xyz
  1  'x, y, z'
loop_
 _atom_site_type_symbol
 _atom_site_label
 _atom_site_symmetry_multiplicity
 _atom_site_fract_x
 _atom_site_fract_y
 _atom_site_fract_z
 _atom_site_occupancy
  Zr  Zr0  1  0.000000  0.755690  0.258138  1
  Zr  Zr1  1  0.242510  0.242676  0.257940  1
  Zr  Zr2  1  0.757490  0.000166  0.257940  1
  Zr  Zr3  1  0.000000  0.244986  0.740638  1
  Zr  Zr4  1  0.759555  0.756720  0.741777  1
  Zr  Zr5  1  0.240445  0.997164  0.741777  1
  Zr  Zr6  1  0.331224  0.665990  0.001029  1
  Zr  Zr7  1  0.668776  0.334765  0.001029  1
  Nb  Nb8  1  0.669007  0.335382  0.497809  1
  Nb  Nb9  1  0.330993  0.666376  0.497809  1
  Si  Si10  1  0.000000  0.400604  0.261050  1
  Si  Si11  1  0.599631  0.600305  0.259402  1
  Si  Si12  1  0.400369  0.000674  0.259402  1
  Si  Si13  1  0.000000  0.598074  0.738663  1
  Ge  Ge14  1  0.400665  0.400399  0.742953  1
  Ge  Ge15  1  0.599335  0.999733  0.742953  1
  C  C16  1  0.000000  0.000296  0.499690  1
