# generated using pymatgen
data_Er5TmZr2(Co4P3)4
_symmetry_space_group_name_H-M   'P 1'
_cell_length_a   3.70199400
_cell_length_b   10.65394546
_cell_length_c   12.36231452
_cell_angle_alpha   90.03344677
_cell_angle_beta   90.00000000
_cell_angle_gamma   90.00000000
_symmetry_Int_Tables_number   1
_chemical_formula_structural   Er5TmZr2(Co4P3)4
_chemical_formula_sum   'Er5 Tm1 Zr2 Co16 P12'
_cell_volume   487.58001273
_cell_formula_units_Z   1
loop_
 _symmetry_equiv_pos_site_id
 _symmetry_equiv_pos_as_xyz
  1  'x, y, z'
loop_
 _atom_site_type_symbol
 _atom_site_label
 _atom_site_symmetry_multiplicity
 _atom_site_fract_x
 _atom_site_fract_y
 _atom_site_fract_z
 _atom_site_occupancy
  Er  Er0  1  0.750000  0.250045  0.470093  1
  Er  Er1  1  0.250000  0.750132  0.529973  1
  Er  Er2  1  0.250000  0.572294  0.795301  1
  Er  Er3  1  0.750000  0.072056  0.204727  1
  Er  Er4  1  0.750000  0.427844  0.204449  1
  Tm  Tm5  1  0.250000  0.927740  0.795467  1
  Zr  Zr6  1  0.250000  0.249897  0.841120  1
  Zr  Zr7  1  0.750000  0.750044  0.158904  1
  Co  Co8  1  0.250000  0.249829  0.296942  1
  Co  Co9  1  0.750000  0.750413  0.703186  1
  Co  Co10  1  0.750000  0.249823  0.013942  1
  Co  Co11  1  0.250000  0.750237  0.985742  1
  Co  Co12  1  0.250000  0.418035  0.007058  1
  Co  Co13  1  0.250000  0.081800  0.006911  1
  Co  Co14  1  0.750000  0.582184  0.992665  1
  Co  Co15  1  0.750000  0.918068  0.992634  1
  Co  Co16  1  0.250000  0.454998  0.566258  1
  Co  Co17  1  0.250000  0.045060  0.566620  1
  Co  Co18  1  0.750000  0.545145  0.433677  1
  Co  Co19  1  0.750000  0.954823  0.434017  1
  Co  Co20  1  0.250000  0.872920  0.299332  1
  Co  Co21  1  0.250000  0.626913  0.299033  1
  Co  Co22  1  0.750000  0.126579  0.701332  1
  Co  Co23  1  0.750000  0.373042  0.700878  1
  P  P24  1  0.250000  0.249855  0.116810  1
  P  P25  1  0.750000  0.750384  0.882846  1
  P  P26  1  0.250000  0.250130  0.635473  1
  P  P27  1  0.750000  0.749992  0.364619  1
  P  P28  1  0.250000  0.438999  0.383892  1
  P  P29  1  0.250000  0.060824  0.384218  1
  P  P30  1  0.750000  0.561098  0.616033  1
  P  P31  1  0.750000  0.938980  0.616488  1
  P  P32  1  0.250000  0.912541  0.107099  1
  P  P33  1  0.250000  0.587591  0.106918  1
  P  P34  1  0.750000  0.087151  0.892500  1
  P  P35  1  0.750000  0.412533  0.892840  1
