# generated using pymatgen
data_TbThMgZnRh2
_symmetry_space_group_name_H-M   'P 1'
_cell_length_a   3.98782400
_cell_length_b   7.23737028
_cell_length_c   8.65721328
_cell_angle_alpha   92.90044073
_cell_angle_beta   90.00000000
_cell_angle_gamma   90.00000000
_symmetry_Int_Tables_number   1
_chemical_formula_structural   TbThMgZnRh2
_chemical_formula_sum   'Tb2 Th2 Mg2 Zn2 Rh4'
_cell_volume   249.53886211
_cell_formula_units_Z   2
loop_
 _symmetry_equiv_pos_site_id
 _symmetry_equiv_pos_as_xyz
  1  'x, y, z'
loop_
 _atom_site_type_symbol
 _atom_site_label
 _atom_site_symmetry_multiplicity
 _atom_site_fract_x
 _atom_site_fract_y
 _atom_site_fract_z
 _atom_site_occupancy
  Tb  Tb0  1  0.250000  0.050961  0.329694  1
  Tb  Tb1  1  0.750000  0.949039  0.670306  1
  Th  Th2  1  0.250000  0.534831  0.198657  1
  Th  Th3  1  0.750000  0.465169  0.801343  1
  Mg  Mg4  1  0.250000  0.129136  0.935654  1
  Mg  Mg5  1  0.750000  0.870864  0.064346  1
  Zn  Zn6  1  0.250000  0.635629  0.556970  1
  Zn  Zn7  1  0.750000  0.364371  0.443030  1
  Rh  Rh8  1  0.750000  0.744625  0.367556  1
  Rh  Rh9  1  0.250000  0.255375  0.632444  1
  Rh  Rh10  1  0.750000  0.265554  0.129674  1
  Rh  Rh11  1  0.250000  0.734446  0.870326  1
