# generated using pymatgen
data_Te(S2Cl3)2
_symmetry_space_group_name_H-M   'P 1'
_cell_length_a   7.38598025
_cell_length_b   7.33554099
_cell_length_c   8.03099645
_cell_angle_alpha   62.89942195
_cell_angle_beta   64.71579670
_cell_angle_gamma   60.62691715
_symmetry_Int_Tables_number   1
_chemical_formula_structural   Te(S2Cl3)2
_chemical_formula_sum   'Te1 S4 Cl6'
_cell_volume   325.71219905
_cell_formula_units_Z   1
loop_
 _symmetry_equiv_pos_site_id
 _symmetry_equiv_pos_as_xyz
  1  'x, y, z'
loop_
 _atom_site_type_symbol
 _atom_site_label
 _atom_site_symmetry_multiplicity
 _atom_site_fract_x
 _atom_site_fract_y
 _atom_site_fract_z
 _atom_site_occupancy
  Te  Te0  1  0.000000  0.000000  0.000000  1
  S  S1  1  0.667805  0.554181  0.330952  1
  S  S2  1  0.398170  0.725747  0.499252  1
  S  S3  1  0.601830  0.274253  0.500748  1
  S  S4  1  0.332196  0.445818  0.669048  1
  Cl  Cl5  1  0.606947  0.028477  0.190094  1
  Cl  Cl6  1  0.014570  0.161647  0.221103  1
  Cl  Cl7  1  0.141814  0.616536  0.224467  1
  Cl  Cl8  1  0.858186  0.383465  0.775533  1
  Cl  Cl9  1  0.985431  0.838354  0.778896  1
  Cl  Cl10  1  0.393054  0.971521  0.809905  1
