# generated using pymatgen
data_GdCoTeO6
_symmetry_space_group_name_H-M   'P 1'
_cell_length_a   5.08154107
_cell_length_b   5.08394138
_cell_length_c   9.70193400
_cell_angle_alpha   90.05285609
_cell_angle_beta   90.00975311
_cell_angle_gamma   120.04764673
_symmetry_Int_Tables_number   1
_chemical_formula_structural   GdCoTeO6
_chemical_formula_sum   'Gd2 Co2 Te2 O12'
_cell_volume   216.95811951
_cell_formula_units_Z   2
loop_
 _symmetry_equiv_pos_site_id
 _symmetry_equiv_pos_as_xyz
  1  'x, y, z'
loop_
 _atom_site_type_symbol
 _atom_site_label
 _atom_site_symmetry_multiplicity
 _atom_site_fract_x
 _atom_site_fract_y
 _atom_site_fract_z
 _atom_site_occupancy
  Gd  Gd0  1  0.999974  0.999962  0.000001  1
  Gd  Gd1  1  0.000034  0.000006  0.499982  1
  Co  Co2  1  0.333547  0.666735  0.249870  1
  Co  Co3  1  0.666467  0.333264  0.750127  1
  Te  Te4  1  0.666744  0.333377  0.249853  1
  Te  Te5  1  0.333221  0.666614  0.750131  1
  O  O6  1  0.630701  0.634510  0.140204  1
  O  O7  1  0.365188  0.995577  0.140203  1
  O  O8  1  0.003994  0.369242  0.140188  1
  O  O9  1  0.365428  0.369559  0.359652  1
  O  O10  1  0.004500  0.635109  0.359645  1
  O  O11  1  0.631037  0.996422  0.359639  1
  O  O12  1  0.368932  0.003565  0.640369  1
  O  O13  1  0.634659  0.630554  0.640366  1
  O  O14  1  0.995536  0.364882  0.640348  1
  O  O15  1  0.996023  0.630759  0.859805  1
  O  O16  1  0.634738  0.004386  0.859822  1
  O  O17  1  0.369272  0.365478  0.859798  1
