# generated using pymatgen
data_Nd3Mg2CdGe2Au
_symmetry_space_group_name_H-M   'P 1'
_cell_length_a   7.51702200
_cell_length_b   7.45119648
_cell_length_c   4.44570600
_cell_angle_alpha   90.00000000
_cell_angle_beta   90.00000000
_cell_angle_gamma   120.29266654
_symmetry_Int_Tables_number   1
_chemical_formula_structural   Nd3Mg2CdGe2Au
_chemical_formula_sum   'Nd3 Mg2 Cd1 Ge2 Au1'
_cell_volume   215.00811865
_cell_formula_units_Z   1
loop_
 _symmetry_equiv_pos_site_id
 _symmetry_equiv_pos_as_xyz
  1  'x, y, z'
loop_
 _atom_site_type_symbol
 _atom_site_label
 _atom_site_symmetry_multiplicity
 _atom_site_fract_x
 _atom_site_fract_y
 _atom_site_fract_z
 _atom_site_occupancy
  Nd  Nd0  1  0.581514  0.000000  0.000000  1
  Nd  Nd1  1  0.002252  0.586580  0.000000  1
  Nd  Nd2  1  0.415672  0.413420  0.000000  1
  Mg  Mg3  1  0.001010  0.240857  0.500000  1
  Mg  Mg4  1  0.760153  0.759143  0.500000  1
  Cd  Cd5  1  0.247661  0.000000  0.500000  1
  Ge  Ge6  1  0.333634  0.662796  0.500000  1
  Ge  Ge7  1  0.670840  0.337204  0.500000  1
  Au  Au8  1  0.987264  0.000000  0.000000  1
