# generated using pymatgen
data_Dy2Tm5Zn(Co3Sn11)2
_symmetry_space_group_name_H-M   'P 1'
_cell_length_a   9.64491306
_cell_length_b   9.64550394
_cell_length_c   9.93868707
_cell_angle_alpha   90.00000051
_cell_angle_beta   90.01177310
_cell_angle_gamma   120.00201890
_symmetry_Int_Tables_number   1
_chemical_formula_structural   Dy2Tm5Zn(Co3Sn11)2
_chemical_formula_sum   'Dy2 Tm5 Zn1 Co6 Sn22'
_cell_volume   800.70776506
_cell_formula_units_Z   1
loop_
 _symmetry_equiv_pos_site_id
 _symmetry_equiv_pos_as_xyz
  1  'x, y, z'
loop_
 _atom_site_type_symbol
 _atom_site_label
 _atom_site_symmetry_multiplicity
 _atom_site_fract_x
 _atom_site_fract_y
 _atom_site_fract_z
 _atom_site_occupancy
  Dy  Dy0  1  0.000086  0.000043  0.000092  1
  Dy  Dy1  1  0.958357  0.479179  0.693924  1
  Tm  Tm2  1  0.479665  0.520355  0.305879  1
  Tm  Tm3  1  0.520418  0.479679  0.694055  1
  Tm  Tm4  1  0.479665  0.959308  0.305879  1
  Tm  Tm5  1  0.520418  0.040739  0.694055  1
  Tm  Tm6  1  0.040673  0.520336  0.305703  1
  Zn  Zn7  1  0.000028  0.000014  0.499946  1
  Co  Co8  1  0.831941  0.168051  0.197563  1
  Co  Co9  1  0.168427  0.832593  0.802609  1
  Co  Co10  1  0.831941  0.663889  0.197563  1
  Co  Co11  1  0.168427  0.335835  0.802609  1
  Co  Co12  1  0.336047  0.168023  0.197628  1
  Co  Co13  1  0.663794  0.831897  0.802502  1
  Sn  Sn14  1  0.346178  0.000115  0.000021  1
  Sn  Sn15  1  0.653829  0.999981  0.000035  1
  Sn  Sn16  1  0.000069  0.346047  0.000121  1
  Sn  Sn17  1  0.000069  0.654021  0.000121  1
  Sn  Sn18  1  0.653829  0.653848  0.000035  1
  Sn  Sn19  1  0.346178  0.346063  0.000021  1
  Sn  Sn20  1  0.333669  0.666835  0.818473  1
  Sn  Sn21  1  0.666623  0.333311  0.181616  1
  Sn  Sn22  1  0.782513  0.216819  0.453101  1
  Sn  Sn23  1  0.217899  0.783565  0.546151  1
  Sn  Sn24  1  0.782513  0.565695  0.453101  1
  Sn  Sn25  1  0.217899  0.434333  0.546151  1
  Sn  Sn26  1  0.434408  0.217204  0.453435  1
  Sn  Sn27  1  0.565605  0.782802  0.546456  1
  Sn  Sn28  1  0.333341  0.666671  0.121062  1
  Sn  Sn29  1  0.665257  0.332628  0.879777  1
  Sn  Sn30  1  0.114301  0.885805  0.276707  1
  Sn  Sn31  1  0.885769  0.113754  0.723420  1
  Sn  Sn32  1  0.114301  0.228496  0.276707  1
  Sn  Sn33  1  0.885769  0.772014  0.723420  1
  Sn  Sn34  1  0.771478  0.885739  0.276674  1
  Sn  Sn35  1  0.228619  0.114309  0.723389  1
