# generated using pymatgen
data_Sc6Zn22GePt
_symmetry_space_group_name_H-M   'P 1'
_cell_length_a   8.80135783
_cell_length_b   8.80135796
_cell_length_c   8.80135800
_cell_angle_alpha   60.00000738
_cell_angle_beta   60.00000689
_cell_angle_gamma   60.00000074
_symmetry_Int_Tables_number   1
_chemical_formula_structural   Sc6Zn22GePt
_chemical_formula_sum   'Sc6 Zn22 Ge1 Pt1'
_cell_volume   482.09663578
_cell_formula_units_Z   1
loop_
 _symmetry_equiv_pos_site_id
 _symmetry_equiv_pos_as_xyz
  1  'x, y, z'
loop_
 _atom_site_type_symbol
 _atom_site_label
 _atom_site_symmetry_multiplicity
 _atom_site_fract_x
 _atom_site_fract_y
 _atom_site_fract_z
 _atom_site_occupancy
  Sc  Sc0  1  0.714574  0.285420  0.285404  1
  Sc  Sc1  1  0.285426  0.714580  0.714596  1
  Sc  Sc2  1  0.285661  0.714341  0.285654  1
  Sc  Sc3  1  0.714339  0.285659  0.714346  1
  Sc  Sc4  1  0.285971  0.285957  0.714030  1
  Sc  Sc5  1  0.714029  0.714043  0.285970  1
  Zn  Zn6  1  0.122415  0.122340  0.122265  1
  Zn  Zn7  1  0.877585  0.877660  0.877735  1
  Zn  Zn8  1  0.122334  0.122415  0.632984  1
  Zn  Zn9  1  0.122259  0.632984  0.122418  1
  Zn  Zn10  1  0.877666  0.877585  0.367016  1
  Zn  Zn11  1  0.877741  0.367016  0.877582  1
  Zn  Zn12  1  0.632985  0.122260  0.122335  1
  Zn  Zn13  1  0.367015  0.877740  0.877665  1
  Zn  Zn14  1  0.500000  0.000000  0.000000  1
  Zn  Zn15  1  0.000000  0.500000  0.500000  1
  Zn  Zn16  1  0.000000  0.500000  0.000000  1
  Zn  Zn17  1  0.500000  0.000000  0.500000  1
  Zn  Zn18  1  0.000000  0.000000  0.500000  1
  Zn  Zn19  1  0.500000  0.500000  0.000000  1
  Zn  Zn20  1  0.335921  0.335764  0.335750  1
  Zn  Zn21  1  0.664079  0.664236  0.664250  1
  Zn  Zn22  1  0.335761  0.335925  0.992561  1
  Zn  Zn23  1  0.335747  0.992560  0.335926  1
  Zn  Zn24  1  0.664239  0.664075  0.007439  1
  Zn  Zn25  1  0.664253  0.007440  0.664074  1
  Zn  Zn26  1  0.992558  0.335751  0.335764  1
  Zn  Zn27  1  0.007442  0.664249  0.664236  1
  Ge  Ge28  1  0.500000  0.500000  0.500000  1
  Pt  Pt29  1  0.000000  0.000000  0.000000  1
