# generated using pymatgen
data_K6S2O9
_symmetry_space_group_name_H-M   'P 1'
_cell_length_a   7.71332800
_cell_length_b   7.71332805
_cell_length_c   7.71332800
_cell_angle_alpha   60.00000021
_cell_angle_beta   60.00000002
_cell_angle_gamma   60.00000021
_symmetry_Int_Tables_number   1
_chemical_formula_structural   K6S2O9
_chemical_formula_sum   'K6 S2 O9'
_cell_volume   324.49679031
_cell_formula_units_Z   1
loop_
 _symmetry_equiv_pos_site_id
 _symmetry_equiv_pos_as_xyz
  1  'x, y, z'
loop_
 _atom_site_type_symbol
 _atom_site_label
 _atom_site_symmetry_multiplicity
 _atom_site_fract_x
 _atom_site_fract_y
 _atom_site_fract_z
 _atom_site_occupancy
  K  K0  1  0.763041  0.236959  0.236959  1
  K  K1  1  0.236959  0.763041  0.236959  1
  K  K2  1  0.763041  0.236959  0.763041  1
  K  K3  1  0.236959  0.236959  0.763041  1
  K  K4  1  0.763041  0.763041  0.236959  1
  K  K5  1  0.236959  0.763041  0.763041  1
  S  S6  1  0.250000  0.250000  0.250000  1
  S  S7  1  0.750000  0.750000  0.750000  1
  O  O8  1  0.000000  0.000000  0.000000  1
  O  O9  1  0.329313  0.329313  0.012061  1
  O  O10  1  0.670687  0.987939  0.670687  1
  O  O11  1  0.670687  0.670687  0.670687  1
  O  O12  1  0.987939  0.670687  0.670687  1
  O  O13  1  0.012061  0.329313  0.329313  1
  O  O14  1  0.329313  0.012061  0.329313  1
  O  O15  1  0.329313  0.329313  0.329313  1
  O  O16  1  0.670687  0.670687  0.987939  1
