# generated using pymatgen
data_Ce2Co2Si5Ru
_symmetry_space_group_name_H-M   'P 1'
_cell_length_a   8.01308522
_cell_length_b   8.01308529
_cell_length_c   8.01308585
_cell_angle_alpha   138.03122794
_cell_angle_beta   105.68383936
_cell_angle_gamma   89.20709848
_symmetry_Int_Tables_number   1
_chemical_formula_structural   Ce2Co2Si5Ru
_chemical_formula_sum   'Ce4 Co4 Si10 Ru2'
_cell_volume   316.95525488
_cell_formula_units_Z   2
loop_
 _symmetry_equiv_pos_site_id
 _symmetry_equiv_pos_as_xyz
  1  'x, y, z'
loop_
 _atom_site_type_symbol
 _atom_site_label
 _atom_site_symmetry_multiplicity
 _atom_site_fract_x
 _atom_site_fract_y
 _atom_site_fract_z
 _atom_site_occupancy
  Ce  Ce0  1  0.865777  0.630112  0.235665  1
  Ce  Ce1  1  0.134223  0.369888  0.764335  1
  Ce  Ce2  1  0.394447  0.130112  0.264335  1
  Ce  Ce3  1  0.605553  0.869888  0.735665  1
  Co  Co4  1  0.251516  0.862765  0.388751  1
  Co  Co5  1  0.748484  0.137235  0.611249  1
  Co  Co6  1  0.474015  0.362765  0.111249  1
  Co  Co7  1  0.525985  0.637235  0.888751  1
  Si  Si8  1  0.500000  0.750000  0.250000  1
  Si  Si9  1  0.500000  0.250000  0.750000  1
  Si  Si10  1  0.233727  0.983727  0.750000  1
  Si  Si11  1  0.766273  0.516273  0.750000  1
  Si  Si12  1  0.766273  0.016273  0.250000  1
  Si  Si13  1  0.233727  0.483727  0.250000  1
  Si  Si14  1  0.048856  0.892358  0.156497  1
  Si  Si15  1  0.951144  0.107642  0.843503  1
  Si  Si16  1  0.735861  0.392358  0.343503  1
  Si  Si17  1  0.264139  0.607642  0.656497  1
  Ru  Ru18  1  0.000000  0.750000  0.750000  1
  Ru  Ru19  1  0.000000  0.250000  0.250000  1
