# generated using pymatgen
data_HfSc3(IrRu)2
_symmetry_space_group_name_H-M   'P 1'
_cell_length_a   6.40567300
_cell_length_b   4.59193100
_cell_length_c   9.17542200
_cell_angle_alpha   90.00000000
_cell_angle_beta   89.99950602
_cell_angle_gamma   90.00000000
_symmetry_Int_Tables_number   1
_chemical_formula_structural   HfSc3(IrRu)2
_chemical_formula_sum   'Hf2 Sc6 Ir4 Ru4'
_cell_volume   269.88961017
_cell_formula_units_Z   2
loop_
 _symmetry_equiv_pos_site_id
 _symmetry_equiv_pos_as_xyz
  1  'x, y, z'
loop_
 _atom_site_type_symbol
 _atom_site_label
 _atom_site_symmetry_multiplicity
 _atom_site_fract_x
 _atom_site_fract_y
 _atom_site_fract_z
 _atom_site_occupancy
  Hf  Hf0  1  0.999640  0.750000  0.125000  1
  Hf  Hf1  1  0.500080  0.750000  0.125016  1
  Sc  Sc2  1  0.000024  0.250000  0.378263  1
  Sc  Sc3  1  0.499696  0.250000  0.378280  1
  Sc  Sc4  1  0.499934  0.750000  0.624989  1
  Sc  Sc5  1  0.000353  0.750000  0.625006  1
  Sc  Sc6  1  0.499982  0.250000  0.871726  1
  Sc  Sc7  1  0.000303  0.250000  0.871742  1
  Ir  Ir8  1  0.749896  0.250000  0.124990  1
  Ir  Ir9  1  0.249902  0.750000  0.371495  1
  Ir  Ir10  1  0.750091  0.250000  0.624990  1
  Ir  Ir11  1  0.250099  0.750000  0.878519  1
  Ru  Ru12  1  0.249891  0.250000  0.124964  1
  Ru  Ru13  1  0.749929  0.750000  0.371164  1
  Ru  Ru14  1  0.250095  0.250000  0.624965  1
  Ru  Ru15  1  0.750088  0.750000  0.878887  1
