# generated using pymatgen
data_Ta12Os3Ru
_symmetry_space_group_name_H-M   'P 1'
_cell_length_a   5.17325900
_cell_length_b   5.17361500
_cell_length_c   10.34664300
_cell_angle_alpha   90.00000000
_cell_angle_beta   90.00000000
_cell_angle_gamma   90.00000000
_symmetry_Int_Tables_number   1
_chemical_formula_structural   Ta12Os3Ru
_chemical_formula_sum   'Ta12 Os3 Ru1'
_cell_volume   276.92221298
_cell_formula_units_Z   1
loop_
 _symmetry_equiv_pos_site_id
 _symmetry_equiv_pos_as_xyz
  1  'x, y, z'
loop_
 _atom_site_type_symbol
 _atom_site_label
 _atom_site_symmetry_multiplicity
 _atom_site_fract_x
 _atom_site_fract_y
 _atom_site_fract_z
 _atom_site_occupancy
  Ta  Ta0  1  0.500000  0.000000  0.375233  1
  Ta  Ta1  1  0.500000  0.000000  0.874597  1
  Ta  Ta2  1  0.749952  0.500000  0.000000  1
  Ta  Ta3  1  0.749688  0.500000  0.500000  1
  Ta  Ta4  1  0.000000  0.749857  0.249252  1
  Ta  Ta5  1  0.000000  0.749857  0.750748  1
  Ta  Ta6  1  0.500000  0.000000  0.125403  1
  Ta  Ta7  1  0.500000  0.000000  0.624767  1
  Ta  Ta8  1  0.250048  0.500000  0.000000  1
  Ta  Ta9  1  0.250312  0.500000  0.500000  1
  Ta  Ta10  1  0.000000  0.250143  0.249252  1
  Ta  Ta11  1  0.000000  0.250143  0.750748  1
  Os  Os12  1  0.500000  0.500000  0.250454  1
  Os  Os13  1  0.500000  0.500000  0.749546  1
  Os  Os14  1  0.000000  0.000000  0.000000  1
  Ru  Ru15  1  0.000000  0.000000  0.500000  1
