# generated using pymatgen
data_ErTmB24
_symmetry_space_group_name_H-M   'P 1'
_cell_length_a   5.28395800
_cell_length_b   5.28395777
_cell_length_c   9.15239600
_cell_angle_alpha   73.22194137
_cell_angle_beta   90.00000000
_cell_angle_gamma   120.00000142
_symmetry_Int_Tables_number   1
_chemical_formula_structural   ErTmB24
_chemical_formula_sum   'Er1 Tm1 B24'
_cell_volume   208.64584234
_cell_formula_units_Z   1
loop_
 _symmetry_equiv_pos_site_id
 _symmetry_equiv_pos_as_xyz
  1  'x, y, z'
loop_
 _atom_site_type_symbol
 _atom_site_label
 _atom_site_symmetry_multiplicity
 _atom_site_fract_x
 _atom_site_fract_y
 _atom_site_fract_z
 _atom_site_occupancy
  Er  Er0  1  0.500000  0.000000  0.500000  1
  Tm  Tm1  1  0.000000  0.000000  0.000000  1
  B  B2  1  0.912021  0.500303  0.249666  1
  B  B3  1  0.411717  0.499697  0.750334  1
  B  B4  1  0.081018  0.500264  0.418718  1
  B  B5  1  0.580955  0.499967  0.919078  1
  B  B6  1  0.250031  0.838313  0.249666  1
  B  B7  1  0.749969  0.837948  0.750334  1
  B  B8  1  0.081018  0.162035  0.418718  1
  B  B9  1  0.580955  0.161910  0.919078  1
  B  B10  1  0.912021  0.162052  0.249666  1
  B  B11  1  0.411717  0.161687  0.750334  1
  B  B12  1  0.250031  0.162052  0.249666  1
  B  B13  1  0.749969  0.161687  0.750334  1
  B  B14  1  0.419045  0.838090  0.080922  1
  B  B15  1  0.918982  0.837965  0.581282  1
  B  B16  1  0.419045  0.500033  0.080922  1
  B  B17  1  0.918982  0.499736  0.581282  1
  B  B18  1  0.080988  0.500033  0.080922  1
  B  B19  1  0.580754  0.499736  0.581282  1
  B  B20  1  0.588283  0.500303  0.249666  1
  B  B21  1  0.087979  0.499697  0.750334  1
  B  B22  1  0.588283  0.838313  0.249666  1
  B  B23  1  0.087979  0.837948  0.750334  1
  B  B24  1  0.419246  0.500264  0.418718  1
  B  B25  1  0.919012  0.499967  0.919078  1
