# generated using pymatgen
data_LiCa2NpO6
_symmetry_space_group_name_H-M   'P 1'
_cell_length_a   5.76102000
_cell_length_b   5.59496449
_cell_length_c   9.74069542
_cell_angle_alpha   57.47707144
_cell_angle_beta   90.00000000
_cell_angle_gamma   90.00000000
_symmetry_Int_Tables_number   1
_chemical_formula_structural   LiCa2NpO6
_chemical_formula_sum   'Li2 Ca4 Np2 O12'
_cell_volume   264.73118533
_cell_formula_units_Z   2
loop_
 _symmetry_equiv_pos_site_id
 _symmetry_equiv_pos_as_xyz
  1  'x, y, z'
loop_
 _atom_site_type_symbol
 _atom_site_label
 _atom_site_symmetry_multiplicity
 _atom_site_fract_x
 _atom_site_fract_y
 _atom_site_fract_z
 _atom_site_occupancy
  Li  Li0  1  0.500000  0.500000  0.000000  1
  Li  Li1  1  0.000000  0.500000  0.500000  1
  Ca  Ca2  1  0.057493  0.712573  0.760534  1
  Ca  Ca3  1  0.942507  0.287427  0.239466  1
  Ca  Ca4  1  0.557493  0.287427  0.739466  1
  Ca  Ca5  1  0.442507  0.712573  0.260534  1
  Np  Np6  1  0.500000  0.000000  0.500000  1
  Np  Np7  1  0.000000  0.000000  0.000000  1
  O  O8  1  0.304653  0.659832  0.551340  1
  O  O9  1  0.695347  0.340168  0.448660  1
  O  O10  1  0.804653  0.340168  0.948660  1
  O  O11  1  0.195347  0.659832  0.051340  1
  O  O12  1  0.443743  0.894407  0.729629  1
  O  O13  1  0.556257  0.105593  0.270371  1
  O  O14  1  0.943743  0.105593  0.770371  1
  O  O15  1  0.056257  0.894407  0.229629  1
  O  O16  1  0.779920  0.736286  0.574975  1
  O  O17  1  0.220080  0.263714  0.425025  1
  O  O18  1  0.279920  0.263714  0.925025  1
  O  O19  1  0.720080  0.736286  0.074975  1
