# generated using pymatgen
data_Li4Nd3(SnPb)2
_symmetry_space_group_name_H-M   'P 1'
_cell_length_a   8.93428971
_cell_length_b   8.93428857
_cell_length_c   8.93428806
_cell_angle_alpha   149.12489439
_cell_angle_beta   132.19026557
_cell_angle_gamma   58.00246575
_symmetry_Int_Tables_number   1
_chemical_formula_structural   Li4Nd3(SnPb)2
_chemical_formula_sum   'Li4 Nd3 Sn2 Pb2'
_cell_volume   269.11164093
_cell_formula_units_Z   1
loop_
 _symmetry_equiv_pos_site_id
 _symmetry_equiv_pos_as_xyz
  1  'x, y, z'
loop_
 _atom_site_type_symbol
 _atom_site_label
 _atom_site_symmetry_multiplicity
 _atom_site_fract_x
 _atom_site_fract_y
 _atom_site_fract_z
 _atom_site_occupancy
  Li  Li0  1  0.479751  0.671125  0.808627  1
  Li  Li1  1  0.862498  0.671125  0.191373  1
  Li  Li2  1  0.137502  0.328875  0.808627  1
  Li  Li3  1  0.520249  0.328875  0.191373  1
  Nd  Nd4  1  0.500000  0.000000  0.500000  1
  Nd  Nd5  1  0.872421  0.872421  0.000000  1
  Nd  Nd6  1  0.127579  0.127579  0.000000  1
  Sn  Sn7  1  0.801838  0.500000  0.301838  1
  Sn  Sn8  1  0.198162  0.500000  0.698162  1
  Pb  Pb9  1  0.286932  0.786932  0.500000  1
  Pb  Pb10  1  0.713068  0.213068  0.500000  1
