# generated using pymatgen
data_Tb2NdAl7Pd2
_symmetry_space_group_name_H-M   'P 1'
_cell_length_a   9.25322983
_cell_length_b   9.25322950
_cell_length_c   9.25322932
_cell_angle_alpha   35.09432793
_cell_angle_beta   35.09433154
_cell_angle_gamma   35.09433148
_symmetry_Int_Tables_number   1
_chemical_formula_structural   Tb2NdAl7Pd2
_chemical_formula_sum   'Tb2 Nd1 Al7 Pd2'
_cell_volume   233.86478477
_cell_formula_units_Z   1
loop_
 _symmetry_equiv_pos_site_id
 _symmetry_equiv_pos_as_xyz
  1  'x, y, z'
loop_
 _atom_site_type_symbol
 _atom_site_label
 _atom_site_symmetry_multiplicity
 _atom_site_fract_x
 _atom_site_fract_y
 _atom_site_fract_z
 _atom_site_occupancy
  Tb  Tb0  1  0.143279  0.143279  0.143279  1
  Tb  Tb1  1  0.856721  0.856721  0.856721  1
  Nd  Nd2  1  0.000000  0.000000  0.000000  1
  Al  Al3  1  0.583170  0.583170  0.072635  1
  Al  Al4  1  0.927365  0.416831  0.416830  1
  Al  Al5  1  0.416831  0.927365  0.416830  1
  Al  Al6  1  0.500000  0.500000  0.500000  1
  Al  Al7  1  0.583170  0.072635  0.583170  1
  Al  Al8  1  0.072635  0.583170  0.583170  1
  Al  Al9  1  0.416830  0.416830  0.927365  1
  Pd  Pd10  1  0.335705  0.335705  0.335705  1
  Pd  Pd11  1  0.664295  0.664295  0.664295  1
