# generated using pymatgen
data_Er3MgZn2C
_symmetry_space_group_name_H-M   'P 1'
_cell_length_a   9.25051799
_cell_length_b   9.25051972
_cell_length_c   9.25051900
_cell_angle_alpha   59.99999900
_cell_angle_beta   59.99999282
_cell_angle_gamma   60.00000346
_symmetry_Int_Tables_number   1
_chemical_formula_structural   Er3MgZn2C
_chemical_formula_sum   'Er12 Mg4 Zn8 C4'
_cell_volume   559.73604092
_cell_formula_units_Z   4
loop_
 _symmetry_equiv_pos_site_id
 _symmetry_equiv_pos_as_xyz
  1  'x, y, z'
loop_
 _atom_site_type_symbol
 _atom_site_label
 _atom_site_symmetry_multiplicity
 _atom_site_fract_x
 _atom_site_fract_y
 _atom_site_fract_z
 _atom_site_occupancy
  Er  Er0  1  0.442031  0.442031  0.057969  1
  Er  Er1  1  0.057969  0.442031  0.057969  1
  Er  Er2  1  0.442031  0.057969  0.057969  1
  Er  Er3  1  0.057969  0.057969  0.442031  1
  Er  Er4  1  0.442031  0.057969  0.442031  1
  Er  Er5  1  0.057969  0.442031  0.442031  1
  Er  Er6  1  0.807969  0.807969  0.192031  1
  Er  Er7  1  0.192031  0.807969  0.192031  1
  Er  Er8  1  0.807969  0.192031  0.192031  1
  Er  Er9  1  0.192031  0.192031  0.807969  1
  Er  Er10  1  0.807969  0.192031  0.807969  1
  Er  Er11  1  0.192031  0.807969  0.807969  1
  Mg  Mg12  1  0.625000  0.625000  0.125000  1
  Mg  Mg13  1  0.625000  0.125000  0.625000  1
  Mg  Mg14  1  0.125000  0.625000  0.625000  1
  Mg  Mg15  1  0.625000  0.625000  0.625000  1
  Zn  Zn16  1  0.828221  0.828221  0.515336  1
  Zn  Zn17  1  0.828221  0.515336  0.828221  1
  Zn  Zn18  1  0.515336  0.828221  0.828221  1
  Zn  Zn19  1  0.828221  0.828221  0.828221  1
  Zn  Zn20  1  0.421779  0.421779  0.734664  1
  Zn  Zn21  1  0.421779  0.734664  0.421779  1
  Zn  Zn22  1  0.734664  0.421779  0.421779  1
  Zn  Zn23  1  0.421779  0.421779  0.421779  1
  C  C24  1  0.125000  0.125000  0.625000  1
  C  C25  1  0.125000  0.625000  0.125000  1
  C  C26  1  0.625000  0.125000  0.125000  1
  C  C27  1  0.125000  0.125000  0.125000  1
