# generated using pymatgen
data_TbY3Ga18Ru3Pt2Rh
_symmetry_space_group_name_H-M   'P 1'
_cell_length_a   7.60379001
_cell_length_b   7.60430338
_cell_length_c   9.56225300
_cell_angle_alpha   89.99113925
_cell_angle_beta   89.99666192
_cell_angle_gamma   119.86111232
_symmetry_Int_Tables_number   1
_chemical_formula_structural   TbY3Ga18Ru3Pt2Rh
_chemical_formula_sum   'Tb1 Y3 Ga18 Ru3 Pt2 Rh1'
_cell_volume   479.49767711
_cell_formula_units_Z   1
loop_
 _symmetry_equiv_pos_site_id
 _symmetry_equiv_pos_as_xyz
  1  'x, y, z'
loop_
 _atom_site_type_symbol
 _atom_site_label
 _atom_site_symmetry_multiplicity
 _atom_site_fract_x
 _atom_site_fract_y
 _atom_site_fract_z
 _atom_site_occupancy
  Tb  Tb0  1  0.329786  0.003856  0.749659  1
  Y  Y1  1  0.996071  0.669986  0.250138  1
  Y  Y2  1  0.001902  0.327543  0.749891  1
  Y  Y3  1  0.672413  0.998139  0.250086  1
  Ga  Ga4  1  0.137077  0.135350  0.249428  1
  Ga  Ga5  1  0.864553  0.862498  0.750623  1
  Ga  Ga6  1  0.001873  0.339395  0.078708  1
  Ga  Ga7  1  0.001601  0.662305  0.921458  1
  Ga  Ga8  1  0.000151  0.660317  0.578359  1
  Ga  Ga9  1  0.339622  0.999945  0.421706  1
  Ga  Ga10  1  0.001068  0.339327  0.420560  1
  Ga  Ga11  1  0.660824  0.999048  0.579555  1
  Ga  Ga12  1  0.660640  0.998206  0.921190  1
  Ga  Ga13  1  0.337648  0.998578  0.078483  1
  Ga  Ga14  1  0.341546  0.341400  0.564080  1
  Ga  Ga15  1  0.658632  0.658412  0.436067  1
  Ga  Ga16  1  0.658484  0.660637  0.065474  1
  Ga  Ga17  1  0.339331  0.341483  0.934463  1
  Ga  Ga18  1  0.335707  0.551123  0.249940  1
  Ga  Ga19  1  0.664853  0.452566  0.749315  1
  Ga  Ga20  1  0.547264  0.334877  0.250666  1
  Ga  Ga21  1  0.448960  0.664596  0.750164  1
  Ru  Ru22  1  0.327776  0.672363  0.000030  1
  Ru  Ru23  1  0.327714  0.672396  0.499976  1
  Ru  Ru24  1  0.673070  0.327256  0.499970  1
  Pt  Pt25  1  0.000031  0.999934  0.999950  1
  Pt  Pt26  1  0.999726  0.000241  0.500074  1
  Rh  Rh27  1  0.671677  0.328228  0.999986  1
