# generated using pymatgen
data_Sb7OsW2
_symmetry_space_group_name_H-M   'P 1'
_cell_length_a   8.32146598
_cell_length_b   8.32146468
_cell_length_c   8.31094230
_cell_angle_alpha   109.18700925
_cell_angle_beta   109.18699979
_cell_angle_gamma   110.09186648
_symmetry_Int_Tables_number   1
_chemical_formula_structural   Sb7OsW2
_chemical_formula_sum   'Sb14 Os2 W4'
_cell_volume   442.71137576
_cell_formula_units_Z   2
loop_
 _symmetry_equiv_pos_site_id
 _symmetry_equiv_pos_as_xyz
  1  'x, y, z'
loop_
 _atom_site_type_symbol
 _atom_site_label
 _atom_site_symmetry_multiplicity
 _atom_site_fract_x
 _atom_site_fract_y
 _atom_site_fract_z
 _atom_site_occupancy
  Sb  Sb0  1  0.327003  0.000463  0.999840  1
  Sb  Sb1  1  0.672837  0.999377  0.999840  1
  Sb  Sb2  1  0.000463  0.327003  0.999840  1
  Sb  Sb3  1  0.999377  0.672837  0.999840  1
  Sb  Sb4  1  0.751380  0.497970  0.249350  1
  Sb  Sb5  1  0.497970  0.751380  0.249350  1
  Sb  Sb6  1  0.999876  0.999876  0.325510  1
  Sb  Sb7  1  0.325634  0.325634  0.325510  1
  Sb  Sb8  1  0.748306  0.248306  0.496613  1
  Sb  Sb9  1  0.248306  0.748306  0.496613  1
  Sb  Sb10  1  0.000294  0.000294  0.672765  1
  Sb  Sb11  1  0.672472  0.672472  0.672765  1
  Sb  Sb12  1  0.498431  0.250567  0.748998  1
  Sb  Sb13  1  0.250567  0.498431  0.748998  1
  Os  Os14  1  0.661228  0.000275  0.661503  1
  Os  Os15  1  0.000275  0.661228  0.661503  1
  W  W16  1  0.340769  0.340769  0.000703  1
  W  W17  1  0.659934  0.659934  0.000703  1
  W  W18  1  0.344473  0.000406  0.344879  1
  W  W19  1  0.000406  0.344473  0.344879  1
