# generated using pymatgen
data_Tm16AlCd(HgPt2)2
_symmetry_space_group_name_H-M   'P 1'
_cell_length_a   9.48935449
_cell_length_b   9.48669317
_cell_length_c   9.48669316
_cell_angle_alpha   60.30408133
_cell_angle_beta   60.33206662
_cell_angle_gamma   60.33206631
_symmetry_Int_Tables_number   1
_chemical_formula_structural   Tm16AlCd(HgPt2)2
_chemical_formula_sum   'Tm16 Al1 Cd1 Hg2 Pt4'
_cell_volume   608.29061125
_cell_formula_units_Z   1
loop_
 _symmetry_equiv_pos_site_id
 _symmetry_equiv_pos_as_xyz
  1  'x, y, z'
loop_
 _atom_site_type_symbol
 _atom_site_label
 _atom_site_symmetry_multiplicity
 _atom_site_fract_x
 _atom_site_fract_y
 _atom_site_fract_z
 _atom_site_occupancy
  Tm  Tm0  1  0.350274  0.350231  0.350231  1
  Tm  Tm1  1  0.358203  0.357412  0.933732  1
  Tm  Tm2  1  0.358203  0.933732  0.357412  1
  Tm  Tm3  1  0.931140  0.358599  0.358599  1
  Tm  Tm4  1  0.809217  0.191069  0.191069  1
  Tm  Tm5  1  0.194350  0.808787  0.808787  1
  Tm  Tm6  1  0.189709  0.810389  0.190599  1
  Tm  Tm7  1  0.808445  0.194953  0.808613  1
  Tm  Tm8  1  0.189709  0.190599  0.810389  1
  Tm  Tm9  1  0.808445  0.808613  0.194953  1
  Tm  Tm10  1  0.931215  0.567564  0.567564  1
  Tm  Tm11  1  0.562550  0.938008  0.938008  1
  Tm  Tm12  1  0.566655  0.933322  0.567232  1
  Tm  Tm13  1  0.936780  0.563293  0.938383  1
  Tm  Tm14  1  0.566655  0.567232  0.933322  1
  Tm  Tm15  1  0.936780  0.938383  0.563293  1
  Al  Al16  1  0.581583  0.581380  0.581380  1
  Cd  Cd17  1  0.256029  0.580364  0.580364  1
  Hg  Hg18  1  0.584365  0.586266  0.242518  1
  Hg  Hg19  1  0.584365  0.242518  0.586266  1
  Pt  Pt20  1  0.144583  0.145565  0.145565  1
  Pt  Pt21  1  0.140153  0.140811  0.570182  1
  Pt  Pt22  1  0.140153  0.570182  0.140811  1
  Pt  Pt23  1  0.570441  0.140730  0.140730  1
