# generated using pymatgen
data_LaZn2SiPd
_symmetry_space_group_name_H-M   'P 1'
_cell_length_a   6.09666544
_cell_length_b   6.09666532
_cell_length_c   5.81272800
_cell_angle_alpha   90.00000000
_cell_angle_beta   90.00000000
_cell_angle_gamma   116.81282226
_symmetry_Int_Tables_number   1
_chemical_formula_structural   LaZn2SiPd
_chemical_formula_sum   'La2 Zn4 Si2 Pd2'
_cell_volume   192.82600037
_cell_formula_units_Z   2
loop_
 _symmetry_equiv_pos_site_id
 _symmetry_equiv_pos_as_xyz
  1  'x, y, z'
loop_
 _atom_site_type_symbol
 _atom_site_label
 _atom_site_symmetry_multiplicity
 _atom_site_fract_x
 _atom_site_fract_y
 _atom_site_fract_z
 _atom_site_occupancy
  La  La0  1  0.272760  0.727240  0.750000  1
  La  La1  1  0.727240  0.272760  0.250000  1
  Zn  Zn2  1  0.785512  0.785512  0.000000  1
  Zn  Zn3  1  0.785512  0.785512  0.500000  1
  Zn  Zn4  1  0.214488  0.214488  0.000000  1
  Zn  Zn5  1  0.214488  0.214488  0.500000  1
  Si  Si6  1  0.845948  0.154052  0.750000  1
  Si  Si7  1  0.154052  0.845948  0.250000  1
  Pd  Pd8  1  0.615158  0.384842  0.750000  1
  Pd  Pd9  1  0.384842  0.615158  0.250000  1
