# generated using pymatgen
data_Ho5Er7Tc3Rh
_symmetry_space_group_name_H-M   'P 1'
_cell_length_a   6.26425854
_cell_length_b   7.36111638
_cell_length_c   9.08529682
_cell_angle_alpha   89.97897406
_cell_angle_beta   89.95593942
_cell_angle_gamma   89.90416763
_symmetry_Int_Tables_number   1
_chemical_formula_structural   Ho5Er7Tc3Rh
_chemical_formula_sum   'Ho5 Er7 Tc3 Rh1'
_cell_volume   418.93988909
_cell_formula_units_Z   1
loop_
 _symmetry_equiv_pos_site_id
 _symmetry_equiv_pos_as_xyz
  1  'x, y, z'
loop_
 _atom_site_type_symbol
 _atom_site_label
 _atom_site_symmetry_multiplicity
 _atom_site_fract_x
 _atom_site_fract_y
 _atom_site_fract_z
 _atom_site_occupancy
  Ho  Ho0  1  0.662604  0.174049  0.060972  1
  Ho  Ho1  1  0.876012  0.961323  0.749840  1
  Ho  Ho2  1  0.369438  0.542405  0.250150  1
  Ho  Ho3  1  0.625963  0.459603  0.749825  1
  Ho  Ho4  1  0.127396  0.040711  0.250168  1
  Er  Er5  1  0.167843  0.323216  0.934561  1
  Er  Er6  1  0.836855  0.678728  0.438782  1
  Er  Er7  1  0.336959  0.824142  0.563007  1
  Er  Er8  1  0.336678  0.823838  0.936888  1
  Er  Er9  1  0.837007  0.678590  0.061311  1
  Er  Er10  1  0.167906  0.323046  0.565292  1
  Er  Er11  1  0.662658  0.173929  0.439182  1
  Tc  Tc12  1  0.038006  0.612657  0.749967  1
  Tc  Tc13  1  0.539241  0.883978  0.250103  1
  Tc  Tc14  1  0.459986  0.115018  0.749727  1
  Rh  Rh15  1  0.955447  0.384765  0.250226  1
