# generated using pymatgen
data_Er3Lu(ScGa5)2
_symmetry_space_group_name_H-M   'P 1'
_cell_length_a   5.95388600
_cell_length_b   9.44295731
_cell_length_c   11.24483000
_cell_angle_alpha   90.00000000
_cell_angle_beta   90.00000000
_cell_angle_gamma   90.01462284
_symmetry_Int_Tables_number   1
_chemical_formula_structural   Er3Lu(ScGa5)2
_chemical_formula_sum   'Er6 Lu2 Sc4 Ga20'
_cell_volume   632.21008742
_cell_formula_units_Z   2
loop_
 _symmetry_equiv_pos_site_id
 _symmetry_equiv_pos_as_xyz
  1  'x, y, z'
loop_
 _atom_site_type_symbol
 _atom_site_label
 _atom_site_symmetry_multiplicity
 _atom_site_fract_x
 _atom_site_fract_y
 _atom_site_fract_z
 _atom_site_occupancy
  Er  Er0  1  0.108741  0.009555  0.647595  1
  Er  Er1  1  0.391259  0.490445  0.147595  1
  Er  Er2  1  0.108713  0.490495  0.647217  1
  Er  Er3  1  0.391287  0.009505  0.147217  1
  Er  Er4  1  0.891119  0.990470  0.352550  1
  Er  Er5  1  0.608881  0.509530  0.852550  1
  Lu  Lu6  1  0.891338  0.509476  0.352516  1
  Lu  Lu7  1  0.608662  0.990524  0.852516  1
  Sc  Sc8  1  0.848964  0.750069  0.073283  1
  Sc  Sc9  1  0.651036  0.749931  0.573283  1
  Sc  Sc10  1  0.151352  0.250045  0.926666  1
  Sc  Sc11  1  0.348648  0.249955  0.426666  1
  Ga  Ga12  1  0.876493  0.050028  0.089450  1
  Ga  Ga13  1  0.623507  0.449972  0.589450  1
  Ga  Ga14  1  0.123507  0.550085  0.910222  1
  Ga  Ga15  1  0.376493  0.949915  0.410222  1
  Ga  Ga16  1  0.124161  0.950172  0.910136  1
  Ga  Ga17  1  0.375839  0.549828  0.410136  1
  Ga  Ga18  1  0.876473  0.450123  0.090340  1
  Ga  Ga19  1  0.623527  0.049877  0.590340  1
  Ga  Ga20  1  0.165059  0.749561  0.248276  1
  Ga  Ga21  1  0.334941  0.750439  0.748276  1
  Ga  Ga22  1  0.834279  0.249568  0.752221  1
  Ga  Ga23  1  0.665721  0.250432  0.252221  1
  Ga  Ga24  1  0.381199  0.750217  0.004132  1
  Ga  Ga25  1  0.118801  0.749783  0.504132  1
  Ga  Ga26  1  0.618848  0.249266  0.995052  1
  Ga  Ga27  1  0.881152  0.250734  0.495052  1
  Ga  Ga28  1  0.607786  0.749318  0.294922  1
  Ga  Ga29  1  0.892214  0.750682  0.794922  1
  Ga  Ga30  1  0.393083  0.249940  0.705422  1
  Ga  Ga31  1  0.106917  0.250060  0.205422  1
