# generated using pymatgen
data_TbHo(ThS3)2
_symmetry_space_group_name_H-M   'P 1'
_cell_length_a   3.93566200
_cell_length_b   10.53064801
_cell_length_c   10.74296703
_cell_angle_alpha   89.94990529
_cell_angle_beta   90.00000000
_cell_angle_gamma   90.00000000
_symmetry_Int_Tables_number   1
_chemical_formula_structural   TbHo(ThS3)2
_chemical_formula_sum   'Tb2 Ho2 Th4 S12'
_cell_volume   445.24286307
_cell_formula_units_Z   2
loop_
 _symmetry_equiv_pos_site_id
 _symmetry_equiv_pos_as_xyz
  1  'x, y, z'
loop_
 _atom_site_type_symbol
 _atom_site_label
 _atom_site_symmetry_multiplicity
 _atom_site_fract_x
 _atom_site_fract_y
 _atom_site_fract_z
 _atom_site_occupancy
  Tb  Tb0  1  0.750000  0.685072  0.014002  1
  Tb  Tb1  1  0.250000  0.314928  0.985998  1
  Ho  Ho2  1  0.250000  0.185134  0.486383  1
  Ho  Ho3  1  0.750000  0.814866  0.513617  1
  Th  Th4  1  0.250000  0.997800  0.803481  1
  Th  Th5  1  0.750000  0.002200  0.196519  1
  Th  Th6  1  0.750000  0.497644  0.696136  1
  Th  Th7  1  0.250000  0.502356  0.303864  1
  S  S8  1  0.250000  0.295449  0.725443  1
  S  S9  1  0.750000  0.704551  0.274557  1
  S  S10  1  0.750000  0.796232  0.771607  1
  S  S11  1  0.250000  0.203768  0.228393  1
  S  S12  1  0.250000  0.944823  0.383961  1
  S  S13  1  0.750000  0.055177  0.616039  1
  S  S14  1  0.750000  0.444504  0.118710  1
  S  S15  1  0.250000  0.555496  0.881290  1
  S  S16  1  0.250000  0.871871  0.047072  1
  S  S17  1  0.750000  0.128129  0.952928  1
  S  S18  1  0.750000  0.369661  0.453403  1
  S  S19  1  0.250000  0.630339  0.546597  1
