# generated using pymatgen
data_Cs7Ta(SeO4)6
_symmetry_space_group_name_H-M   'P 1'
_cell_length_a   10.50960562
_cell_length_b   10.50960473
_cell_length_c   10.50960526
_cell_angle_alpha   109.65691638
_cell_angle_beta   109.65691752
_cell_angle_gamma   109.65690211
_symmetry_Int_Tables_number   1
_chemical_formula_structural   Cs7Ta(SeO4)6
_chemical_formula_sum   'Cs7 Ta1 Se6 O24'
_cell_volume   887.39136497
_cell_formula_units_Z   1
loop_
 _symmetry_equiv_pos_site_id
 _symmetry_equiv_pos_as_xyz
  1  'x, y, z'
loop_
 _atom_site_type_symbol
 _atom_site_label
 _atom_site_symmetry_multiplicity
 _atom_site_fract_x
 _atom_site_fract_y
 _atom_site_fract_z
 _atom_site_occupancy
  Cs  Cs0  1  0.500000  0.500000  0.500000  1
  Cs  Cs1  1  0.670332  0.168042  0.330627  1
  Cs  Cs2  1  0.330627  0.670332  0.168042  1
  Cs  Cs3  1  0.168042  0.330627  0.670332  1
  Cs  Cs4  1  0.329668  0.831958  0.669373  1
  Cs  Cs5  1  0.669373  0.329668  0.831958  1
  Cs  Cs6  1  0.831958  0.669373  0.329668  1
  Ta  Ta7  1  0.000000  0.000000  0.000000  1
  Se  Se8  1  0.240857  0.026041  0.360340  1
  Se  Se9  1  0.360340  0.240857  0.026041  1
  Se  Se10  1  0.026041  0.360340  0.240857  1
  Se  Se11  1  0.759143  0.973959  0.639660  1
  Se  Se12  1  0.639660  0.759143  0.973959  1
  Se  Se13  1  0.973959  0.639660  0.759143  1
  O  O14  1  0.104301  0.602111  0.853613  1
  O  O15  1  0.853613  0.104301  0.602111  1
  O  O16  1  0.602111  0.853613  0.104301  1
  O  O17  1  0.895699  0.397889  0.146387  1
  O  O18  1  0.146387  0.895699  0.397889  1
  O  O19  1  0.397889  0.146387  0.895699  1
  O  O20  1  0.014873  0.703040  0.645940  1
  O  O21  1  0.645940  0.014873  0.703040  1
  O  O22  1  0.703040  0.645940  0.014873  1
  O  O23  1  0.985127  0.296960  0.354060  1
  O  O24  1  0.354060  0.985127  0.296960  1
  O  O25  1  0.296960  0.354060  0.985127  1
  O  O26  1  0.021382  0.210414  0.095974  1
  O  O27  1  0.095974  0.021382  0.210414  1
  O  O28  1  0.510998  0.337748  0.207459  1
  O  O29  1  0.337748  0.207459  0.510998  1
  O  O30  1  0.207459  0.510998  0.337748  1
  O  O31  1  0.489002  0.662252  0.792541  1
  O  O32  1  0.662252  0.792541  0.489002  1
  O  O33  1  0.792541  0.489002  0.662252  1
  O  O34  1  0.789586  0.904026  0.978618  1
  O  O35  1  0.904026  0.978618  0.789586  1
  O  O36  1  0.978618  0.789586  0.904026  1
  O  O37  1  0.210414  0.095974  0.021382  1
