# generated using pymatgen
data_Ta4Be3Al4Zn
_symmetry_space_group_name_H-M   'P 1'
_cell_length_a   4.89304627
_cell_length_b   4.89304668
_cell_length_c   8.05868900
_cell_angle_alpha   90.00000000
_cell_angle_beta   90.00000000
_cell_angle_gamma   119.14337332
_symmetry_Int_Tables_number   1
_chemical_formula_structural   Ta4Be3Al4Zn
_chemical_formula_sum   'Ta4 Be3 Al4 Zn1'
_cell_volume   168.51484350
_cell_formula_units_Z   1
loop_
 _symmetry_equiv_pos_site_id
 _symmetry_equiv_pos_as_xyz
  1  'x, y, z'
loop_
 _atom_site_type_symbol
 _atom_site_label
 _atom_site_symmetry_multiplicity
 _atom_site_fract_x
 _atom_site_fract_y
 _atom_site_fract_z
 _atom_site_occupancy
  Ta  Ta0  1  0.663131  0.336869  0.312155  1
  Ta  Ta1  1  0.336776  0.663224  0.184279  1
  Ta  Ta2  1  0.336776  0.663224  0.815721  1
  Ta  Ta3  1  0.663131  0.336869  0.687845  1
  Be  Be4  1  0.166531  0.833469  0.500000  1
  Be  Be5  1  0.361053  0.189215  0.000000  1
  Be  Be6  1  0.810785  0.638947  0.000000  1
  Al  Al7  1  0.011324  0.988676  0.234816  1
  Al  Al8  1  0.011324  0.988676  0.765184  1
  Al  Al9  1  0.653448  0.835612  0.500000  1
  Al  Al10  1  0.164388  0.346552  0.500000  1
  Zn  Zn11  1  0.821379  0.178621  0.000000  1
