# generated using pymatgen
data_La3Zn2CdCo2
_symmetry_space_group_name_H-M   'P 1'
_cell_length_a   8.71696085
_cell_length_b   8.71696171
_cell_length_c   5.11298278
_cell_angle_alpha   99.55011885
_cell_angle_beta   99.55011819
_cell_angle_gamma   28.43358172
_symmetry_Int_Tables_number   1
_chemical_formula_structural   La3Zn2CdCo2
_chemical_formula_sum   'La3 Zn2 Cd1 Co2'
_cell_volume   182.25650157
_cell_formula_units_Z   1
loop_
 _symmetry_equiv_pos_site_id
 _symmetry_equiv_pos_as_xyz
  1  'x, y, z'
loop_
 _atom_site_type_symbol
 _atom_site_label
 _atom_site_symmetry_multiplicity
 _atom_site_fract_x
 _atom_site_fract_y
 _atom_site_fract_z
 _atom_site_occupancy
  La  La0  1  0.000000  0.000000  0.000000  1
  La  La1  1  0.833257  0.833257  0.414109  1
  La  La2  1  0.166743  0.166743  0.585892  1
  Zn  Zn3  1  0.642209  0.642209  0.068278  1
  Zn  Zn4  1  0.357791  0.357791  0.931723  1
  Cd  Cd5  1  0.500000  0.500000  0.499999  1
  Co  Co6  1  0.218789  0.218789  0.060701  1
  Co  Co7  1  0.781211  0.781211  0.939300  1
