# generated using pymatgen
data_PaVI10
_symmetry_space_group_name_H-M   'P 1'
_cell_length_a   8.66846439
_cell_length_b   9.00780085
_cell_length_c   16.71724464
_cell_angle_alpha   91.23295756
_cell_angle_beta   90.81091234
_cell_angle_gamma   105.97587574
_symmetry_Int_Tables_number   1
_chemical_formula_structural   PaVI10
_chemical_formula_sum   'Pa2 V2 I20'
_cell_volume   1254.36625289
_cell_formula_units_Z   2
loop_
 _symmetry_equiv_pos_site_id
 _symmetry_equiv_pos_as_xyz
  1  'x, y, z'
loop_
 _atom_site_type_symbol
 _atom_site_label
 _atom_site_symmetry_multiplicity
 _atom_site_fract_x
 _atom_site_fract_y
 _atom_site_fract_z
 _atom_site_occupancy
  Pa  Pa0  1  0.000000  0.000000  0.000000  1
  Pa  Pa1  1  0.000000  0.000000  0.500000  1
  V  V2  1  0.383131  0.588199  0.261787  1
  V  V3  1  0.616869  0.411801  0.738213  1
  I  I4  1  0.238322  0.840388  0.945531  1
  I  I5  1  0.761678  0.159612  0.054469  1
  I  I6  1  0.766356  0.697150  0.024670  1
  I  I7  1  0.233644  0.302850  0.975330  1
  I  I8  1  0.882961  0.996779  0.833373  1
  I  I9  1  0.117039  0.003221  0.166627  1
  I  I10  1  0.867103  0.176406  0.383058  1
  I  I11  1  0.132897  0.823594  0.616942  1
  I  I12  1  0.311790  0.080977  0.419108  1
  I  I13  1  0.688210  0.919023  0.580892  1
  I  I14  1  0.887984  0.717184  0.398057  1
  I  I15  1  0.112016  0.282816  0.601943  1
  I  I16  1  0.122832  0.518699  0.190253  1
  I  I17  1  0.877168  0.481301  0.809747  1
  I  I18  1  0.537761  0.846373  0.222715  1
  I  I19  1  0.462239  0.153627  0.777285  1
  I  I20  1  0.530341  0.400129  0.223879  1
  I  I21  1  0.469659  0.599871  0.776121  1
  I  I22  1  0.337594  0.583856  0.406358  1
  I  I23  1  0.662406  0.416144  0.593642  1
