# generated using pymatgen
data_DyTh4Np3N12
_symmetry_space_group_name_H-M   'P 1'
_cell_length_a   5.89158710
_cell_length_b   6.03398295
_cell_length_c   8.49131657
_cell_angle_alpha   90.30429528
_cell_angle_beta   89.94927679
_cell_angle_gamma   89.54264137
_symmetry_Int_Tables_number   1
_chemical_formula_structural   DyTh4Np3N12
_chemical_formula_sum   'Dy1 Th4 Np3 N12'
_cell_volume   301.85005944
_cell_formula_units_Z   1
loop_
 _symmetry_equiv_pos_site_id
 _symmetry_equiv_pos_as_xyz
  1  'x, y, z'
loop_
 _atom_site_type_symbol
 _atom_site_label
 _atom_site_symmetry_multiplicity
 _atom_site_fract_x
 _atom_site_fract_y
 _atom_site_fract_z
 _atom_site_occupancy
  Dy  Dy0  1  0.000000  0.500000  0.000000  1
  Th  Th1  1  0.507025  0.543891  0.247115  1
  Th  Th2  1  0.982830  0.052321  0.247588  1
  Th  Th3  1  0.492975  0.456109  0.752885  1
  Th  Th4  1  0.017170  0.947679  0.752412  1
  Np  Np5  1  0.500000  0.000000  0.500000  1
  Np  Np6  1  0.000000  0.500000  0.500000  1
  Np  Np7  1  0.500000  0.000000  0.000000  1
  N  N8  1  0.374006  0.949254  0.255985  1
  N  N9  1  0.116879  0.449576  0.265456  1
  N  N10  1  0.625994  0.050746  0.744015  1
  N  N11  1  0.883121  0.550424  0.734544  1
  N  N12  1  0.787754  0.822332  0.060834  1
  N  N13  1  0.697775  0.302855  0.433549  1
  N  N14  1  0.214615  0.184271  0.565630  1
  N  N15  1  0.319114  0.705796  0.934596  1
  N  N16  1  0.212246  0.177668  0.939166  1
  N  N17  1  0.302225  0.697145  0.566451  1
  N  N18  1  0.785385  0.815729  0.434370  1
  N  N19  1  0.680886  0.294204  0.065404  1
