# generated using pymatgen
data_Ho6Ga7Co16
_symmetry_space_group_name_H-M   'P 1'
_cell_length_a   8.45644731
_cell_length_b   8.45644802
_cell_length_c   8.45644700
_cell_angle_alpha   60.00000009
_cell_angle_beta   59.99999731
_cell_angle_gamma   60.00000098
_symmetry_Int_Tables_number   1
_chemical_formula_structural   Ho6Ga7Co16
_chemical_formula_sum   'Ho6 Ga7 Co16'
_cell_volume   427.61099090
_cell_formula_units_Z   1
loop_
 _symmetry_equiv_pos_site_id
 _symmetry_equiv_pos_as_xyz
  1  'x, y, z'
loop_
 _atom_site_type_symbol
 _atom_site_label
 _atom_site_symmetry_multiplicity
 _atom_site_fract_x
 _atom_site_fract_y
 _atom_site_fract_z
 _atom_site_occupancy
  Ho  Ho0  1  0.719344  0.280656  0.280656  1
  Ho  Ho1  1  0.719344  0.280656  0.719344  1
  Ho  Ho2  1  0.719344  0.719344  0.280656  1
  Ho  Ho3  1  0.280656  0.719344  0.719344  1
  Ho  Ho4  1  0.280656  0.719344  0.280656  1
  Ho  Ho5  1  0.280656  0.280656  0.719344  1
  Ga  Ga6  1  0.000000  0.000000  0.000000  1
  Ga  Ga7  1  0.500000  0.000000  0.000000  1
  Ga  Ga8  1  0.500000  0.000000  0.500000  1
  Ga  Ga9  1  0.500000  0.500000  0.000000  1
  Ga  Ga10  1  0.000000  0.500000  0.500000  1
  Ga  Ga11  1  0.000000  0.500000  0.000000  1
  Ga  Ga12  1  0.000000  0.000000  0.500000  1
  Co  Co13  1  0.622322  0.125893  0.125893  1
  Co  Co14  1  0.125893  0.622322  0.125893  1
  Co  Co15  1  0.125893  0.125893  0.622322  1
  Co  Co16  1  0.125893  0.125893  0.125893  1
  Co  Co17  1  0.377678  0.874107  0.874107  1
  Co  Co18  1  0.874107  0.377678  0.874107  1
  Co  Co19  1  0.874107  0.874107  0.377678  1
  Co  Co20  1  0.874107  0.874107  0.874107  1
  Co  Co21  1  0.036551  0.321150  0.321150  1
  Co  Co22  1  0.321150  0.036551  0.321150  1
  Co  Co23  1  0.321150  0.321150  0.036551  1
  Co  Co24  1  0.321150  0.321150  0.321150  1
  Co  Co25  1  0.963449  0.678850  0.678850  1
  Co  Co26  1  0.678850  0.963449  0.678850  1
  Co  Co27  1  0.678850  0.678850  0.963449  1
  Co  Co28  1  0.678850  0.678850  0.678850  1
