# generated using pymatgen
data_H3SCl
_symmetry_space_group_name_H-M   'P 1'
_cell_length_a   4.51162714
_cell_length_b   4.37771882
_cell_length_c   5.03521573
_cell_angle_alpha   77.34507881
_cell_angle_beta   96.97463255
_cell_angle_gamma   102.30228153
_symmetry_Int_Tables_number   1
_chemical_formula_structural   H3SCl
_chemical_formula_sum   'H3 S1 Cl1'
_cell_volume   94.51276108
_cell_formula_units_Z   1
loop_
 _symmetry_equiv_pos_site_id
 _symmetry_equiv_pos_as_xyz
  1  'x, y, z'
loop_
 _atom_site_type_symbol
 _atom_site_label
 _atom_site_symmetry_multiplicity
 _atom_site_fract_x
 _atom_site_fract_y
 _atom_site_fract_z
 _atom_site_occupancy
  H  H0  1  0.376343  0.594481  0.675722  1
  H  H1  1  0.701684  0.577878  0.977383  1
  H  H2  1  0.827565  0.054966  0.561549  1
  S  S3  1  0.528535  0.790296  0.843203  1
  Cl  Cl4  1  0.022360  0.233352  0.375966  1
