# generated using pymatgen
data_Zr3Al3Zn2Os
_symmetry_space_group_name_H-M   'P 1'
_cell_length_a   6.62842300
_cell_length_b   6.62842214
_cell_length_c   4.19022300
_cell_angle_alpha   90.00000000
_cell_angle_beta   90.00000000
_cell_angle_gamma   119.99999930
_symmetry_Int_Tables_number   1
_chemical_formula_structural   Zr3Al3Zn2Os
_chemical_formula_sum   'Zr3 Al3 Zn2 Os1'
_cell_volume   159.43664460
_cell_formula_units_Z   1
loop_
 _symmetry_equiv_pos_site_id
 _symmetry_equiv_pos_as_xyz
  1  'x, y, z'
loop_
 _atom_site_type_symbol
 _atom_site_label
 _atom_site_symmetry_multiplicity
 _atom_site_fract_x
 _atom_site_fract_y
 _atom_site_fract_z
 _atom_site_occupancy
  Zr  Zr0  1  0.000000  0.415873  0.500000  1
  Zr  Zr1  1  0.584127  0.584127  0.500000  1
  Zr  Zr2  1  0.415873  0.000000  0.500000  1
  Al  Al3  1  0.000000  0.760120  0.000000  1
  Al  Al4  1  0.239880  0.239880  0.000000  1
  Al  Al5  1  0.760120  0.000000  0.000000  1
  Zn  Zn6  1  0.333333  0.666667  0.000000  1
  Zn  Zn7  1  0.666667  0.333333  0.000000  1
  Os  Os8  1  0.000000  0.000000  0.500000  1
