# generated using pymatgen
data_Sr3ScCrO6
_symmetry_space_group_name_H-M   'P 1'
_cell_length_a   6.75501591
_cell_length_b   6.75501606
_cell_length_c   6.75501668
_cell_angle_alpha   93.04998978
_cell_angle_beta   93.04999753
_cell_angle_gamma   93.04998763
_symmetry_Int_Tables_number   1
_chemical_formula_structural   Sr3ScCrO6
_chemical_formula_sum   'Sr6 Sc2 Cr2 O12'
_cell_volume   306.87469910
_cell_formula_units_Z   2
loop_
 _symmetry_equiv_pos_site_id
 _symmetry_equiv_pos_as_xyz
  1  'x, y, z'
loop_
 _atom_site_type_symbol
 _atom_site_label
 _atom_site_symmetry_multiplicity
 _atom_site_fract_x
 _atom_site_fract_y
 _atom_site_fract_z
 _atom_site_occupancy
  Sr  Sr0  1  0.384110  0.115889  0.750000  1
  Sr  Sr1  1  0.750000  0.384111  0.115890  1
  Sr  Sr2  1  0.249999  0.615890  0.884111  1
  Sr  Sr3  1  0.615889  0.884110  0.250001  1
  Sr  Sr4  1  0.115890  0.750000  0.384111  1
  Sr  Sr5  1  0.884110  0.250000  0.615890  1
  Sc  Sc6  1  0.750000  0.750001  0.750000  1
  Sc  Sc7  1  0.250001  0.250000  0.250000  1
  Cr  Cr8  1  0.500000  0.500000  0.500000  1
  Cr  Cr9  1  0.000000  0.000000  0.000000  1
  O  O10  1  0.787018  0.595631  0.465939  1
  O  O11  1  0.595632  0.465938  0.787018  1
  O  O12  1  0.465938  0.787018  0.595632  1
  O  O13  1  0.034061  0.904369  0.712983  1
  O  O14  1  0.904368  0.712982  0.034061  1
  O  O15  1  0.712983  0.034061  0.904368  1
  O  O16  1  0.212983  0.404368  0.534062  1
  O  O17  1  0.404368  0.534061  0.212983  1
  O  O18  1  0.534061  0.212983  0.404367  1
  O  O19  1  0.965939  0.095632  0.287018  1
  O  O20  1  0.287018  0.965938  0.095631  1
  O  O21  1  0.095631  0.287017  0.965938  1
