# generated using pymatgen
data_DyZnInCu4
_symmetry_space_group_name_H-M   'P 1'
_cell_length_a   5.04358400
_cell_length_b   8.28523000
_cell_length_c   10.68731500
_cell_angle_alpha   90.00000000
_cell_angle_beta   90.00000000
_cell_angle_gamma   90.00000000
_symmetry_Int_Tables_number   1
_chemical_formula_structural   DyZnInCu4
_chemical_formula_sum   'Dy4 Zn4 In4 Cu16'
_cell_volume   446.59354076
_cell_formula_units_Z   4
loop_
 _symmetry_equiv_pos_site_id
 _symmetry_equiv_pos_as_xyz
  1  'x, y, z'
loop_
 _atom_site_type_symbol
 _atom_site_label
 _atom_site_symmetry_multiplicity
 _atom_site_fract_x
 _atom_site_fract_y
 _atom_site_fract_z
 _atom_site_occupancy
  Dy  Dy0  1  0.250000  0.752303  0.059194  1
  Dy  Dy1  1  0.750000  0.247697  0.940806  1
  Dy  Dy2  1  0.750000  0.747697  0.559194  1
  Dy  Dy3  1  0.250000  0.252303  0.440806  1
  Zn  Zn4  1  0.250000  0.813689  0.739627  1
  Zn  Zn5  1  0.750000  0.186311  0.260373  1
  Zn  Zn6  1  0.750000  0.686311  0.239627  1
  Zn  Zn7  1  0.250000  0.313689  0.760373  1
  In  In8  1  0.250000  0.636256  0.364115  1
  In  In9  1  0.750000  0.363744  0.635885  1
  In  In10  1  0.750000  0.863744  0.864115  1
  In  In11  1  0.250000  0.136256  0.135885  1
  Cu  Cu12  1  0.503843  0.567252  0.812791  1
  Cu  Cu13  1  0.496157  0.432748  0.187209  1
  Cu  Cu14  1  0.496157  0.932748  0.312791  1
  Cu  Cu15  1  0.003843  0.432748  0.187209  1
  Cu  Cu16  1  0.503843  0.067252  0.687209  1
  Cu  Cu17  1  0.996157  0.567252  0.812791  1
  Cu  Cu18  1  0.996157  0.067252  0.687209  1
  Cu  Cu19  1  0.003843  0.932748  0.312791  1
  Cu  Cu20  1  0.250000  0.555356  0.603458  1
  Cu  Cu21  1  0.750000  0.444644  0.396542  1
  Cu  Cu22  1  0.750000  0.944644  0.103458  1
  Cu  Cu23  1  0.250000  0.055356  0.896542  1
  Cu  Cu24  1  0.250000  0.918396  0.515057  1
  Cu  Cu25  1  0.750000  0.081604  0.484943  1
  Cu  Cu26  1  0.750000  0.581604  0.015057  1
  Cu  Cu27  1  0.250000  0.418396  0.984943  1
