# generated using pymatgen
data_Tm2TiIr3
_symmetry_space_group_name_H-M   'P 1'
_cell_length_a   5.58448486
_cell_length_b   5.16280081
_cell_length_c   5.58448500
_cell_angle_alpha   57.25925524
_cell_angle_beta   60.00000507
_cell_angle_gamma   57.25925336
_symmetry_Int_Tables_number   1
_chemical_formula_structural   Tm2TiIr3
_chemical_formula_sum   'Tm2 Ti1 Ir3'
_cell_volume   108.90407621
_cell_formula_units_Z   1
loop_
 _symmetry_equiv_pos_site_id
 _symmetry_equiv_pos_as_xyz
  1  'x, y, z'
loop_
 _atom_site_type_symbol
 _atom_site_label
 _atom_site_symmetry_multiplicity
 _atom_site_fract_x
 _atom_site_fract_y
 _atom_site_fract_z
 _atom_site_occupancy
  Tm  Tm0  1  0.752105  0.743686  0.752105  1
  Tm  Tm1  1  0.497895  0.506314  0.497895  1
  Ti  Ti2  1  0.125000  0.625000  0.125000  1
  Ir  Ir3  1  0.125000  0.125000  0.625000  1
  Ir  Ir4  1  0.625000  0.125000  0.125000  1
  Ir  Ir5  1  0.125000  0.125000  0.125000  1
