# generated using pymatgen
data_Er8Re3B24Rh
_symmetry_space_group_name_H-M   'P 1'
_cell_length_a   3.65568700
_cell_length_b   9.12421950
_cell_length_c   11.49588799
_cell_angle_alpha   90.16544230
_cell_angle_beta   90.00000000
_cell_angle_gamma   90.00000000
_symmetry_Int_Tables_number   1
_chemical_formula_structural   Er8Re3B24Rh
_chemical_formula_sum   'Er8 Re3 B24 Rh1'
_cell_volume   383.44708630
_cell_formula_units_Z   1
loop_
 _symmetry_equiv_pos_site_id
 _symmetry_equiv_pos_as_xyz
  1  'x, y, z'
loop_
 _atom_site_type_symbol
 _atom_site_label
 _atom_site_symmetry_multiplicity
 _atom_site_fract_x
 _atom_site_fract_y
 _atom_site_fract_z
 _atom_site_occupancy
  Er  Er0  1  0.000000  0.318342  0.415521  1
  Er  Er1  1  0.000000  0.678325  0.591055  1
  Er  Er2  1  0.000000  0.826711  0.081468  1
  Er  Er3  1  0.000000  0.177121  0.912811  1
  Er  Er4  1  0.000000  0.943740  0.370266  1
  Er  Er5  1  0.000000  0.055704  0.628892  1
  Er  Er6  1  0.000000  0.441483  0.128773  1
  Er  Er7  1  0.000000  0.556448  0.871556  1
  Re  Re8  1  0.000000  0.362277  0.677516  1
  Re  Re9  1  0.000000  0.138580  0.179949  1
  Re  Re10  1  0.000000  0.861378  0.821080  1
  B  B11  1  0.500000  0.554067  0.433884  1
  B  B12  1  0.500000  0.446731  0.566171  1
  B  B13  1  0.500000  0.053341  0.066392  1
  B  B14  1  0.500000  0.946936  0.933151  1
  B  B15  1  0.500000  0.749587  0.420513  1
  B  B16  1  0.500000  0.250099  0.580591  1
  B  B17  1  0.500000  0.249717  0.080883  1
  B  B18  1  0.500000  0.751047  0.919282  1
  B  B19  1  0.500000  0.791593  0.264887  1
  B  B20  1  0.500000  0.207910  0.734354  1
  B  B21  1  0.500000  0.292410  0.235348  1
  B  B22  1  0.500000  0.707650  0.765569  1
  B  B23  1  0.500000  0.631926  0.183822  1
  B  B24  1  0.500000  0.369312  0.814462  1
  B  B25  1  0.500000  0.131039  0.315244  1
  B  B26  1  0.500000  0.868412  0.685084  1
  B  B27  1  0.500000  0.982608  0.212025  1
  B  B28  1  0.500000  0.017564  0.787210  1
  B  B29  1  0.500000  0.482975  0.287958  1
  B  B30  1  0.500000  0.518460  0.712255  1
  B  B31  1  0.500000  0.603464  0.029276  1
  B  B32  1  0.500000  0.397676  0.972100  1
  B  B33  1  0.500000  0.101735  0.471131  1
  B  B34  1  0.500000  0.895360  0.528177  1
  Rh  Rh35  1  0.000000  0.638274  0.321342  1
