# generated using pymatgen
data_Nd12NiIr2Au
_symmetry_space_group_name_H-M   'P 1'
_cell_length_a   6.60878745
_cell_length_b   7.31109168
_cell_length_c   9.99673400
_cell_angle_alpha   90.00000000
_cell_angle_beta   90.00000000
_cell_angle_gamma   89.86127328
_symmetry_Int_Tables_number   1
_chemical_formula_structural   Nd12NiIr2Au
_chemical_formula_sum   'Nd12 Ni1 Ir2 Au1'
_cell_volume   483.01528882
_cell_formula_units_Z   1
loop_
 _symmetry_equiv_pos_site_id
 _symmetry_equiv_pos_as_xyz
  1  'x, y, z'
loop_
 _atom_site_type_symbol
 _atom_site_label
 _atom_site_symmetry_multiplicity
 _atom_site_fract_x
 _atom_site_fract_y
 _atom_site_fract_z
 _atom_site_occupancy
  Nd  Nd0  1  0.338177  0.671200  0.059073  1
  Nd  Nd1  1  0.174051  0.186495  0.441895  1
  Nd  Nd2  1  0.673864  0.321506  0.566820  1
  Nd  Nd3  1  0.830044  0.826713  0.931450  1
  Nd  Nd4  1  0.673864  0.321506  0.933180  1
  Nd  Nd5  1  0.830044  0.826713  0.568550  1
  Nd  Nd6  1  0.338177  0.671200  0.440927  1
  Nd  Nd7  1  0.174051  0.186495  0.058105  1
  Nd  Nd8  1  0.852898  0.518767  0.250000  1
  Nd  Nd9  1  0.623227  0.038695  0.250000  1
  Nd  Nd10  1  0.140981  0.464304  0.750000  1
  Nd  Nd11  1  0.359842  0.961119  0.750000  1
  Ni  Ni12  1  0.937717  0.117415  0.750000  1
  Ir  Ir13  1  0.429605  0.383924  0.250000  1
  Ir  Ir14  1  0.562796  0.617081  0.750000  1
  Au  Au15  1  0.060661  0.886870  0.250000  1
