# generated using pymatgen
data_Pr7PaZn8(Ir3Rh)2
_symmetry_space_group_name_H-M   'P 1'
_cell_length_a   4.01827400
_cell_length_b   7.38549839
_cell_length_c   16.70282405
_cell_angle_alpha   89.51933529
_cell_angle_beta   90.00000000
_cell_angle_gamma   90.00000000
_symmetry_Int_Tables_number   1
_chemical_formula_structural   Pr7PaZn8(Ir3Rh)2
_chemical_formula_sum   'Pr7 Pa1 Zn8 Ir6 Rh2'
_cell_volume   495.67153438
_cell_formula_units_Z   1
loop_
 _symmetry_equiv_pos_site_id
 _symmetry_equiv_pos_as_xyz
  1  'x, y, z'
loop_
 _atom_site_type_symbol
 _atom_site_label
 _atom_site_symmetry_multiplicity
 _atom_site_fract_x
 _atom_site_fract_y
 _atom_site_fract_z
 _atom_site_occupancy
  Pr  Pr0  1  0.750000  0.949591  0.282601  1
  Pr  Pr1  1  0.750000  0.824722  0.060882  1
  Pr  Pr2  1  0.250000  0.049592  0.716739  1
  Pr  Pr3  1  0.250000  0.167806  0.940826  1
  Pr  Pr4  1  0.250000  0.546321  0.784212  1
  Pr  Pr5  1  0.750000  0.334049  0.439441  1
  Pr  Pr6  1  0.250000  0.669913  0.560615  1
  Pa  Pa7  1  0.750000  0.447097  0.215140  1
  Zn  Zn8  1  0.250000  0.003215  0.439234  1
  Zn  Zn9  1  0.750000  0.502096  0.939991  1
  Zn  Zn10  1  0.750000  0.003977  0.560075  1
  Zn  Zn11  1  0.250000  0.623759  0.350580  1
  Zn  Zn12  1  0.750000  0.376996  0.650502  1
  Zn  Zn13  1  0.750000  0.880491  0.849849  1
  Zn  Zn14  1  0.250000  0.498825  0.057813  1
  Zn  Zn15  1  0.250000  0.119905  0.151486  1
  Ir  Ir16  1  0.250000  0.245205  0.564481  1
  Ir  Ir17  1  0.750000  0.266219  0.073355  1
  Ir  Ir18  1  0.250000  0.264142  0.301309  1
  Ir  Ir19  1  0.750000  0.253983  0.815583  1
  Ir  Ir20  1  0.250000  0.746480  0.934304  1
  Ir  Ir21  1  0.250000  0.708259  0.190661  1
  Rh  Rh22  1  0.750000  0.753039  0.685755  1
  Rh  Rh23  1  0.750000  0.764317  0.434565  1
