# generated using pymatgen
data_Tm6InTe2
_symmetry_space_group_name_H-M   'P 1'
_cell_length_a   4.08449600
_cell_length_b   21.61825100
_cell_length_c   11.48156300
_cell_angle_alpha   90.00000000
_cell_angle_beta   90.00000000
_cell_angle_gamma   90.00000000
_symmetry_Int_Tables_number   1
_chemical_formula_structural   Tm6InTe2
_chemical_formula_sum   'Tm24 In4 Te8'
_cell_volume   1013.81810614
_cell_formula_units_Z   4
loop_
 _symmetry_equiv_pos_site_id
 _symmetry_equiv_pos_as_xyz
  1  'x, y, z'
loop_
 _atom_site_type_symbol
 _atom_site_label
 _atom_site_symmetry_multiplicity
 _atom_site_fract_x
 _atom_site_fract_y
 _atom_site_fract_z
 _atom_site_occupancy
  Tm  Tm0  1  0.750000  0.642169  0.930191  1
  Tm  Tm1  1  0.250000  0.357831  0.069809  1
  Tm  Tm2  1  0.250000  0.857831  0.430191  1
  Tm  Tm3  1  0.750000  0.142169  0.569809  1
  Tm  Tm4  1  0.750000  0.988316  0.389898  1
  Tm  Tm5  1  0.250000  0.011684  0.610102  1
  Tm  Tm6  1  0.250000  0.511684  0.889898  1
  Tm  Tm7  1  0.750000  0.488316  0.110102  1
  Tm  Tm8  1  0.750000  0.531004  0.628579  1
  Tm  Tm9  1  0.250000  0.468996  0.371421  1
  Tm  Tm10  1  0.250000  0.968996  0.128579  1
  Tm  Tm11  1  0.750000  0.031004  0.871421  1
  Tm  Tm12  1  0.750000  0.730152  0.252781  1
  Tm  Tm13  1  0.250000  0.269848  0.747219  1
  Tm  Tm14  1  0.250000  0.769848  0.752781  1
  Tm  Tm15  1  0.750000  0.230152  0.247219  1
  Tm  Tm16  1  0.750000  0.891666  0.666747  1
  Tm  Tm17  1  0.250000  0.108334  0.333253  1
  Tm  Tm18  1  0.250000  0.608334  0.166747  1
  Tm  Tm19  1  0.750000  0.391666  0.833253  1
  Tm  Tm20  1  0.750000  0.836813  0.970338  1
  Tm  Tm21  1  0.250000  0.163187  0.029662  1
  Tm  Tm22  1  0.250000  0.663187  0.470338  1
  Tm  Tm23  1  0.750000  0.336813  0.529662  1
  In  In24  1  0.750000  0.575338  0.365958  1
  In  In25  1  0.250000  0.424662  0.634042  1
  In  In26  1  0.250000  0.924662  0.865958  1
  In  In27  1  0.750000  0.075338  0.134042  1
  Te  Te28  1  0.750000  0.872055  0.225693  1
  Te  Te29  1  0.250000  0.127945  0.774307  1
  Te  Te30  1  0.250000  0.627945  0.725693  1
  Te  Te31  1  0.750000  0.372055  0.274307  1
  Te  Te32  1  0.750000  0.763648  0.539057  1
  Te  Te33  1  0.250000  0.236352  0.460943  1
  Te  Te34  1  0.250000  0.736352  0.039057  1
  Te  Te35  1  0.750000  0.263648  0.960943  1
