# generated using pymatgen
data_Li8Nd4Er4Sn7Sb
_symmetry_space_group_name_H-M   'P 1'
_cell_length_a   9.43397400
_cell_length_b   9.43397388
_cell_length_c   7.41941900
_cell_angle_alpha   90.00000000
_cell_angle_beta   90.00000000
_cell_angle_gamma   120.00000043
_symmetry_Int_Tables_number   1
_chemical_formula_structural   Li8Nd4Er4Sn7Sb
_chemical_formula_sum   'Li8 Nd4 Er4 Sn7 Sb1'
_cell_volume   571.86020021
_cell_formula_units_Z   1
loop_
 _symmetry_equiv_pos_site_id
 _symmetry_equiv_pos_as_xyz
  1  'x, y, z'
loop_
 _atom_site_type_symbol
 _atom_site_label
 _atom_site_symmetry_multiplicity
 _atom_site_fract_x
 _atom_site_fract_y
 _atom_site_fract_z
 _atom_site_occupancy
  Li  Li0  1  0.166301  0.332604  0.231780  1
  Li  Li1  1  0.166301  0.833699  0.231780  1
  Li  Li2  1  0.667396  0.833699  0.231780  1
  Li  Li3  1  0.666667  0.333333  0.328737  1
  Li  Li4  1  0.833159  0.666319  0.698593  1
  Li  Li5  1  0.333681  0.166841  0.698593  1
  Li  Li6  1  0.833159  0.166841  0.698593  1
  Li  Li7  1  0.333333  0.666667  0.809356  1
  Nd  Nd8  1  0.000000  0.000000  0.999851  1
  Nd  Nd9  1  0.511159  0.022318  0.004231  1
  Nd  Nd10  1  0.511159  0.488841  0.004231  1
  Nd  Nd11  1  0.977682  0.488841  0.004231  1
  Er  Er12  1  0.000000  0.000000  0.500911  1
  Er  Er13  1  0.490584  0.981167  0.507932  1
  Er  Er14  1  0.018833  0.509416  0.507932  1
  Er  Er15  1  0.490584  0.509416  0.507932  1
  Sn  Sn16  1  0.833168  0.666336  0.279563  1
  Sn  Sn17  1  0.333664  0.166832  0.279563  1
  Sn  Sn18  1  0.833168  0.166832  0.279563  1
  Sn  Sn19  1  0.666667  0.333333  0.728623  1
  Sn  Sn20  1  0.167127  0.334252  0.757616  1
  Sn  Sn21  1  0.167127  0.832873  0.757616  1
  Sn  Sn22  1  0.665748  0.832873  0.757616  1
  Sb  Sb23  1  0.333333  0.666667  0.251359  1
