# generated using pymatgen
data_SrNd6OsBr12
_symmetry_space_group_name_H-M   'P 1'
_cell_length_a   9.58924894
_cell_length_b   9.57359646
_cell_length_c   9.59427717
_cell_angle_alpha   106.31007415
_cell_angle_beta   106.44299318
_cell_angle_gamma   106.29143368
_symmetry_Int_Tables_number   1
_chemical_formula_structural   SrNd6OsBr12
_chemical_formula_sum   'Sr1 Nd6 Os1 Br12'
_cell_volume   746.18747324
_cell_formula_units_Z   1
loop_
 _symmetry_equiv_pos_site_id
 _symmetry_equiv_pos_as_xyz
  1  'x, y, z'
loop_
 _atom_site_type_symbol
 _atom_site_label
 _atom_site_symmetry_multiplicity
 _atom_site_fract_x
 _atom_site_fract_y
 _atom_site_fract_z
 _atom_site_occupancy
  Sr  Sr0  1  0.500000  0.500000  0.500000  1
  Nd  Nd1  1  0.101274  0.310334  0.020327  1
  Nd  Nd2  1  0.312283  0.020585  0.102297  1
  Nd  Nd3  1  0.020052  0.102349  0.311911  1
  Nd  Nd4  1  0.979947  0.897651  0.688089  1
  Nd  Nd5  1  0.687717  0.979414  0.897702  1
  Nd  Nd6  1  0.898726  0.689666  0.979673  1
  Os  Os7  1  0.000000  0.000000  0.000000  1
  Br  Br8  1  0.218952  0.680608  0.071246  1
  Br  Br9  1  0.448074  0.367111  0.150367  1
  Br  Br10  1  0.679894  0.071125  0.218315  1
  Br  Br11  1  0.928755  0.781800  0.319534  1
  Br  Br12  1  0.150233  0.448254  0.366839  1
  Br  Br13  1  0.366724  0.150085  0.448046  1
  Br  Br14  1  0.633276  0.849915  0.551954  1
  Br  Br15  1  0.849766  0.551746  0.633161  1
  Br  Br16  1  0.071246  0.218201  0.680467  1
  Br  Br17  1  0.320107  0.928876  0.781685  1
  Br  Br18  1  0.551925  0.632888  0.849633  1
  Br  Br19  1  0.781048  0.319393  0.928754  1
