# generated using pymatgen
data_TbY4CdAu4
_symmetry_space_group_name_H-M   'P 1'
_cell_length_a   8.02843400
_cell_length_b   8.02843400
_cell_length_c   3.84330600
_cell_angle_alpha   90.00000000
_cell_angle_beta   90.00000000
_cell_angle_gamma   90.00000000
_symmetry_Int_Tables_number   1
_chemical_formula_structural   TbY4CdAu4
_chemical_formula_sum   'Tb1 Y4 Cd1 Au4'
_cell_volume   247.72318029
_cell_formula_units_Z   1
loop_
 _symmetry_equiv_pos_site_id
 _symmetry_equiv_pos_as_xyz
  1  'x, y, z'
loop_
 _atom_site_type_symbol
 _atom_site_label
 _atom_site_symmetry_multiplicity
 _atom_site_fract_x
 _atom_site_fract_y
 _atom_site_fract_z
 _atom_site_occupancy
  Tb  Tb0  1  0.500000  0.500000  0.000000  1
  Y  Y1  1  0.687905  0.139073  0.500000  1
  Y  Y2  1  0.312095  0.860927  0.500000  1
  Y  Y3  1  0.139073  0.312095  0.500000  1
  Y  Y4  1  0.860927  0.687905  0.500000  1
  Cd  Cd5  1  0.000000  0.000000  0.000000  1
  Au  Au6  1  0.145263  0.618402  0.000000  1
  Au  Au7  1  0.854737  0.381598  0.000000  1
  Au  Au8  1  0.618402  0.854737  0.000000  1
  Au  Au9  1  0.381598  0.145263  0.000000  1
