# generated using pymatgen
data_Dy2HoLu5Ga3Co
_symmetry_space_group_name_H-M   'P 1'
_cell_length_a   9.82747800
_cell_length_b   9.83600913
_cell_length_c   6.91772200
_cell_angle_alpha   90.00792725
_cell_angle_beta   90.00049335
_cell_angle_gamma   119.96982019
_symmetry_Int_Tables_number   1
_chemical_formula_structural   Dy2HoLu5Ga3Co
_chemical_formula_sum   'Dy4 Ho2 Lu10 Ga6 Co2'
_cell_volume   579.27759084
_cell_formula_units_Z   2
loop_
 _symmetry_equiv_pos_site_id
 _symmetry_equiv_pos_as_xyz
  1  'x, y, z'
loop_
 _atom_site_type_symbol
 _atom_site_label
 _atom_site_symmetry_multiplicity
 _atom_site_fract_x
 _atom_site_fract_y
 _atom_site_fract_z
 _atom_site_occupancy
  Dy  Dy0  1  0.928968  0.464512  0.708351  1
  Dy  Dy1  1  0.535807  0.071644  0.708724  1
  Dy  Dy2  1  0.000028  0.000073  0.231725  1
  Dy  Dy3  1  0.999931  0.999858  0.731740  1
  Ho  Ho4  1  0.463542  0.927082  0.208458  1
  Ho  Ho5  1  0.535541  0.464490  0.708330  1
  Lu  Lu6  1  0.173623  0.825028  0.511627  1
  Lu  Lu7  1  0.651395  0.824993  0.511647  1
  Lu  Lu8  1  0.174513  0.348976  0.510490  1
  Lu  Lu9  1  0.826873  0.175049  0.014001  1
  Lu  Lu10  1  0.348212  0.175082  0.013974  1
  Lu  Lu11  1  0.825573  0.651178  0.014915  1
  Lu  Lu12  1  0.332791  0.665543  0.826817  1
  Lu  Lu13  1  0.667161  0.334364  0.325533  1
  Lu  Lu14  1  0.462696  0.536934  0.207678  1
  Lu  Lu15  1  0.074252  0.536939  0.207677  1
  Ga  Ga16  1  0.163401  0.835795  0.957165  1
  Ga  Ga17  1  0.672393  0.835791  0.957148  1
  Ga  Ga18  1  0.164371  0.328732  0.958070  1
  Ga  Ga19  1  0.836422  0.163288  0.456368  1
  Ga  Ga20  1  0.326887  0.163310  0.456394  1
  Ga  Ga21  1  0.836464  0.672963  0.455434  1
  Co  Co22  1  0.332517  0.665033  0.445434  1
  Co  Co23  1  0.666638  0.333344  0.947135  1
