# generated using pymatgen
data_NaV2InO7
_symmetry_space_group_name_H-M   'P 1'
_cell_length_a   5.78910090
_cell_length_b   5.78910114
_cell_length_c   5.02100781
_cell_angle_alpha   98.52500040
_cell_angle_beta   98.52500048
_cell_angle_gamma   100.50550857
_symmetry_Int_Tables_number   1
_chemical_formula_structural   NaV2InO7
_chemical_formula_sum   'Na1 V2 In1 O7'
_cell_volume   160.94378185
_cell_formula_units_Z   1
loop_
 _symmetry_equiv_pos_site_id
 _symmetry_equiv_pos_as_xyz
  1  'x, y, z'
loop_
 _atom_site_type_symbol
 _atom_site_label
 _atom_site_symmetry_multiplicity
 _atom_site_fract_x
 _atom_site_fract_y
 _atom_site_fract_z
 _atom_site_occupancy
  Na  Na0  1  0.243505  0.756494  0.000000  1
  V  V1  1  0.177250  0.243545  0.414265  1
  V  V2  1  0.756455  0.822750  0.585736  1
  In  In3  1  0.628680  0.371319  0.000000  1
  O  O4  1  0.367436  0.167028  0.196814  1
  O  O5  1  0.965884  0.373948  0.253627  1
  O  O6  1  0.571300  0.671266  0.284847  1
  O  O7  1  0.034960  0.965039  0.499999  1
  O  O8  1  0.328734  0.428700  0.715154  1
  O  O9  1  0.626052  0.034117  0.746371  1
  O  O10  1  0.832973  0.632565  0.803184  1
