# generated using pymatgen
data_Ho4Er8Co5Bi
_symmetry_space_group_name_H-M   'P 1'
_cell_length_a   8.24595201
_cell_length_b   8.24595198
_cell_length_c   8.24595223
_cell_angle_alpha   110.86952813
_cell_angle_beta   110.77328619
_cell_angle_gamma   106.80335108
_symmetry_Int_Tables_number   1
_chemical_formula_structural   Ho4Er8Co5Bi
_chemical_formula_sum   'Ho4 Er8 Co5 Bi1'
_cell_volume   430.92093480
_cell_formula_units_Z   1
loop_
 _symmetry_equiv_pos_site_id
 _symmetry_equiv_pos_as_xyz
  1  'x, y, z'
loop_
 _atom_site_type_symbol
 _atom_site_label
 _atom_site_symmetry_multiplicity
 _atom_site_fract_x
 _atom_site_fract_y
 _atom_site_fract_z
 _atom_site_occupancy
  Ho  Ho0  1  0.287376  0.183749  0.471124  1
  Ho  Ho1  1  0.712624  0.816251  0.528876  1
  Ho  Ho2  1  0.287376  0.816251  0.103627  1
  Ho  Ho3  1  0.712624  0.183749  0.896373  1
  Er  Er4  1  0.621314  0.311787  0.309527  1
  Er  Er5  1  0.378686  0.688213  0.690473  1
  Er  Er6  1  0.002261  0.311787  0.690473  1
  Er  Er7  1  0.997739  0.688213  0.309527  1
  Er  Er8  1  0.208279  0.403071  0.194791  1
  Er  Er9  1  0.791721  0.596929  0.805209  1
  Er  Er10  1  0.208279  0.013488  0.805209  1
  Er  Er11  1  0.791721  0.986512  0.194791  1
  Co  Co12  1  0.000000  0.375042  0.375042  1
  Co  Co13  1  0.000000  0.624958  0.624958  1
  Co  Co14  1  0.388126  0.888126  0.500000  1
  Co  Co15  1  0.611874  0.111874  0.500000  1
  Co  Co16  1  0.000000  0.000000  0.000000  1
  Bi  Bi17  1  0.500000  0.500000  0.000000  1
