# generated using pymatgen
data_Ho4FeTcC4
_symmetry_space_group_name_H-M   'P 1'
_cell_length_a   5.05342700
_cell_length_b   6.39690300
_cell_length_c   9.69408000
_cell_angle_alpha   90.00000000
_cell_angle_beta   90.00000000
_cell_angle_gamma   90.00000000
_symmetry_Int_Tables_number   1
_chemical_formula_structural   Ho4FeTcC4
_chemical_formula_sum   'Ho8 Fe2 Tc2 C8'
_cell_volume   313.37356707
_cell_formula_units_Z   2
loop_
 _symmetry_equiv_pos_site_id
 _symmetry_equiv_pos_as_xyz
  1  'x, y, z'
loop_
 _atom_site_type_symbol
 _atom_site_label
 _atom_site_symmetry_multiplicity
 _atom_site_fract_x
 _atom_site_fract_y
 _atom_site_fract_z
 _atom_site_occupancy
  Ho  Ho0  1  0.250000  0.474178  0.784070  1
  Ho  Ho1  1  0.750000  0.025822  0.284070  1
  Ho  Ho2  1  0.250000  0.973511  0.713634  1
  Ho  Ho3  1  0.750000  0.526489  0.213634  1
  Ho  Ho4  1  0.250000  0.825737  0.054043  1
  Ho  Ho5  1  0.750000  0.674263  0.554043  1
  Ho  Ho6  1  0.250000  0.311986  0.443331  1
  Ho  Ho7  1  0.750000  0.188014  0.943331  1
  Fe  Fe8  1  0.250000  0.273939  0.138411  1
  Fe  Fe9  1  0.750000  0.226061  0.638411  1
  Tc  Tc10  1  0.250000  0.773027  0.361200  1
  Tc  Tc11  1  0.750000  0.726973  0.861200  1
  C  C12  1  0.250000  0.188458  0.960747  1
  C  C13  1  0.750000  0.823085  0.050766  1
  C  C14  1  0.250000  0.676915  0.550766  1
  C  C15  1  0.750000  0.311542  0.460747  1
  C  C16  1  0.250000  0.047845  0.256271  1
  C  C17  1  0.750000  0.452155  0.756271  1
  C  C18  1  0.250000  0.529619  0.237527  1
  C  C19  1  0.750000  0.970381  0.737527  1
