# generated using pymatgen
data_Ho4TiV3F28
_symmetry_space_group_name_H-M   'P 1'
_cell_length_a   5.46014453
_cell_length_b   8.74870370
_cell_length_c   11.74421600
_cell_angle_alpha   63.18674834
_cell_angle_beta   90.04282379
_cell_angle_gamma   89.98962370
_symmetry_Int_Tables_number   1
_chemical_formula_structural   Ho4TiV3F28
_chemical_formula_sum   'Ho4 Ti1 V3 F28'
_cell_volume   500.69229818
_cell_formula_units_Z   1
loop_
 _symmetry_equiv_pos_site_id
 _symmetry_equiv_pos_as_xyz
  1  'x, y, z'
loop_
 _atom_site_type_symbol
 _atom_site_label
 _atom_site_symmetry_multiplicity
 _atom_site_fract_x
 _atom_site_fract_y
 _atom_site_fract_z
 _atom_site_occupancy
  Ho  Ho0  1  0.758448  0.805971  0.770204  1
  Ho  Ho1  1  0.258270  0.190080  0.729138  1
  Ho  Ho2  1  0.240198  0.190750  0.233031  1
  Ho  Ho3  1  0.741487  0.811503  0.267035  1
  Ti  Ti4  1  0.755159  0.272562  0.955868  1
  V  V5  1  0.254356  0.726890  0.544077  1
  V  V6  1  0.245292  0.726313  0.045438  1
  V  V7  1  0.745396  0.274192  0.454995  1
  F  F8  1  0.446382  0.705384  0.922350  1
  F  F9  1  0.946401  0.294231  0.578840  1
  F  F10  1  0.550267  0.294627  0.075529  1
  F  F11  1  0.051203  0.706909  0.421393  1
  F  F12  1  0.455889  0.283778  0.543510  1
  F  F13  1  0.956165  0.718369  0.956594  1
  F  F14  1  0.541006  0.717838  0.454068  1
  F  F15  1  0.042898  0.282734  0.044478  1
  F  F16  1  0.772250  0.512504  0.860665  1
  F  F17  1  0.268334  0.491964  0.638249  1
  F  F18  1  0.230017  0.490718  0.137799  1
  F  F19  1  0.731147  0.508544  0.362331  1
  F  F20  1  0.758939  0.034340  0.051210  1
  F  F21  1  0.258025  0.960501  0.452648  1
  F  F22  1  0.243835  0.959132  0.953806  1
  F  F23  1  0.742619  0.041869  0.545696  1
  F  F24  1  0.975727  0.731724  0.638169  1
  F  F25  1  0.481102  0.267950  0.859125  1
  F  F26  1  0.026038  0.271027  0.361310  1
  F  F27  1  0.523900  0.727015  0.141096  1
  F  F28  1  0.046816  0.744938  0.172224  1
  F  F29  1  0.546835  0.253908  0.328209  1
  F  F30  1  0.958365  0.251146  0.831673  1
  F  F31  1  0.454883  0.748150  0.669483  1
  F  F32  1  0.414053  0.972676  0.229821  1
  F  F33  1  0.913869  0.031159  0.270852  1
  F  F34  1  0.582217  0.028199  0.768652  1
  F  F35  1  0.082212  0.970404  0.730435  1
