# generated using pymatgen
data_Th5BiAsPb2
_symmetry_space_group_name_H-M   'P 1'
_cell_length_a   9.64987600
_cell_length_b   9.66397320
_cell_length_c   6.65250300
_cell_angle_alpha   90.00000000
_cell_angle_beta   90.00000000
_cell_angle_gamma   120.04834720
_symmetry_Int_Tables_number   1
_chemical_formula_structural   Th5BiAsPb2
_chemical_formula_sum   'Th10 Bi2 As2 Pb4'
_cell_volume   537.00876642
_cell_formula_units_Z   2
loop_
 _symmetry_equiv_pos_site_id
 _symmetry_equiv_pos_as_xyz
  1  'x, y, z'
loop_
 _atom_site_type_symbol
 _atom_site_label
 _atom_site_symmetry_multiplicity
 _atom_site_fract_x
 _atom_site_fract_y
 _atom_site_fract_z
 _atom_site_occupancy
  Th  Th0  1  0.666988  0.333464  0.501312  1
  Th  Th1  1  0.333012  0.666477  0.501312  1
  Th  Th2  1  0.333012  0.666477  0.998688  1
  Th  Th3  1  0.666988  0.333464  0.998688  1
  Th  Th4  1  0.744304  0.742990  0.250000  1
  Th  Th5  1  0.255696  0.998687  0.250000  1
  Th  Th6  1  0.000000  0.257115  0.250000  1
  Th  Th7  1  0.255162  0.255559  0.750000  1
  Th  Th8  1  0.744838  0.000397  0.750000  1
  Th  Th9  1  0.000000  0.744656  0.750000  1
  Bi  Bi10  1  0.391566  0.391340  0.250000  1
  Bi  Bi11  1  0.608434  0.999774  0.250000  1
  As  As12  1  0.000000  0.000287  0.499356  1
  As  As13  1  0.000000  0.000287  0.000644  1
  Pb  Pb14  1  0.000000  0.608527  0.250000  1
  Pb  Pb15  1  0.609903  0.609346  0.750000  1
  Pb  Pb16  1  0.390097  0.999443  0.750000  1
  Pb  Pb17  1  0.000000  0.391703  0.750000  1
