# generated using pymatgen
data_Tm4Sb3As3Rh7
_symmetry_space_group_name_H-M   'P 1'
_cell_length_a   7.39300640
_cell_length_b   7.45804847
_cell_length_c   7.39300580
_cell_angle_alpha   109.64953488
_cell_angle_beta   109.29232575
_cell_angle_gamma   109.64953614
_symmetry_Int_Tables_number   1
_chemical_formula_structural   Tm4Sb3As3Rh7
_chemical_formula_sum   'Tm4 Sb3 As3 Rh7'
_cell_volume   313.10134857
_cell_formula_units_Z   1
loop_
 _symmetry_equiv_pos_site_id
 _symmetry_equiv_pos_as_xyz
  1  'x, y, z'
loop_
 _atom_site_type_symbol
 _atom_site_label
 _atom_site_symmetry_multiplicity
 _atom_site_fract_x
 _atom_site_fract_y
 _atom_site_fract_z
 _atom_site_occupancy
  Tm  Tm0  1  0.478160  0.987588  0.000000  1
  Tm  Tm1  1  0.000000  0.547014  0.000000  1
  Tm  Tm2  1  0.000000  0.987588  0.478160  1
  Tm  Tm3  1  0.521840  0.509428  0.521840  1
  Sb  Sb4  1  0.700626  0.011011  0.700626  1
  Sb  Sb5  1  0.000000  0.310385  0.299374  1
  Sb  Sb6  1  0.299374  0.310385  0.000000  1
  As  As7  1  0.333393  0.008936  0.333393  1
  As  As8  1  0.000000  0.675542  0.666607  1
  As  As9  1  0.666607  0.675542  0.000000  1
  Rh  Rh10  1  0.247059  0.500904  0.748103  1
  Rh  Rh11  1  0.501044  0.253846  0.752941  1
  Rh  Rh12  1  0.752941  0.253846  0.501044  1
  Rh  Rh13  1  0.498956  0.752801  0.251897  1
  Rh  Rh14  1  0.000000  0.961479  0.000000  1
  Rh  Rh15  1  0.251897  0.752801  0.498956  1
  Rh  Rh16  1  0.748103  0.500904  0.247059  1
