# generated using pymatgen
data_Y5Er15(TcAg3)2
_symmetry_space_group_name_H-M   'P 1'
_cell_length_a   9.44822600
_cell_length_b   9.44822561
_cell_length_c   9.60198800
_cell_angle_alpha   90.00000000
_cell_angle_beta   90.00000000
_cell_angle_gamma   120.03044512
_symmetry_Int_Tables_number   1
_chemical_formula_structural   Y5Er15(TcAg3)2
_chemical_formula_sum   'Y5 Er15 Tc2 Ag6'
_cell_volume   742.09413892
_cell_formula_units_Z   1
loop_
 _symmetry_equiv_pos_site_id
 _symmetry_equiv_pos_as_xyz
  1  'x, y, z'
loop_
 _atom_site_type_symbol
 _atom_site_label
 _atom_site_symmetry_multiplicity
 _atom_site_fract_x
 _atom_site_fract_y
 _atom_site_fract_z
 _atom_site_occupancy
  Y  Y0  1  0.540496  0.081989  0.249999  1
  Y  Y1  1  0.918011  0.459504  0.249999  1
  Y  Y2  1  0.459288  0.540712  0.749997  1
  Y  Y3  1  0.459464  0.919189  0.750004  1
  Y  Y4  1  0.080811  0.540536  0.750004  1
  Er  Er5  1  0.000050  0.999950  0.499951  1
  Er  Er6  1  0.000054  0.999946  0.000038  1
  Er  Er7  1  0.209081  0.790919  0.440956  1
  Er  Er8  1  0.209359  0.417668  0.440727  1
  Er  Er9  1  0.582332  0.790641  0.440727  1
  Er  Er10  1  0.791164  0.208836  0.559022  1
  Er  Er11  1  0.790496  0.581875  0.558518  1
  Er  Er12  1  0.418125  0.209504  0.558518  1
  Er  Er13  1  0.791165  0.208835  0.940980  1
  Er  Er14  1  0.790499  0.581873  0.941470  1
  Er  Er15  1  0.418127  0.209501  0.941470  1
  Er  Er16  1  0.209085  0.790915  0.059039  1
  Er  Er17  1  0.209358  0.417682  0.059286  1
  Er  Er18  1  0.582318  0.790642  0.059286  1
  Er  Er19  1  0.540111  0.459889  0.250003  1
  Tc  Tc20  1  0.333932  0.666068  0.250000  1
  Tc  Tc21  1  0.666870  0.333130  0.749998  1
  Ag  Ag22  1  0.885690  0.114310  0.249998  1
  Ag  Ag23  1  0.883762  0.769765  0.250009  1
  Ag  Ag24  1  0.230235  0.116238  0.250009  1
  Ag  Ag25  1  0.114414  0.885586  0.750001  1
  Ag  Ag26  1  0.114215  0.228517  0.749994  1
  Ag  Ag27  1  0.771483  0.885785  0.749994  1
