# generated using pymatgen
data_Li7Pr8Cd(SnPb)4
_symmetry_space_group_name_H-M   'P 1'
_cell_length_a   9.70336665
_cell_length_b   9.70337329
_cell_length_c   7.75276450
_cell_angle_alpha   89.94133902
_cell_angle_beta   90.05858189
_cell_angle_gamma   119.92314562
_symmetry_Int_Tables_number   1
_chemical_formula_structural   Li7Pr8Cd(SnPb)4
_chemical_formula_sum   'Li7 Pr8 Cd1 Sn4 Pb4'
_cell_volume   632.65641161
_cell_formula_units_Z   1
loop_
 _symmetry_equiv_pos_site_id
 _symmetry_equiv_pos_as_xyz
  1  'x, y, z'
loop_
 _atom_site_type_symbol
 _atom_site_label
 _atom_site_symmetry_multiplicity
 _atom_site_fract_x
 _atom_site_fract_y
 _atom_site_fract_z
 _atom_site_occupancy
  Li  Li0  1  0.834292  0.666798  0.712400  1
  Li  Li1  1  0.333202  0.165708  0.712400  1
  Li  Li2  1  0.167326  0.832674  0.210369  1
  Li  Li3  1  0.167867  0.334802  0.211937  1
  Li  Li4  1  0.665197  0.832132  0.211937  1
  Li  Li5  1  0.666463  0.333536  0.327126  1
  Li  Li6  1  0.332026  0.667974  0.829258  1
  Pr  Pr7  1  0.487753  0.512250  0.503569  1
  Pr  Pr8  1  0.484666  0.973680  0.503885  1
  Pr  Pr9  1  0.026319  0.515334  0.503885  1
  Pr  Pr10  1  0.510827  0.489170  0.008910  1
  Pr  Pr11  1  0.511547  0.022666  0.005403  1
  Pr  Pr12  1  0.977335  0.488453  0.005402  1
  Pr  Pr13  1  0.003083  0.996919  0.499315  1
  Pr  Pr14  1  0.999078  0.000922  0.999859  1
  Cd  Cd15  1  0.833340  0.166659  0.707452  1
  Sn  Sn16  1  0.174638  0.337307  0.775086  1
  Sn  Sn17  1  0.662694  0.825362  0.775086  1
  Sn  Sn18  1  0.661929  0.338071  0.737299  1
  Sn  Sn19  1  0.333052  0.666948  0.233868  1
  Pb  Pb20  1  0.833634  0.166366  0.270830  1
  Pb  Pb21  1  0.833761  0.666467  0.270726  1
  Pb  Pb22  1  0.333532  0.166238  0.270725  1
  Pb  Pb23  1  0.166438  0.833563  0.771281  1
