# generated using pymatgen
data_Tb4Dy8OsRu3
_symmetry_space_group_name_H-M   'P 1'
_cell_length_a   6.32309700
_cell_length_b   7.32723856
_cell_length_c   9.19042800
_cell_angle_alpha   90.00000000
_cell_angle_beta   90.00000000
_cell_angle_gamma   90.05420753
_symmetry_Int_Tables_number   1
_chemical_formula_structural   Tb4Dy8OsRu3
_chemical_formula_sum   'Tb4 Dy8 Os1 Ru3'
_cell_volume   425.80006036
_cell_formula_units_Z   1
loop_
 _symmetry_equiv_pos_site_id
 _symmetry_equiv_pos_as_xyz
  1  'x, y, z'
loop_
 _atom_site_type_symbol
 _atom_site_label
 _atom_site_symmetry_multiplicity
 _atom_site_fract_x
 _atom_site_fract_y
 _atom_site_fract_z
 _atom_site_occupancy
  Tb  Tb0  1  0.866600  0.539749  0.250000  1
  Tb  Tb1  1  0.633491  0.039627  0.250000  1
  Tb  Tb2  1  0.132507  0.460669  0.750000  1
  Tb  Tb3  1  0.366285  0.961427  0.750000  1
  Dy  Dy4  1  0.331635  0.676000  0.063377  1
  Dy  Dy5  1  0.169241  0.176289  0.435340  1
  Dy  Dy6  1  0.669602  0.323927  0.564398  1
  Dy  Dy7  1  0.829748  0.823258  0.934979  1
  Dy  Dy8  1  0.669602  0.323927  0.935602  1
  Dy  Dy9  1  0.829748  0.823258  0.565021  1
  Dy  Dy10  1  0.331635  0.676000  0.436623  1
  Dy  Dy11  1  0.169241  0.176289  0.064660  1
  Os  Os12  1  0.541978  0.615468  0.750000  1
  Ru  Ru13  1  0.040731  0.884604  0.250000  1
  Ru  Ru14  1  0.458919  0.384135  0.250000  1
  Ru  Ru15  1  0.959037  0.115372  0.750000  1
