# generated using pymatgen
data_YbDy2ThB16
_symmetry_space_group_name_H-M   'P 1'
_cell_length_a   7.14256410
_cell_length_b   7.13999199
_cell_length_c   4.05134000
_cell_angle_alpha   90.00000000
_cell_angle_beta   90.00000000
_cell_angle_gamma   90.58447463
_symmetry_Int_Tables_number   1
_chemical_formula_structural   YbDy2ThB16
_chemical_formula_sum   'Yb1 Dy2 Th1 B16'
_cell_volume   206.59888153
_cell_formula_units_Z   1
loop_
 _symmetry_equiv_pos_site_id
 _symmetry_equiv_pos_as_xyz
  1  'x, y, z'
loop_
 _atom_site_type_symbol
 _atom_site_label
 _atom_site_symmetry_multiplicity
 _atom_site_fract_x
 _atom_site_fract_y
 _atom_site_fract_z
 _atom_site_occupancy
  Yb  Yb0  1  0.682459  0.818354  0.000000  1
  Dy  Dy1  1  0.182957  0.682599  0.000000  1
  Dy  Dy2  1  0.317751  0.182978  0.000000  1
  Th  Th3  1  0.814564  0.314461  0.000000  1
  B  B4  1  0.497601  0.505078  0.796782  1
  B  B5  1  0.001818  0.995842  0.796796  1
  B  B6  1  0.497601  0.505078  0.203218  1
  B  B7  1  0.001818  0.995842  0.203204  1
  B  B8  1  0.913566  0.586339  0.500000  1
  B  B9  1  0.087200  0.412660  0.500000  1
  B  B10  1  0.413623  0.914433  0.500000  1
  B  B11  1  0.588354  0.089515  0.500000  1
  B  B12  1  0.673785  0.540550  0.500000  1
  B  B13  1  0.322558  0.461817  0.500000  1
  B  B14  1  0.178711  0.960265  0.500000  1
  B  B15  1  0.826335  0.035335  0.500000  1
  B  B16  1  0.459868  0.678476  0.500000  1
  B  B17  1  0.534835  0.325873  0.500000  1
  B  B18  1  0.041879  0.172981  0.500000  1
  B  B19  1  0.962717  0.821526  0.500000  1
