# generated using pymatgen
data_Mn8NbTcOs2
_symmetry_space_group_name_H-M   'P 1'
_cell_length_a   4.68505500
_cell_length_b   4.68505332
_cell_length_c   7.69436700
_cell_angle_alpha   90.00000000
_cell_angle_beta   90.00000000
_cell_angle_gamma   120.00000478
_symmetry_Int_Tables_number   1
_chemical_formula_structural   Mn8NbTcOs2
_chemical_formula_sum   'Mn8 Nb1 Tc1 Os2'
_cell_volume   146.26241490
_cell_formula_units_Z   1
loop_
 _symmetry_equiv_pos_site_id
 _symmetry_equiv_pos_as_xyz
  1  'x, y, z'
loop_
 _atom_site_type_symbol
 _atom_site_label
 _atom_site_symmetry_multiplicity
 _atom_site_fract_x
 _atom_site_fract_y
 _atom_site_fract_z
 _atom_site_occupancy
  Mn  Mn0  1  0.173684  0.347367  0.747585  1
  Mn  Mn1  1  0.825628  0.174372  0.254381  1
  Mn  Mn2  1  0.348745  0.174372  0.254381  1
  Mn  Mn3  1  0.652633  0.826316  0.747585  1
  Mn  Mn4  1  0.000000  0.000000  0.000990  1
  Mn  Mn5  1  0.000000  0.000000  0.499597  1
  Mn  Mn6  1  0.825628  0.651255  0.254381  1
  Mn  Mn7  1  0.173684  0.826316  0.747585  1
  Nb  Nb8  1  0.333333  0.666667  0.062825  1
  Tc  Tc9  1  0.333333  0.666667  0.435110  1
  Os  Os10  1  0.666667  0.333333  0.925426  1
  Os  Os11  1  0.666667  0.333333  0.570153  1
