# generated using pymatgen
data_Ba3La(PPt3)8
_symmetry_space_group_name_H-M   'P 1'
_cell_length_a   8.63430958
_cell_length_b   8.63430958
_cell_length_c   8.63430958
_cell_angle_alpha   90.12676694
_cell_angle_beta   90.12676694
_cell_angle_gamma   90.12676694
_symmetry_Int_Tables_number   1
_chemical_formula_structural   Ba3La(PPt3)8
_chemical_formula_sum   'Ba3 La1 P8 Pt24'
_cell_volume   643.69428652
_cell_formula_units_Z   1
loop_
 _symmetry_equiv_pos_site_id
 _symmetry_equiv_pos_as_xyz
  1  'x, y, z'
loop_
 _atom_site_type_symbol
 _atom_site_label
 _atom_site_symmetry_multiplicity
 _atom_site_fract_x
 _atom_site_fract_y
 _atom_site_fract_z
 _atom_site_occupancy
  Ba  Ba0  1  0.500000  0.500000  0.000000  1
  Ba  Ba1  1  0.500000  0.000000  0.500000  1
  Ba  Ba2  1  0.000000  0.500000  0.500000  1
  La  La3  1  0.000000  0.000000  0.000000  1
  P  P4  1  0.807248  0.306000  0.196629  1
  P  P5  1  0.196629  0.807248  0.306000  1
  P  P6  1  0.694833  0.694833  0.694833  1
  P  P7  1  0.306000  0.196629  0.807248  1
  P  P8  1  0.192752  0.694000  0.803371  1
  P  P9  1  0.803371  0.192752  0.694000  1
  P  P10  1  0.305167  0.305167  0.305167  1
  P  P11  1  0.694000  0.803371  0.192752  1
  Pt  Pt12  1  0.424028  0.843067  0.155782  1
  Pt  Pt13  1  0.577813  0.342024  0.344848  1
  Pt  Pt14  1  0.080176  0.152500  0.662501  1
  Pt  Pt15  1  0.921406  0.662677  0.850035  1
  Pt  Pt16  1  0.155782  0.424028  0.843067  1
  Pt  Pt17  1  0.344848  0.577813  0.342024  1
  Pt  Pt18  1  0.662501  0.080176  0.152500  1
  Pt  Pt19  1  0.850035  0.921406  0.662677  1
  Pt  Pt20  1  0.843067  0.155782  0.424028  1
  Pt  Pt21  1  0.342024  0.344848  0.577813  1
  Pt  Pt22  1  0.152500  0.662501  0.080176  1
  Pt  Pt23  1  0.662677  0.850035  0.921406  1
  Pt  Pt24  1  0.575972  0.156933  0.844218  1
  Pt  Pt25  1  0.422187  0.657976  0.655152  1
  Pt  Pt26  1  0.919824  0.847500  0.337499  1
  Pt  Pt27  1  0.078594  0.337323  0.149965  1
  Pt  Pt28  1  0.844218  0.575972  0.156933  1
  Pt  Pt29  1  0.655152  0.422187  0.657976  1
  Pt  Pt30  1  0.337499  0.919824  0.847500  1
  Pt  Pt31  1  0.149965  0.078594  0.337323  1
  Pt  Pt32  1  0.156933  0.844218  0.575972  1
  Pt  Pt33  1  0.657976  0.655152  0.422187  1
  Pt  Pt34  1  0.847500  0.337499  0.919824  1
  Pt  Pt35  1  0.337323  0.149965  0.078594  1
