# generated using pymatgen
data_TbPr3F12
_symmetry_space_group_name_H-M   'P 1'
_cell_length_a   4.52192637
_cell_length_b   6.76461640
_cell_length_c   7.18993700
_cell_angle_alpha   90.00000000
_cell_angle_beta   90.00000000
_cell_angle_gamma   89.09626271
_symmetry_Int_Tables_number   1
_chemical_formula_structural   TbPr3F12
_chemical_formula_sum   'Tb1 Pr3 F12'
_cell_volume   219.90632374
_cell_formula_units_Z   1
loop_
 _symmetry_equiv_pos_site_id
 _symmetry_equiv_pos_as_xyz
  1  'x, y, z'
loop_
 _atom_site_type_symbol
 _atom_site_label
 _atom_site_symmetry_multiplicity
 _atom_site_fract_x
 _atom_site_fract_y
 _atom_site_fract_z
 _atom_site_occupancy
  Tb  Tb0  1  0.061104  0.366940  0.250000  1
  Pr  Pr1  1  0.938268  0.630285  0.750000  1
  Pr  Pr2  1  0.432584  0.867886  0.250000  1
  Pr  Pr3  1  0.560894  0.136250  0.750000  1
  F  F4  1  0.377526  0.171140  0.433650  1
  F  F5  1  0.889922  0.333751  0.559642  1
  F  F6  1  0.115843  0.653241  0.069021  1
  F  F7  1  0.611326  0.837534  0.936898  1
  F  F8  1  0.594195  0.512870  0.250000  1
  F  F9  1  0.076062  0.979606  0.750000  1
  F  F10  1  0.918608  0.029585  0.250000  1
  F  F11  1  0.429051  0.485245  0.750000  1
  F  F12  1  0.377526  0.171140  0.066350  1
  F  F13  1  0.889922  0.333751  0.940358  1
  F  F14  1  0.115843  0.653241  0.430979  1
  F  F15  1  0.611326  0.837534  0.563102  1
