# generated using pymatgen
data_Hf6PaNi10
_symmetry_space_group_name_H-M   'P 1'
_cell_length_a   7.69712349
_cell_length_b   7.69712399
_cell_length_c   9.14215900
_cell_angle_alpha   90.00000000
_cell_angle_beta   90.00000000
_cell_angle_gamma   107.13674294
_symmetry_Int_Tables_number   1
_chemical_formula_structural   Hf6PaNi10
_chemical_formula_sum   'Hf12 Pa2 Ni20'
_cell_volume   517.58750287
_cell_formula_units_Z   2
loop_
 _symmetry_equiv_pos_site_id
 _symmetry_equiv_pos_as_xyz
  1  'x, y, z'
loop_
 _atom_site_type_symbol
 _atom_site_label
 _atom_site_symmetry_multiplicity
 _atom_site_fract_x
 _atom_site_fract_y
 _atom_site_fract_z
 _atom_site_occupancy
  Hf  Hf0  1  0.688723  0.311277  0.000000  1
  Hf  Hf1  1  0.311277  0.688723  0.000000  1
  Hf  Hf2  1  0.811277  0.188723  0.500000  1
  Hf  Hf3  1  0.188723  0.811277  0.500000  1
  Hf  Hf4  1  0.004116  0.504116  0.250000  1
  Hf  Hf5  1  0.995884  0.495884  0.750000  1
  Hf  Hf6  1  0.495884  0.995884  0.750000  1
  Hf  Hf7  1  0.504116  0.004116  0.250000  1
  Hf  Hf8  1  0.316186  0.316186  0.184697  1
  Hf  Hf9  1  0.683814  0.683814  0.815303  1
  Hf  Hf10  1  0.183814  0.183814  0.684697  1
  Hf  Hf11  1  0.816186  0.816186  0.315303  1
  Pa  Pa12  1  0.000000  0.000000  0.000000  1
  Pa  Pa13  1  0.500000  0.500000  0.500000  1
  Ni  Ni14  1  0.864622  0.154234  0.207571  1
  Ni  Ni15  1  0.135378  0.845766  0.792429  1
  Ni  Ni16  1  0.635378  0.345766  0.707571  1
  Ni  Ni17  1  0.654234  0.364622  0.292429  1
  Ni  Ni18  1  0.364622  0.654234  0.292429  1
  Ni  Ni19  1  0.345766  0.635378  0.707571  1
  Ni  Ni20  1  0.845766  0.135378  0.792429  1
  Ni  Ni21  1  0.154234  0.864622  0.207571  1
  Ni  Ni22  1  0.937444  0.646557  0.007281  1
  Ni  Ni23  1  0.062556  0.353443  0.992719  1
  Ni  Ni24  1  0.562556  0.853443  0.507281  1
  Ni  Ni25  1  0.146557  0.437444  0.492719  1
  Ni  Ni26  1  0.437444  0.146557  0.492719  1
  Ni  Ni27  1  0.853443  0.562556  0.507281  1
  Ni  Ni28  1  0.353443  0.062556  0.992719  1
  Ni  Ni29  1  0.646557  0.937444  0.007281  1
  Ni  Ni30  1  0.107045  0.107045  0.394825  1
  Ni  Ni31  1  0.892955  0.892955  0.605175  1
  Ni  Ni32  1  0.392955  0.392955  0.894825  1
  Ni  Ni33  1  0.607045  0.607045  0.105175  1
