# generated using pymatgen
data_Nd16Ga6CoTc
_symmetry_space_group_name_H-M   'P 1'
_cell_length_a   10.42409200
_cell_length_b   10.42933905
_cell_length_c   7.19859101
_cell_angle_alpha   90.00504525
_cell_angle_beta   89.99948697
_cell_angle_gamma   119.98339986
_symmetry_Int_Tables_number   1
_chemical_formula_structural   Nd16Ga6CoTc
_chemical_formula_sum   'Nd16 Ga6 Co1 Tc1'
_cell_volume   677.86899927
_cell_formula_units_Z   1
loop_
 _symmetry_equiv_pos_site_id
 _symmetry_equiv_pos_as_xyz
  1  'x, y, z'
loop_
 _atom_site_type_symbol
 _atom_site_label
 _atom_site_symmetry_multiplicity
 _atom_site_fract_x
 _atom_site_fract_y
 _atom_site_fract_z
 _atom_site_occupancy
  Nd  Nd0  1  0.666650  0.333323  0.177911  1
  Nd  Nd1  1  0.999693  0.999393  0.271575  1
  Nd  Nd2  1  0.461118  0.922245  0.294011  1
  Nd  Nd3  1  0.077774  0.538973  0.294065  1
  Nd  Nd4  1  0.461185  0.538976  0.294060  1
  Nd  Nd5  1  0.342259  0.171188  0.487968  1
  Nd  Nd6  1  0.828923  0.171190  0.487954  1
  Nd  Nd7  1  0.828864  0.657728  0.488131  1
  Nd  Nd8  1  0.333340  0.666653  0.668360  1
  Nd  Nd9  1  0.000294  0.000580  0.766177  1
  Nd  Nd10  1  0.538524  0.077040  0.794626  1
  Nd  Nd11  1  0.538465  0.461384  0.794724  1
  Nd  Nd12  1  0.922924  0.461385  0.794728  1
  Nd  Nd13  1  0.167600  0.832369  0.984873  1
  Nd  Nd14  1  0.664771  0.832367  0.984885  1
  Nd  Nd15  1  0.167598  0.335197  0.985114  1
  Ga  Ga16  1  0.833537  0.667071  0.045298  1
  Ga  Ga17  1  0.332741  0.166299  0.045293  1
  Ga  Ga18  1  0.833563  0.166303  0.045294  1
  Ga  Ga19  1  0.163915  0.327837  0.541934  1
  Ga  Ga20  1  0.163866  0.836305  0.541974  1
  Ga  Ga21  1  0.672453  0.836313  0.541974  1
  Co  Co22  1  0.666690  0.333351  0.552744  1
  Tc  Tc23  1  0.333254  0.666533  0.042333  1
