# generated using pymatgen
data_Er5TmC2I11
_symmetry_space_group_name_H-M   'P 1'
_cell_length_a   9.50274266
_cell_length_b   10.80854971
_cell_length_c   15.08867234
_cell_angle_alpha   90.78731924
_cell_angle_beta   104.24703424
_cell_angle_gamma   109.91711208
_symmetry_Int_Tables_number   1
_chemical_formula_structural   Er5TmC2I11
_chemical_formula_sum   'Er10 Tm2 C4 I22'
_cell_volume   1404.13917118
_cell_formula_units_Z   2
loop_
 _symmetry_equiv_pos_site_id
 _symmetry_equiv_pos_as_xyz
  1  'x, y, z'
loop_
 _atom_site_type_symbol
 _atom_site_label
 _atom_site_symmetry_multiplicity
 _atom_site_fract_x
 _atom_site_fract_y
 _atom_site_fract_z
 _atom_site_occupancy
  Er  Er0  1  0.385689  0.479375  0.119798  1
  Er  Er1  1  0.614311  0.520625  0.880202  1
  Er  Er2  1  0.429014  0.780394  0.266340  1
  Er  Er3  1  0.570986  0.219606  0.733660  1
  Er  Er4  1  0.626467  0.585151  0.357505  1
  Er  Er5  1  0.373533  0.414849  0.642495  1
  Er  Er6  1  0.830306  0.649814  0.201066  1
  Er  Er7  1  0.169694  0.350186  0.798934  1
  Er  Er8  1  0.629469  0.839362  0.106691  1
  Er  Er9  1  0.370531  0.160638  0.893309  1
  Tm  Tm10  1  0.859934  0.945177  0.347386  1
  Tm  Tm11  1  0.140066  0.054823  0.652614  1
  C  C12  1  0.431393  0.344926  0.797681  1
  C  C13  1  0.568607  0.655074  0.202319  1
  C  C14  1  0.314185  0.231188  0.739805  1
  C  C15  1  0.685815  0.768812  0.260195  1
  I  I16  1  0.387915  0.312590  0.271943  1
  I  I17  1  0.612085  0.687410  0.728057  1
  I  I18  1  0.124762  0.558499  0.150383  1
  I  I19  1  0.875238  0.441501  0.849617  1
  I  I20  1  0.626830  0.378329  0.061864  1
  I  I21  1  0.373170  0.621671  0.938136  1
  I  I22  1  0.121352  0.206035  0.482036  1
  I  I23  1  0.878648  0.793965  0.517964  1
  I  I24  1  0.618110  0.033725  0.391185  1
  I  I25  1  0.381890  0.966275  0.608815  1
  I  I26  1  0.126154  0.869401  0.305757  1
  I  I27  1  0.873846  0.130599  0.694243  1
  I  I28  1  0.131487  0.526101  0.653674  1
  I  I29  1  0.868513  0.473899  0.346326  1
  I  I30  1  0.614259  0.365814  0.566864  1
  I  I31  1  0.385741  0.634186  0.433136  1
  I  I32  1  0.140415  0.222669  0.977239  1
  I  I33  1  0.859585  0.777331  0.022761  1
  I  I34  1  0.624243  0.059276  0.896017  1
  I  I35  1  0.375757  0.940724  0.103983  1
  I  I36  1  0.129065  0.894913  0.814451  1
  I  I37  1  0.870935  0.105087  0.185549  1
