# generated using pymatgen
data_Ho8Ta9Si16W3
_symmetry_space_group_name_H-M   'P 1'
_cell_length_a   6.97587034
_cell_length_b   6.97587072
_cell_length_c   12.91024427
_cell_angle_alpha   90.05200259
_cell_angle_beta   89.94799681
_cell_angle_gamma   90.11936945
_symmetry_Int_Tables_number   1
_chemical_formula_structural   Ho8Ta9Si16W3
_chemical_formula_sum   'Ho8 Ta9 Si16 W3'
_cell_volume   628.24636393
_cell_formula_units_Z   1
loop_
 _symmetry_equiv_pos_site_id
 _symmetry_equiv_pos_as_xyz
  1  'x, y, z'
loop_
 _atom_site_type_symbol
 _atom_site_label
 _atom_site_symmetry_multiplicity
 _atom_site_fract_x
 _atom_site_fract_y
 _atom_site_fract_z
 _atom_site_occupancy
  Ho  Ho0  1  0.340900  0.002134  0.467507  1
  Ho  Ho1  1  0.496947  0.842075  0.719047  1
  Ho  Ho2  1  0.501685  0.158491  0.217930  1
  Ho  Ho3  1  0.842075  0.496947  0.280953  1
  Ho  Ho4  1  0.158491  0.501685  0.782070  1
  Ho  Ho5  1  0.658672  0.998335  0.968018  1
  Ho  Ho6  1  0.002134  0.340900  0.532493  1
  Ho  Ho7  1  0.998335  0.658672  0.031982  1
  Ta  Ta8  1  0.670903  0.670903  0.500000  1
  Ta  Ta9  1  0.152231  0.005184  0.875434  1
  Ta  Ta10  1  0.493441  0.651851  0.125085  1
  Ta  Ta11  1  0.505299  0.348427  0.626096  1
  Ta  Ta12  1  0.651851  0.493441  0.874915  1
  Ta  Ta13  1  0.348427  0.505299  0.373904  1
  Ta  Ta14  1  0.847482  0.994062  0.374814  1
  Ta  Ta15  1  0.005184  0.152231  0.124566  1
  Ta  Ta16  1  0.994062  0.847482  0.625186  1
  Si  Si17  1  0.202426  0.134219  0.682567  1
  Si  Si18  1  0.366291  0.702531  0.932174  1
  Si  Si19  1  0.634456  0.296225  0.432418  1
  Si  Si20  1  0.702531  0.366291  0.067826  1
  Si  Si21  1  0.296225  0.634456  0.567582  1
  Si  Si22  1  0.797059  0.865981  0.182329  1
  Si  Si23  1  0.134219  0.202426  0.317433  1
  Si  Si24  1  0.865981  0.797059  0.817671  1
  Si  Si25  1  0.294415  0.954771  0.064973  1
  Si  Si26  1  0.544300  0.795158  0.314113  1
  Si  Si27  1  0.454177  0.205676  0.815408  1
  Si  Si28  1  0.795158  0.544300  0.685887  1
  Si  Si29  1  0.205676  0.454177  0.184592  1
  Si  Si30  1  0.705405  0.047101  0.565862  1
  Si  Si31  1  0.954771  0.294415  0.935027  1
  Si  Si32  1  0.047101  0.705405  0.434138  1
  W  W33  1  0.329907  0.329907  0.000000  1
  W  W34  1  0.170871  0.830909  0.248821  1
  W  W35  1  0.830909  0.170871  0.751179  1
