# generated using pymatgen
data_Dy2TcP4Ir5
_symmetry_space_group_name_H-M   'P 1'
_cell_length_a   3.98235100
_cell_length_b   11.22579725
_cell_length_c   12.71407814
_cell_angle_alpha   89.54525558
_cell_angle_beta   90.00000000
_cell_angle_gamma   90.00000000
_symmetry_Int_Tables_number   1
_chemical_formula_structural   Dy2TcP4Ir5
_chemical_formula_sum   'Dy6 Tc3 P12 Ir15'
_cell_volume   568.36578679
_cell_formula_units_Z   3
loop_
 _symmetry_equiv_pos_site_id
 _symmetry_equiv_pos_as_xyz
  1  'x, y, z'
loop_
 _atom_site_type_symbol
 _atom_site_label
 _atom_site_symmetry_multiplicity
 _atom_site_fract_x
 _atom_site_fract_y
 _atom_site_fract_z
 _atom_site_occupancy
  Dy  Dy0  1  0.000000  0.498071  0.522594  1
  Dy  Dy1  1  0.500000  0.001801  0.477741  1
  Dy  Dy2  1  0.500000  0.817655  0.205268  1
  Dy  Dy3  1  0.500000  0.181514  0.204224  1
  Dy  Dy4  1  0.000000  0.680488  0.795533  1
  Dy  Dy5  1  0.000000  0.317934  0.796927  1
  Tc  Tc6  1  0.500000  0.508707  0.160413  1
  Tc  Tc7  1  0.000000  0.994125  0.838628  1
  Tc  Tc8  1  0.500000  0.333256  0.991364  1
  P  P9  1  0.500000  0.496746  0.879606  1
  P  P10  1  0.000000  0.998477  0.124826  1
  P  P11  1  0.500000  0.499600  0.345484  1
  P  P12  1  0.000000  0.000983  0.652998  1
  P  P13  1  0.500000  0.313704  0.619133  1
  P  P14  1  0.500000  0.685069  0.618685  1
  P  P15  1  0.000000  0.187484  0.380369  1
  P  P16  1  0.000000  0.814815  0.382134  1
  P  P17  1  0.500000  0.846614  0.884295  1
  P  P18  1  0.500000  0.159907  0.892314  1
  P  P19  1  0.000000  0.653747  0.114882  1
  P  P20  1  0.000000  0.341443  0.102786  1
  Ir  Ir21  1  0.500000  0.499149  0.697924  1
  Ir  Ir22  1  0.000000  0.000836  0.303337  1
  Ir  Ir23  1  0.000000  0.506215  0.993198  1
  Ir  Ir24  1  0.500000  0.995955  0.004532  1
  Ir  Ir25  1  0.500000  0.672619  0.978664  1
  Ir  Ir26  1  0.000000  0.161368  0.014247  1
  Ir  Ir27  1  0.000000  0.830286  0.022037  1
  Ir  Ir28  1  0.500000  0.298578  0.429552  1
  Ir  Ir29  1  0.500000  0.703749  0.431922  1
  Ir  Ir30  1  0.000000  0.205366  0.569117  1
  Ir  Ir31  1  0.000000  0.794846  0.568853  1
  Ir  Ir32  1  0.500000  0.873194  0.707947  1
  Ir  Ir33  1  0.500000  0.126587  0.713210  1
  Ir  Ir34  1  0.000000  0.626720  0.292121  1
  Ir  Ir35  1  0.000000  0.372393  0.283135  1
