# generated using pymatgen
data_Na3Lu(PS4)2
_symmetry_space_group_name_H-M   'P 1'
_cell_length_a   10.23915412
_cell_length_b   10.23915469
_cell_length_c   9.20432588
_cell_angle_alpha   64.74792946
_cell_angle_beta   64.74792916
_cell_angle_gamma   55.72669643
_symmetry_Int_Tables_number   1
_chemical_formula_structural   Na3Lu(PS4)2
_chemical_formula_sum   'Na6 Lu2 P4 S16'
_cell_volume   698.44141161
_cell_formula_units_Z   2
loop_
 _symmetry_equiv_pos_site_id
 _symmetry_equiv_pos_as_xyz
  1  'x, y, z'
loop_
 _atom_site_type_symbol
 _atom_site_label
 _atom_site_symmetry_multiplicity
 _atom_site_fract_x
 _atom_site_fract_y
 _atom_site_fract_z
 _atom_site_occupancy
  Na  Na0  1  0.808311  0.533014  0.209870  1
  Na  Na1  1  0.466986  0.191689  0.290130  1
  Na  Na2  1  0.191689  0.466986  0.790130  1
  Na  Na3  1  0.533014  0.808311  0.709870  1
  Na  Na4  1  0.417271  0.582729  0.250000  1
  Na  Na5  1  0.582729  0.417271  0.750000  1
  Lu  Lu6  1  0.024351  0.975649  0.250000  1
  Lu  Lu7  1  0.975649  0.024351  0.750000  1
  P  P8  1  0.858453  0.329105  0.934714  1
  P  P9  1  0.670895  0.141547  0.565286  1
  P  P10  1  0.141547  0.670895  0.065286  1
  P  P11  1  0.329105  0.858453  0.434714  1
  S  S12  1  0.205893  0.858722  0.935863  1
  S  S13  1  0.661132  0.087038  0.810226  1
  S  S14  1  0.318698  0.448123  0.023695  1
  S  S15  1  0.087038  0.661132  0.310226  1
  S  S16  1  0.750548  0.941354  0.490349  1
  S  S17  1  0.794107  0.141278  0.064137  1
  S  S18  1  0.058646  0.249452  0.009651  1
  S  S19  1  0.249452  0.058646  0.509651  1
  S  S20  1  0.941354  0.750548  0.990349  1
  S  S21  1  0.858722  0.205893  0.435863  1
  S  S22  1  0.912962  0.338868  0.689774  1
  S  S23  1  0.338868  0.912962  0.189774  1
  S  S24  1  0.681302  0.551877  0.976305  1
  S  S25  1  0.448123  0.318698  0.523695  1
  S  S26  1  0.141278  0.794107  0.564137  1
  S  S27  1  0.551877  0.681302  0.476305  1
