# generated using pymatgen
data_Hf18Ta5Re(TcNi)2
_symmetry_space_group_name_H-M   'P 1'
_cell_length_a   8.74030775
_cell_length_b   8.72823365
_cell_length_c   8.54505800
_cell_angle_alpha   90.00000000
_cell_angle_beta   90.00000000
_cell_angle_gamma   119.95432095
_symmetry_Int_Tables_number   1
_chemical_formula_structural   Hf18Ta5Re(TcNi)2
_chemical_formula_sum   'Hf18 Ta5 Re1 Tc2 Ni2'
_cell_volume   564.80489693
_cell_formula_units_Z   1
loop_
 _symmetry_equiv_pos_site_id
 _symmetry_equiv_pos_as_xyz
  1  'x, y, z'
loop_
 _atom_site_type_symbol
 _atom_site_label
 _atom_site_symmetry_multiplicity
 _atom_site_fract_x
 _atom_site_fract_y
 _atom_site_fract_z
 _atom_site_occupancy
  Hf  Hf0  1  0.202324  0.798037  0.441285  1
  Hf  Hf1  1  0.202324  0.404289  0.441285  1
  Hf  Hf2  1  0.598285  0.799144  0.441878  1
  Hf  Hf3  1  0.799981  0.200508  0.556719  1
  Hf  Hf4  1  0.799981  0.599472  0.556719  1
  Hf  Hf5  1  0.404150  0.202075  0.556897  1
  Hf  Hf6  1  0.799981  0.200508  0.943281  1
  Hf  Hf7  1  0.799981  0.599472  0.943281  1
  Hf  Hf8  1  0.404150  0.202075  0.943103  1
  Hf  Hf9  1  0.202324  0.798037  0.058715  1
  Hf  Hf10  1  0.202324  0.404289  0.058715  1
  Hf  Hf11  1  0.598285  0.799144  0.058122  1
  Hf  Hf12  1  0.543997  0.457677  0.250000  1
  Hf  Hf13  1  0.543997  0.086319  0.250000  1
  Hf  Hf14  1  0.913639  0.456819  0.250000  1
  Hf  Hf15  1  0.460533  0.544683  0.750000  1
  Hf  Hf16  1  0.460533  0.915852  0.750000  1
  Hf  Hf17  1  0.085140  0.542570  0.750000  1
  Ta  Ta18  1  0.230876  0.115438  0.250000  1
  Ta  Ta19  1  0.110139  0.883331  0.750000  1
  Ta  Ta20  1  0.110139  0.226808  0.750000  1
  Ta  Ta21  1  0.992697  0.996349  0.494655  1
  Ta  Ta22  1  0.992697  0.996349  0.005345  1
  Re  Re23  1  0.769983  0.884992  0.750000  1
  Tc  Tc24  1  0.883829  0.113397  0.250000  1
  Tc  Tc25  1  0.883829  0.770431  0.250000  1
  Ni  Ni26  1  0.335680  0.667841  0.250000  1
  Ni  Ni27  1  0.668199  0.334099  0.750000  1
