# generated using pymatgen
data_Nd4Er2Si3Ge
_symmetry_space_group_name_H-M   'P 1'
_cell_length_a   7.60717391
_cell_length_b   7.60717436
_cell_length_c   4.43174500
_cell_angle_alpha   90.00000000
_cell_angle_beta   90.00000000
_cell_angle_gamma   90.38170565
_symmetry_Int_Tables_number   1
_chemical_formula_structural   Nd4Er2Si3Ge
_chemical_formula_sum   'Nd4 Er2 Si3 Ge1'
_cell_volume   256.45539599
_cell_formula_units_Z   1
loop_
 _symmetry_equiv_pos_site_id
 _symmetry_equiv_pos_as_xyz
  1  'x, y, z'
loop_
 _atom_site_type_symbol
 _atom_site_label
 _atom_site_symmetry_multiplicity
 _atom_site_fract_x
 _atom_site_fract_y
 _atom_site_fract_z
 _atom_site_occupancy
  Nd  Nd0  1  0.680005  0.177504  0.500000  1
  Nd  Nd1  1  0.322496  0.819995  0.500000  1
  Nd  Nd2  1  0.175907  0.324093  0.500000  1
  Nd  Nd3  1  0.822793  0.677207  0.500000  1
  Er  Er4  1  0.500806  0.502462  0.000000  1
  Er  Er5  1  0.997538  0.999194  0.000000  1
  Si  Si6  1  0.114207  0.613956  0.000000  1
  Si  Si7  1  0.886044  0.385793  0.000000  1
  Si  Si8  1  0.617198  0.882802  0.000000  1
  Ge  Ge9  1  0.383007  0.116993  0.000000  1
