# generated using pymatgen
data_Hf2ZrMo2P3Os
_symmetry_space_group_name_H-M   'P 1'
_cell_length_a   6.76943086
_cell_length_b   6.85912559
_cell_length_c   3.50824400
_cell_angle_alpha   90.00000000
_cell_angle_beta   90.00000000
_cell_angle_gamma   119.74270059
_symmetry_Int_Tables_number   1
_chemical_formula_structural   Hf2ZrMo2P3Os
_chemical_formula_sum   'Hf2 Zr1 Mo2 P3 Os1'
_cell_volume   141.43650295
_cell_formula_units_Z   1
loop_
 _symmetry_equiv_pos_site_id
 _symmetry_equiv_pos_as_xyz
  1  'x, y, z'
loop_
 _atom_site_type_symbol
 _atom_site_label
 _atom_site_symmetry_multiplicity
 _atom_site_fract_x
 _atom_site_fract_y
 _atom_site_fract_z
 _atom_site_occupancy
  Hf  Hf0  1  0.404819  0.407419  0.500000  1
  Hf  Hf1  1  0.593586  0.999772  0.500000  1
  Zr  Zr2  1  0.997720  0.591527  0.500000  1
  Mo  Mo3  1  0.750239  0.750910  0.000000  1
  Mo  Mo4  1  0.000750  0.248790  0.000000  1
  P  P5  1  0.661824  0.330268  0.000000  1
  P  P6  1  0.334393  0.668418  0.000000  1
  P  P7  1  0.006268  0.000059  0.500000  1
  Os  Os8  1  0.250400  0.002837  0.000000  1
