# generated using pymatgen
data_Li3HoAs6Rh7
_symmetry_space_group_name_H-M   'P 1'
_cell_length_a   7.07978044
_cell_length_b   7.07978096
_cell_length_c   6.93259400
_cell_angle_alpha   109.05061632
_cell_angle_beta   109.05061778
_cell_angle_gamma   109.88853126
_symmetry_Int_Tables_number   1
_chemical_formula_structural   Li3HoAs6Rh7
_chemical_formula_sum   'Li3 Ho1 As6 Rh7'
_cell_volume   268.86949664
_cell_formula_units_Z   1
loop_
 _symmetry_equiv_pos_site_id
 _symmetry_equiv_pos_as_xyz
  1  'x, y, z'
loop_
 _atom_site_type_symbol
 _atom_site_label
 _atom_site_symmetry_multiplicity
 _atom_site_fract_x
 _atom_site_fract_y
 _atom_site_fract_z
 _atom_site_occupancy
  Li  Li0  1  0.500000  0.500000  0.500000  1
  Li  Li1  1  0.000000  0.500000  0.000000  1
  Li  Li2  1  0.500000  0.000000  0.000000  1
  Ho  Ho3  1  0.000000  0.000000  0.500000  1
  As  As4  1  0.679169  0.000000  0.693862  1
  As  As5  1  0.679169  0.679169  0.985307  1
  As  As6  1  0.320831  0.320831  0.014693  1
  As  As7  1  0.000000  0.679169  0.693862  1
  As  As8  1  0.000000  0.320831  0.306138  1
  As  As9  1  0.320831  0.000000  0.306138  1
  Rh  Rh10  1  0.496520  0.748260  0.248260  1
  Rh  Rh11  1  0.748260  0.251740  0.500000  1
  Rh  Rh12  1  0.251740  0.748260  0.500000  1
  Rh  Rh13  1  0.251740  0.503480  0.751740  1
  Rh  Rh14  1  0.000000  0.000000  0.000000  1
  Rh  Rh15  1  0.503480  0.251740  0.751740  1
  Rh  Rh16  1  0.748260  0.496520  0.248260  1
