# generated using pymatgen
data_Tb3Er5(TcB6)4
_symmetry_space_group_name_H-M   'P 1'
_cell_length_a   3.67594300
_cell_length_b   9.14249800
_cell_length_c   11.53215900
_cell_angle_alpha   89.99692937
_cell_angle_beta   90.00015246
_cell_angle_gamma   90.00009690
_symmetry_Int_Tables_number   1
_chemical_formula_structural   Tb3Er5(TcB6)4
_chemical_formula_sum   'Tb3 Er5 Tc4 B24'
_cell_volume   387.56474448
_cell_formula_units_Z   1
loop_
 _symmetry_equiv_pos_site_id
 _symmetry_equiv_pos_as_xyz
  1  'x, y, z'
loop_
 _atom_site_type_symbol
 _atom_site_label
 _atom_site_symmetry_multiplicity
 _atom_site_fract_x
 _atom_site_fract_y
 _atom_site_fract_z
 _atom_site_occupancy
  Tb  Tb0  1  0.999996  0.323601  0.414077  1
  Tb  Tb1  1  0.000003  0.676379  0.585983  1
  Tb  Tb2  1  0.000002  0.823681  0.085841  1
  Er  Er3  1  0.000001  0.176164  0.914115  1
  Er  Er4  1  0.000000  0.942964  0.369250  1
  Er  Er5  1  0.000002  0.057189  0.630851  1
  Er  Er6  1  0.000003  0.442744  0.130427  1
  Er  Er7  1  0.999998  0.556913  0.869434  1
  Tc  Tc8  1  0.999996  0.639208  0.320108  1
  Tc  Tc9  1  0.000000  0.360508  0.680278  1
  Tc  Tc10  1  0.999998  0.139159  0.179389  1
  Tc  Tc11  1  0.000000  0.861312  0.820349  1
  B  B12  1  0.499999  0.553653  0.432570  1
  B  B13  1  0.499997  0.446225  0.567554  1
  B  B14  1  0.499996  0.053900  0.066840  1
  B  B15  1  0.499997  0.947013  0.932647  1
  B  B16  1  0.500005  0.749708  0.418314  1
  B  B17  1  0.500000  0.250306  0.581874  1
  B  B18  1  0.500003  0.249563  0.080856  1
  B  B19  1  0.500003  0.750501  0.918268  1
  B  B20  1  0.499997  0.792308  0.265446  1
  B  B21  1  0.500003  0.207405  0.735143  1
  B  B22  1  0.500003  0.292243  0.234280  1
  B  B23  1  0.499998  0.707780  0.765540  1
  B  B24  1  0.499998  0.630442  0.185418  1
  B  B25  1  0.499999  0.368967  0.815033  1
  B  B26  1  0.499997  0.130563  0.314400  1
  B  B27  1  0.500002  0.869682  0.685622  1
  B  B28  1  0.500001  0.982511  0.211944  1
  B  B29  1  0.499999  0.018404  0.788291  1
  B  B30  1  0.499998  0.482304  0.287784  1
  B  B31  1  0.500000  0.517477  0.712272  1
  B  B32  1  0.500003  0.599162  0.027637  1
  B  B33  1  0.500002  0.399956  0.972092  1
  B  B34  1  0.499998  0.099111  0.472397  1
  B  B35  1  0.500004  0.900996  0.527677  1
