# generated using pymatgen
data_Tm5Si3O
_symmetry_space_group_name_H-M   'P 1'
_cell_length_a   8.27335400
_cell_length_b   8.27335249
_cell_length_c   6.08663800
_cell_angle_alpha   90.00000000
_cell_angle_beta   90.00000000
_cell_angle_gamma   120.00000602
_symmetry_Int_Tables_number   1
_chemical_formula_structural   Tm5Si3O
_chemical_formula_sum   'Tm10 Si6 O2'
_cell_volume   360.80389228
_cell_formula_units_Z   2
loop_
 _symmetry_equiv_pos_site_id
 _symmetry_equiv_pos_as_xyz
  1  'x, y, z'
loop_
 _atom_site_type_symbol
 _atom_site_label
 _atom_site_symmetry_multiplicity
 _atom_site_fract_x
 _atom_site_fract_y
 _atom_site_fract_z
 _atom_site_occupancy
  Tm  Tm0  1  0.231713  0.000000  0.250000  1
  Tm  Tm1  1  0.768287  0.000000  0.750000  1
  Tm  Tm2  1  0.000000  0.231713  0.250000  1
  Tm  Tm3  1  0.000000  0.768287  0.750000  1
  Tm  Tm4  1  0.768287  0.768287  0.250000  1
  Tm  Tm5  1  0.231713  0.231713  0.750000  1
  Tm  Tm6  1  0.333333  0.666667  0.000000  1
  Tm  Tm7  1  0.666667  0.333333  0.000000  1
  Tm  Tm8  1  0.666667  0.333333  0.500000  1
  Tm  Tm9  1  0.333333  0.666667  0.500000  1
  Si  Si10  1  0.602612  0.000000  0.250000  1
  Si  Si11  1  0.397388  0.000000  0.750000  1
  Si  Si12  1  0.000000  0.602612  0.250000  1
  Si  Si13  1  0.000000  0.397388  0.750000  1
  Si  Si14  1  0.397388  0.397388  0.250000  1
  Si  Si15  1  0.602612  0.602612  0.750000  1
  O  O16  1  0.000000  0.000000  0.000000  1
  O  O17  1  0.000000  0.000000  0.500000  1
