# generated using pymatgen
data_Cs4PrNpBr10
_symmetry_space_group_name_H-M   'P 1'
_cell_length_a   9.14988778
_cell_length_b   9.60290500
_cell_length_c   14.76506069
_cell_angle_alpha   90.00000000
_cell_angle_beta   90.21211684
_cell_angle_gamma   90.00000000
_symmetry_Int_Tables_number   1
_chemical_formula_structural   Cs4PrNpBr10
_chemical_formula_sum   'Cs8 Pr2 Np2 Br20'
_cell_volume   1297.33059528
_cell_formula_units_Z   2
loop_
 _symmetry_equiv_pos_site_id
 _symmetry_equiv_pos_as_xyz
  1  'x, y, z'
loop_
 _atom_site_type_symbol
 _atom_site_label
 _atom_site_symmetry_multiplicity
 _atom_site_fract_x
 _atom_site_fract_y
 _atom_site_fract_z
 _atom_site_occupancy
  Cs  Cs0  1  0.944844  0.003710  0.827044  1
  Cs  Cs1  1  0.055156  0.996290  0.172956  1
  Cs  Cs2  1  0.445197  0.995423  0.669867  1
  Cs  Cs3  1  0.055156  0.503710  0.172956  1
  Cs  Cs4  1  0.554803  0.004577  0.330133  1
  Cs  Cs5  1  0.944844  0.496290  0.827044  1
  Cs  Cs6  1  0.554803  0.495423  0.330133  1
  Cs  Cs7  1  0.445197  0.504577  0.669867  1
  Pr  Pr8  1  0.430091  0.250000  0.996567  1
  Pr  Pr9  1  0.569909  0.750000  0.003433  1
  Np  Np10  1  0.937789  0.750000  0.500735  1
  Np  Np11  1  0.062211  0.250000  0.499265  1
  Br  Br12  1  0.114729  0.750000  0.667175  1
  Br  Br13  1  0.885271  0.250000  0.332825  1
  Br  Br14  1  0.613362  0.250000  0.830907  1
  Br  Br15  1  0.386638  0.750000  0.169093  1
  Br  Br16  1  0.844732  0.039565  0.567766  1
  Br  Br17  1  0.155268  0.960435  0.432234  1
  Br  Br18  1  0.343546  0.958306  0.929663  1
  Br  Br19  1  0.155268  0.539565  0.432234  1
  Br  Br20  1  0.656454  0.041694  0.070337  1
  Br  Br21  1  0.844732  0.460435  0.567766  1
  Br  Br22  1  0.656454  0.458306  0.070337  1
  Br  Br23  1  0.343546  0.541694  0.929663  1
  Br  Br24  1  0.611803  0.750000  0.512731  1
  Br  Br25  1  0.388197  0.250000  0.487269  1
  Br  Br26  1  0.104487  0.250000  0.986513  1
  Br  Br27  1  0.895513  0.750000  0.013487  1
  Br  Br28  1  0.649214  0.750000  0.809443  1
  Br  Br29  1  0.350786  0.250000  0.190557  1
  Br  Br30  1  0.149131  0.250000  0.689866  1
  Br  Br31  1  0.850869  0.750000  0.310134  1
