# generated using pymatgen
data_Ho5Ta3Co16(As3P)3
_symmetry_space_group_name_H-M   'P 1'
_cell_length_a   12.45526200
_cell_length_b   12.45526224
_cell_length_c   3.76640100
_cell_angle_alpha   90.00000000
_cell_angle_beta   90.00000000
_cell_angle_gamma   120.00000468
_symmetry_Int_Tables_number   1
_chemical_formula_structural   Ho5Ta3Co16(As3P)3
_chemical_formula_sum   'Ho5 Ta3 Co16 As9 P3'
_cell_volume   506.01444066
_cell_formula_units_Z   1
loop_
 _symmetry_equiv_pos_site_id
 _symmetry_equiv_pos_as_xyz
  1  'x, y, z'
loop_
 _atom_site_type_symbol
 _atom_site_label
 _atom_site_symmetry_multiplicity
 _atom_site_fract_x
 _atom_site_fract_y
 _atom_site_fract_z
 _atom_site_occupancy
  Ho  Ho0  1  0.666667  0.333333  0.000000  1
  Ho  Ho1  1  0.333333  0.666667  0.000000  1
  Ho  Ho2  1  0.818028  0.817260  0.500000  1
  Ho  Ho3  1  0.182740  0.000768  0.500000  1
  Ho  Ho4  1  0.999232  0.181972  0.500000  1
  Ta  Ta5  1  0.436887  0.444559  0.000000  1
  Ta  Ta6  1  0.555441  0.992328  0.000000  1
  Ta  Ta7  1  0.007672  0.563113  0.000000  1
  Co  Co8  1  0.878679  0.355561  0.500000  1
  Co  Co9  1  0.644439  0.523117  0.500000  1
  Co  Co10  1  0.476883  0.121321  0.500000  1
  Co  Co11  1  0.356960  0.866404  0.500000  1
  Co  Co12  1  0.509444  0.643040  0.500000  1
  Co  Co13  1  0.133596  0.490556  0.500000  1
  Co  Co14  1  0.798698  0.173917  0.000000  1
  Co  Co15  1  0.826083  0.624780  0.000000  1
  Co  Co16  1  0.375220  0.201302  0.000000  1
  Co  Co17  1  0.179093  0.795470  0.000000  1
  Co  Co18  1  0.616376  0.820907  0.000000  1
  Co  Co19  1  0.204530  0.383624  0.000000  1
  Co  Co20  1  0.284565  0.291869  0.500000  1
  Co  Co21  1  0.708131  0.992695  0.500000  1
  Co  Co22  1  0.007305  0.715435  0.500000  1
  Co  Co23  1  0.000000  0.000000  0.000000  1
  As  As24  1  0.684464  0.168371  0.500000  1
  As  As25  1  0.831629  0.516093  0.500000  1
  As  As26  1  0.483907  0.315536  0.500000  1
  As  As27  1  0.176514  0.178919  0.000000  1
  As  As28  1  0.821081  0.997595  0.000000  1
  As  As29  1  0.002405  0.823486  0.000000  1
  As  As30  1  0.646016  0.647064  0.000000  1
  As  As31  1  0.352936  0.998951  0.000000  1
  As  As32  1  0.001049  0.353984  0.000000  1
  P  P33  1  0.172756  0.688840  0.500000  1
  P  P34  1  0.516082  0.827244  0.500000  1
  P  P35  1  0.311160  0.483918  0.500000  1
