# generated using pymatgen
data_NdTh3Pd11Pt
_symmetry_space_group_name_H-M   'P 1'
_cell_length_a   5.93588374
_cell_length_b   5.93588212
_cell_length_c   9.78325900
_cell_angle_alpha   90.13192974
_cell_angle_beta   89.86807029
_cell_angle_gamma   119.99067759
_symmetry_Int_Tables_number   1
_chemical_formula_structural   NdTh3Pd11Pt
_chemical_formula_sum   'Nd1 Th3 Pd11 Pt1'
_cell_volume   298.55482250
_cell_formula_units_Z   1
loop_
 _symmetry_equiv_pos_site_id
 _symmetry_equiv_pos_as_xyz
  1  'x, y, z'
loop_
 _atom_site_type_symbol
 _atom_site_label
 _atom_site_symmetry_multiplicity
 _atom_site_fract_x
 _atom_site_fract_y
 _atom_site_fract_z
 _atom_site_occupancy
  Nd  Nd0  1  0.000000  0.000000  0.500000  1
  Th  Th1  1  0.000000  0.000000  0.000000  1
  Th  Th2  1  0.333645  0.666355  0.253441  1
  Th  Th3  1  0.666355  0.333645  0.746559  1
  Pd  Pd4  1  0.500000  0.500000  0.500000  1
  Pd  Pd5  1  0.500000  0.000000  0.500000  1
  Pd  Pd6  1  0.000000  0.500000  0.500000  1
  Pd  Pd7  1  0.500000  0.000000  0.000000  1
  Pd  Pd8  1  0.000000  0.500000  0.000000  1
  Pd  Pd9  1  0.825034  0.649003  0.248690  1
  Pd  Pd10  1  0.350997  0.174966  0.248690  1
  Pd  Pd11  1  0.825129  0.174871  0.249280  1
  Pd  Pd12  1  0.174966  0.350997  0.751310  1
  Pd  Pd13  1  0.649003  0.825034  0.751310  1
  Pd  Pd14  1  0.174871  0.825129  0.750720  1
  Pt  Pt15  1  0.500000  0.500000  0.000000  1
