# generated using pymatgen
data_Tm7Th3(Al2Ru3)2
_symmetry_space_group_name_H-M   'P 1'
_cell_length_a   8.37043947
_cell_length_b   8.37043899
_cell_length_c   8.37043949
_cell_angle_alpha   109.64676437
_cell_angle_beta   109.64676279
_cell_angle_gamma   109.64675887
_symmetry_Int_Tables_number   1
_chemical_formula_structural   Tm7Th3(Al2Ru3)2
_chemical_formula_sum   'Tm7 Th3 Al4 Ru6'
_cell_volume   448.50556490
_cell_formula_units_Z   1
loop_
 _symmetry_equiv_pos_site_id
 _symmetry_equiv_pos_as_xyz
  1  'x, y, z'
loop_
 _atom_site_type_symbol
 _atom_site_label
 _atom_site_symmetry_multiplicity
 _atom_site_fract_x
 _atom_site_fract_y
 _atom_site_fract_z
 _atom_site_occupancy
  Tm  Tm0  1  0.779280  0.779280  0.779280  1
  Tm  Tm1  1  0.315471  0.568408  0.747942  1
  Tm  Tm2  1  0.747942  0.315471  0.568408  1
  Tm  Tm3  1  0.568408  0.747942  0.315471  1
  Tm  Tm4  1  0.715978  0.503171  0.995470  1
  Tm  Tm5  1  0.995470  0.715978  0.503171  1
  Tm  Tm6  1  0.503171  0.995470  0.715978  1
  Th  Th7  1  0.254191  0.193891  0.941446  1
  Th  Th8  1  0.941446  0.254191  0.193891  1
  Th  Th9  1  0.193891  0.941446  0.254191  1
  Al  Al10  1  0.416515  0.416515  0.416515  1
  Al  Al11  1  0.093721  0.500742  0.994897  1
  Al  Al12  1  0.994897  0.093721  0.500742  1
  Al  Al13  1  0.500742  0.994897  0.093721  1
  Ru  Ru14  1  0.883569  0.120499  0.753779  1
  Ru  Ru15  1  0.753779  0.883569  0.120499  1
  Ru  Ru16  1  0.120499  0.753779  0.883569  1
  Ru  Ru17  1  0.237949  0.615351  0.367731  1
  Ru  Ru18  1  0.367731  0.237949  0.615351  1
  Ru  Ru19  1  0.615351  0.367731  0.237949  1
