# generated using pymatgen
data_ErHf(Si3Ni)2
_symmetry_space_group_name_H-M   'P 1'
_cell_length_a   10.46103336
_cell_length_b   10.46103341
_cell_length_c   3.83679700
_cell_angle_alpha   90.00000000
_cell_angle_beta   90.00000000
_cell_angle_gamma   158.34861125
_symmetry_Int_Tables_number   1
_chemical_formula_structural   ErHf(Si3Ni)2
_chemical_formula_sum   'Er1 Hf1 Si6 Ni2'
_cell_volume   154.91565606
_cell_formula_units_Z   1
loop_
 _symmetry_equiv_pos_site_id
 _symmetry_equiv_pos_as_xyz
  1  'x, y, z'
loop_
 _atom_site_type_symbol
 _atom_site_label
 _atom_site_symmetry_multiplicity
 _atom_site_fract_x
 _atom_site_fract_y
 _atom_site_fract_z
 _atom_site_occupancy
  Er  Er0  1  0.328713  0.671287  0.500000  1
  Hf  Hf1  1  0.669254  0.330746  0.500000  1
  Si  Si2  1  0.558479  0.441521  0.000000  1
  Si  Si3  1  0.443902  0.556098  0.000000  1
  Si  Si4  1  0.778088  0.221912  0.000000  1
  Si  Si5  1  0.218688  0.781312  0.000000  1
  Si  Si6  1  0.057942  0.942058  0.500000  1
  Si  Si7  1  0.944291  0.055709  0.500000  1
  Ni  Ni8  1  0.887746  0.112254  0.000000  1
  Ni  Ni9  1  0.112896  0.887104  0.000000  1
