# generated using pymatgen
data_LiNd8ZnCo2
_symmetry_space_group_name_H-M   'P 1'
_cell_length_a   9.76097201
_cell_length_b   9.76097291
_cell_length_c   9.75003600
_cell_angle_alpha   60.03705806
_cell_angle_beta   60.03705500
_cell_angle_gamma   60.60261534
_symmetry_Int_Tables_number   1
_chemical_formula_structural   LiNd8ZnCo2
_chemical_formula_sum   'Li2 Nd16 Zn2 Co4'
_cell_volume   660.17882502
_cell_formula_units_Z   2
loop_
 _symmetry_equiv_pos_site_id
 _symmetry_equiv_pos_as_xyz
  1  'x, y, z'
loop_
 _atom_site_type_symbol
 _atom_site_label
 _atom_site_symmetry_multiplicity
 _atom_site_fract_x
 _atom_site_fract_y
 _atom_site_fract_z
 _atom_site_occupancy
  Li  Li0  1  0.817301  0.817301  0.538819  1
  Li  Li1  1  0.817301  0.817301  0.826577  1
  Nd  Nd2  1  0.443723  0.443723  0.056277  1
  Nd  Nd3  1  0.597046  0.597046  0.599465  1
  Nd  Nd4  1  0.191918  0.812590  0.811942  1
  Nd  Nd5  1  0.064851  0.064851  0.435149  1
  Nd  Nd6  1  0.438852  0.062590  0.059361  1
  Nd  Nd7  1  0.812590  0.191918  0.811942  1
  Nd  Nd8  1  0.438852  0.062590  0.439197  1
  Nd  Nd9  1  0.595360  0.213182  0.595730  1
  Nd  Nd10  1  0.811022  0.811022  0.188978  1
  Nd  Nd11  1  0.213182  0.595360  0.595730  1
  Nd  Nd12  1  0.812590  0.191918  0.183550  1
  Nd  Nd13  1  0.062590  0.438852  0.439197  1
  Nd  Nd14  1  0.191918  0.812590  0.183550  1
  Nd  Nd15  1  0.597046  0.597046  0.206442  1
  Nd  Nd16  1  0.189210  0.189210  0.810790  1
  Nd  Nd17  1  0.062590  0.438852  0.059361  1
  Zn  Zn18  1  0.498635  0.834055  0.833654  1
  Zn  Zn19  1  0.834055  0.498635  0.833654  1
  Co  Co20  1  0.392466  0.392466  0.389318  1
  Co  Co21  1  0.828701  0.395738  0.387781  1
  Co  Co22  1  0.395738  0.828701  0.387781  1
  Co  Co23  1  0.392466  0.392466  0.825753  1
