# generated using pymatgen
data_TbY7Re3TcC8
_symmetry_space_group_name_H-M   'P 1'
_cell_length_a   5.12585800
_cell_length_b   6.59649619
_cell_length_c   9.90409758
_cell_angle_alpha   89.99394722
_cell_angle_beta   90.00000000
_cell_angle_gamma   90.00000000
_symmetry_Int_Tables_number   1
_chemical_formula_structural   TbY7Re3TcC8
_chemical_formula_sum   'Tb1 Y7 Re3 Tc1 C8'
_cell_volume   334.88430570
_cell_formula_units_Z   1
loop_
 _symmetry_equiv_pos_site_id
 _symmetry_equiv_pos_as_xyz
  1  'x, y, z'
loop_
 _atom_site_type_symbol
 _atom_site_label
 _atom_site_symmetry_multiplicity
 _atom_site_fract_x
 _atom_site_fract_y
 _atom_site_fract_z
 _atom_site_occupancy
  Tb  Tb0  1  0.750000  0.532054  0.784795  1
  Y  Y1  1  0.250000  0.966526  0.283899  1
  Y  Y2  1  0.750000  0.679191  0.443771  1
  Y  Y3  1  0.250000  0.822216  0.943726  1
  Y  Y4  1  0.750000  0.179032  0.056892  1
  Y  Y5  1  0.250000  0.320191  0.556916  1
  Y  Y6  1  0.250000  0.466400  0.216138  1
  Y  Y7  1  0.750000  0.032672  0.716112  1
  Re  Re8  1  0.250000  0.779347  0.634863  1
  Re  Re9  1  0.750000  0.221236  0.365123  1
  Re  Re10  1  0.750000  0.721353  0.135174  1
  Tc  Tc11  1  0.250000  0.279021  0.864918  1
  C  C12  1  0.250000  0.678210  0.451897  1
  C  C13  1  0.250000  0.547422  0.758046  1
  C  C14  1  0.750000  0.454397  0.240858  1
  C  C15  1  0.750000  0.821640  0.952312  1
  C  C16  1  0.250000  0.045494  0.740082  1
  C  C17  1  0.250000  0.178281  0.046872  1
  C  C18  1  0.750000  0.321226  0.548007  1
  C  C19  1  0.750000  0.954090  0.259600  1
