# generated using pymatgen
data_La2Pr6CdHgPt2
_symmetry_space_group_name_H-M   'P 1'
_cell_length_a   10.11212906
_cell_length_b   10.11212975
_cell_length_c   10.13895000
_cell_angle_alpha   59.91221771
_cell_angle_beta   59.91221545
_cell_angle_gamma   60.07416494
_symmetry_Int_Tables_number   1
_chemical_formula_structural   La2Pr6CdHgPt2
_chemical_formula_sum   'La4 Pr12 Cd2 Hg2 Pt4'
_cell_volume   732.53416538
_cell_formula_units_Z   2
loop_
 _symmetry_equiv_pos_site_id
 _symmetry_equiv_pos_as_xyz
  1  'x, y, z'
loop_
 _atom_site_type_symbol
 _atom_site_label
 _atom_site_symmetry_multiplicity
 _atom_site_fract_x
 _atom_site_fract_y
 _atom_site_fract_z
 _atom_site_occupancy
  La  La0  1  0.350731  0.350731  0.349273  1
  La  La1  1  0.350731  0.350731  0.949264  1
  La  La2  1  0.352361  0.945229  0.351204  1
  La  La3  1  0.945229  0.352361  0.351204  1
  Pr  Pr4  1  0.809512  0.190141  0.191915  1
  Pr  Pr5  1  0.190141  0.809512  0.808432  1
  Pr  Pr6  1  0.190141  0.809512  0.191915  1
  Pr  Pr7  1  0.809512  0.190141  0.808432  1
  Pr  Pr8  1  0.189992  0.189992  0.810008  1
  Pr  Pr9  1  0.807378  0.807378  0.192622  1
  Pr  Pr10  1  0.936614  0.563034  0.565839  1
  Pr  Pr11  1  0.563034  0.936614  0.934513  1
  Pr  Pr12  1  0.563034  0.936614  0.565839  1
  Pr  Pr13  1  0.936614  0.563034  0.934513  1
  Pr  Pr14  1  0.563511  0.563511  0.936489  1
  Pr  Pr15  1  0.934347  0.934347  0.565653  1
  Cd  Cd16  1  0.579376  0.258245  0.581189  1
  Cd  Cd17  1  0.258245  0.579376  0.581189  1
  Hg  Hg18  1  0.583970  0.583970  0.587215  1
  Hg  Hg19  1  0.583970  0.583970  0.244844  1
  Pt  Pt20  1  0.143842  0.143842  0.142912  1
  Pt  Pt21  1  0.143842  0.143842  0.569402  1
  Pt  Pt22  1  0.142636  0.571234  0.143064  1
  Pt  Pt23  1  0.571234  0.142636  0.143064  1
