# generated using pymatgen
data_AcLa(Al3Ni2)2
_symmetry_space_group_name_H-M   'P 1'
_cell_length_a   6.48944410
_cell_length_b   6.48944426
_cell_length_c   5.16565700
_cell_angle_alpha   90.00000000
_cell_angle_beta   90.00000000
_cell_angle_gamma   105.35360455
_symmetry_Int_Tables_number   1
_chemical_formula_structural   AcLa(Al3Ni2)2
_chemical_formula_sum   'Ac1 La1 Al6 Ni4'
_cell_volume   209.77672150
_cell_formula_units_Z   1
loop_
 _symmetry_equiv_pos_site_id
 _symmetry_equiv_pos_as_xyz
  1  'x, y, z'
loop_
 _atom_site_type_symbol
 _atom_site_label
 _atom_site_symmetry_multiplicity
 _atom_site_fract_x
 _atom_site_fract_y
 _atom_site_fract_z
 _atom_site_occupancy
  Ac  Ac0  1  0.646025  0.646025  0.250000  1
  La  La1  1  0.344646  0.344646  0.750000  1
  Al  Al2  1  0.062286  0.062286  0.250000  1
  Al  Al3  1  0.939975  0.939975  0.750000  1
  Al  Al4  1  0.081359  0.474661  0.250000  1
  Al  Al5  1  0.925242  0.524123  0.750000  1
  Al  Al6  1  0.474661  0.081359  0.250000  1
  Al  Al7  1  0.524123  0.925242  0.750000  1
  Ni  Ni8  1  0.800467  0.200375  0.999844  1
  Ni  Ni9  1  0.200375  0.800467  0.999844  1
  Ni  Ni10  1  0.200375  0.800467  0.500156  1
  Ni  Ni11  1  0.800467  0.200375  0.500156  1
