# generated using pymatgen
data_Er5Sb2Os
_symmetry_space_group_name_H-M   'P 1'
_cell_length_a   7.78985800
_cell_length_b   8.90436300
_cell_length_c   12.18491300
_cell_angle_alpha   90.00000000
_cell_angle_beta   90.00000000
_cell_angle_gamma   90.00000000
_symmetry_Int_Tables_number   1
_chemical_formula_structural   Er5Sb2Os
_chemical_formula_sum   'Er20 Sb8 Os4'
_cell_volume   845.19093438
_cell_formula_units_Z   4
loop_
 _symmetry_equiv_pos_site_id
 _symmetry_equiv_pos_as_xyz
  1  'x, y, z'
loop_
 _atom_site_type_symbol
 _atom_site_label
 _atom_site_symmetry_multiplicity
 _atom_site_fract_x
 _atom_site_fract_y
 _atom_site_fract_z
 _atom_site_occupancy
  Er  Er0  1  0.162729  0.750000  0.212771  1
  Er  Er1  1  0.662729  0.250000  0.287229  1
  Er  Er2  1  0.837271  0.250000  0.787229  1
  Er  Er3  1  0.337271  0.750000  0.712771  1
  Er  Er4  1  0.447345  0.750000  0.996619  1
  Er  Er5  1  0.947345  0.250000  0.503381  1
  Er  Er6  1  0.552655  0.250000  0.003381  1
  Er  Er7  1  0.052655  0.750000  0.496619  1
  Er  Er8  1  0.628802  0.750000  0.304192  1
  Er  Er9  1  0.128802  0.250000  0.195808  1
  Er  Er10  1  0.371198  0.250000  0.695808  1
  Er  Er11  1  0.871198  0.750000  0.804192  1
  Er  Er12  1  0.823510  0.958620  0.066060  1
  Er  Er13  1  0.323510  0.041380  0.433940  1
  Er  Er14  1  0.176490  0.458620  0.933940  1
  Er  Er15  1  0.676490  0.541380  0.566060  1
  Er  Er16  1  0.176490  0.041380  0.933940  1
  Er  Er17  1  0.676490  0.958620  0.566060  1
  Er  Er18  1  0.823510  0.541380  0.066060  1
  Er  Er19  1  0.323510  0.458620  0.433940  1
  Sb  Sb20  1  0.932406  0.992951  0.329024  1
  Sb  Sb21  1  0.432406  0.007049  0.170976  1
  Sb  Sb22  1  0.067594  0.492951  0.670976  1
  Sb  Sb23  1  0.567594  0.507049  0.829024  1
  Sb  Sb24  1  0.067594  0.007049  0.670976  1
  Sb  Sb25  1  0.567594  0.992951  0.829024  1
  Sb  Sb26  1  0.932406  0.507049  0.329024  1
  Sb  Sb27  1  0.432406  0.492951  0.170976  1
  Os  Os28  1  0.424118  0.750000  0.489056  1
  Os  Os29  1  0.924118  0.250000  0.010944  1
  Os  Os30  1  0.575882  0.250000  0.510944  1
  Os  Os31  1  0.075882  0.750000  0.989056  1
