# generated using pymatgen
data_Sr5LaTaCo4O15
_symmetry_space_group_name_H-M   'P 1'
_cell_length_a   6.92584144
_cell_length_b   6.98400437
_cell_length_c   6.98400275
_cell_angle_alpha   87.18989874
_cell_angle_beta   87.05656040
_cell_angle_gamma   87.05655838
_symmetry_Int_Tables_number   1
_chemical_formula_structural   Sr5LaTaCo4O15
_chemical_formula_sum   'Sr5 La1 Ta1 Co4 O15'
_cell_volume   336.56155165
_cell_formula_units_Z   1
loop_
 _symmetry_equiv_pos_site_id
 _symmetry_equiv_pos_as_xyz
  1  'x, y, z'
loop_
 _atom_site_type_symbol
 _atom_site_label
 _atom_site_symmetry_multiplicity
 _atom_site_fract_x
 _atom_site_fract_y
 _atom_site_fract_z
 _atom_site_occupancy
  Sr  Sr0  1  0.130058  0.499901  0.865560  1
  Sr  Sr1  1  0.869942  0.134440  0.500099  1
  Sr  Sr2  1  0.000000  0.678883  0.321117  1
  Sr  Sr3  1  0.313475  0.001163  0.680653  1
  Sr  Sr4  1  0.686525  0.319347  0.998837  1
  La  La5  1  0.500000  0.867198  0.132802  1
  Ta  Ta6  1  0.500000  0.499006  0.500994  1
  Co  Co7  1  0.704945  0.708624  0.706892  1
  Co  Co8  1  0.295055  0.293108  0.291376  1
  Co  Co9  1  0.902629  0.902414  0.903465  1
  Co  Co10  1  0.097371  0.096535  0.097586  1
  O  O11  1  0.379036  0.559749  0.244798  1
  O  O12  1  0.246505  0.376969  0.553644  1
  O  O13  1  0.558641  0.248432  0.375484  1
  O  O14  1  0.620964  0.755202  0.440251  1
  O  O15  1  0.441359  0.624516  0.751568  1
  O  O16  1  0.753495  0.446356  0.623031  1
  O  O17  1  0.213733  0.031513  0.342727  1
  O  O18  1  0.350235  0.199725  0.034627  1
  O  O19  1  0.034284  0.344307  0.205383  1
  O  O20  1  0.786267  0.657273  0.968487  1
  O  O21  1  0.965716  0.794617  0.655693  1
  O  O22  1  0.160059  0.844688  0.002419  1
  O  O23  1  0.839941  0.997581  0.155312  1
  O  O24  1  0.000000  0.153081  0.846919  1
  O  O25  1  0.649765  0.965373  0.800275  1
