# generated using pymatgen
data_Tb4Lu4B24MoRu3
_symmetry_space_group_name_H-M   'P 1'
_cell_length_a   3.63125100
_cell_length_b   9.10813179
_cell_length_c   11.51030430
_cell_angle_alpha   89.87087595
_cell_angle_beta   90.00000000
_cell_angle_gamma   90.00000000
_symmetry_Int_Tables_number   1
_chemical_formula_structural   Tb4Lu4B24MoRu3
_chemical_formula_sum   'Tb4 Lu4 B24 Mo1 Ru3'
_cell_volume   380.68983242
_cell_formula_units_Z   1
loop_
 _symmetry_equiv_pos_site_id
 _symmetry_equiv_pos_as_xyz
  1  'x, y, z'
loop_
 _atom_site_type_symbol
 _atom_site_label
 _atom_site_symmetry_multiplicity
 _atom_site_fract_x
 _atom_site_fract_y
 _atom_site_fract_z
 _atom_site_occupancy
  Tb  Tb0  1  0.000000  0.321999  0.413588  1
  Tb  Tb1  1  0.000000  0.677597  0.584748  1
  Tb  Tb2  1  0.000000  0.820979  0.086821  1
  Tb  Tb3  1  0.000000  0.177606  0.914821  1
  Lu  Lu4  1  0.000000  0.945284  0.372320  1
  Lu  Lu5  1  0.000000  0.057323  0.628773  1
  Lu  Lu6  1  0.000000  0.443369  0.127303  1
  Lu  Lu7  1  0.000000  0.556563  0.870879  1
  B  B8  1  0.500000  0.551894  0.434888  1
  B  B9  1  0.500000  0.445321  0.568515  1
  B  B10  1  0.500000  0.054682  0.067851  1
  B  B11  1  0.500000  0.945413  0.932264  1
  B  B12  1  0.500000  0.752560  0.420612  1
  B  B13  1  0.500000  0.250406  0.581847  1
  B  B14  1  0.500000  0.249918  0.081533  1
  B  B15  1  0.500000  0.749861  0.918205  1
  B  B16  1  0.500000  0.795240  0.264528  1
  B  B17  1  0.500000  0.208136  0.734458  1
  B  B18  1  0.500000  0.291317  0.233511  1
  B  B19  1  0.500000  0.708531  0.765634  1
  B  B20  1  0.500000  0.630781  0.182539  1
  B  B21  1  0.500000  0.368982  0.815515  1
  B  B22  1  0.500000  0.130455  0.314733  1
  B  B23  1  0.500000  0.869880  0.684843  1
  B  B24  1  0.500000  0.983791  0.213362  1
  B  B25  1  0.500000  0.016803  0.787085  1
  B  B26  1  0.500000  0.478632  0.285811  1
  B  B27  1  0.500000  0.516223  0.713542  1
  B  B28  1  0.500000  0.602195  0.026590  1
  B  B29  1  0.500000  0.397377  0.971243  1
  B  B30  1  0.500000  0.102898  0.472388  1
  B  B31  1  0.500000  0.899234  0.529012  1
  Mo  Mo32  1  0.000000  0.638543  0.320149  1
  Ru  Ru33  1  0.000000  0.360140  0.681357  1
  Ru  Ru34  1  0.000000  0.138826  0.179221  1
  Ru  Ru35  1  0.000000  0.861240  0.819512  1
