# generated using pymatgen
data_TbErHf2(Al3Ir)6
_symmetry_space_group_name_H-M   'P 1'
_cell_length_a   7.52028263
_cell_length_b   7.50448243
_cell_length_c   9.33117800
_cell_angle_alpha   90.00000000
_cell_angle_beta   90.00000000
_cell_angle_gamma   119.73302788
_symmetry_Int_Tables_number   1
_chemical_formula_structural   TbErHf2(Al3Ir)6
_chemical_formula_sum   'Tb1 Er1 Hf2 Al18 Ir6'
_cell_volume   457.28196378
_cell_formula_units_Z   1
loop_
 _symmetry_equiv_pos_site_id
 _symmetry_equiv_pos_as_xyz
  1  'x, y, z'
loop_
 _atom_site_type_symbol
 _atom_site_label
 _atom_site_symmetry_multiplicity
 _atom_site_fract_x
 _atom_site_fract_y
 _atom_site_fract_z
 _atom_site_occupancy
  Tb  Tb0  1  0.329307  0.005824  0.750000  1
  Er  Er1  1  0.671064  0.994285  0.250000  1
  Hf  Hf2  1  0.995164  0.671497  0.250000  1
  Hf  Hf3  1  0.004648  0.328427  0.750000  1
  Al  Al4  1  0.126145  0.124556  0.250000  1
  Al  Al5  1  0.873069  0.875240  0.750000  1
  Al  Al6  1  0.999558  0.336870  0.075904  1
  Al  Al7  1  0.999881  0.662589  0.924860  1
  Al  Al8  1  0.999881  0.662589  0.575140  1
  Al  Al9  1  0.332656  0.998332  0.420852  1
  Al  Al10  1  0.999558  0.336870  0.424096  1
  Al  Al11  1  0.667877  0.001581  0.577881  1
  Al  Al12  1  0.667877  0.001581  0.922119  1
  Al  Al13  1  0.332656  0.998332  0.079148  1
  Al  Al14  1  0.331239  0.333783  0.556291  1
  Al  Al15  1  0.668705  0.666707  0.442874  1
  Al  Al16  1  0.668705  0.666707  0.057126  1
  Al  Al17  1  0.331239  0.333783  0.943709  1
  Al  Al18  1  0.334760  0.548289  0.250000  1
  Al  Al19  1  0.665915  0.452517  0.750000  1
  Al  Al20  1  0.554255  0.344095  0.250000  1
  Al  Al21  1  0.446001  0.655548  0.750000  1
  Ir  Ir22  1  0.673089  0.327940  0.999793  1
  Ir  Ir23  1  0.327226  0.672176  0.000732  1
  Ir  Ir24  1  0.327226  0.672176  0.499268  1
  Ir  Ir25  1  0.673089  0.327940  0.500207  1
  Ir  Ir26  1  0.999604  0.999883  0.000325  1
  Ir  Ir27  1  0.999604  0.999883  0.499675  1
