# generated using pymatgen
data_Dy3Er3Al24Ru7Rh
_symmetry_space_group_name_H-M   'P 1'
_cell_length_a   8.76499237
_cell_length_b   8.76481877
_cell_length_c   9.58703717
_cell_angle_alpha   89.86425209
_cell_angle_beta   90.13596731
_cell_angle_gamma   119.86329518
_symmetry_Int_Tables_number   1
_chemical_formula_structural   Dy3Er3Al24Ru7Rh
_chemical_formula_sum   'Dy3 Er3 Al24 Ru7 Rh1'
_cell_volume   638.71115676
_cell_formula_units_Z   1
loop_
 _symmetry_equiv_pos_site_id
 _symmetry_equiv_pos_as_xyz
  1  'x, y, z'
loop_
 _atom_site_type_symbol
 _atom_site_label
 _atom_site_symmetry_multiplicity
 _atom_site_fract_x
 _atom_site_fract_y
 _atom_site_fract_z
 _atom_site_occupancy
  Dy  Dy0  1  0.191447  0.386297  0.250925  1
  Dy  Dy1  1  0.808435  0.613664  0.749079  1
  Dy  Dy2  1  0.613623  0.808511  0.250919  1
  Er  Er3  1  0.387035  0.191821  0.748959  1
  Er  Er4  1  0.194103  0.805945  0.250468  1
  Er  Er5  1  0.805828  0.194002  0.749472  1
  Al  Al6  1  0.332481  0.667529  0.019624  1
  Al  Al7  1  0.667277  0.332355  0.980192  1
  Al  Al8  1  0.666428  0.333197  0.519076  1
  Al  Al9  1  0.333347  0.666678  0.481134  1
  Al  Al10  1  0.163590  0.325561  0.577749  1
  Al  Al11  1  0.836515  0.674345  0.422380  1
  Al  Al12  1  0.674307  0.836464  0.577721  1
  Al  Al13  1  0.838768  0.674870  0.077793  1
  Al  Al14  1  0.325710  0.163514  0.422569  1
  Al  Al15  1  0.161351  0.325069  0.922089  1
  Al  Al16  1  0.163406  0.836862  0.577192  1
  Al  Al17  1  0.325180  0.161298  0.077627  1
  Al  Al18  1  0.836720  0.163332  0.422925  1
  Al  Al19  1  0.674844  0.838724  0.922100  1
  Al  Al20  1  0.837106  0.162949  0.077329  1
  Al  Al21  1  0.162990  0.837233  0.922553  1
  Al  Al22  1  0.561153  0.124057  0.249750  1
  Al  Al23  1  0.438806  0.876274  0.750247  1
  Al  Al24  1  0.875932  0.438825  0.249750  1
  Al  Al25  1  0.124107  0.561162  0.750255  1
  Al  Al26  1  0.561697  0.438278  0.250813  1
  Al  Al27  1  0.438246  0.561331  0.749214  1
  Al  Al28  1  0.999894  0.000047  0.250037  1
  Al  Al29  1  0.000432  0.000104  0.749982  1
  Ru  Ru30  1  0.499858  0.000168  0.999834  1
  Ru  Ru31  1  0.999855  0.499916  0.999964  1
  Ru  Ru32  1  0.499889  0.000156  0.500153  1
  Ru  Ru33  1  0.999857  0.499943  0.500033  1
  Ru  Ru34  1  0.499843  0.499680  0.500179  1
  Ru  Ru35  1  0.000011  0.000022  0.000020  1
  Ru  Ru36  1  0.000012  0.000029  0.499997  1
  Rh  Rh37  1  0.499918  0.499790  0.999897  1
