# generated using pymatgen
data_Tl3P6N11
_symmetry_space_group_name_H-M   'P 1'
_cell_length_a   10.49907500
_cell_length_b   10.49907500
_cell_length_c   10.49907500
_cell_angle_alpha   90.00000000
_cell_angle_beta   90.00000000
_cell_angle_gamma   90.00000000
_symmetry_Int_Tables_number   1
_chemical_formula_structural   Tl3P6N11
_chemical_formula_sum   'Tl12 P24 N44'
_cell_volume   1157.31908320
_cell_formula_units_Z   4
loop_
 _symmetry_equiv_pos_site_id
 _symmetry_equiv_pos_as_xyz
  1  'x, y, z'
loop_
 _atom_site_type_symbol
 _atom_site_label
 _atom_site_symmetry_multiplicity
 _atom_site_fract_x
 _atom_site_fract_y
 _atom_site_fract_z
 _atom_site_occupancy
  Tl  Tl0  1  0.987457  0.987457  0.987457  1
  Tl  Tl1  1  0.237457  0.262543  0.737457  1
  Tl  Tl2  1  0.262543  0.737457  0.237457  1
  Tl  Tl3  1  0.737457  0.237457  0.262543  1
  Tl  Tl4  1  0.487457  0.512543  0.012543  1
  Tl  Tl5  1  0.512543  0.012543  0.487457  1
  Tl  Tl6  1  0.012543  0.487457  0.512543  1
  Tl  Tl7  1  0.762543  0.762543  0.762543  1
  Tl  Tl8  1  0.875000  0.125000  0.625000  1
  Tl  Tl9  1  0.125000  0.625000  0.875000  1
  Tl  Tl10  1  0.625000  0.875000  0.125000  1
  Tl  Tl11  1  0.375000  0.375000  0.375000  1
  P  P12  1  0.679791  0.451829  0.539416  1
  P  P13  1  0.179791  0.048171  0.460584  1
  P  P14  1  0.451829  0.539416  0.679791  1
  P  P15  1  0.548171  0.039416  0.820209  1
  P  P16  1  0.539416  0.679791  0.451829  1
  P  P17  1  0.960584  0.320209  0.951829  1
  P  P18  1  0.429791  0.789416  0.798171  1
  P  P19  1  0.929791  0.710584  0.201829  1
  P  P20  1  0.570209  0.289416  0.701829  1
  P  P21  1  0.710584  0.201829  0.929791  1
  P  P22  1  0.701829  0.570209  0.289416  1
  P  P23  1  0.201829  0.929791  0.710584  1
  P  P24  1  0.789416  0.798171  0.429791  1
  P  P25  1  0.798171  0.429791  0.789416  1
  P  P26  1  0.289416  0.701829  0.570209  1
  P  P27  1  0.210584  0.298171  0.070209  1
  P  P28  1  0.298171  0.070209  0.210584  1
  P  P29  1  0.460584  0.179791  0.048171  1
  P  P30  1  0.039416  0.820209  0.548171  1
  P  P31  1  0.951829  0.960584  0.320209  1
  P  P32  1  0.048171  0.460584  0.179791  1
  P  P33  1  0.820209  0.548171  0.039416  1
  P  P34  1  0.320209  0.951829  0.960584  1
  P  P35  1  0.070209  0.210584  0.298171  1
  N  N36  1  0.549769  0.549769  0.549769  1
  N  N37  1  0.799769  0.700231  0.299769  1
  N  N38  1  0.700231  0.299769  0.799769  1
  N  N39  1  0.299769  0.799769  0.700231  1
  N  N40  1  0.049769  0.950231  0.450231  1
  N  N41  1  0.950231  0.450231  0.049769  1
  N  N42  1  0.450231  0.049769  0.950231  1
  N  N43  1  0.200231  0.200231  0.200231  1
  N  N44  1  0.625000  0.307677  0.557677  1
  N  N45  1  0.692323  0.057677  0.875000  1
  N  N46  1  0.557677  0.625000  0.307677  1
  N  N47  1  0.942323  0.375000  0.807677  1
  N  N48  1  0.307677  0.557677  0.625000  1
  N  N49  1  0.442323  0.125000  0.192323  1
  N  N50  1  0.057677  0.875000  0.692323  1
  N  N51  1  0.807677  0.942323  0.375000  1
  N  N52  1  0.192323  0.442323  0.125000  1
  N  N53  1  0.875000  0.692323  0.057677  1
  N  N54  1  0.375000  0.807677  0.942323  1
  N  N55  1  0.278186  0.008731  0.348245  1
  N  N56  1  0.125000  0.192323  0.442323  1
  N  N57  1  0.241269  0.028186  0.598245  1
  N  N58  1  0.471814  0.401755  0.741269  1
  N  N59  1  0.528186  0.901755  0.758731  1
  N  N60  1  0.401755  0.741269  0.471814  1
  N  N61  1  0.098245  0.258731  0.971814  1
  N  N62  1  0.491269  0.651755  0.778186  1
  N  N63  1  0.991269  0.848245  0.221814  1
  N  N64  1  0.508731  0.151755  0.721814  1
  N  N65  1  0.848245  0.221814  0.991269  1
  N  N66  1  0.721814  0.508731  0.151755  1
  N  N67  1  0.221814  0.991269  0.848245  1
  N  N68  1  0.651755  0.778186  0.491269  1
  N  N69  1  0.778186  0.491269  0.651755  1
  N  N70  1  0.151755  0.721814  0.508731  1
  N  N71  1  0.348245  0.278186  0.008731  1
  N  N72  1  0.008731  0.348245  0.278186  1
  N  N73  1  0.258731  0.971814  0.098245  1
  N  N74  1  0.758731  0.528186  0.901755  1
  N  N75  1  0.028186  0.598245  0.241269  1
  N  N76  1  0.971814  0.098245  0.258731  1
  N  N77  1  0.901755  0.758731  0.528186  1
  N  N78  1  0.598245  0.241269  0.028186  1
  N  N79  1  0.741269  0.471814  0.401755  1
