# generated using pymatgen
data_CaTa4Nb(B2Ru5)2
_symmetry_space_group_name_H-M   'P 1'
_cell_length_a   9.52450418
_cell_length_b   9.52450379
_cell_length_c   3.05089200
_cell_angle_alpha   90.00000000
_cell_angle_beta   90.00000000
_cell_angle_gamma   90.57932278
_symmetry_Int_Tables_number   1
_chemical_formula_structural   CaTa4Nb(B2Ru5)2
_chemical_formula_sum   'Ca1 Ta4 Nb1 B4 Ru10'
_cell_volume   276.75110890
_cell_formula_units_Z   1
loop_
 _symmetry_equiv_pos_site_id
 _symmetry_equiv_pos_as_xyz
  1  'x, y, z'
loop_
 _atom_site_type_symbol
 _atom_site_label
 _atom_site_symmetry_multiplicity
 _atom_site_fract_x
 _atom_site_fract_y
 _atom_site_fract_z
 _atom_site_occupancy
  Ca  Ca0  1  0.824487  0.675513  0.000000  1
  Ta  Ta1  1  0.325186  0.822511  0.000000  1
  Ta  Ta2  1  0.677489  0.174814  0.000000  1
  Ta  Ta3  1  0.503442  0.501149  0.000000  1
  Ta  Ta4  1  0.998851  0.996558  0.000000  1
  Nb  Nb5  1  0.177796  0.322204  0.000000  1
  B  B6  1  0.619167  0.880833  0.000000  1
  B  B7  1  0.376545  0.123455  0.000000  1
  B  B8  1  0.123248  0.618678  0.000000  1
  B  B9  1  0.881322  0.376752  0.000000  1
  Ru  Ru10  1  0.552907  0.727532  0.500000  1
  Ru  Ru11  1  0.426375  0.284093  0.500000  1
  Ru  Ru12  1  0.087954  0.783443  0.500000  1
  Ru  Ru13  1  0.929991  0.214650  0.500000  1
  Ru  Ru14  1  0.285350  0.570009  0.500000  1
  Ru  Ru15  1  0.716557  0.412046  0.500000  1
  Ru  Ru16  1  0.215907  0.073625  0.500000  1
  Ru  Ru17  1  0.772468  0.947093  0.500000  1
  Ru  Ru18  1  0.494369  0.005631  0.500000  1
  Ru  Ru19  1  0.010591  0.489409  0.500000  1
