# generated using pymatgen
data_Ho3Sn3IrRuAu
_symmetry_space_group_name_H-M   'P 1'
_cell_length_a   7.65722000
_cell_length_b   7.65722083
_cell_length_c   3.86025300
_cell_angle_alpha   90.00000000
_cell_angle_beta   90.00000000
_cell_angle_gamma   119.99999642
_symmetry_Int_Tables_number   1
_chemical_formula_structural   Ho3Sn3IrRuAu
_chemical_formula_sum   'Ho3 Sn3 Ir1 Ru1 Au1'
_cell_volume   196.01473221
_cell_formula_units_Z   1
loop_
 _symmetry_equiv_pos_site_id
 _symmetry_equiv_pos_as_xyz
  1  'x, y, z'
loop_
 _atom_site_type_symbol
 _atom_site_label
 _atom_site_symmetry_multiplicity
 _atom_site_fract_x
 _atom_site_fract_y
 _atom_site_fract_z
 _atom_site_occupancy
  Ho  Ho0  1  0.392772  0.411447  0.500000  1
  Ho  Ho1  1  0.588553  0.981325  0.500000  1
  Ho  Ho2  1  0.018675  0.607228  0.500000  1
  Sn  Sn3  1  0.740437  0.742972  0.000000  1
  Sn  Sn4  1  0.257028  0.997465  0.000000  1
  Sn  Sn5  1  0.002535  0.259563  0.000000  1
  Ir  Ir6  1  0.333333  0.666667  0.000000  1
  Ru  Ru7  1  0.000000  0.000000  0.500000  1
  Au  Au8  1  0.666667  0.333333  0.000000  1
