# generated using pymatgen
data_Tb2MnFe(Co4P3)2
_symmetry_space_group_name_H-M   'P 1'
_cell_length_a   3.65727000
_cell_length_b   10.26807300
_cell_length_c   11.77772100
_cell_angle_alpha   90.00000000
_cell_angle_beta   90.00000000
_cell_angle_gamma   90.00000000
_symmetry_Int_Tables_number   1
_chemical_formula_structural   Tb2MnFe(Co4P3)2
_chemical_formula_sum   'Tb4 Mn2 Fe2 Co16 P12'
_cell_volume   442.29011516
_cell_formula_units_Z   2
loop_
 _symmetry_equiv_pos_site_id
 _symmetry_equiv_pos_as_xyz
  1  'x, y, z'
loop_
 _atom_site_type_symbol
 _atom_site_label
 _atom_site_symmetry_multiplicity
 _atom_site_fract_x
 _atom_site_fract_y
 _atom_site_fract_z
 _atom_site_occupancy
  Tb  Tb0  1  0.250000  0.581441  0.703177  1
  Tb  Tb1  1  0.250000  0.918559  0.203177  1
  Tb  Tb2  1  0.750000  0.417956  0.296431  1
  Tb  Tb3  1  0.750000  0.082044  0.796431  1
  Mn  Mn4  1  0.250000  0.710724  0.987665  1
  Mn  Mn5  1  0.250000  0.789276  0.487665  1
  Fe  Fe6  1  0.750000  0.289990  0.012125  1
  Fe  Fe7  1  0.750000  0.210010  0.512125  1
  Co  Co8  1  0.250000  0.406508  0.487969  1
  Co  Co9  1  0.250000  0.093492  0.987969  1
  Co  Co10  1  0.750000  0.594425  0.512011  1
  Co  Co11  1  0.750000  0.905575  0.012011  1
  Co  Co12  1  0.250000  0.221060  0.176536  1
  Co  Co13  1  0.250000  0.278940  0.676536  1
  Co  Co14  1  0.750000  0.778844  0.823682  1
  Co  Co15  1  0.750000  0.721156  0.323682  1
  Co  Co16  1  0.250000  0.882519  0.698367  1
  Co  Co17  1  0.250000  0.617481  0.198367  1
  Co  Co18  1  0.750000  0.117755  0.301720  1
  Co  Co19  1  0.750000  0.382245  0.801720  1
  Co  Co20  1  0.250000  0.465854  0.933129  1
  Co  Co21  1  0.250000  0.034146  0.433129  1
  Co  Co22  1  0.750000  0.532974  0.067509  1
  Co  Co23  1  0.750000  0.967026  0.567509  1
  P  P24  1  0.250000  0.418391  0.112562  1
  P  P25  1  0.250000  0.081609  0.612562  1
  P  P26  1  0.750000  0.580910  0.887523  1
  P  P27  1  0.750000  0.919090  0.387523  1
  P  P28  1  0.250000  0.269680  0.868628  1
  P  P29  1  0.250000  0.230320  0.368628  1
  P  P30  1  0.750000  0.729371  0.131397  1
  P  P31  1  0.750000  0.770629  0.631397  1
  P  P32  1  0.250000  0.601357  0.392144  1
  P  P33  1  0.250000  0.898643  0.892144  1
  P  P34  1  0.750000  0.396671  0.607427  1
  P  P35  1  0.750000  0.103329  0.107427  1
