# generated using pymatgen
data_Th10Sn5BiAs2
_symmetry_space_group_name_H-M   'P 1'
_cell_length_a   9.54613062
_cell_length_b   9.54612998
_cell_length_c   6.70395100
_cell_angle_alpha   90.00000000
_cell_angle_beta   90.00000000
_cell_angle_gamma   120.14480373
_symmetry_Int_Tables_number   1
_chemical_formula_structural   Th10Sn5BiAs2
_chemical_formula_sum   'Th10 Sn5 Bi1 As2'
_cell_volume   528.30002637
_cell_formula_units_Z   1
loop_
 _symmetry_equiv_pos_site_id
 _symmetry_equiv_pos_as_xyz
  1  'x, y, z'
loop_
 _atom_site_type_symbol
 _atom_site_label
 _atom_site_symmetry_multiplicity
 _atom_site_fract_x
 _atom_site_fract_y
 _atom_site_fract_z
 _atom_site_occupancy
  Th  Th0  1  0.003923  0.742607  0.750000  1
  Th  Th1  1  0.256111  0.256111  0.750000  1
  Th  Th2  1  0.330976  0.667121  0.498371  1
  Th  Th3  1  0.667121  0.330976  0.498371  1
  Th  Th4  1  0.743281  0.743281  0.250000  1
  Th  Th5  1  0.742607  0.003923  0.750000  1
  Th  Th6  1  0.999725  0.258658  0.250000  1
  Th  Th7  1  0.258658  0.999725  0.250000  1
  Th  Th8  1  0.330976  0.667121  0.001629  1
  Th  Th9  1  0.667121  0.330976  0.001629  1
  Sn  Sn10  1  0.000239  0.390315  0.750000  1
  Sn  Sn11  1  0.390315  0.000239  0.750000  1
  Sn  Sn12  1  0.610265  0.000281  0.250000  1
  Sn  Sn13  1  0.389503  0.389503  0.250000  1
  Sn  Sn14  1  0.000281  0.610265  0.250000  1
  Bi  Bi15  1  0.609967  0.609967  0.750000  1
  As  As16  1  0.999465  0.999465  0.999734  1
  As  As17  1  0.999465  0.999465  0.500266  1
