# generated using pymatgen
data_Na3Yb2IrO6
_symmetry_space_group_name_H-M   'P 1'
_cell_length_a   5.65512510
_cell_length_b   5.65436623
_cell_length_c   5.79587656
_cell_angle_alpha   80.53982423
_cell_angle_beta   80.52669295
_cell_angle_gamma   119.94156950
_symmetry_Int_Tables_number   1
_chemical_formula_structural   Na3Yb2IrO6
_chemical_formula_sum   'Na3 Yb2 Ir1 O6'
_cell_volume   151.67343342
_cell_formula_units_Z   1
loop_
 _symmetry_equiv_pos_site_id
 _symmetry_equiv_pos_as_xyz
  1  'x, y, z'
loop_
 _atom_site_type_symbol
 _atom_site_label
 _atom_site_symmetry_multiplicity
 _atom_site_fract_x
 _atom_site_fract_y
 _atom_site_fract_z
 _atom_site_occupancy
  Na  Na0  1  0.500000  0.500000  0.500000  1
  Na  Na1  1  0.163446  0.836551  0.500003  1
  Na  Na2  1  0.836554  0.163449  0.499997  1
  Yb  Yb3  1  0.331975  0.668005  0.000000  1
  Yb  Yb4  1  0.668025  0.331995  0.000000  1
  Ir  Ir5  1  0.000000  0.000000  0.000000  1
  O  O6  1  0.224959  0.224959  0.204959  1
  O  O7  1  0.775041  0.775041  0.795041  1
  O  O8  1  0.630663  0.928056  0.214773  1
  O  O9  1  0.071945  0.369346  0.785225  1
  O  O10  1  0.928055  0.630654  0.214775  1
  O  O11  1  0.369337  0.071944  0.785227  1
