# generated using pymatgen
data_DyEr3Lu4(B6Rh)4
_symmetry_space_group_name_H-M   'P 1'
_cell_length_a   3.61302300
_cell_length_b   9.09863001
_cell_length_c   11.43556801
_cell_angle_alpha   90.00473261
_cell_angle_beta   90.00000000
_cell_angle_gamma   90.00000000
_symmetry_Int_Tables_number   1
_chemical_formula_structural   DyEr3Lu4(B6Rh)4
_chemical_formula_sum   'Dy1 Er3 Lu4 B24 Rh4'
_cell_volume   375.92782395
_cell_formula_units_Z   1
loop_
 _symmetry_equiv_pos_site_id
 _symmetry_equiv_pos_as_xyz
  1  'x, y, z'
loop_
 _atom_site_type_symbol
 _atom_site_label
 _atom_site_symmetry_multiplicity
 _atom_site_fract_x
 _atom_site_fract_y
 _atom_site_fract_z
 _atom_site_occupancy
  Dy  Dy0  1  0.500000  0.321693  0.413705  1
  Er  Er1  1  0.500000  0.678529  0.586259  1
  Er  Er2  1  0.500000  0.178500  0.913785  1
  Er  Er3  1  0.500000  0.821470  0.086186  1
  Lu  Lu4  1  0.500000  0.444462  0.126777  1
  Lu  Lu5  1  0.500000  0.555635  0.873117  1
  Lu  Lu6  1  0.500000  0.055433  0.627063  1
  Lu  Lu7  1  0.500000  0.944238  0.373094  1
  B  B8  1  0.000000  0.106019  0.471344  1
  B  B9  1  0.000000  0.893341  0.528870  1
  B  B10  1  0.000000  0.393260  0.971074  1
  B  B11  1  0.000000  0.606811  0.028841  1
  B  B12  1  0.000000  0.132034  0.316603  1
  B  B13  1  0.000000  0.867505  0.683196  1
  B  B14  1  0.000000  0.367563  0.816895  1
  B  B15  1  0.000000  0.632503  0.183062  1
  B  B16  1  0.000000  0.054188  0.065119  1
  B  B17  1  0.000000  0.945785  0.934802  1
  B  B18  1  0.000000  0.446075  0.565629  1
  B  B19  1  0.000000  0.554665  0.434792  1
  B  B20  1  0.000000  0.482876  0.285911  1
  B  B21  1  0.000000  0.517727  0.713821  1
  B  B22  1  0.000000  0.017546  0.786311  1
  B  B23  1  0.000000  0.982286  0.213713  1
  B  B24  1  0.000000  0.250783  0.079400  1
  B  B25  1  0.000000  0.749228  0.920477  1
  B  B26  1  0.000000  0.249017  0.580020  1
  B  B27  1  0.000000  0.750843  0.420520  1
  B  B28  1  0.000000  0.294923  0.235595  1
  B  B29  1  0.000000  0.704918  0.763964  1
  B  B30  1  0.000000  0.204827  0.736214  1
  B  B31  1  0.000000  0.795129  0.263858  1
  Rh  Rh32  1  0.500000  0.139963  0.179289  1
  Rh  Rh33  1  0.500000  0.859818  0.820552  1
  Rh  Rh34  1  0.500000  0.359809  0.679825  1
  Rh  Rh35  1  0.500000  0.640597  0.320318  1
