# generated using pymatgen
data_Tb5Sm2Er3(In2Pd)4
_symmetry_space_group_name_H-M   'P 1'
_cell_length_a   3.64168500
_cell_length_b   8.18961406
_cell_length_c   18.32976681
_cell_angle_alpha   89.95383715
_cell_angle_beta   90.00000000
_cell_angle_gamma   90.00000000
_symmetry_Int_Tables_number   1
_chemical_formula_structural   Tb5Sm2Er3(In2Pd)4
_chemical_formula_sum   'Tb5 Sm2 Er3 In8 Pd4'
_cell_volume   546.66669034
_cell_formula_units_Z   1
loop_
 _symmetry_equiv_pos_site_id
 _symmetry_equiv_pos_as_xyz
  1  'x, y, z'
loop_
 _atom_site_type_symbol
 _atom_site_label
 _atom_site_symmetry_multiplicity
 _atom_site_fract_x
 _atom_site_fract_y
 _atom_site_fract_z
 _atom_site_occupancy
  Tb  Tb0  1  0.000000  0.737689  0.281909  1
  Tb  Tb1  1  0.000000  0.262524  0.718034  1
  Tb  Tb2  1  0.000000  0.762503  0.781344  1
  Tb  Tb3  1  0.000000  0.238074  0.219111  1
  Tb  Tb4  1  0.000000  0.617808  0.083153  1
  Sm  Sm5  1  0.000000  0.500238  0.500262  1
  Sm  Sm6  1  0.000000  0.999422  0.999566  1
  Er  Er7  1  0.000000  0.382298  0.915637  1
  Er  Er8  1  0.000000  0.882720  0.583904  1
  Er  Er9  1  0.000000  0.117345  0.416304  1
  In  In10  1  0.500000  0.704267  0.932006  1
  In  In11  1  0.500000  0.293695  0.067043  1
  In  In12  1  0.500000  0.796562  0.433527  1
  In  In13  1  0.500000  0.203402  0.566474  1
  In  In14  1  0.500000  0.584285  0.651225  1
  In  In15  1  0.500000  0.415835  0.349414  1
  In  In16  1  0.500000  0.919107  0.151659  1
  In  In17  1  0.500000  0.083668  0.848364  1
  Pd  Pd18  1  0.500000  0.521313  0.195971  1
  Pd  Pd19  1  0.500000  0.477124  0.804953  1
  Pd  Pd20  1  0.500000  0.977672  0.694474  1
  Pd  Pd21  1  0.500000  0.022454  0.305663  1
