# generated using pymatgen
data_Y4Al18NiIr5
_symmetry_space_group_name_H-M   'P 1'
_cell_length_a   7.53802748
_cell_length_b   7.53802806
_cell_length_c   9.45292223
_cell_angle_alpha   89.90358026
_cell_angle_beta   89.90358105
_cell_angle_gamma   119.50186288
_symmetry_Int_Tables_number   1
_chemical_formula_structural   Y4Al18NiIr5
_chemical_formula_sum   'Y4 Al18 Ni1 Ir5'
_cell_volume   467.48525210
_cell_formula_units_Z   1
loop_
 _symmetry_equiv_pos_site_id
 _symmetry_equiv_pos_as_xyz
  1  'x, y, z'
loop_
 _atom_site_type_symbol
 _atom_site_label
 _atom_site_symmetry_multiplicity
 _atom_site_fract_x
 _atom_site_fract_y
 _atom_site_fract_z
 _atom_site_occupancy
  Y  Y0  1  0.996338  0.672549  0.250015  1
  Y  Y1  1  0.006048  0.329388  0.750034  1
  Y  Y2  1  0.670612  0.993952  0.249966  1
  Y  Y3  1  0.327451  0.003662  0.749985  1
  Al  Al4  1  0.129489  0.129178  0.249433  1
  Al  Al5  1  0.870822  0.870511  0.750567  1
  Al  Al6  1  0.996834  0.335266  0.074105  1
  Al  Al7  1  0.996468  0.662750  0.925920  1
  Al  Al8  1  0.998630  0.664074  0.574047  1
  Al  Al9  1  0.335926  0.001370  0.425953  1
  Al  Al10  1  0.000510  0.334640  0.425421  1
  Al  Al11  1  0.665360  0.999490  0.574579  1
  Al  Al12  1  0.664734  0.003166  0.925895  1
  Al  Al13  1  0.337250  0.003532  0.074080  1
  Al  Al14  1  0.333920  0.333257  0.551217  1
  Al  Al15  1  0.666743  0.666080  0.448783  1
  Al  Al16  1  0.666339  0.664988  0.052070  1
  Al  Al17  1  0.335012  0.333661  0.947930  1
  Al  Al18  1  0.340004  0.547798  0.249505  1
  Al  Al19  1  0.660017  0.448608  0.753127  1
  Al  Al20  1  0.551392  0.339983  0.246873  1
  Al  Al21  1  0.452202  0.659996  0.750495  1
  Ni  Ni22  1  0.670704  0.329296  0.000000  1
  Ir  Ir23  1  0.327616  0.672384  0.000000  1
  Ir  Ir24  1  0.328478  0.671522  0.500000  1
  Ir  Ir25  1  0.671494  0.328506  0.500000  1
  Ir  Ir26  1  0.999380  0.000620  0.000000  1
  Ir  Ir27  1  0.000226  0.999774  0.500000  1
