# generated using pymatgen
data_Li2LaNdSi2Sn
_symmetry_space_group_name_H-M   'P 1'
_cell_length_a   9.86113819
_cell_length_b   9.86113855
_cell_length_c   6.93246900
_cell_angle_alpha   90.00000000
_cell_angle_beta   90.00000000
_cell_angle_gamma   153.08701298
_symmetry_Int_Tables_number   1
_chemical_formula_structural   Li2LaNdSi2Sn
_chemical_formula_sum   'Li4 La2 Nd2 Si4 Sn2'
_cell_volume   305.13493848
_cell_formula_units_Z   2
loop_
 _symmetry_equiv_pos_site_id
 _symmetry_equiv_pos_as_xyz
  1  'x, y, z'
loop_
 _atom_site_type_symbol
 _atom_site_label
 _atom_site_symmetry_multiplicity
 _atom_site_fract_x
 _atom_site_fract_y
 _atom_site_fract_z
 _atom_site_occupancy
  Li  Li0  1  0.815789  0.184211  0.554753  1
  Li  Li1  1  0.184211  0.815789  0.445247  1
  Li  Li2  1  0.184211  0.815789  0.054753  1
  Li  Li3  1  0.815789  0.184211  0.945247  1
  La  La4  1  0.548725  0.451275  0.250000  1
  La  La5  1  0.451275  0.548725  0.750000  1
  Nd  Nd6  1  0.349627  0.650373  0.250000  1
  Nd  Nd7  1  0.650373  0.349627  0.750000  1
  Si  Si8  1  0.943302  0.056698  0.076071  1
  Si  Si9  1  0.056698  0.943302  0.923929  1
  Si  Si10  1  0.056698  0.943302  0.576071  1
  Si  Si11  1  0.943302  0.056698  0.423929  1
  Sn  Sn12  1  0.719875  0.280125  0.250000  1
  Sn  Sn13  1  0.280125  0.719875  0.750000  1
