# generated using pymatgen
data_Er16MgIn3(CoNi)2
_symmetry_space_group_name_H-M   'P 1'
_cell_length_a   9.50448561
_cell_length_b   9.48241745
_cell_length_c   9.51486600
_cell_angle_alpha   59.88673744
_cell_angle_beta   59.96386517
_cell_angle_gamma   60.07088897
_symmetry_Int_Tables_number   1
_chemical_formula_structural   Er16MgIn3(CoNi)2
_chemical_formula_sum   'Er16 Mg1 In3 Co2 Ni2'
_cell_volume   606.00373921
_cell_formula_units_Z   1
loop_
 _symmetry_equiv_pos_site_id
 _symmetry_equiv_pos_as_xyz
  1  'x, y, z'
loop_
 _atom_site_type_symbol
 _atom_site_label
 _atom_site_symmetry_multiplicity
 _atom_site_fract_x
 _atom_site_fract_y
 _atom_site_fract_z
 _atom_site_occupancy
  Er  Er0  1  0.597854  0.597237  0.592410  1
  Er  Er1  1  0.597854  0.597237  0.212497  1
  Er  Er2  1  0.602296  0.208024  0.594839  1
  Er  Er3  1  0.204130  0.603697  0.596086  1
  Er  Er4  1  0.056082  0.439845  0.439708  1
  Er  Er5  1  0.436365  0.058698  0.066331  1
  Er  Er6  1  0.436365  0.058698  0.438606  1
  Er  Er7  1  0.056082  0.439845  0.064363  1
  Er  Er8  1  0.436990  0.438421  0.062295  1
  Er  Er9  1  0.060265  0.060349  0.439692  1
  Er  Er10  1  0.188475  0.814220  0.811282  1
  Er  Er11  1  0.814241  0.187441  0.187490  1
  Er  Er12  1  0.814241  0.187441  0.810829  1
  Er  Er13  1  0.188475  0.814220  0.186023  1
  Er  Er14  1  0.812953  0.811529  0.187760  1
  Er  Er15  1  0.188137  0.187030  0.812416  1
  Mg  Mg16  1  0.517564  0.827135  0.827651  1
  In  In17  1  0.832221  0.833034  0.833159  1
  In  In18  1  0.832221  0.833034  0.501585  1
  In  In19  1  0.831826  0.502335  0.832919  1
  Co  Co20  1  0.388768  0.825693  0.392770  1
  Co  Co21  1  0.826154  0.390961  0.391443  1
  Ni  Ni22  1  0.390220  0.391937  0.391952  1
  Ni  Ni23  1  0.390220  0.391937  0.825892  1
