# generated using pymatgen
data_Hf3Sc(TiRe3)2
_symmetry_space_group_name_H-M   'P 1'
_cell_length_a   5.29788500
_cell_length_b   5.29788475
_cell_length_c   8.71589500
_cell_angle_alpha   90.00000000
_cell_angle_beta   90.00000000
_cell_angle_gamma   119.99999530
_symmetry_Int_Tables_number   1
_chemical_formula_structural   Hf3Sc(TiRe3)2
_chemical_formula_sum   'Hf3 Sc1 Ti2 Re6'
_cell_volume   211.85936955
_cell_formula_units_Z   1
loop_
 _symmetry_equiv_pos_site_id
 _symmetry_equiv_pos_as_xyz
  1  'x, y, z'
loop_
 _atom_site_type_symbol
 _atom_site_label
 _atom_site_symmetry_multiplicity
 _atom_site_fract_x
 _atom_site_fract_y
 _atom_site_fract_z
 _atom_site_occupancy
  Hf  Hf0  1  0.666667  0.333333  0.563525  1
  Hf  Hf1  1  0.666667  0.333333  0.936756  1
  Hf  Hf2  1  0.333333  0.666667  0.436437  1
  Sc  Sc3  1  0.333333  0.666667  0.062619  1
  Ti  Ti4  1  0.000000  0.000000  0.000295  1
  Ti  Ti5  1  0.000000  0.000000  0.500245  1
  Re  Re6  1  0.830430  0.660861  0.250869  1
  Re  Re7  1  0.169479  0.830521  0.749172  1
  Re  Re8  1  0.661043  0.830521  0.749172  1
  Re  Re9  1  0.339139  0.169570  0.250869  1
  Re  Re10  1  0.830430  0.169570  0.250869  1
  Re  Re11  1  0.169479  0.338957  0.749172  1
