# generated using pymatgen
data_NaCa3Ag2As3
_symmetry_space_group_name_H-M   'P 1'
_cell_length_a   7.33737832
_cell_length_b   7.46520237
_cell_length_c   4.33687500
_cell_angle_alpha   90.00000000
_cell_angle_beta   90.00000000
_cell_angle_gamma   120.57797308
_symmetry_Int_Tables_number   1
_chemical_formula_structural   NaCa3Ag2As3
_chemical_formula_sum   'Na1 Ca3 Ag2 As3'
_cell_volume   204.51779785
_cell_formula_units_Z   1
loop_
 _symmetry_equiv_pos_site_id
 _symmetry_equiv_pos_as_xyz
  1  'x, y, z'
loop_
 _atom_site_type_symbol
 _atom_site_label
 _atom_site_symmetry_multiplicity
 _atom_site_fract_x
 _atom_site_fract_y
 _atom_site_fract_z
 _atom_site_occupancy
  Na  Na0  1  0.000000  0.240771  0.000000  1
  Ca  Ca1  1  0.000000  0.598935  0.500000  1
  Ca  Ca2  1  0.421671  0.416462  0.500000  1
  Ca  Ca3  1  0.578329  0.994792  0.500000  1
  Ag  Ag4  1  0.750410  0.747756  0.000000  1
  Ag  Ag5  1  0.249590  0.997346  0.000000  1
  As  As6  1  0.000000  0.993107  0.500000  1
  As  As7  1  0.338699  0.674765  0.000000  1
  As  As8  1  0.661301  0.336066  0.000000  1
