# generated using pymatgen
data_Pr2Tm2Al13Ga5Ir6
_symmetry_space_group_name_H-M   'P 1'
_cell_length_a   7.55365897
_cell_length_b   7.55518342
_cell_length_c   9.62446900
_cell_angle_alpha   90.00000000
_cell_angle_beta   90.00000000
_cell_angle_gamma   119.51149504
_symmetry_Int_Tables_number   1
_chemical_formula_structural   Pr2Tm2Al13Ga5Ir6
_chemical_formula_sum   'Pr2 Tm2 Al13 Ga5 Ir6'
_cell_volume   477.99860808
_cell_formula_units_Z   1
loop_
 _symmetry_equiv_pos_site_id
 _symmetry_equiv_pos_as_xyz
  1  'x, y, z'
loop_
 _atom_site_type_symbol
 _atom_site_label
 _atom_site_symmetry_multiplicity
 _atom_site_fract_x
 _atom_site_fract_y
 _atom_site_fract_z
 _atom_site_occupancy
  Pr  Pr0  1  0.995188  0.669698  0.250000  1
  Pr  Pr1  1  0.669919  0.996349  0.250000  1
  Tm  Tm2  1  0.000350  0.324899  0.750000  1
  Tm  Tm3  1  0.329432  0.006577  0.750000  1
  Al  Al4  1  0.004318  0.334930  0.065894  1
  Al  Al5  1  0.000218  0.665021  0.922839  1
  Al  Al6  1  0.000218  0.665021  0.577161  1
  Al  Al7  1  0.334851  0.003825  0.434201  1
  Al  Al8  1  0.004318  0.334930  0.434106  1
  Al  Al9  1  0.664159  0.998490  0.577421  1
  Al  Al10  1  0.664159  0.998490  0.922579  1
  Al  Al11  1  0.334851  0.003825  0.065799  1
  Al  Al12  1  0.333399  0.333851  0.561446  1
  Al  Al13  1  0.665106  0.664992  0.455278  1
  Al  Al14  1  0.665106  0.664992  0.044722  1
  Al  Al15  1  0.333399  0.333851  0.938554  1
  Al  Al16  1  0.448404  0.660767  0.750000  1
  Ga  Ga17  1  0.132932  0.132908  0.250000  1
  Ga  Ga18  1  0.870598  0.869765  0.750000  1
  Ga  Ga19  1  0.337962  0.543558  0.250000  1
  Ga  Ga20  1  0.661117  0.452459  0.750000  1
  Ga  Ga21  1  0.543331  0.338608  0.250000  1
  Ir  Ir22  1  0.671833  0.327798  0.997281  1
  Ir  Ir23  1  0.329084  0.671128  0.994876  1
  Ir  Ir24  1  0.329084  0.671128  0.505124  1
  Ir  Ir25  1  0.671833  0.327798  0.502719  1
  Ir  Ir26  1  0.002415  0.002170  0.996211  1
  Ir  Ir27  1  0.002415  0.002170  0.503789  1
