# generated using pymatgen
data_Ca2YTm5(B6Ru)4
_symmetry_space_group_name_H-M   'P 1'
_cell_length_a   3.62950200
_cell_length_b   9.10647689
_cell_length_c   11.50952101
_cell_angle_alpha   89.82158258
_cell_angle_beta   90.00000000
_cell_angle_gamma   90.00000000
_symmetry_Int_Tables_number   1
_chemical_formula_structural   Ca2YTm5(B6Ru)4
_chemical_formula_sum   'Ca2 Y1 Tm5 B24 Ru4'
_cell_volume   380.41056882
_cell_formula_units_Z   1
loop_
 _symmetry_equiv_pos_site_id
 _symmetry_equiv_pos_as_xyz
  1  'x, y, z'
loop_
 _atom_site_type_symbol
 _atom_site_label
 _atom_site_symmetry_multiplicity
 _atom_site_fract_x
 _atom_site_fract_y
 _atom_site_fract_z
 _atom_site_occupancy
  Ca  Ca0  1  0.000000  0.323781  0.414967  1
  Ca  Ca1  1  0.000000  0.676212  0.585060  1
  Y  Y2  1  0.000000  0.822182  0.085948  1
  Tm  Tm3  1  0.000000  0.177844  0.913984  1
  Tm  Tm4  1  0.000000  0.942126  0.369554  1
  Tm  Tm5  1  0.000000  0.057989  0.630578  1
  Tm  Tm6  1  0.000000  0.442471  0.130314  1
  Tm  Tm7  1  0.000000  0.557106  0.869552  1
  B  B8  1  0.500000  0.554621  0.431759  1
  B  B9  1  0.500000  0.445304  0.568315  1
  B  B10  1  0.500000  0.054294  0.066132  1
  B  B11  1  0.500000  0.946681  0.933330  1
  B  B12  1  0.500000  0.748945  0.416985  1
  B  B13  1  0.500000  0.251071  0.583125  1
  B  B14  1  0.500000  0.248792  0.080380  1
  B  B15  1  0.500000  0.751192  0.918834  1
  B  B16  1  0.500000  0.791715  0.264178  1
  B  B17  1  0.500000  0.207994  0.736447  1
  B  B18  1  0.500000  0.290111  0.233509  1
  B  B19  1  0.500000  0.709893  0.766392  1
  B  B20  1  0.500000  0.631028  0.184445  1
  B  B21  1  0.500000  0.368366  0.815981  1
  B  B22  1  0.500000  0.130095  0.313464  1
  B  B23  1  0.500000  0.870034  0.686554  1
  B  B24  1  0.500000  0.983220  0.211429  1
  B  B25  1  0.500000  0.017626  0.788861  1
  B  B26  1  0.500000  0.483905  0.287109  1
  B  B27  1  0.500000  0.515938  0.712916  1
  B  B28  1  0.500000  0.602389  0.028035  1
  B  B29  1  0.500000  0.396716  0.971724  1
  B  B30  1  0.500000  0.098361  0.472914  1
  B  B31  1  0.500000  0.901689  0.527140  1
  Ru  Ru32  1  0.000000  0.640814  0.317464  1
  Ru  Ru33  1  0.000000  0.358839  0.682911  1
  Ru  Ru34  1  0.000000  0.137218  0.177513  1
  Ru  Ru35  1  0.000000  0.863439  0.822196  1
