# generated using pymatgen
data_Ho3Er(B6Os)2
_symmetry_space_group_name_H-M   'P 1'
_cell_length_a   3.64104500
_cell_length_b   9.12120835
_cell_length_c   11.49366601
_cell_angle_alpha   90.01750917
_cell_angle_beta   90.00000000
_cell_angle_gamma   90.00000000
_symmetry_Int_Tables_number   1
_chemical_formula_structural   Ho3Er(B6Os)2
_chemical_formula_sum   'Ho6 Er2 B24 Os4'
_cell_volume   381.71302107
_cell_formula_units_Z   2
loop_
 _symmetry_equiv_pos_site_id
 _symmetry_equiv_pos_as_xyz
  1  'x, y, z'
loop_
 _atom_site_type_symbol
 _atom_site_label
 _atom_site_symmetry_multiplicity
 _atom_site_fract_x
 _atom_site_fract_y
 _atom_site_fract_z
 _atom_site_occupancy
  Ho  Ho0  1  0.000000  0.322001  0.414074  1
  Ho  Ho1  1  0.000000  0.677999  0.585926  1
  Ho  Ho2  1  0.000000  0.821622  0.085813  1
  Ho  Ho3  1  0.000000  0.178378  0.914187  1
  Ho  Ho4  1  0.000000  0.944102  0.372903  1
  Ho  Ho5  1  0.000000  0.055898  0.627097  1
  Er  Er6  1  0.000000  0.444102  0.126873  1
  Er  Er7  1  0.000000  0.555898  0.873127  1
  B  B8  1  0.500000  0.553860  0.433037  1
  B  B9  1  0.500000  0.446140  0.566963  1
  B  B10  1  0.500000  0.054181  0.066735  1
  B  B11  1  0.500000  0.945819  0.933265  1
  B  B12  1  0.500000  0.748111  0.419746  1
  B  B13  1  0.500000  0.251889  0.580254  1
  B  B14  1  0.500000  0.248788  0.080048  1
  B  B15  1  0.500000  0.751212  0.919952  1
  B  B16  1  0.500000  0.790938  0.266092  1
  B  B17  1  0.500000  0.209062  0.733908  1
  B  B18  1  0.500000  0.291492  0.233509  1
  B  B19  1  0.500000  0.708508  0.766491  1
  B  B20  1  0.500000  0.631314  0.184855  1
  B  B21  1  0.500000  0.368686  0.815145  1
  B  B22  1  0.500000  0.131963  0.314746  1
  B  B23  1  0.500000  0.868037  0.685254  1
  B  B24  1  0.500000  0.983455  0.212771  1
  B  B25  1  0.500000  0.016545  0.787229  1
  B  B26  1  0.500000  0.483071  0.286791  1
  B  B27  1  0.500000  0.516929  0.713209  1
  B  B28  1  0.500000  0.606901  0.029527  1
  B  B29  1  0.500000  0.393099  0.970473  1
  B  B30  1  0.500000  0.108315  0.470144  1
  B  B31  1  0.500000  0.891685  0.529856  1
  Os  Os32  1  0.000000  0.637357  0.321027  1
  Os  Os33  1  0.000000  0.362643  0.678973  1
  Os  Os34  1  0.000000  0.138040  0.178520  1
  Os  Os35  1  0.000000  0.861960  0.821480  1
