# generated using pymatgen
data_PrNd5Cd23Si
_symmetry_space_group_name_H-M   'P 1'
_cell_length_a   10.10572619
_cell_length_b   10.10572591
_cell_length_c   10.08602600
_cell_angle_alpha   60.06447061
_cell_angle_beta   60.06447153
_cell_angle_gamma   59.87105851
_symmetry_Int_Tables_number   1
_chemical_formula_structural   PrNd5Cd23Si
_chemical_formula_sum   'Pr1 Nd5 Cd23 Si1'
_cell_volume   728.34448214
_cell_formula_units_Z   1
loop_
 _symmetry_equiv_pos_site_id
 _symmetry_equiv_pos_as_xyz
  1  'x, y, z'
loop_
 _atom_site_type_symbol
 _atom_site_label
 _atom_site_symmetry_multiplicity
 _atom_site_fract_x
 _atom_site_fract_y
 _atom_site_fract_z
 _atom_site_occupancy
  Pr  Pr0  1  0.793597  0.793597  0.206403  1
  Nd  Nd1  1  0.206667  0.793515  0.206485  1
  Nd  Nd2  1  0.793515  0.206667  0.206485  1
  Nd  Nd3  1  0.206047  0.206047  0.793953  1
  Nd  Nd4  1  0.793515  0.206667  0.793333  1
  Nd  Nd5  1  0.206667  0.793515  0.793333  1
  Cd  Cd6  1  0.834863  0.834863  0.496377  1
  Cd  Cd7  1  0.834389  0.495873  0.834868  1
  Cd  Cd8  1  0.495873  0.834389  0.834868  1
  Cd  Cd9  1  0.834863  0.834863  0.833896  1
  Cd  Cd10  1  0.165132  0.165132  0.504127  1
  Cd  Cd11  1  0.166104  0.503623  0.165137  1
  Cd  Cd12  1  0.503623  0.166104  0.165137  1
  Cd  Cd13  1  0.165132  0.165132  0.165611  1
  Cd  Cd14  1  0.621817  0.621817  0.134218  1
  Cd  Cd15  1  0.621520  0.134449  0.622016  1
  Cd  Cd16  1  0.134449  0.621520  0.622016  1
  Cd  Cd17  1  0.621817  0.621817  0.622148  1
  Cd  Cd18  1  0.377984  0.377984  0.865551  1
  Cd  Cd19  1  0.377852  0.865782  0.378183  1
  Cd  Cd20  1  0.865782  0.377852  0.378183  1
  Cd  Cd21  1  0.377984  0.377984  0.378480  1
  Cd  Cd22  1  0.000079  0.000079  0.499921  1
  Cd  Cd23  1  0.499866  0.000142  0.500134  1
  Cd  Cd24  1  0.000142  0.499866  0.500134  1
  Cd  Cd25  1  0.500079  0.500079  0.999921  1
  Cd  Cd26  1  0.000142  0.499866  0.999858  1
  Cd  Cd27  1  0.499866  0.000142  0.999858  1
  Cd  Cd28  1  0.500049  0.500049  0.499951  1
  Si  Si29  1  0.000584  0.000584  0.999416  1
