# generated using pymatgen
data_Er17Lu3(Bi2Ir)4
_symmetry_space_group_name_H-M   'P 1'
_cell_length_a   7.90458286
_cell_length_b   8.97146947
_cell_length_c   12.45611364
_cell_angle_alpha   89.94208655
_cell_angle_beta   90.09236841
_cell_angle_gamma   89.96879744
_symmetry_Int_Tables_number   1
_chemical_formula_structural   Er17Lu3(Bi2Ir)4
_chemical_formula_sum   'Er17 Lu3 Bi8 Ir4'
_cell_volume   883.33258469
_cell_formula_units_Z   1
loop_
 _symmetry_equiv_pos_site_id
 _symmetry_equiv_pos_as_xyz
  1  'x, y, z'
loop_
 _atom_site_type_symbol
 _atom_site_label
 _atom_site_symmetry_multiplicity
 _atom_site_fract_x
 _atom_site_fract_y
 _atom_site_fract_z
 _atom_site_occupancy
  Er  Er0  1  0.661502  0.749581  0.706856  1
  Er  Er1  1  0.338175  0.250248  0.293375  1
  Er  Er2  1  0.161305  0.250493  0.793341  1
  Er  Er3  1  0.838909  0.749574  0.206431  1
  Er  Er4  1  0.127322  0.749246  0.811003  1
  Er  Er5  1  0.872757  0.250776  0.188958  1
  Er  Er6  1  0.627005  0.250309  0.689381  1
  Er  Er7  1  0.371988  0.749460  0.310649  1
  Er  Er8  1  0.555924  0.748925  0.998051  1
  Er  Er9  1  0.443929  0.251029  0.001953  1
  Er  Er10  1  0.056073  0.250710  0.501891  1
  Er  Er11  1  0.945068  0.749438  0.498260  1
  Er  Er12  1  0.173802  0.958936  0.067479  1
  Er  Er13  1  0.673463  0.458570  0.432470  1
  Er  Er14  1  0.826112  0.041061  0.932459  1
  Er  Er15  1  0.673861  0.041242  0.432548  1
  Er  Er16  1  0.326037  0.958567  0.567672  1
  Lu  Lu17  1  0.829347  0.458629  0.932956  1
  Lu  Lu18  1  0.170605  0.541299  0.067025  1
  Lu  Lu19  1  0.328917  0.541450  0.567327  1
  Bi  Bi20  1  0.936126  0.007600  0.672631  1
  Bi  Bi21  1  0.063692  0.992318  0.327367  1
  Bi  Bi22  1  0.436155  0.992315  0.827521  1
  Bi  Bi23  1  0.063521  0.507747  0.326992  1
  Bi  Bi24  1  0.563674  0.007570  0.172621  1
  Bi  Bi25  1  0.937053  0.492556  0.672553  1
  Bi  Bi26  1  0.562167  0.492601  0.172445  1
  Bi  Bi27  1  0.437525  0.507547  0.827339  1
  Ir  Ir28  1  0.929876  0.748551  0.992276  1
  Ir  Ir29  1  0.070053  0.251441  0.007610  1
  Ir  Ir30  1  0.428648  0.250834  0.508083  1
  Ir  Ir31  1  0.569408  0.749375  0.492478  1
