# generated using pymatgen
data_PrHoFe2(P3Rh4)2
_symmetry_space_group_name_H-M   'P 1'
_cell_length_a   3.89124400
_cell_length_b   10.79696400
_cell_length_c   12.47360100
_cell_angle_alpha   90.00000000
_cell_angle_beta   90.00000000
_cell_angle_gamma   90.00000000
_symmetry_Int_Tables_number   1
_chemical_formula_structural   PrHoFe2(P3Rh4)2
_chemical_formula_sum   'Pr2 Ho2 Fe4 P12 Rh16'
_cell_volume   524.06114970
_cell_formula_units_Z   2
loop_
 _symmetry_equiv_pos_site_id
 _symmetry_equiv_pos_as_xyz
  1  'x, y, z'
loop_
 _atom_site_type_symbol
 _atom_site_label
 _atom_site_symmetry_multiplicity
 _atom_site_fract_x
 _atom_site_fract_y
 _atom_site_fract_z
 _atom_site_occupancy
  Pr  Pr0  1  0.250000  0.582905  0.709021  1
  Pr  Pr1  1  0.250000  0.917095  0.209021  1
  Ho  Ho2  1  0.750000  0.417320  0.291059  1
  Ho  Ho3  1  0.750000  0.082680  0.791059  1
  Fe  Fe4  1  0.250000  0.460124  0.935192  1
  Fe  Fe5  1  0.250000  0.039876  0.435192  1
  Fe  Fe6  1  0.750000  0.535608  0.068172  1
  Fe  Fe7  1  0.750000  0.964392  0.568172  1
  P  P8  1  0.250000  0.429199  0.106849  1
  P  P9  1  0.250000  0.070801  0.606849  1
  P  P10  1  0.750000  0.568686  0.896868  1
  P  P11  1  0.750000  0.931314  0.396868  1
  P  P12  1  0.250000  0.270837  0.869248  1
  P  P13  1  0.250000  0.229163  0.369248  1
  P  P14  1  0.750000  0.725718  0.127595  1
  P  P15  1  0.750000  0.774282  0.627595  1
  P  P16  1  0.250000  0.600947  0.388969  1
  P  P17  1  0.250000  0.899053  0.888969  1
  P  P18  1  0.750000  0.396138  0.609929  1
  P  P19  1  0.750000  0.103862  0.109929  1
  Rh  Rh20  1  0.250000  0.716797  0.990878  1
  Rh  Rh21  1  0.250000  0.783203  0.490878  1
  Rh  Rh22  1  0.750000  0.283599  0.009485  1
  Rh  Rh23  1  0.750000  0.216401  0.509485  1
  Rh  Rh24  1  0.250000  0.407326  0.477663  1
  Rh  Rh25  1  0.250000  0.092674  0.977663  1
  Rh  Rh26  1  0.750000  0.590384  0.516443  1
  Rh  Rh27  1  0.750000  0.909616  0.016443  1
  Rh  Rh28  1  0.250000  0.230837  0.175211  1
  Rh  Rh29  1  0.250000  0.269163  0.675211  1
  Rh  Rh30  1  0.750000  0.771107  0.825213  1
  Rh  Rh31  1  0.750000  0.728893  0.325213  1
  Rh  Rh32  1  0.250000  0.884336  0.701298  1
  Rh  Rh33  1  0.250000  0.615664  0.201298  1
  Rh  Rh34  1  0.750000  0.121470  0.300908  1
  Rh  Rh35  1  0.750000  0.378530  0.800908  1
