# generated using pymatgen
data_Pu2ZnGa3
_symmetry_space_group_name_H-M   'P 1'
_cell_length_a   5.59574224
_cell_length_b   5.42362265
_cell_length_c   5.59574200
_cell_angle_alpha   58.94453821
_cell_angle_beta   60.00000141
_cell_angle_gamma   58.94453416
_symmetry_Int_Tables_number   1
_chemical_formula_structural   Pu2ZnGa3
_chemical_formula_sum   'Pu2 Zn1 Ga3'
_cell_volume   118.13374450
_cell_formula_units_Z   1
loop_
 _symmetry_equiv_pos_site_id
 _symmetry_equiv_pos_as_xyz
  1  'x, y, z'
loop_
 _atom_site_type_symbol
 _atom_site_label
 _atom_site_symmetry_multiplicity
 _atom_site_fract_x
 _atom_site_fract_y
 _atom_site_fract_z
 _atom_site_occupancy
  Pu  Pu0  1  0.743004  0.770988  0.743004  1
  Pu  Pu1  1  0.506996  0.479012  0.506996  1
  Zn  Zn2  1  0.125000  0.625000  0.125000  1
  Ga  Ga3  1  0.125000  0.125000  0.625000  1
  Ga  Ga4  1  0.125000  0.125000  0.125000  1
  Ga  Ga5  1  0.625000  0.125000  0.125000  1
