# generated using pymatgen
data_Sm2Dy3P12Ru5Rh14
_symmetry_space_group_name_H-M   'P 1'
_cell_length_a   12.69231102
_cell_length_b   12.65755186
_cell_length_c   3.95415400
_cell_angle_alpha   90.00000000
_cell_angle_beta   90.00000000
_cell_angle_gamma   120.07210475
_symmetry_Int_Tables_number   1
_chemical_formula_structural   Sm2Dy3P12Ru5Rh14
_chemical_formula_sum   'Sm2 Dy3 P12 Ru5 Rh14'
_cell_volume   549.74163024
_cell_formula_units_Z   1
loop_
 _symmetry_equiv_pos_site_id
 _symmetry_equiv_pos_as_xyz
  1  'x, y, z'
loop_
 _atom_site_type_symbol
 _atom_site_label
 _atom_site_symmetry_multiplicity
 _atom_site_fract_x
 _atom_site_fract_y
 _atom_site_fract_z
 _atom_site_occupancy
  Sm  Sm0  1  0.814136  0.000786  0.500000  1
  Sm  Sm1  1  0.184755  0.186290  0.500000  1
  Dy  Dy2  1  0.666122  0.330762  0.000000  1
  Dy  Dy3  1  0.334696  0.668402  0.000000  1
  Dy  Dy4  1  0.999928  0.812629  0.500000  1
  P  P5  1  0.634126  0.999403  0.000000  1
  P  P6  1  0.365744  0.365999  0.000000  1
  P  P7  1  0.000209  0.634868  0.000000  1
  P  P8  1  0.688783  0.518872  0.500000  1
  P  P9  1  0.828810  0.307557  0.500000  1
  P  P10  1  0.316491  0.834231  0.500000  1
  P  P11  1  0.519441  0.691068  0.500000  1
  P  P12  1  0.181283  0.999170  0.000000  1
  P  P13  1  0.818289  0.816566  0.000000  1
  P  P14  1  0.997256  0.183039  0.000000  1
  P  P15  1  0.478401  0.167575  0.500000  1
  P  P16  1  0.169567  0.481564  0.500000  1
  Ru  Ru17  1  0.512773  0.872822  0.500000  1
  Ru  Ru18  1  0.715334  0.714828  0.500000  1
  Ru  Ru19  1  0.000466  0.286344  0.500000  1
  Ru  Ru20  1  0.817466  0.197366  0.000000  1
  Ru  Ru21  1  0.281515  0.998905  0.500000  1
  Rh  Rh22  1  0.623040  0.803242  0.000000  1
  Rh  Rh23  1  0.182938  0.379166  0.000000  1
  Rh  Rh24  1  0.377064  0.181764  0.000000  1
  Rh  Rh25  1  0.193823  0.817966  0.000000  1
  Rh  Rh26  1  0.804362  0.621667  0.000000  1
  Rh  Rh27  1  0.869432  0.507463  0.500000  1
  Rh  Rh28  1  0.491955  0.360573  0.500000  1
  Rh  Rh29  1  0.635293  0.127341  0.500000  1
  Rh  Rh30  1  0.132606  0.641432  0.500000  1
  Rh  Rh31  1  0.361740  0.491544  0.500000  1
  Rh  Rh32  1  0.999622  0.999009  0.000000  1
  Rh  Rh33  1  0.452120  0.998788  0.000000  1
  Rh  Rh34  1  0.548366  0.547697  0.000000  1
  Rh  Rh35  1  0.002050  0.453299  0.000000  1
