# generated using pymatgen
data_HoTm3(B6Ir)2
_symmetry_space_group_name_H-M   'P 1'
_cell_length_a   3.61206700
_cell_length_b   9.12501808
_cell_length_c   11.46832402
_cell_angle_alpha   90.00379337
_cell_angle_beta   90.00000000
_cell_angle_gamma   90.00000000
_symmetry_Int_Tables_number   1
_chemical_formula_structural   HoTm3(B6Ir)2
_chemical_formula_sum   'Ho2 Tm6 B24 Ir4'
_cell_volume   377.99798506
_cell_formula_units_Z   2
loop_
 _symmetry_equiv_pos_site_id
 _symmetry_equiv_pos_as_xyz
  1  'x, y, z'
loop_
 _atom_site_type_symbol
 _atom_site_label
 _atom_site_symmetry_multiplicity
 _atom_site_fract_x
 _atom_site_fract_y
 _atom_site_fract_z
 _atom_site_occupancy
  Ho  Ho0  1  0.500000  0.321978  0.413196  1
  Ho  Ho1  1  0.500000  0.678022  0.586804  1
  Tm  Tm2  1  0.500000  0.178320  0.913280  1
  Tm  Tm3  1  0.500000  0.821680  0.086720  1
  Tm  Tm4  1  0.500000  0.444374  0.125136  1
  Tm  Tm5  1  0.500000  0.555626  0.874864  1
  Tm  Tm6  1  0.500000  0.055514  0.625606  1
  Tm  Tm7  1  0.500000  0.944486  0.374394  1
  B  B8  1  0.000000  0.108508  0.470371  1
  B  B9  1  0.000000  0.891492  0.529629  1
  B  B10  1  0.000000  0.390056  0.970018  1
  B  B11  1  0.000000  0.609944  0.029982  1
  B  B12  1  0.000000  0.131996  0.315919  1
  B  B13  1  0.000000  0.868004  0.684081  1
  B  B14  1  0.000000  0.367587  0.816560  1
  B  B15  1  0.000000  0.632413  0.183440  1
  B  B16  1  0.000000  0.053381  0.065615  1
  B  B17  1  0.000000  0.946619  0.934385  1
  B  B18  1  0.000000  0.446342  0.566336  1
  B  B19  1  0.000000  0.553658  0.433664  1
  B  B20  1  0.000000  0.481919  0.286373  1
  B  B21  1  0.000000  0.518081  0.713627  1
  B  B22  1  0.000000  0.018511  0.787111  1
  B  B23  1  0.000000  0.981489  0.212889  1
  B  B24  1  0.000000  0.249903  0.078796  1
  B  B25  1  0.000000  0.750097  0.921204  1
  B  B26  1  0.000000  0.249710  0.579484  1
  B  B27  1  0.000000  0.750290  0.420516  1
  B  B28  1  0.000000  0.293768  0.234415  1
  B  B29  1  0.000000  0.706232  0.765585  1
  B  B30  1  0.000000  0.205791  0.735395  1
  B  B31  1  0.000000  0.794209  0.264605  1
  Ir  Ir32  1  0.500000  0.138203  0.178539  1
  Ir  Ir33  1  0.500000  0.861797  0.821461  1
  Ir  Ir34  1  0.500000  0.360408  0.680021  1
  Ir  Ir35  1  0.500000  0.639592  0.319979  1
