# generated using pymatgen
data_NbVF7
_symmetry_space_group_name_H-M   'P 1'
_cell_length_a   7.79013668
_cell_length_b   7.79013732
_cell_length_c   7.79013701
_cell_angle_alpha   124.10357981
_cell_angle_beta   121.07135777
_cell_angle_gamma   85.59558524
_symmetry_Int_Tables_number   1
_chemical_formula_structural   NbVF7
_chemical_formula_sum   'Nb2 V2 F14'
_cell_volume   319.87303136
_cell_formula_units_Z   2
loop_
 _symmetry_equiv_pos_site_id
 _symmetry_equiv_pos_as_xyz
  1  'x, y, z'
loop_
 _atom_site_type_symbol
 _atom_site_label
 _atom_site_symmetry_multiplicity
 _atom_site_fract_x
 _atom_site_fract_y
 _atom_site_fract_z
 _atom_site_occupancy
  Nb  Nb0  1  0.000000  0.500000  0.500000  1
  Nb  Nb1  1  0.500000  0.000000  0.500000  1
  V  V2  1  0.500000  0.500000  0.500000  1
  V  V3  1  0.000000  0.500000  0.000000  1
  F  F4  1  0.051281  0.799307  0.748027  1
  F  F5  1  0.561280  0.820082  0.618224  1
  F  F6  1  0.201857  0.820082  0.258801  1
  F  F7  1  0.551281  0.803254  0.251973  1
  F  F8  1  0.250000  0.414120  0.164120  1
  F  F9  1  0.061280  0.443056  0.741199  1
  F  F10  1  0.701857  0.443056  0.381776  1
  F  F11  1  0.298143  0.556944  0.618224  1
  F  F12  1  0.938720  0.556944  0.258801  1
  F  F13  1  0.750000  0.585880  0.835880  1
  F  F14  1  0.448719  0.196746  0.748027  1
  F  F15  1  0.798143  0.179918  0.741199  1
  F  F16  1  0.438720  0.179918  0.381776  1
  F  F17  1  0.948719  0.200693  0.251973  1
