# generated using pymatgen
data_NaYb2(SnSb)6
_symmetry_space_group_name_H-M   'P 1'
_cell_length_a   7.60501778
_cell_length_b   7.60501879
_cell_length_c   9.75475003
_cell_angle_alpha   82.48303810
_cell_angle_beta   82.48304563
_cell_angle_gamma   120.04100115
_symmetry_Int_Tables_number   1
_chemical_formula_structural   NaYb2(SnSb)6
_chemical_formula_sum   'Na1 Yb2 Sn6 Sb6'
_cell_volume   471.35684586
_cell_formula_units_Z   1
loop_
 _symmetry_equiv_pos_site_id
 _symmetry_equiv_pos_as_xyz
  1  'x, y, z'
loop_
 _atom_site_type_symbol
 _atom_site_label
 _atom_site_symmetry_multiplicity
 _atom_site_fract_x
 _atom_site_fract_y
 _atom_site_fract_z
 _atom_site_occupancy
  Na  Na0  1  0.000000  0.000000  0.000000  1
  Yb  Yb1  1  0.666628  0.333372  0.000000  1
  Yb  Yb2  1  0.333372  0.666628  0.000000  1
  Sn  Sn3  1  0.538718  0.873513  0.377152  1
  Sn  Sn4  1  0.208876  0.208876  0.378222  1
  Sn  Sn5  1  0.873513  0.538718  0.377152  1
  Sn  Sn6  1  0.461282  0.126487  0.622848  1
  Sn  Sn7  1  0.126487  0.461282  0.622848  1
  Sn  Sn8  1  0.791124  0.791124  0.621778  1
  Sb  Sb9  1  0.405763  0.405763  0.783539  1
  Sb  Sb10  1  0.072039  0.737849  0.783428  1
  Sb  Sb11  1  0.737849  0.072039  0.783428  1
  Sb  Sb12  1  0.594237  0.594237  0.216461  1
  Sb  Sb13  1  0.262151  0.927961  0.216572  1
  Sb  Sb14  1  0.927961  0.262151  0.216572  1
