# generated using pymatgen
data_Mg2Cr2Co10As7
_symmetry_space_group_name_H-M   'P 1'
_cell_length_a   3.64599600
_cell_length_b   9.34451948
_cell_length_c   9.38621542
_cell_angle_alpha   119.80555082
_cell_angle_beta   90.00000000
_cell_angle_gamma   90.00000000
_symmetry_Int_Tables_number   1
_chemical_formula_structural   Mg2Cr2Co10As7
_chemical_formula_sum   'Mg2 Cr2 Co10 As7'
_cell_volume   277.48654928
_cell_formula_units_Z   1
loop_
 _symmetry_equiv_pos_site_id
 _symmetry_equiv_pos_as_xyz
  1  'x, y, z'
loop_
 _atom_site_type_symbol
 _atom_site_label
 _atom_site_symmetry_multiplicity
 _atom_site_fract_x
 _atom_site_fract_y
 _atom_site_fract_z
 _atom_site_occupancy
  Mg  Mg0  1  0.000000  0.673050  0.338779  1
  Mg  Mg1  1  0.500000  0.332010  0.666929  1
  Cr  Cr2  1  0.500000  0.776876  0.897728  1
  Cr  Cr3  1  0.500000  0.124304  0.223998  1
  Co  Co4  1  0.000000  0.565440  0.939121  1
  Co  Co5  1  0.000000  0.371762  0.432853  1
  Co  Co6  1  0.000000  0.061465  0.627608  1
  Co  Co7  1  0.500000  0.094529  0.877666  1
  Co  Co8  1  0.000000  0.880543  0.155834  1
  Co  Co9  1  0.000000  0.282254  0.122277  1
  Co  Co10  1  0.000000  0.840022  0.720845  1
  Co  Co11  1  0.500000  0.942471  0.381432  1
  Co  Co12  1  0.500000  0.434745  0.050464  1
  Co  Co13  1  0.500000  0.616781  0.562253  1
  As  As14  1  0.000000  0.002645  0.997518  1
  As  As15  1  0.500000  0.707166  0.121972  1
  As  As16  1  0.500000  0.418196  0.292004  1
  As  As17  1  0.500000  0.882968  0.591773  1
  As  As18  1  0.000000  0.581777  0.702679  1
  As  As19  1  0.000000  0.118927  0.417057  1
  As  As20  1  0.000000  0.292066  0.879209  1
