# generated using pymatgen
data_Ho12Rh7
_symmetry_space_group_name_H-M   'P 1'
_cell_length_a   11.25203800
_cell_length_b   8.26320577
_cell_length_c   11.37439435
_cell_angle_alpha   57.23863126
_cell_angle_beta   90.00000000
_cell_angle_gamma   90.00000000
_symmetry_Int_Tables_number   1
_chemical_formula_structural   Ho12Rh7
_chemical_formula_sum   'Ho24 Rh14'
_cell_volume   889.34187132
_cell_formula_units_Z   2
loop_
 _symmetry_equiv_pos_site_id
 _symmetry_equiv_pos_as_xyz
  1  'x, y, z'
loop_
 _atom_site_type_symbol
 _atom_site_label
 _atom_site_symmetry_multiplicity
 _atom_site_fract_x
 _atom_site_fract_y
 _atom_site_fract_z
 _atom_site_occupancy
  Ho  Ho0  1  0.701611  0.240059  0.527343  1
  Ho  Ho1  1  0.201611  0.759941  0.972657  1
  Ho  Ho2  1  0.845944  0.508017  0.658144  1
  Ho  Ho3  1  0.345944  0.491983  0.841856  1
  Ho  Ho4  1  0.154056  0.491983  0.341856  1
  Ho  Ho5  1  0.654056  0.508017  0.158144  1
  Ho  Ho6  1  0.005681  0.844848  0.365990  1
  Ho  Ho7  1  0.505681  0.155152  0.134010  1
  Ho  Ho8  1  0.994319  0.155152  0.634010  1
  Ho  Ho9  1  0.494319  0.844848  0.865990  1
  Ho  Ho10  1  0.798389  0.240059  0.027343  1
  Ho  Ho11  1  0.298389  0.759941  0.472657  1
  Ho  Ho12  1  0.925460  0.777508  0.094607  1
  Ho  Ho13  1  0.425460  0.222492  0.405393  1
  Ho  Ho14  1  0.074540  0.222492  0.905393  1
  Ho  Ho15  1  0.574540  0.777508  0.594607  1
  Ho  Ho16  1  0.305560  0.242371  0.670337  1
  Ho  Ho17  1  0.805560  0.757629  0.829663  1
  Ho  Ho18  1  0.694440  0.757629  0.329663  1
  Ho  Ho19  1  0.194440  0.242371  0.170337  1
  Ho  Ho20  1  0.918123  0.274771  0.291138  1
  Ho  Ho21  1  0.418123  0.725229  0.208862  1
  Ho  Ho22  1  0.081877  0.725229  0.708862  1
  Ho  Ho23  1  0.581877  0.274771  0.791138  1
  Rh  Rh24  1  0.500000  0.500000  0.500000  1
  Rh  Rh25  1  0.000000  0.500000  0.000000  1
  Rh  Rh26  1  0.641307  0.916784  0.052686  1
  Rh  Rh27  1  0.141307  0.083216  0.447314  1
  Rh  Rh28  1  0.358693  0.083216  0.947314  1
  Rh  Rh29  1  0.858693  0.916784  0.552686  1
  Rh  Rh30  1  0.395311  0.488905  0.102620  1
  Rh  Rh31  1  0.895311  0.511095  0.397380  1
  Rh  Rh32  1  0.604689  0.511095  0.897380  1
  Rh  Rh33  1  0.104689  0.488905  0.602620  1
  Rh  Rh34  1  0.829484  0.110926  0.842029  1
  Rh  Rh35  1  0.329484  0.889074  0.657971  1
  Rh  Rh36  1  0.170516  0.889074  0.157971  1
  Rh  Rh37  1  0.670516  0.110926  0.342029  1
