# generated using pymatgen
data_Nd2(CN2)3
_symmetry_space_group_name_H-M   'P 1'
_cell_length_a   7.73223843
_cell_length_b   7.73223803
_cell_length_c   5.34963721
_cell_angle_alpha   83.65149415
_cell_angle_beta   83.65149344
_cell_angle_gamma   29.96203395
_symmetry_Int_Tables_number   1
_chemical_formula_structural   Nd2(CN2)3
_chemical_formula_sum   'Nd2 C3 N6'
_cell_volume   158.68722949
_cell_formula_units_Z   1
loop_
 _symmetry_equiv_pos_site_id
 _symmetry_equiv_pos_as_xyz
  1  'x, y, z'
loop_
 _atom_site_type_symbol
 _atom_site_label
 _atom_site_symmetry_multiplicity
 _atom_site_fract_x
 _atom_site_fract_y
 _atom_site_fract_z
 _atom_site_occupancy
  Nd  Nd0  1  0.865388  0.865388  0.572157  1
  Nd  Nd1  1  0.134612  0.134612  0.427843  1
  C  C2  1  0.327807  0.327807  0.093833  1
  C  C3  1  0.672193  0.672193  0.906167  1
  C  C4  1  0.000000  0.000000  0.000000  1
  N  N5  1  0.689359  0.689359  0.672050  1
  N  N6  1  0.310641  0.310641  0.327950  1
  N  N7  1  0.657939  0.657939  0.135483  1
  N  N8  1  0.342061  0.342061  0.864517  1
  N  N9  1  0.989424  0.989424  0.231905  1
  N  N10  1  0.010576  0.010576  0.768095  1
