# generated using pymatgen
data_Dy5ErSi24Os5Ru3
_symmetry_space_group_name_H-M   'P 1'
_cell_length_a   10.12220219
_cell_length_b   10.12220181
_cell_length_c   8.15204000
_cell_angle_alpha   90.00107654
_cell_angle_beta   90.00107013
_cell_angle_gamma   132.50649665
_symmetry_Int_Tables_number   1
_chemical_formula_structural   Dy5ErSi24Os5Ru3
_chemical_formula_sum   'Dy5 Er1 Si24 Os5 Ru3'
_cell_volume   615.74664913
_cell_formula_units_Z   1
loop_
 _symmetry_equiv_pos_site_id
 _symmetry_equiv_pos_as_xyz
  1  'x, y, z'
loop_
 _atom_site_type_symbol
 _atom_site_label
 _atom_site_symmetry_multiplicity
 _atom_site_fract_x
 _atom_site_fract_y
 _atom_site_fract_z
 _atom_site_occupancy
  Dy  Dy0  1  0.999987  0.999987  0.999414  1
  Dy  Dy1  1  0.501504  0.001440  0.749489  1
  Dy  Dy2  1  0.998360  0.498579  0.250492  1
  Dy  Dy3  1  0.498579  0.998360  0.250492  1
  Dy  Dy4  1  0.001440  0.501504  0.749489  1
  Er  Er5  1  0.499522  0.499522  0.500035  1
  Si  Si6  1  0.795804  0.204419  0.500178  1
  Si  Si7  1  0.296100  0.703867  0.000207  1
  Si  Si8  1  0.204419  0.795804  0.500178  1
  Si  Si9  1  0.703867  0.296100  0.000207  1
  Si  Si10  1  0.333259  0.333259  0.833339  1
  Si  Si11  1  0.667234  0.667234  0.167095  1
  Si  Si12  1  0.166375  0.166375  0.331424  1
  Si  Si13  1  0.830989  0.830989  0.665817  1
  Si  Si14  1  0.120664  0.886346  0.728013  1
  Si  Si15  1  0.114109  0.880501  0.272175  1
  Si  Si16  1  0.611225  0.378408  0.228500  1
  Si  Si17  1  0.622308  0.388882  0.771742  1
  Si  Si18  1  0.880501  0.114109  0.272175  1
  Si  Si19  1  0.886346  0.120664  0.728013  1
  Si  Si20  1  0.388882  0.622308  0.771742  1
  Si  Si21  1  0.378408  0.611225  0.228500  1
  Si  Si22  1  0.345192  0.111662  0.503835  1
  Si  Si23  1  0.888137  0.655286  0.496745  1
  Si  Si24  1  0.388201  0.155033  0.005681  1
  Si  Si25  1  0.844896  0.612347  0.994808  1
  Si  Si26  1  0.655286  0.888137  0.496745  1
  Si  Si27  1  0.111662  0.345192  0.503835  1
  Si  Si28  1  0.612347  0.844896  0.994808  1
  Si  Si29  1  0.155033  0.388201  0.005681  1
  Os  Os30  1  0.669368  0.330660  0.499897  1
  Os  Os31  1  0.170027  0.829784  0.000053  1
  Os  Os32  1  0.330660  0.669368  0.499897  1
  Os  Os33  1  0.829784  0.170027  0.000053  1
  Os  Os34  1  0.126782  0.126782  0.626529  1
  Ru  Ru35  1  0.873042  0.873042  0.373043  1
  Ru  Ru36  1  0.372582  0.372582  0.128306  1
  Ru  Ru37  1  0.627119  0.627119  0.871364  1
