# generated using pymatgen
data_CsI19
_symmetry_space_group_name_H-M   'P 1'
_cell_length_a   10.36391922
_cell_length_b   12.15665477
_cell_length_c   10.52736274
_cell_angle_alpha   69.14868857
_cell_angle_beta   82.34804710
_cell_angle_gamma   89.28683418
_symmetry_Int_Tables_number   1
_chemical_formula_structural   CsI19
_chemical_formula_sum   'Cs1 I19'
_cell_volume   1227.57022584
_cell_formula_units_Z   1
loop_
 _symmetry_equiv_pos_site_id
 _symmetry_equiv_pos_as_xyz
  1  'x, y, z'
loop_
 _atom_site_type_symbol
 _atom_site_label
 _atom_site_symmetry_multiplicity
 _atom_site_fract_x
 _atom_site_fract_y
 _atom_site_fract_z
 _atom_site_occupancy
  Cs  Cs0  1  0.855635  0.663075  0.251747  1
  I  I1  1  0.355678  0.504587  0.556468  1
  I  I2  1  0.886056  0.469467  0.028978  1
  I  I3  1  0.609256  0.412694  0.542856  1
  I  I4  1  0.133527  0.566080  0.025082  1
  I  I5  1  0.070008  0.632379  0.553106  1
  I  I6  1  0.574872  0.338810  0.041423  1
  I  I7  1  0.899269  0.300755  0.512465  1
  I  I8  1  0.405755  0.683563  0.032350  1
  I  I9  1  0.165011  0.858816  0.549513  1
  I  I10  1  0.709675  0.132699  0.975091  1
  I  I11  1  0.812873  0.144463  0.398894  1
  I  I12  1  0.287831  0.896309  0.041676  1
  I  I13  1  0.255116  0.081538  0.568758  1
  I  I14  1  0.829255  0.948364  0.901409  1
  I  I15  1  0.689018  0.963129  0.292035  1
  I  I16  1  0.149858  0.110653  0.060747  1
  I  I17  1  0.658376  0.781026  0.547209  1
  I  I18  1  0.244657  0.299484  0.813577  1
  I  I19  1  0.408277  0.212110  0.306616  1
