# generated using pymatgen
data_Dy16CdHg3Ir3Pt
_symmetry_space_group_name_H-M   'P 1'
_cell_length_a   9.61386602
_cell_length_b   9.61633944
_cell_length_c   9.61634087
_cell_angle_alpha   60.16605396
_cell_angle_beta   60.15428814
_cell_angle_gamma   60.15429161
_symmetry_Int_Tables_number   1
_chemical_formula_structural   Dy16CdHg3Ir3Pt
_chemical_formula_sum   'Dy16 Cd1 Hg3 Ir3 Pt1'
_cell_volume   630.89368471
_cell_formula_units_Z   1
loop_
 _symmetry_equiv_pos_site_id
 _symmetry_equiv_pos_as_xyz
  1  'x, y, z'
loop_
 _atom_site_type_symbol
 _atom_site_label
 _atom_site_symmetry_multiplicity
 _atom_site_fract_x
 _atom_site_fract_y
 _atom_site_fract_z
 _atom_site_occupancy
  Dy  Dy0  1  0.599110  0.598688  0.598688  1
  Dy  Dy1  1  0.603803  0.603145  0.196043  1
  Dy  Dy2  1  0.603803  0.196043  0.603145  1
  Dy  Dy3  1  0.193269  0.604229  0.604229  1
  Dy  Dy4  1  0.055009  0.441518  0.441518  1
  Dy  Dy5  1  0.437111  0.060372  0.060372  1
  Dy  Dy6  1  0.440203  0.056003  0.441001  1
  Dy  Dy7  1  0.059391  0.438442  0.059626  1
  Dy  Dy8  1  0.440203  0.441001  0.056003  1
  Dy  Dy9  1  0.059391  0.059626  0.438442  1
  Dy  Dy10  1  0.188216  0.812494  0.812494  1
  Dy  Dy11  1  0.812716  0.187808  0.187808  1
  Dy  Dy12  1  0.811761  0.189159  0.812584  1
  Dy  Dy13  1  0.186881  0.813292  0.188249  1
  Dy  Dy14  1  0.811761  0.812584  0.189159  1
  Dy  Dy15  1  0.186881  0.188249  0.813292  1
  Cd  Cd16  1  0.508563  0.830281  0.830281  1
  Hg  Hg17  1  0.833614  0.835622  0.835622  1
  Hg  Hg18  1  0.834141  0.836205  0.493524  1
  Hg  Hg19  1  0.834141  0.493524  0.836205  1
  Ir  Ir20  1  0.391874  0.392555  0.823735  1
  Ir  Ir21  1  0.391874  0.823735  0.392555  1
  Ir  Ir22  1  0.823837  0.392323  0.392323  1
  Pt  Pt23  1  0.392448  0.393105  0.393105  1
