# generated using pymatgen
data_Y10(InSb)3
_symmetry_space_group_name_H-M   'P 1'
_cell_length_a   6.54509706
_cell_length_b   8.99216115
_cell_length_c   8.99216730
_cell_angle_alpha   60.00018281
_cell_angle_beta   89.99808859
_cell_angle_gamma   90.00170105
_symmetry_Int_Tables_number   1
_chemical_formula_structural   Y10(InSb)3
_chemical_formula_sum   'Y10 In3 Sb3'
_cell_volume   458.32756972
_cell_formula_units_Z   1
loop_
 _symmetry_equiv_pos_site_id
 _symmetry_equiv_pos_as_xyz
  1  'x, y, z'
loop_
 _atom_site_type_symbol
 _atom_site_label
 _atom_site_symmetry_multiplicity
 _atom_site_fract_x
 _atom_site_fract_y
 _atom_site_fract_z
 _atom_site_occupancy
  Y  Y0  1  0.502837  0.333267  0.333316  1
  Y  Y1  1  0.502837  0.666684  0.666732  1
  Y  Y2  1  0.997170  0.666667  0.666664  1
  Y  Y3  1  0.997170  0.333338  0.333332  1
  Y  Y4  1  0.749985  0.239442  0.760556  1
  Y  Y5  1  0.750028  0.760534  0.999999  1
  Y  Y6  1  0.750028  0.000003  0.239465  1
  Y  Y7  1  0.250056  0.761431  0.238568  1
  Y  Y8  1  0.250006  0.238601  0.999999  1
  Y  Y9  1  0.250006  0.000005  0.761396  1
  In  In10  1  0.749873  0.605796  0.394202  1
  In  In11  1  0.750036  0.394212  0.999980  1
  In  In12  1  0.750035  0.000023  0.605787  1
  Sb  Sb13  1  0.250107  0.394541  0.605460  1
  Sb  Sb14  1  0.249920  0.605467  0.000016  1
  Sb  Sb15  1  0.249904  0.999989  0.394528  1
