# generated using pymatgen
data_Ti8Ga15Fe5Rh2
_symmetry_space_group_name_H-M   'P 1'
_cell_length_a   8.50057919
_cell_length_b   8.50057968
_cell_length_c   8.50057924
_cell_angle_alpha   120.25711621
_cell_angle_beta   119.80226219
_cell_angle_gamma   89.94903422
_symmetry_Int_Tables_number   1
_chemical_formula_structural   Ti8Ga15Fe5Rh2
_chemical_formula_sum   'Ti8 Ga15 Fe5 Rh2'
_cell_volume   434.13710589
_cell_formula_units_Z   1
loop_
 _symmetry_equiv_pos_site_id
 _symmetry_equiv_pos_as_xyz
  1  'x, y, z'
loop_
 _atom_site_type_symbol
 _atom_site_label
 _atom_site_symmetry_multiplicity
 _atom_site_fract_x
 _atom_site_fract_y
 _atom_site_fract_z
 _atom_site_occupancy
  Ti  Ti0  1  0.788292  0.284235  0.062768  1
  Ti  Ti1  1  0.221466  0.284235  0.495943  1
  Ti  Ti2  1  0.210864  0.710864  0.500000  1
  Ti  Ti3  1  0.221466  0.725524  0.937232  1
  Ti  Ti4  1  0.788292  0.725524  0.504057  1
  Ti  Ti5  1  0.772993  0.272993  0.500000  1
  Ti  Ti6  1  0.376725  0.127576  0.750852  1
  Ti  Ti7  1  0.376725  0.625874  0.249148  1
  Ga  Ga8  1  0.992813  0.492813  0.500000  1
  Ga  Ga9  1  0.157077  0.355749  0.198671  1
  Ga  Ga10  1  0.157077  0.958407  0.801329  1
  Ga  Ga11  1  0.153220  0.350007  0.803213  1
  Ga  Ga12  1  0.546793  0.350007  0.196787  1
  Ga  Ga13  1  0.845382  0.642501  0.797121  1
  Ga  Ga14  1  0.845382  0.048261  0.202879  1
  Ga  Ga15  1  0.847042  0.651858  0.195186  1
  Ga  Ga16  1  0.456672  0.651858  0.804814  1
  Ga  Ga17  1  0.378899  0.128234  0.250665  1
  Ga  Ga18  1  0.877570  0.128234  0.749335  1
  Ga  Ga19  1  0.620997  0.864042  0.243045  1
  Ga  Ga20  1  0.620997  0.377952  0.756955  1
  Ga  Ga21  1  0.609420  0.871540  0.737879  1
  Ga  Ga22  1  0.133660  0.871540  0.262121  1
  Fe  Fe23  1  0.002810  0.000749  0.503388  1
  Fe  Fe24  1  0.497362  0.000749  0.997940  1
  Fe  Fe25  1  0.495769  0.495769  0.000000  1
  Fe  Fe26  1  0.497362  0.499423  0.496612  1
  Fe  Fe27  1  0.002810  0.499423  0.002060  1
  Rh  Rh28  1  0.998325  0.998325  0.000000  1
  Rh  Rh29  1  0.505734  0.005734  0.500000  1
