# generated using pymatgen
data_ErHf(Al3Co)3
_symmetry_space_group_name_H-M   'P 1'
_cell_length_a   7.30887833
_cell_length_b   7.29835454
_cell_length_c   9.13765800
_cell_angle_alpha   90.00000000
_cell_angle_beta   90.00000000
_cell_angle_gamma   119.45143206
_symmetry_Int_Tables_number   1
_chemical_formula_structural   ErHf(Al3Co)3
_chemical_formula_sum   'Er2 Hf2 Al18 Co6'
_cell_volume   424.43915497
_cell_formula_units_Z   2
loop_
 _symmetry_equiv_pos_site_id
 _symmetry_equiv_pos_as_xyz
  1  'x, y, z'
loop_
 _atom_site_type_symbol
 _atom_site_label
 _atom_site_symmetry_multiplicity
 _atom_site_fract_x
 _atom_site_fract_y
 _atom_site_fract_z
 _atom_site_occupancy
  Er  Er0  1  0.671713  0.992814  0.750000  1
  Er  Er1  1  0.328287  0.007186  0.250000  1
  Hf  Hf2  1  0.994806  0.672666  0.750000  1
  Hf  Hf3  1  0.005194  0.327334  0.250000  1
  Al  Al4  1  0.122655  0.119731  0.750000  1
  Al  Al5  1  0.877345  0.880269  0.250000  1
  Al  Al6  1  0.996489  0.336849  0.571721  1
  Al  Al7  1  0.003511  0.663151  0.428279  1
  Al  Al8  1  0.003511  0.663151  0.071721  1
  Al  Al9  1  0.332857  0.995361  0.925775  1
  Al  Al10  1  0.996489  0.336849  0.928279  1
  Al  Al11  1  0.667143  0.004639  0.074225  1
  Al  Al12  1  0.667143  0.004639  0.425775  1
  Al  Al13  1  0.332857  0.995361  0.574225  1
  Al  Al14  1  0.329622  0.332030  0.046564  1
  Al  Al15  1  0.670378  0.667970  0.953436  1
  Al  Al16  1  0.670378  0.667970  0.546564  1
  Al  Al17  1  0.329622  0.332030  0.453436  1
  Al  Al18  1  0.333557  0.553820  0.750000  1
  Al  Al19  1  0.666443  0.446180  0.250000  1
  Al  Al20  1  0.561130  0.345082  0.750000  1
  Al  Al21  1  0.438870  0.654918  0.250000  1
  Co  Co22  1  0.673067  0.329029  0.499480  1
  Co  Co23  1  0.326933  0.670971  0.500520  1
  Co  Co24  1  0.326933  0.670971  0.999480  1
  Co  Co25  1  0.673067  0.329029  0.000520  1
  Co  Co26  1  0.000000  0.000000  0.500000  1
  Co  Co27  1  0.000000  0.000000  0.000000  1
