# generated using pymatgen
data_Rb2Pr(ClO4)5
_symmetry_space_group_name_H-M   'P 1'
_cell_length_a   8.29751786
_cell_length_b   10.69245898
_cell_length_c   11.83006800
_cell_angle_alpha   94.93381375
_cell_angle_beta   109.96377509
_cell_angle_gamma   105.18313018
_symmetry_Int_Tables_number   1
_chemical_formula_structural   Rb2Pr(ClO4)5
_chemical_formula_sum   'Rb4 Pr2 Cl10 O40'
_cell_volume   934.09478336
_cell_formula_units_Z   2
loop_
 _symmetry_equiv_pos_site_id
 _symmetry_equiv_pos_as_xyz
  1  'x, y, z'
loop_
 _atom_site_type_symbol
 _atom_site_label
 _atom_site_symmetry_multiplicity
 _atom_site_fract_x
 _atom_site_fract_y
 _atom_site_fract_z
 _atom_site_occupancy
  Rb  Rb0  1  0.094443  0.470749  0.241353  1
  Rb  Rb1  1  0.436422  0.118757  0.208714  1
  Rb  Rb2  1  0.905557  0.529251  0.758647  1
  Rb  Rb3  1  0.563578  0.881243  0.791286  1
  Pr  Pr4  1  0.738327  0.797155  0.277976  1
  Pr  Pr5  1  0.261673  0.202845  0.722024  1
  Cl  Cl6  1  0.710689  0.471973  0.368981  1
  Cl  Cl7  1  0.457001  0.791502  0.414765  1
  Cl  Cl8  1  0.011787  0.099659  0.359677  1
  Cl  Cl9  1  0.988213  0.900341  0.640323  1
  Cl  Cl10  1  0.370231  0.699142  0.042384  1
  Cl  Cl11  1  0.629769  0.300858  0.957616  1
  Cl  Cl12  1  0.289311  0.528027  0.631019  1
  Cl  Cl13  1  0.090386  0.194153  0.932517  1
  Cl  Cl14  1  0.909614  0.805847  0.067483  1
  Cl  Cl15  1  0.542999  0.208498  0.585235  1
  O  O16  1  0.441673  0.087897  0.614564  1
  O  O17  1  0.733503  0.227217  0.631981  1
  O  O18  1  0.913978  0.106829  0.910496  1
  O  O19  1  0.918223  0.718280  0.159264  1
  O  O20  1  0.929729  0.813235  0.714002  1
  O  O21  1  0.201080  0.627506  0.048755  1
  O  O22  1  0.190575  0.620318  0.638038  1
  O  O23  1  0.505051  0.629069  0.087636  1
  O  O24  1  0.521842  0.414718  0.290525  1
  O  O25  1  0.266733  0.483669  0.506348  1
  O  O26  1  0.266497  0.772783  0.368019  1
  O  O27  1  0.826361  0.728205  0.944731  1
  O  O28  1  0.450551  0.830201  0.128109  1
  O  O29  1  0.208738  0.117215  0.913094  1
  O  O30  1  0.089665  0.165917  0.488050  1
  O  O31  1  0.187423  0.943822  0.681395  1
  O  O32  1  0.654886  0.282108  0.080993  1
  O  O33  1  0.209203  0.409811  0.679006  1
  O  O34  1  0.733267  0.516331  0.493652  1
  O  O35  1  0.812577  0.056178  0.318605  1
  O  O36  1  0.938788  0.022294  0.651932  1
  O  O37  1  0.507789  0.319309  0.650418  1
  O  O38  1  0.345114  0.717892  0.919007  1
  O  O39  1  0.790797  0.590189  0.320994  1
  O  O40  1  0.061212  0.977706  0.348068  1
  O  O41  1  0.492211  0.680691  0.349582  1
  O  O42  1  0.081777  0.281720  0.840736  1
  O  O43  1  0.086022  0.893171  0.089504  1
  O  O44  1  0.494949  0.370931  0.912364  1
  O  O45  1  0.070271  0.186765  0.285998  1
  O  O46  1  0.798920  0.372494  0.951245  1
  O  O47  1  0.910335  0.834083  0.511950  1
  O  O48  1  0.528596  0.795813  0.544668  1
  O  O49  1  0.791262  0.882785  0.086906  1
  O  O50  1  0.173639  0.271795  0.055269  1
  O  O51  1  0.809425  0.379682  0.361962  1
  O  O52  1  0.478158  0.585282  0.709475  1
  O  O53  1  0.471404  0.204187  0.455332  1
  O  O54  1  0.549449  0.169799  0.871891  1
  O  O55  1  0.558327  0.912103  0.385436  1
