# generated using pymatgen
data_Hf7Zr3Zn2(SnBi)3
_symmetry_space_group_name_H-M   'P 1'
_cell_length_a   8.73025800
_cell_length_b   8.73025695
_cell_length_c   5.86718500
_cell_angle_alpha   90.00000000
_cell_angle_beta   90.00000000
_cell_angle_gamma   120.00000397
_symmetry_Int_Tables_number   1
_chemical_formula_structural   Hf7Zr3Zn2(SnBi)3
_chemical_formula_sum   'Hf7 Zr3 Zn2 Sn3 Bi3'
_cell_volume   387.27057576
_cell_formula_units_Z   1
loop_
 _symmetry_equiv_pos_site_id
 _symmetry_equiv_pos_as_xyz
  1  'x, y, z'
loop_
 _atom_site_type_symbol
 _atom_site_label
 _atom_site_symmetry_multiplicity
 _atom_site_fract_x
 _atom_site_fract_y
 _atom_site_fract_z
 _atom_site_occupancy
  Hf  Hf0  1  0.666667  0.333333  0.005564  1
  Hf  Hf1  1  0.333333  0.666667  0.005564  1
  Hf  Hf2  1  0.333333  0.666667  0.494436  1
  Hf  Hf3  1  0.666667  0.333333  0.494436  1
  Hf  Hf4  1  0.270496  0.270496  0.250000  1
  Hf  Hf5  1  0.729504  0.000000  0.250000  1
  Hf  Hf6  1  0.000000  0.729504  0.250000  1
  Zr  Zr7  1  0.735955  0.735955  0.750000  1
  Zr  Zr8  1  0.264045  0.000000  0.750000  1
  Zr  Zr9  1  0.000000  0.264045  0.750000  1
  Zn  Zn10  1  0.000000  0.000000  0.009285  1
  Zn  Zn11  1  0.000000  0.000000  0.490715  1
  Sn  Sn12  1  0.617051  0.617051  0.250000  1
  Sn  Sn13  1  0.382949  0.000000  0.250000  1
  Sn  Sn14  1  0.000000  0.382949  0.250000  1
  Bi  Bi15  1  0.388082  0.388082  0.750000  1
  Bi  Bi16  1  0.611918  0.000000  0.750000  1
  Bi  Bi17  1  0.000000  0.611918  0.750000  1
