# generated using pymatgen
data_Sr5Pt6
_symmetry_space_group_name_H-M   'P 1'
_cell_length_a   14.62147301
_cell_length_b   14.62147195
_cell_length_c   4.45389200
_cell_angle_alpha   90.00000000
_cell_angle_beta   90.00000000
_cell_angle_gamma   161.87041008
_symmetry_Int_Tables_number   1
_chemical_formula_structural   Sr5Pt6
_chemical_formula_sum   'Sr5 Pt6'
_cell_volume   296.28919882
_cell_formula_units_Z   1
loop_
 _symmetry_equiv_pos_site_id
 _symmetry_equiv_pos_as_xyz
  1  'x, y, z'
loop_
 _atom_site_type_symbol
 _atom_site_label
 _atom_site_symmetry_multiplicity
 _atom_site_fract_x
 _atom_site_fract_y
 _atom_site_fract_z
 _atom_site_occupancy
  Sr  Sr0  1  0.000000  0.000000  0.000000  1
  Sr  Sr1  1  0.617550  0.382448  0.000000  1
  Sr  Sr2  1  0.382448  0.617550  0.000000  1
  Sr  Sr3  1  0.803499  0.196499  0.500001  1
  Sr  Sr4  1  0.196499  0.803499  0.500001  1
  Pt  Pt5  1  0.726645  0.273353  0.000000  1
  Pt  Pt6  1  0.273353  0.726645  0.000000  1
  Pt  Pt7  1  0.914847  0.085152  0.500001  1
  Pt  Pt8  1  0.544558  0.455440  0.500001  1
  Pt  Pt9  1  0.455440  0.544558  0.500001  1
  Pt  Pt10  1  0.085152  0.914847  0.500001  1
