# generated using pymatgen
data_Y2Ho2Ga4Pd3Ru
_symmetry_space_group_name_H-M   'P 1'
_cell_length_a   4.46407100
_cell_length_b   6.91517615
_cell_length_c   7.63448901
_cell_angle_alpha   90.67903119
_cell_angle_beta   90.00000000
_cell_angle_gamma   90.00000000
_symmetry_Int_Tables_number   1
_chemical_formula_structural   Y2Ho2Ga4Pd3Ru
_chemical_formula_sum   'Y2 Ho2 Ga4 Pd3 Ru1'
_cell_volume   235.65888322
_cell_formula_units_Z   1
loop_
 _symmetry_equiv_pos_site_id
 _symmetry_equiv_pos_as_xyz
  1  'x, y, z'
loop_
 _atom_site_type_symbol
 _atom_site_label
 _atom_site_symmetry_multiplicity
 _atom_site_fract_x
 _atom_site_fract_y
 _atom_site_fract_z
 _atom_site_occupancy
  Y  Y0  1  0.250000  0.018250  0.803233  1
  Y  Y1  1  0.750000  0.983548  0.202869  1
  Ho  Ho2  1  0.250000  0.521009  0.691173  1
  Ho  Ho3  1  0.750000  0.489968  0.302646  1
  Ga  Ga4  1  0.250000  0.170719  0.423366  1
  Ga  Ga5  1  0.250000  0.679250  0.079497  1
  Ga  Ga6  1  0.750000  0.820042  0.575352  1
  Ga  Ga7  1  0.750000  0.323342  0.923034  1
  Pd  Pd8  1  0.250000  0.290244  0.098141  1
  Pd  Pd9  1  0.750000  0.216820  0.593347  1
  Pd  Pd10  1  0.750000  0.711782  0.902135  1
  Ru  Ru11  1  0.250000  0.775026  0.405206  1
