# generated using pymatgen
data_Ho5Tm(Co3P2)6
_symmetry_space_group_name_H-M   'P 1'
_cell_length_a   3.69611600
_cell_length_b   10.52033438
_cell_length_c   12.17587255
_cell_angle_alpha   89.99957232
_cell_angle_beta   90.00000000
_cell_angle_gamma   90.00000000
_symmetry_Int_Tables_number   1
_chemical_formula_structural   Ho5Tm(Co3P2)6
_chemical_formula_sum   'Ho5 Tm1 Co18 P12'
_cell_volume   473.45120913
_cell_formula_units_Z   1
loop_
 _symmetry_equiv_pos_site_id
 _symmetry_equiv_pos_as_xyz
  1  'x, y, z'
loop_
 _atom_site_type_symbol
 _atom_site_label
 _atom_site_symmetry_multiplicity
 _atom_site_fract_x
 _atom_site_fract_y
 _atom_site_fract_z
 _atom_site_occupancy
  Ho  Ho0  1  0.750000  0.249993  0.477833  1
  Ho  Ho1  1  0.250000  0.749993  0.521872  1
  Ho  Ho2  1  0.250000  0.932443  0.794261  1
  Ho  Ho3  1  0.250000  0.567613  0.794052  1
  Ho  Ho4  1  0.750000  0.067912  0.205960  1
  Tm  Tm5  1  0.750000  0.432243  0.205923  1
  Co  Co6  1  0.250000  0.250169  0.840994  1
  Co  Co7  1  0.750000  0.749881  0.159015  1
  Co  Co8  1  0.250000  0.250633  0.296445  1
  Co  Co9  1  0.750000  0.749849  0.703379  1
  Co  Co10  1  0.750000  0.250421  0.014227  1
  Co  Co11  1  0.250000  0.749659  0.986599  1
  Co  Co12  1  0.250000  0.416710  0.005769  1
  Co  Co13  1  0.250000  0.083660  0.005531  1
  Co  Co14  1  0.750000  0.582977  0.995079  1
  Co  Co15  1  0.750000  0.916726  0.994799  1
  Co  Co16  1  0.250000  0.452532  0.568931  1
  Co  Co17  1  0.250000  0.047508  0.569412  1
  Co  Co18  1  0.750000  0.547349  0.429982  1
  Co  Co19  1  0.750000  0.952573  0.430574  1
  Co  Co20  1  0.250000  0.870817  0.290367  1
  Co  Co21  1  0.250000  0.628447  0.289877  1
  Co  Co22  1  0.750000  0.129069  0.709717  1
  Co  Co23  1  0.750000  0.370900  0.709448  1
  P  P24  1  0.250000  0.250679  0.117820  1
  P  P25  1  0.750000  0.749811  0.882908  1
  P  P26  1  0.250000  0.249930  0.655882  1
  P  P27  1  0.750000  0.750032  0.343926  1
  P  P28  1  0.250000  0.439157  0.383125  1
  P  P29  1  0.250000  0.060956  0.383935  1
  P  P30  1  0.750000  0.560665  0.615670  1
  P  P31  1  0.750000  0.939175  0.616042  1
  P  P32  1  0.250000  0.902867  0.107073  1
  P  P33  1  0.250000  0.596496  0.107420  1
  P  P34  1  0.750000  0.097497  0.893201  1
  P  P35  1  0.750000  0.402664  0.892953  1
