# generated using pymatgen
data_K4Ti7VSe16
_symmetry_space_group_name_H-M   'P 1'
_cell_length_a   6.24877534
_cell_length_b   7.23099266
_cell_length_c   16.38368063
_cell_angle_alpha   89.96859474
_cell_angle_beta   90.00325928
_cell_angle_gamma   90.03781837
_symmetry_Int_Tables_number   1
_chemical_formula_structural   K4Ti7VSe16
_chemical_formula_sum   'K4 Ti7 V1 Se16'
_cell_volume   740.29385593
_cell_formula_units_Z   1
loop_
 _symmetry_equiv_pos_site_id
 _symmetry_equiv_pos_as_xyz
  1  'x, y, z'
loop_
 _atom_site_type_symbol
 _atom_site_label
 _atom_site_symmetry_multiplicity
 _atom_site_fract_x
 _atom_site_fract_y
 _atom_site_fract_z
 _atom_site_occupancy
  K  K0  1  0.347050  0.999738  0.000767  1
  K  K1  1  0.652950  0.500262  0.499233  1
  K  K2  1  0.028319  0.999996  0.498979  1
  K  K3  1  0.971681  0.500004  0.001021  1
  Ti  Ti4  1  0.001039  0.006849  0.249543  1
  Ti  Ti5  1  0.001210  0.000040  0.750391  1
  Ti  Ti6  1  0.998961  0.493151  0.250457  1
  Ti  Ti7  1  0.998790  0.499960  0.749609  1
  Ti  Ti8  1  0.500000  0.750000  0.750000  1
  Ti  Ti9  1  0.500000  0.750000  0.250000  1
  Ti  Ti10  1  0.500000  0.250000  0.750000  1
  V  V11  1  0.500000  0.250000  0.250000  1
  Se  Se12  1  0.831839  0.248924  0.344219  1
  Se  Se13  1  0.833659  0.750754  0.656079  1
  Se  Se14  1  0.166570  0.749539  0.157743  1
  Se  Se15  1  0.166359  0.250688  0.843929  1
  Se  Se16  1  0.168161  0.251076  0.155781  1
  Se  Se17  1  0.166341  0.749246  0.843921  1
  Se  Se18  1  0.833430  0.750461  0.342257  1
  Se  Se19  1  0.833641  0.249312  0.656071  1
  Se  Se20  1  0.670148  0.000514  0.157499  1
  Se  Se21  1  0.670740  0.999956  0.843453  1
  Se  Se22  1  0.329852  0.499486  0.342501  1
  Se  Se23  1  0.329260  0.500044  0.656547  1
  Se  Se24  1  0.338012  0.000748  0.341620  1
  Se  Se25  1  0.337265  0.000023  0.657212  1
  Se  Se26  1  0.661988  0.499252  0.158380  1
  Se  Se27  1  0.662735  0.499977  0.842788  1
