# generated using pymatgen
data_Ho16TlIn5CoPt
_symmetry_space_group_name_H-M   'P 1'
_cell_length_a   10.40626700
_cell_length_b   10.40940452
_cell_length_c   6.97735300
_cell_angle_alpha   90.00267463
_cell_angle_beta   90.00000000
_cell_angle_gamma   119.99003306
_symmetry_Int_Tables_number   1
_chemical_formula_structural   Ho16TlIn5CoPt
_chemical_formula_sum   'Ho16 Tl1 In5 Co1 Pt1'
_cell_volume   654.61474919
_cell_formula_units_Z   1
loop_
 _symmetry_equiv_pos_site_id
 _symmetry_equiv_pos_as_xyz
  1  'x, y, z'
loop_
 _atom_site_type_symbol
 _atom_site_label
 _atom_site_symmetry_multiplicity
 _atom_site_fract_x
 _atom_site_fract_y
 _atom_site_fract_z
 _atom_site_occupancy
  Ho  Ho0  1  0.530606  0.061211  0.508137  1
  Ho  Ho1  1  0.938580  0.469003  0.507557  1
  Ho  Ho2  1  0.530424  0.469003  0.507557  1
  Ho  Ho3  1  0.464374  0.928750  0.005754  1
  Ho  Ho4  1  0.071750  0.535577  0.005988  1
  Ho  Ho5  1  0.463826  0.535577  0.005988  1
  Ho  Ho6  1  0.177940  0.355879  0.714196  1
  Ho  Ho7  1  0.644035  0.821780  0.714077  1
  Ho  Ho8  1  0.177747  0.821780  0.714077  1
  Ho  Ho9  1  0.824689  0.649379  0.212120  1
  Ho  Ho10  1  0.350782  0.175363  0.212849  1
  Ho  Ho11  1  0.824582  0.175363  0.212849  1
  Ho  Ho12  1  0.666604  0.333208  0.883723  1
  Ho  Ho13  1  0.333292  0.666584  0.395819  1
  Ho  Ho14  1  0.000334  0.000669  0.491566  1
  Ho  Ho15  1  0.000420  0.000839  0.991048  1
  Tl  Tl16  1  0.837539  0.675078  0.752003  1
  In  In17  1  0.324678  0.162378  0.751166  1
  In  In18  1  0.837699  0.162378  0.751166  1
  In  In19  1  0.162837  0.325673  0.252144  1
  In  In20  1  0.674464  0.837118  0.252103  1
  In  In21  1  0.162655  0.837118  0.252103  1
  Co  Co22  1  0.333417  0.666834  0.781770  1
  Pt  Pt23  1  0.666729  0.333457  0.282276  1
