# generated using pymatgen
data_Ho3Er7OsRu3
_symmetry_space_group_name_H-M   'P 1'
_cell_length_a   6.29255082
_cell_length_b   7.27809887
_cell_length_c   8.39817600
_cell_angle_alpha   96.78040378
_cell_angle_beta   112.07246869
_cell_angle_gamma   90.05878621
_symmetry_Int_Tables_number   1
_chemical_formula_structural   Ho3Er7OsRu3
_chemical_formula_sum   'Ho3 Er7 Os1 Ru3'
_cell_volume   353.50538177
_cell_formula_units_Z   1
loop_
 _symmetry_equiv_pos_site_id
 _symmetry_equiv_pos_as_xyz
  1  'x, y, z'
loop_
 _atom_site_type_symbol
 _atom_site_label
 _atom_site_symmetry_multiplicity
 _atom_site_fract_x
 _atom_site_fract_y
 _atom_site_fract_z
 _atom_site_occupancy
  Ho  Ho0  1  0.791818  0.583397  0.813326  1
  Ho  Ho1  1  0.976400  0.915674  0.184432  1
  Ho  Ho2  1  0.208214  0.415522  0.186379  1
  Er  Er3  1  0.023019  0.084318  0.813890  1
  Er  Er4  1  0.206320  0.685032  0.565731  1
  Er  Er5  1  0.640156  0.816097  0.436284  1
  Er  Er6  1  0.794629  0.315273  0.434679  1
  Er  Er7  1  0.359057  0.184521  0.564778  1
  Er  Er8  1  0.419438  0.750069  0.999219  1
  Er  Er9  1  0.580672  0.250030  0.999986  1
  Os  Os10  1  0.602261  0.923877  0.780391  1
  Ru  Ru11  1  0.823451  0.576524  0.221020  1
  Ru  Ru12  1  0.397600  0.076471  0.220424  1
  Ru  Ru13  1  0.176964  0.423194  0.779461  1
