# generated using pymatgen
data_CeTh5(Ni3Sb4)2
_symmetry_space_group_name_H-M   'P 1'
_cell_length_a   8.32547902
_cell_length_b   8.32547934
_cell_length_c   8.32547900
_cell_angle_alpha   109.47178907
_cell_angle_beta   109.47009665
_cell_angle_gamma   109.47177942
_symmetry_Int_Tables_number   1
_chemical_formula_structural   CeTh5(Ni3Sb4)2
_chemical_formula_sum   'Ce1 Th5 Ni6 Sb8'
_cell_volume   444.22786781
_cell_formula_units_Z   1
loop_
 _symmetry_equiv_pos_site_id
 _symmetry_equiv_pos_as_xyz
  1  'x, y, z'
loop_
 _atom_site_type_symbol
 _atom_site_label
 _atom_site_symmetry_multiplicity
 _atom_site_fract_x
 _atom_site_fract_y
 _atom_site_fract_z
 _atom_site_occupancy
  Ce  Ce0  1  0.375000  0.250000  0.625000  1
  Th  Th1  1  0.749666  0.874725  0.124786  1
  Th  Th2  1  0.250061  0.625275  0.374941  1
  Th  Th3  1  0.625059  0.375120  0.250334  1
  Th  Th4  1  0.875214  0.124880  0.749939  1
  Th  Th5  1  0.125000  0.750000  0.875000  1
  Ni  Ni6  1  0.124934  0.875181  0.250085  1
  Ni  Ni7  1  0.625000  0.750000  0.375000  1
  Ni  Ni8  1  0.875000  0.250000  0.125000  1
  Ni  Ni9  1  0.250247  0.125151  0.875066  1
  Ni  Ni10  1  0.749915  0.374849  0.625097  1
  Ni  Ni11  1  0.374903  0.624819  0.749753  1
  Sb  Sb12  1  0.001014  0.337977  0.500364  1
  Sb  Sb13  1  0.836963  0.499350  0.998986  1
  Sb  Sb14  1  0.499636  0.000650  0.837613  1
  Sb  Sb15  1  0.660446  0.660180  0.661609  1
  Sb  Sb16  1  0.162387  0.162023  0.163037  1
  Sb  Sb17  1  0.338391  0.498838  0.998571  1
  Sb  Sb18  1  0.499734  0.001162  0.339554  1
  Sb  Sb19  1  0.001429  0.839820  0.500266  1
