# generated using pymatgen
data_Yb3TmIr2(RuO7)2
_symmetry_space_group_name_H-M   'P 1'
_cell_length_a   7.21238442
_cell_length_b   7.22993331
_cell_length_c   7.21238370
_cell_angle_alpha   59.74703440
_cell_angle_beta   59.60919608
_cell_angle_gamma   59.74703901
_symmetry_Int_Tables_number   1
_chemical_formula_structural   Yb3TmIr2(RuO7)2
_chemical_formula_sum   'Yb3 Tm1 Ir2 Ru2 O14'
_cell_volume   264.12926494
_cell_formula_units_Z   1
loop_
 _symmetry_equiv_pos_site_id
 _symmetry_equiv_pos_as_xyz
  1  'x, y, z'
loop_
 _atom_site_type_symbol
 _atom_site_label
 _atom_site_symmetry_multiplicity
 _atom_site_fract_x
 _atom_site_fract_y
 _atom_site_fract_z
 _atom_site_occupancy
  Yb  Yb0  1  0.125000  0.125000  0.625000  1
  Yb  Yb1  1  0.125000  0.125000  0.125000  1
  Yb  Yb2  1  0.625000  0.125000  0.125000  1
  Tm  Tm3  1  0.125000  0.625000  0.125000  1
  Ir  Ir4  1  0.125000  0.625000  0.625000  1
  Ir  Ir5  1  0.625000  0.625000  0.125000  1
  Ru  Ru6  1  0.625000  0.625000  0.625000  1
  Ru  Ru7  1  0.625000  0.125000  0.625000  1
  O  O8  1  0.543878  0.549452  0.953048  1
  O  O9  1  0.957168  0.550405  0.957168  1
  O  O10  1  0.297778  0.298946  0.699267  1
  O  O11  1  0.003850  0.988027  0.003850  1
  O  O12  1  0.296952  0.700548  0.706122  1
  O  O13  1  0.706122  0.700548  0.296952  1
  O  O14  1  0.699267  0.298946  0.297778  1
  O  O15  1  0.556058  0.943756  0.556058  1
  O  O16  1  0.693942  0.306244  0.693942  1
  O  O17  1  0.550733  0.951054  0.952222  1
  O  O18  1  0.952222  0.951054  0.550733  1
  O  O19  1  0.246150  0.261973  0.246150  1
  O  O20  1  0.292832  0.699595  0.292832  1
  O  O21  1  0.953048  0.549452  0.543878  1
