# generated using pymatgen
data_Dy4TcB12Ru
_symmetry_space_group_name_H-M   'P 1'
_cell_length_a   3.67601700
_cell_length_b   9.15240588
_cell_length_c   11.53698136
_cell_angle_alpha   89.83194125
_cell_angle_beta   90.00000000
_cell_angle_gamma   90.00000000
_symmetry_Int_Tables_number   1
_chemical_formula_structural   Dy4TcB12Ru
_chemical_formula_sum   'Dy8 Tc2 B24 Ru2'
_cell_volume   388.15314139
_cell_formula_units_Z   2
loop_
 _symmetry_equiv_pos_site_id
 _symmetry_equiv_pos_as_xyz
  1  'x, y, z'
loop_
 _atom_site_type_symbol
 _atom_site_label
 _atom_site_symmetry_multiplicity
 _atom_site_fract_x
 _atom_site_fract_y
 _atom_site_fract_z
 _atom_site_occupancy
  Dy  Dy0  1  0.000000  0.325417  0.415550  1
  Dy  Dy1  1  0.000000  0.674583  0.584450  1
  Dy  Dy2  1  0.000000  0.821781  0.087481  1
  Dy  Dy3  1  0.000000  0.178219  0.912519  1
  Dy  Dy4  1  0.000000  0.942333  0.370303  1
  Dy  Dy5  1  0.000000  0.057667  0.629697  1
  Dy  Dy6  1  0.000000  0.442959  0.130219  1
  Dy  Dy7  1  0.000000  0.557041  0.869781  1
  Tc  Tc8  1  0.000000  0.638550  0.320174  1
  Tc  Tc9  1  0.000000  0.361450  0.679826  1
  B  B10  1  0.500000  0.553390  0.432848  1
  B  B11  1  0.500000  0.446610  0.567152  1
  B  B12  1  0.500000  0.053946  0.067063  1
  B  B13  1  0.500000  0.946054  0.932937  1
  B  B14  1  0.500000  0.748395  0.419012  1
  B  B15  1  0.500000  0.251605  0.580988  1
  B  B16  1  0.500000  0.248199  0.081156  1
  B  B17  1  0.500000  0.751801  0.918844  1
  B  B18  1  0.500000  0.791360  0.265422  1
  B  B19  1  0.500000  0.208640  0.734578  1
  B  B20  1  0.500000  0.290430  0.234109  1
  B  B21  1  0.500000  0.709570  0.765891  1
  B  B22  1  0.500000  0.631435  0.185274  1
  B  B23  1  0.500000  0.368565  0.814726  1
  B  B24  1  0.500000  0.131154  0.313850  1
  B  B25  1  0.500000  0.868846  0.686150  1
  B  B26  1  0.500000  0.983518  0.211725  1
  B  B27  1  0.500000  0.016482  0.788275  1
  B  B28  1  0.500000  0.483127  0.287654  1
  B  B29  1  0.500000  0.516873  0.712346  1
  B  B30  1  0.500000  0.603650  0.028550  1
  B  B31  1  0.500000  0.396350  0.971450  1
  B  B32  1  0.500000  0.103708  0.471033  1
  B  B33  1  0.500000  0.896292  0.528967  1
  Ru  Ru34  1  0.000000  0.137831  0.178411  1
  Ru  Ru35  1  0.000000  0.862169  0.821589  1
