# generated using pymatgen
data_Tm4Mn3V4Fe13P12
_symmetry_space_group_name_H-M   'P 1'
_cell_length_a   3.64306000
_cell_length_b   10.31931202
_cell_length_c   12.11164275
_cell_angle_alpha   90.01670454
_cell_angle_beta   90.00000000
_cell_angle_gamma   90.00000000
_symmetry_Int_Tables_number   1
_chemical_formula_structural   Tm4Mn3V4Fe13P12
_chemical_formula_sum   'Tm4 Mn3 V4 Fe13 P12'
_cell_volume   455.32353808
_cell_formula_units_Z   1
loop_
 _symmetry_equiv_pos_site_id
 _symmetry_equiv_pos_as_xyz
  1  'x, y, z'
loop_
 _atom_site_type_symbol
 _atom_site_label
 _atom_site_symmetry_multiplicity
 _atom_site_fract_x
 _atom_site_fract_y
 _atom_site_fract_z
 _atom_site_occupancy
  Tm  Tm0  1  0.250000  0.581610  0.711584  1
  Tm  Tm1  1  0.250000  0.918794  0.210746  1
  Tm  Tm2  1  0.750000  0.418662  0.288252  1
  Tm  Tm3  1  0.750000  0.080285  0.789340  1
  Mn  Mn4  1  0.250000  0.408478  0.491078  1
  Mn  Mn5  1  0.250000  0.089073  0.992124  1
  Mn  Mn6  1  0.750000  0.591610  0.508290  1
  V  V7  1  0.250000  0.700879  0.991225  1
  V  V8  1  0.250000  0.798819  0.492149  1
  V  V9  1  0.750000  0.298604  0.008379  1
  V  V10  1  0.750000  0.201307  0.508238  1
  Fe  Fe11  1  0.750000  0.911950  0.009351  1
  Fe  Fe12  1  0.250000  0.217238  0.174577  1
  Fe  Fe13  1  0.250000  0.282173  0.675737  1
  Fe  Fe14  1  0.750000  0.781475  0.824918  1
  Fe  Fe15  1  0.750000  0.718301  0.323552  1
  Fe  Fe16  1  0.250000  0.876648  0.697915  1
  Fe  Fe17  1  0.250000  0.624340  0.197385  1
  Fe  Fe18  1  0.750000  0.122943  0.302543  1
  Fe  Fe19  1  0.750000  0.376471  0.802211  1
  Fe  Fe20  1  0.250000  0.463477  0.934260  1
  Fe  Fe21  1  0.250000  0.036217  0.434121  1
  Fe  Fe22  1  0.750000  0.537271  0.065811  1
  Fe  Fe23  1  0.750000  0.963495  0.566179  1
  P  P24  1  0.250000  0.423537  0.112850  1
  P  P25  1  0.250000  0.076324  0.613057  1
  P  P26  1  0.750000  0.576471  0.887030  1
  P  P27  1  0.750000  0.923666  0.387041  1
  P  P28  1  0.250000  0.266258  0.864399  1
  P  P29  1  0.250000  0.232999  0.363695  1
  P  P30  1  0.750000  0.734736  0.134595  1
  P  P31  1  0.750000  0.766844  0.636242  1
  P  P32  1  0.250000  0.598925  0.382381  1
  P  P33  1  0.250000  0.898938  0.883021  1
  P  P34  1  0.750000  0.401664  0.617199  1
  P  P35  1  0.750000  0.099516  0.118529  1
