# generated using pymatgen
data_Tm8In5Ga7
_symmetry_space_group_name_H-M   'P 1'
_cell_length_a   7.18858464
_cell_length_b   7.18858440
_cell_length_c   8.85188102
_cell_angle_alpha   89.99735748
_cell_angle_beta   89.99736134
_cell_angle_gamma   89.98052038
_symmetry_Int_Tables_number   1
_chemical_formula_structural   Tm8In5Ga7
_chemical_formula_sum   'Tm8 In5 Ga7'
_cell_volume   457.42754042
_cell_formula_units_Z   1
loop_
 _symmetry_equiv_pos_site_id
 _symmetry_equiv_pos_as_xyz
  1  'x, y, z'
loop_
 _atom_site_type_symbol
 _atom_site_label
 _atom_site_symmetry_multiplicity
 _atom_site_fract_x
 _atom_site_fract_y
 _atom_site_fract_z
 _atom_site_occupancy
  Tm  Tm0  1  0.825191  0.170760  0.503914  1
  Tm  Tm1  1  0.170760  0.825191  0.503914  1
  Tm  Tm2  1  0.333614  0.333614  0.994811  1
  Tm  Tm3  1  0.670595  0.670595  0.998090  1
  Tm  Tm4  1  0.670562  0.670562  0.501945  1
  Tm  Tm5  1  0.333280  0.333280  0.505323  1
  Tm  Tm6  1  0.170437  0.824041  0.996164  1
  Tm  Tm7  1  0.824041  0.170437  0.996164  1
  In  In8  1  0.507962  0.998918  0.250741  1
  In  In9  1  0.998637  0.499925  0.748749  1
  In  In10  1  0.499925  0.998637  0.748749  1
  In  In11  1  0.998918  0.507962  0.250741  1
  In  In12  1  0.128190  0.128190  0.249462  1
  Ga  Ga13  1  0.628026  0.373869  0.250257  1
  Ga  Ga14  1  0.373869  0.628026  0.250257  1
  Ga  Ga15  1  0.126588  0.126588  0.750707  1
  Ga  Ga16  1  0.874034  0.874034  0.750048  1
  Ga  Ga17  1  0.373113  0.625962  0.749940  1
  Ga  Ga18  1  0.625962  0.373113  0.749940  1
  Ga  Ga19  1  0.866294  0.866294  0.250082  1
