# generated using pymatgen
data_CeNdY(InPt)3
_symmetry_space_group_name_H-M   'P 1'
_cell_length_a   7.70031295
_cell_length_b   7.71504323
_cell_length_c   4.01282900
_cell_angle_alpha   90.00000000
_cell_angle_beta   90.00000000
_cell_angle_gamma   120.29155015
_symmetry_Int_Tables_number   1
_chemical_formula_structural   CeNdY(InPt)3
_chemical_formula_sum   'Ce1 Nd1 Y1 In3 Pt3'
_cell_volume   205.84703718
_cell_formula_units_Z   1
loop_
 _symmetry_equiv_pos_site_id
 _symmetry_equiv_pos_as_xyz
  1  'x, y, z'
loop_
 _atom_site_type_symbol
 _atom_site_label
 _atom_site_symmetry_multiplicity
 _atom_site_fract_x
 _atom_site_fract_y
 _atom_site_fract_z
 _atom_site_occupancy
  Ce  Ce0  1  0.000698  0.410408  0.500000  1
  Nd  Nd1  1  0.592602  0.590883  0.500000  1
  Y  Y2  1  0.406285  0.999057  0.500000  1
  In  In3  1  0.003672  0.750478  0.000000  1
  In  In4  1  0.740248  0.998322  0.000000  1
  In  In5  1  0.257551  0.252130  0.000000  1
  Pt  Pt6  1  0.001091  0.004066  0.500000  1
  Pt  Pt7  1  0.674328  0.332337  0.000000  1
  Pt  Pt8  1  0.323525  0.662319  0.000000  1
