# generated using pymatgen
data_Pr2Sc3Sn4
_symmetry_space_group_name_H-M   'P 1'
_cell_length_a   7.88547900
_cell_length_b   8.05123200
_cell_length_c   15.11403300
_cell_angle_alpha   90.00000000
_cell_angle_beta   90.00000000
_cell_angle_gamma   90.00000000
_symmetry_Int_Tables_number   1
_chemical_formula_structural   Pr2Sc3Sn4
_chemical_formula_sum   'Pr8 Sc12 Sn16'
_cell_volume   959.55701958
_cell_formula_units_Z   4
loop_
 _symmetry_equiv_pos_site_id
 _symmetry_equiv_pos_as_xyz
  1  'x, y, z'
loop_
 _atom_site_type_symbol
 _atom_site_label
 _atom_site_symmetry_multiplicity
 _atom_site_fract_x
 _atom_site_fract_y
 _atom_site_fract_z
 _atom_site_occupancy
  Pr  Pr0  1  0.510337  0.324951  0.904621  1
  Pr  Pr1  1  0.010337  0.175049  0.595379  1
  Pr  Pr2  1  0.489663  0.675049  0.404621  1
  Pr  Pr3  1  0.989663  0.824951  0.095379  1
  Pr  Pr4  1  0.489663  0.675049  0.095379  1
  Pr  Pr5  1  0.989663  0.824951  0.404621  1
  Pr  Pr6  1  0.510337  0.324951  0.595379  1
  Pr  Pr7  1  0.010337  0.175049  0.904621  1
  Sc  Sc8  1  0.349211  0.835447  0.873676  1
  Sc  Sc9  1  0.849211  0.664553  0.626324  1
  Sc  Sc10  1  0.650789  0.164553  0.373676  1
  Sc  Sc11  1  0.150789  0.335447  0.126324  1
  Sc  Sc12  1  0.650789  0.164553  0.126324  1
  Sc  Sc13  1  0.150789  0.335447  0.373676  1
  Sc  Sc14  1  0.349211  0.835447  0.626324  1
  Sc  Sc15  1  0.849211  0.664553  0.873676  1
  Sc  Sc16  1  0.179580  0.506234  0.750000  1
  Sc  Sc17  1  0.679580  0.993766  0.750000  1
  Sc  Sc18  1  0.820420  0.493766  0.250000  1
  Sc  Sc19  1  0.320420  0.006234  0.250000  1
  Sn  Sn20  1  0.318975  0.044961  0.043280  1
  Sn  Sn21  1  0.818975  0.455039  0.456720  1
  Sn  Sn22  1  0.681025  0.955039  0.543280  1
  Sn  Sn23  1  0.181025  0.544961  0.956720  1
  Sn  Sn24  1  0.681025  0.955039  0.956720  1
  Sn  Sn25  1  0.181025  0.544961  0.543280  1
  Sn  Sn26  1  0.318975  0.044961  0.456720  1
  Sn  Sn27  1  0.818975  0.455039  0.043280  1
  Sn  Sn28  1  0.543875  0.633082  0.750000  1
  Sn  Sn29  1  0.043875  0.866918  0.750000  1
  Sn  Sn30  1  0.456125  0.366918  0.250000  1
  Sn  Sn31  1  0.956125  0.133082  0.250000  1
  Sn  Sn32  1  0.317578  0.138471  0.750000  1
  Sn  Sn33  1  0.817578  0.361529  0.750000  1
  Sn  Sn34  1  0.682422  0.861529  0.250000  1
  Sn  Sn35  1  0.182422  0.638471  0.250000  1
