# generated using pymatgen
data_Y16InNi4Ag3
_symmetry_space_group_name_H-M   'P 1'
_cell_length_a   9.49190191
_cell_length_b   9.49190166
_cell_length_c   9.49190114
_cell_angle_alpha   60.26164535
_cell_angle_beta   60.26164665
_cell_angle_gamma   60.26164746
_symmetry_Int_Tables_number   1
_chemical_formula_structural   Y16InNi4Ag3
_chemical_formula_sum   'Y16 In1 Ni4 Ag3'
_cell_volume   608.28782421
_cell_formula_units_Z   1
loop_
 _symmetry_equiv_pos_site_id
 _symmetry_equiv_pos_as_xyz
  1  'x, y, z'
loop_
 _atom_site_type_symbol
 _atom_site_label
 _atom_site_symmetry_multiplicity
 _atom_site_fract_x
 _atom_site_fract_y
 _atom_site_fract_z
 _atom_site_occupancy
  Y  Y0  1  0.598392  0.598392  0.598392  1
  Y  Y1  1  0.601732  0.601732  0.197061  1
  Y  Y2  1  0.601732  0.197061  0.601732  1
  Y  Y3  1  0.197061  0.601732  0.601732  1
  Y  Y4  1  0.060917  0.439771  0.439771  1
  Y  Y5  1  0.440006  0.060107  0.060107  1
  Y  Y6  1  0.439771  0.060917  0.439771  1
  Y  Y7  1  0.060107  0.440006  0.060107  1
  Y  Y8  1  0.439771  0.439771  0.060917  1
  Y  Y9  1  0.060107  0.060107  0.440006  1
  Y  Y10  1  0.190769  0.814083  0.814083  1
  Y  Y11  1  0.812654  0.186875  0.186875  1
  Y  Y12  1  0.814083  0.190769  0.814083  1
  Y  Y13  1  0.186875  0.812654  0.186875  1
  Y  Y14  1  0.814083  0.814083  0.190769  1
  Y  Y15  1  0.186875  0.186875  0.812654  1
  In  In16  1  0.828320  0.828320  0.828320  1
  Ni  Ni17  1  0.393917  0.393917  0.393917  1
  Ni  Ni18  1  0.392460  0.392460  0.822272  1
  Ni  Ni19  1  0.392460  0.822272  0.392460  1
  Ni  Ni20  1  0.822272  0.392460  0.392460  1
  Ag  Ag21  1  0.831502  0.831502  0.502634  1
  Ag  Ag22  1  0.831502  0.502634  0.831502  1
  Ag  Ag23  1  0.502634  0.831502  0.831502  1
