# generated using pymatgen
data_Hf3Al3FeCuNi
_symmetry_space_group_name_H-M   'P 1'
_cell_length_a   7.04196700
_cell_length_b   7.04196734
_cell_length_c   3.33402900
_cell_angle_alpha   90.00000000
_cell_angle_beta   90.00000000
_cell_angle_gamma   119.99999369
_symmetry_Int_Tables_number   1
_chemical_formula_structural   Hf3Al3FeCuNi
_chemical_formula_sum   'Hf3 Al3 Fe1 Cu1 Ni1'
_cell_volume   143.18186820
_cell_formula_units_Z   1
loop_
 _symmetry_equiv_pos_site_id
 _symmetry_equiv_pos_as_xyz
  1  'x, y, z'
loop_
 _atom_site_type_symbol
 _atom_site_label
 _atom_site_symmetry_multiplicity
 _atom_site_fract_x
 _atom_site_fract_y
 _atom_site_fract_z
 _atom_site_occupancy
  Hf  Hf0  1  0.413407  0.393451  0.500000  1
  Hf  Hf1  1  0.606549  0.019957  0.500000  1
  Hf  Hf2  1  0.980043  0.586593  0.500000  1
  Al  Al3  1  0.743258  0.748782  0.000000  1
  Al  Al4  1  0.251218  0.994475  0.000000  1
  Al  Al5  1  0.005525  0.256742  0.000000  1
  Fe  Fe6  1  0.666667  0.333333  0.000000  1
  Cu  Cu7  1  0.333333  0.666667  0.000000  1
  Ni  Ni8  1  0.000000  0.000000  0.500000  1
