# generated using pymatgen
data_Mg4Ge5AsIr7
_symmetry_space_group_name_H-M   'P 1'
_cell_length_a   7.08249678
_cell_length_b   7.08249690
_cell_length_c   7.08249655
_cell_angle_alpha   109.38762921
_cell_angle_beta   109.63853050
_cell_angle_gamma   109.38762648
_symmetry_Int_Tables_number   1
_chemical_formula_structural   Mg4Ge5AsIr7
_chemical_formula_sum   'Mg4 Ge5 As1 Ir7'
_cell_volume   273.48562886
_cell_formula_units_Z   1
loop_
 _symmetry_equiv_pos_site_id
 _symmetry_equiv_pos_as_xyz
  1  'x, y, z'
loop_
 _atom_site_type_symbol
 _atom_site_label
 _atom_site_symmetry_multiplicity
 _atom_site_fract_x
 _atom_site_fract_y
 _atom_site_fract_z
 _atom_site_occupancy
  Mg  Mg0  1  0.998483  0.000000  0.500419  1
  Mg  Mg1  1  0.500419  0.000000  0.998483  1
  Mg  Mg2  1  0.998483  0.498063  0.998483  1
  Mg  Mg3  1  0.500419  0.501937  0.500419  1
  Ge  Ge4  1  0.689270  0.689812  0.999458  1
  Ge  Ge5  1  0.309647  0.310188  0.999458  1
  Ge  Ge6  1  0.999458  0.689812  0.689270  1
  Ge  Ge7  1  0.999458  0.310188  0.309647  1
  Ge  Ge8  1  0.694044  0.000000  0.694044  1
  As  As9  1  0.311938  0.000000  0.311938  1
  Ir  Ir10  1  0.001312  0.000000  0.001312  1
  Ir  Ir11  1  0.249284  0.500000  0.749284  1
  Ir  Ir12  1  0.748664  0.249038  0.499625  1
  Ir  Ir13  1  0.499625  0.249038  0.748664  1
  Ir  Ir14  1  0.499625  0.750962  0.250587  1
  Ir  Ir15  1  0.749284  0.500000  0.249284  1
  Ir  Ir16  1  0.250587  0.750962  0.499625  1
