# generated using pymatgen
data_TmLu2AgSn3Rh2
_symmetry_space_group_name_H-M   'P 1'
_cell_length_a   7.69894324
_cell_length_b   7.70323702
_cell_length_c   3.72251600
_cell_angle_alpha   90.00000000
_cell_angle_beta   90.00000000
_cell_angle_gamma   120.01039034
_symmetry_Int_Tables_number   1
_chemical_formula_structural   TmLu2AgSn3Rh2
_chemical_formula_sum   'Tm1 Lu2 Ag1 Sn3 Rh2'
_cell_volume   191.17280108
_cell_formula_units_Z   1
loop_
 _symmetry_equiv_pos_site_id
 _symmetry_equiv_pos_as_xyz
  1  'x, y, z'
loop_
 _atom_site_type_symbol
 _atom_site_label
 _atom_site_symmetry_multiplicity
 _atom_site_fract_x
 _atom_site_fract_y
 _atom_site_fract_z
 _atom_site_occupancy
  Tm  Tm0  1  0.386772  0.407451  0.500000  1
  Lu  Lu1  1  0.592389  0.978913  0.500000  1
  Lu  Lu2  1  0.021230  0.613712  0.500000  1
  Ag  Ag3  1  0.666974  0.333221  0.000000  1
  Sn  Sn4  1  0.738179  0.736161  0.000000  1
  Sn  Sn5  1  0.264123  0.001807  0.000000  1
  Sn  Sn6  1  0.997713  0.261998  0.000000  1
  Rh  Rh7  1  0.333042  0.667149  0.000000  1
  Rh  Rh8  1  0.999577  0.999587  0.500000  1
