# generated using pymatgen
data_Tm12Cd2Fe2Os
_symmetry_space_group_name_H-M   'P 1'
_cell_length_a   8.20857597
_cell_length_b   8.20857721
_cell_length_c   8.20857620
_cell_angle_alpha   108.46477289
_cell_angle_beta   108.46476884
_cell_angle_gamma   111.50343210
_symmetry_Int_Tables_number   1
_chemical_formula_structural   Tm12Cd2Fe2Os
_chemical_formula_sum   'Tm12 Cd2 Fe2 Os1'
_cell_volume   425.37315395
_cell_formula_units_Z   1
loop_
 _symmetry_equiv_pos_site_id
 _symmetry_equiv_pos_as_xyz
  1  'x, y, z'
loop_
 _atom_site_type_symbol
 _atom_site_label
 _atom_site_symmetry_multiplicity
 _atom_site_fract_x
 _atom_site_fract_y
 _atom_site_fract_z
 _atom_site_occupancy
  Tm  Tm0  1  0.191886  0.430266  0.238379  1
  Tm  Tm1  1  0.808114  0.569734  0.761621  1
  Tm  Tm2  1  0.191886  0.953508  0.761621  1
  Tm  Tm3  1  0.953508  0.191886  0.761621  1
  Tm  Tm4  1  0.808114  0.046492  0.238379  1
  Tm  Tm5  1  0.046492  0.808114  0.238379  1
  Tm  Tm6  1  0.430266  0.191886  0.238379  1
  Tm  Tm7  1  0.569734  0.808114  0.761621  1
  Tm  Tm8  1  0.308318  0.308318  0.616635  1
  Tm  Tm9  1  0.691682  0.691682  0.383365  1
  Tm  Tm10  1  0.691682  0.308318  0.000000  1
  Tm  Tm11  1  0.308318  0.691682  0.000000  1
  Cd  Cd12  1  0.000000  0.500000  0.500000  1
  Cd  Cd13  1  0.500000  0.000000  0.500000  1
  Fe  Fe14  1  0.383536  0.383536  0.000000  1
  Fe  Fe15  1  0.616464  0.616464  0.000000  1
  Os  Os16  1  0.000000  0.000000  0.000000  1
