# generated using pymatgen
data_Na3SiGePt2
_symmetry_space_group_name_H-M   'P 1'
_cell_length_a   6.06764900
_cell_length_b   7.47766800
_cell_length_c   13.28854000
_cell_angle_alpha   90.00000000
_cell_angle_beta   90.00000000
_cell_angle_gamma   90.00000000
_symmetry_Int_Tables_number   1
_chemical_formula_structural   Na3SiGePt2
_chemical_formula_sum   'Na12 Si4 Ge4 Pt8'
_cell_volume   602.92583977
_cell_formula_units_Z   4
loop_
 _symmetry_equiv_pos_site_id
 _symmetry_equiv_pos_as_xyz
  1  'x, y, z'
loop_
 _atom_site_type_symbol
 _atom_site_label
 _atom_site_symmetry_multiplicity
 _atom_site_fract_x
 _atom_site_fract_y
 _atom_site_fract_z
 _atom_site_occupancy
  Na  Na0  1  0.644811  0.212508  0.250000  1
  Na  Na1  1  0.355189  0.787492  0.750000  1
  Na  Na2  1  0.355189  0.712508  0.250000  1
  Na  Na3  1  0.644811  0.287492  0.750000  1
  Na  Na4  1  0.122345  0.391248  0.099387  1
  Na  Na5  1  0.877655  0.608752  0.900613  1
  Na  Na6  1  0.877655  0.608752  0.599387  1
  Na  Na7  1  0.877655  0.891248  0.400613  1
  Na  Na8  1  0.122345  0.391248  0.400613  1
  Na  Na9  1  0.122345  0.108752  0.599387  1
  Na  Na10  1  0.122345  0.108752  0.900613  1
  Na  Na11  1  0.877655  0.891248  0.099387  1
  Si  Si12  1  0.557476  0.250000  0.000000  1
  Si  Si13  1  0.442524  0.750000  0.000000  1
  Si  Si14  1  0.442524  0.750000  0.500000  1
  Si  Si15  1  0.557476  0.250000  0.500000  1
  Ge  Ge16  1  0.175310  0.076508  0.250000  1
  Ge  Ge17  1  0.824690  0.923492  0.750000  1
  Ge  Ge18  1  0.824690  0.576508  0.250000  1
  Ge  Ge19  1  0.175310  0.423492  0.750000  1
  Pt  Pt20  1  0.366904  0.018355  0.090449  1
  Pt  Pt21  1  0.633096  0.981645  0.909551  1
  Pt  Pt22  1  0.633096  0.981645  0.590449  1
  Pt  Pt23  1  0.633096  0.518355  0.409551  1
  Pt  Pt24  1  0.366904  0.018355  0.409551  1
  Pt  Pt25  1  0.366904  0.481645  0.590449  1
  Pt  Pt26  1  0.366904  0.481645  0.909551  1
  Pt  Pt27  1  0.633096  0.518355  0.090449  1
