# generated using pymatgen
data_U8Fe(CoC4)3
_symmetry_space_group_name_H-M   'P 1'
_cell_length_a   3.53399600
_cell_length_b   6.39306001
_cell_length_c   13.03408302
_cell_angle_alpha   89.99294122
_cell_angle_beta   90.00000000
_cell_angle_gamma   90.00000000
_symmetry_Int_Tables_number   1
_chemical_formula_structural   U8Fe(CoC4)3
_chemical_formula_sum   'U8 Fe1 Co3 C12'
_cell_volume   294.47966784
_cell_formula_units_Z   1
loop_
 _symmetry_equiv_pos_site_id
 _symmetry_equiv_pos_as_xyz
  1  'x, y, z'
loop_
 _atom_site_type_symbol
 _atom_site_label
 _atom_site_symmetry_multiplicity
 _atom_site_fract_x
 _atom_site_fract_y
 _atom_site_fract_z
 _atom_site_occupancy
  U  U0  1  0.250000  0.747847  0.022087  1
  U  U1  1  0.750000  0.251944  0.977882  1
  U  U2  1  0.750000  0.752088  0.522604  1
  U  U3  1  0.250000  0.246222  0.478216  1
  U  U4  1  0.250000  0.623848  0.288411  1
  U  U5  1  0.750000  0.376850  0.711741  1
  U  U6  1  0.750000  0.874814  0.787689  1
  U  U7  1  0.250000  0.124406  0.211877  1
  Fe  Fe8  1  0.250000  0.017314  0.658719  1
  Co  Co9  1  0.250000  0.510734  0.843511  1
  Co  Co10  1  0.750000  0.488095  0.157323  1
  Co  Co11  1  0.750000  0.988160  0.342701  1
  C  C12  1  0.250000  0.686020  0.674994  1
  C  C13  1  0.750000  0.317904  0.323007  1
  C  C14  1  0.750000  0.818236  0.177200  1
  C  C15  1  0.250000  0.179504  0.820907  1
  C  C16  1  0.250000  0.525317  0.596598  1
  C  C17  1  0.750000  0.475164  0.403168  1
  C  C18  1  0.750000  0.976016  0.097102  1
  C  C19  1  0.250000  0.024702  0.902951  1
  C  C20  1  0.250000  0.898149  0.403805  1
  C  C21  1  0.750000  0.098225  0.597198  1
  C  C22  1  0.750000  0.600484  0.905001  1
  C  C23  1  0.250000  0.397956  0.095306  1
