# generated using pymatgen
data_La3YTe7Pt
_symmetry_space_group_name_H-M   'P 1'
_cell_length_a   4.35958470
_cell_length_b   8.90377400
_cell_length_c   9.41074400
_cell_angle_alpha   90.00000000
_cell_angle_beta   90.03255394
_cell_angle_gamma   90.00000000
_symmetry_Int_Tables_number   1
_chemical_formula_structural   La3YTe7Pt
_chemical_formula_sum   'La3 Y1 Te7 Pt1'
_cell_volume   365.29450347
_cell_formula_units_Z   1
loop_
 _symmetry_equiv_pos_site_id
 _symmetry_equiv_pos_as_xyz
  1  'x, y, z'
loop_
 _atom_site_type_symbol
 _atom_site_label
 _atom_site_symmetry_multiplicity
 _atom_site_fract_x
 _atom_site_fract_y
 _atom_site_fract_z
 _atom_site_occupancy
  La  La0  1  0.002310  0.250000  0.741164  1
  La  La1  1  0.499368  0.000793  0.269929  1
  La  La2  1  0.499368  0.499207  0.269929  1
  Y  Y3  1  0.000563  0.750000  0.708483  1
  Te  Te4  1  0.998287  0.939284  0.995970  1
  Te  Te5  1  0.998287  0.560716  0.995970  1
  Te  Te6  1  0.502779  0.250000  0.000803  1
  Te  Te7  1  0.999573  0.750000  0.374029  1
  Te  Te8  1  0.999850  0.250000  0.375093  1
  Te  Te9  1  0.500937  0.992648  0.633452  1
  Te  Te10  1  0.500937  0.507352  0.633452  1
  Pt  Pt11  1  0.497739  0.750000  0.002654  1
