# generated using pymatgen
data_MgMn2NbRh4
_symmetry_space_group_name_H-M   'P 1'
_cell_length_a   6.17644500
_cell_length_b   6.17644600
_cell_length_c   6.30143200
_cell_angle_alpha   90.00000000
_cell_angle_beta   90.00000000
_cell_angle_gamma   90.00000000
_symmetry_Int_Tables_number   1
_chemical_formula_structural   MgMn2NbRh4
_chemical_formula_sum   'Mg2 Mn4 Nb2 Rh8'
_cell_volume   240.39004641
_cell_formula_units_Z   2
loop_
 _symmetry_equiv_pos_site_id
 _symmetry_equiv_pos_as_xyz
  1  'x, y, z'
loop_
 _atom_site_type_symbol
 _atom_site_label
 _atom_site_symmetry_multiplicity
 _atom_site_fract_x
 _atom_site_fract_y
 _atom_site_fract_z
 _atom_site_occupancy
  Mg  Mg0  1  0.750016  0.250000  0.499999  1
  Mg  Mg1  1  0.249984  0.750000  0.500001  1
  Mn  Mn2  1  0.250012  0.250000  0.000000  1
  Mn  Mn3  1  0.749988  0.750000  0.000000  1
  Mn  Mn4  1  0.750019  0.750000  0.499999  1
  Mn  Mn5  1  0.249981  0.250000  0.500001  1
  Nb  Nb6  1  0.749966  0.250000  0.000000  1
  Nb  Nb7  1  0.250034  0.750000  0.000000  1
  Rh  Rh8  1  0.000000  0.000000  0.247134  1
  Rh  Rh9  1  0.000000  0.500000  0.247134  1
  Rh  Rh10  1  0.500001  0.000000  0.247160  1
  Rh  Rh11  1  0.500001  0.500000  0.247160  1
  Rh  Rh12  1  0.499999  0.000000  0.752841  1
  Rh  Rh13  1  0.499999  0.500000  0.752841  1
  Rh  Rh14  1  0.000000  0.000000  0.752866  1
  Rh  Rh15  1  0.000000  0.500000  0.752866  1
