# generated using pymatgen
data_PrSm3(Ga8Pd3)3
_symmetry_space_group_name_H-M   'P 1'
_cell_length_a   7.56701649
_cell_length_b   7.60162943
_cell_length_c   13.51046865
_cell_angle_alpha   85.07109694
_cell_angle_beta   100.13574169
_cell_angle_gamma   119.72613877
_symmetry_Int_Tables_number   1
_chemical_formula_structural   PrSm3(Ga8Pd3)3
_chemical_formula_sum   'Pr1 Sm3 Ga24 Pd9'
_cell_volume   664.34327703
_cell_formula_units_Z   1
loop_
 _symmetry_equiv_pos_site_id
 _symmetry_equiv_pos_as_xyz
  1  'x, y, z'
loop_
 _atom_site_type_symbol
 _atom_site_label
 _atom_site_symmetry_multiplicity
 _atom_site_fract_x
 _atom_site_fract_y
 _atom_site_fract_z
 _atom_site_occupancy
  Pr  Pr0  1  0.437619  0.831158  0.811131  1
  Sm  Sm1  1  0.562817  0.169039  0.189024  1
  Sm  Sm2  1  0.771099  0.503213  0.811256  1
  Sm  Sm3  1  0.228983  0.496780  0.188886  1
  Ga  Ga4  1  0.479250  0.168454  0.941852  1
  Ga  Ga5  1  0.521383  0.833363  0.059857  1
  Ga  Ga6  1  0.021283  0.165452  0.558039  1
  Ga  Ga7  1  0.978595  0.834561  0.441762  1
  Ga  Ga8  1  0.354863  0.832822  0.555852  1
  Ga  Ga9  1  0.645044  0.167265  0.443588  1
  Ga  Ga10  1  0.615636  0.835142  0.327153  1
  Ga  Ga11  1  0.384018  0.165987  0.672051  1
  Ga  Ga12  1  0.057418  0.493705  0.670463  1
  Ga  Ga13  1  0.941040  0.505020  0.328656  1
  Ga  Ga14  1  0.731563  0.838196  0.669415  1
  Ga  Ga15  1  0.269414  0.161835  0.329628  1
  Ga  Ga16  1  0.144173  0.497239  0.943045  1
  Ga  Ga17  1  0.854199  0.500948  0.057863  1
  Ga  Ga18  1  0.817575  0.833590  0.948748  1
  Ga  Ga19  1  0.184408  0.166314  0.052320  1
  Ga  Ga20  1  0.312395  0.500337  0.442692  1
  Ga  Ga21  1  0.687626  0.499597  0.557165  1
  Ga  Ga22  1  0.100849  0.836138  0.182621  1
  Ga  Ga23  1  0.901251  0.166022  0.817452  1
  Ga  Ga24  1  0.306720  0.366351  0.816556  1
  Ga  Ga25  1  0.693359  0.631687  0.183506  1
  Ga  Ga26  1  0.100524  0.961512  0.816514  1
  Ga  Ga27  1  0.897408  0.038361  0.183579  1
  Pd  Pd28  1  0.385785  0.501716  0.637295  1
  Pd  Pd29  1  0.613751  0.497779  0.362120  1
  Pd  Pd30  1  0.171350  0.830353  0.999316  1
  Pd  Pd31  1  0.828898  0.169569  0.001392  1
  Pd  Pd32  1  0.290126  0.833040  0.361186  1
  Pd  Pd33  1  0.710068  0.167316  0.638225  1
  Pd  Pd34  1  0.049487  0.828908  0.636973  1
  Pd  Pd35  1  0.950111  0.171194  0.362481  1
  Pd  Pd36  1  0.499912  0.500038  0.000339  1
