# generated using pymatgen
data_Sr4B4Pd9Pt7
_symmetry_space_group_name_H-M   'P 1'
_cell_length_a   5.58091965
_cell_length_b   6.15059033
_cell_length_c   12.00592067
_cell_angle_alpha   90.05566677
_cell_angle_beta   90.02299769
_cell_angle_gamma   90.05073978
_symmetry_Int_Tables_number   1
_chemical_formula_structural   Sr4B4Pd9Pt7
_chemical_formula_sum   'Sr4 B4 Pd9 Pt7'
_cell_volume   412.11424863
_cell_formula_units_Z   1
loop_
 _symmetry_equiv_pos_site_id
 _symmetry_equiv_pos_as_xyz
  1  'x, y, z'
loop_
 _atom_site_type_symbol
 _atom_site_label
 _atom_site_symmetry_multiplicity
 _atom_site_fract_x
 _atom_site_fract_y
 _atom_site_fract_z
 _atom_site_occupancy
  Sr  Sr0  1  0.750243  0.313153  0.162074  1
  Sr  Sr1  1  0.749664  0.813268  0.337707  1
  Sr  Sr2  1  0.250310  0.687264  0.838653  1
  Sr  Sr3  1  0.250133  0.187120  0.662320  1
  B  B4  1  0.745630  0.405428  0.548096  1
  B  B5  1  0.750115  0.907915  0.952134  1
  B  B6  1  0.255247  0.593166  0.450293  1
  B  B7  1  0.250047  0.092090  0.047678  1
  Pd  Pd8  1  0.749333  0.387376  0.733625  1
  Pd  Pd9  1  0.746922  0.886390  0.765614  1
  Pd  Pd10  1  0.248813  0.613058  0.265383  1
  Pd  Pd11  1  0.250012  0.113074  0.234540  1
  Pd  Pd12  1  0.749068  0.061750  0.558034  1
  Pd  Pd13  1  0.750435  0.563213  0.941895  1
  Pd  Pd14  1  0.249445  0.936331  0.442271  1
  Pd  Pd15  1  0.249657  0.436702  0.057787  1
  Pd  Pd16  1  0.999937  0.667422  0.588515  1
  Pt  Pt17  1  0.996534  0.167197  0.912300  1
  Pt  Pt18  1  0.505986  0.666183  0.586021  1
  Pt  Pt19  1  0.497011  0.832647  0.087318  1
  Pt  Pt20  1  0.002860  0.336851  0.415512  1
  Pt  Pt21  1  0.003102  0.833166  0.087298  1
  Pt  Pt22  1  0.496679  0.331822  0.411934  1
  Pt  Pt23  1  0.502818  0.167413  0.912997  1
