# generated using pymatgen
data_Tm3ZnIn3Pt2
_symmetry_space_group_name_H-M   'P 1'
_cell_length_a   7.61727600
_cell_length_b   7.61727641
_cell_length_c   3.84899200
_cell_angle_alpha   90.00000000
_cell_angle_beta   90.00000000
_cell_angle_gamma   119.99999821
_symmetry_Int_Tables_number   1
_chemical_formula_structural   Tm3ZnIn3Pt2
_chemical_formula_sum   'Tm3 Zn1 In3 Pt2'
_cell_volume   193.40916733
_cell_formula_units_Z   1
loop_
 _symmetry_equiv_pos_site_id
 _symmetry_equiv_pos_as_xyz
  1  'x, y, z'
loop_
 _atom_site_type_symbol
 _atom_site_label
 _atom_site_symmetry_multiplicity
 _atom_site_fract_x
 _atom_site_fract_y
 _atom_site_fract_z
 _atom_site_occupancy
  Tm  Tm0  1  0.408879  0.408879  0.500000  1
  Tm  Tm1  1  0.591121  0.000000  0.500000  1
  Tm  Tm2  1  0.000000  0.591121  0.500000  1
  Zn  Zn3  1  0.000000  0.000000  0.500000  1
  In  In4  1  0.000000  0.259247  0.000000  1
  In  In5  1  0.740753  0.740753  0.000000  1
  In  In6  1  0.259247  0.000000  0.000000  1
  Pt  Pt7  1  0.666667  0.333333  0.000000  1
  Pt  Pt8  1  0.333333  0.666667  0.000000  1
