# generated using pymatgen
data_Sr3Pr(Sn2Pt)4
_symmetry_space_group_name_H-M   'P 1'
_cell_length_a   9.14797996
_cell_length_b   9.14798070
_cell_length_c   9.72415500
_cell_angle_alpha   90.00000000
_cell_angle_beta   90.00000000
_cell_angle_gamma   149.55352336
_symmetry_Int_Tables_number   1
_chemical_formula_structural   Sr3Pr(Sn2Pt)4
_chemical_formula_sum   'Sr3 Pr1 Sn8 Pt4'
_cell_volume   412.36492059
_cell_formula_units_Z   1
loop_
 _symmetry_equiv_pos_site_id
 _symmetry_equiv_pos_as_xyz
  1  'x, y, z'
loop_
 _atom_site_type_symbol
 _atom_site_label
 _atom_site_symmetry_multiplicity
 _atom_site_fract_x
 _atom_site_fract_y
 _atom_site_fract_z
 _atom_site_occupancy
  Sr  Sr0  1  0.500288  0.499712  0.500883  1
  Sr  Sr1  1  0.500288  0.499712  0.999117  1
  Sr  Sr2  1  0.700179  0.299821  0.750000  1
  Pr  Pr3  1  0.297649  0.702351  0.250000  1
  Sn  Sn4  1  0.910936  0.089064  0.750000  1
  Sn  Sn5  1  0.925227  0.074773  0.250000  1
  Sn  Sn6  1  0.089607  0.910393  0.250000  1
  Sn  Sn7  1  0.073186  0.926814  0.750000  1
  Sn  Sn8  1  0.697541  0.302459  0.406682  1
  Sn  Sn9  1  0.303241  0.696759  0.593277  1
  Sn  Sn10  1  0.303241  0.696759  0.906723  1
  Sn  Sn11  1  0.697541  0.302459  0.093318  1
  Pt  Pt12  1  0.151059  0.848941  0.505931  1
  Pt  Pt13  1  0.849480  0.150520  0.007329  1
  Pt  Pt14  1  0.151059  0.848941  0.994069  1
  Pt  Pt15  1  0.849480  0.150520  0.492671  1
