# generated using pymatgen
data_LaYbCuPt3
_symmetry_space_group_name_H-M   'P 1'
_cell_length_a   5.54865752
_cell_length_b   5.54865707
_cell_length_c   5.29379858
_cell_angle_alpha   58.39424345
_cell_angle_beta   58.39424935
_cell_angle_gamma   59.99999940
_symmetry_Int_Tables_number   1
_chemical_formula_structural   LaYbCuPt3
_chemical_formula_sum   'La1 Yb1 Cu1 Pt3'
_cell_volume   112.36978963
_cell_formula_units_Z   1
loop_
 _symmetry_equiv_pos_site_id
 _symmetry_equiv_pos_as_xyz
  1  'x, y, z'
loop_
 _atom_site_type_symbol
 _atom_site_label
 _atom_site_symmetry_multiplicity
 _atom_site_fract_x
 _atom_site_fract_y
 _atom_site_fract_z
 _atom_site_occupancy
  La  La0  1  0.999815  0.999815  0.000554  1
  Yb  Yb1  1  0.747142  0.747142  0.758574  1
  Cu  Cu2  1  0.376153  0.376153  0.871540  1
  Pt  Pt3  1  0.376563  0.873763  0.373111  1
  Pt  Pt4  1  0.376563  0.376563  0.373111  1
  Pt  Pt5  1  0.873763  0.376563  0.373111  1
