# generated using pymatgen
data_Tm9MgCd3Co
_symmetry_space_group_name_H-M   'P 1'
_cell_length_a   9.43252400
_cell_length_b   9.43252451
_cell_length_c   9.41727300
_cell_angle_alpha   90.00000000
_cell_angle_beta   90.00000000
_cell_angle_gamma   119.99999820
_symmetry_Int_Tables_number   1
_chemical_formula_structural   Tm9MgCd3Co
_chemical_formula_sum   'Tm18 Mg2 Cd6 Co2'
_cell_volume   725.62403839
_cell_formula_units_Z   2
loop_
 _symmetry_equiv_pos_site_id
 _symmetry_equiv_pos_as_xyz
  1  'x, y, z'
loop_
 _atom_site_type_symbol
 _atom_site_label
 _atom_site_symmetry_multiplicity
 _atom_site_fract_x
 _atom_site_fract_y
 _atom_site_fract_z
 _atom_site_occupancy
  Tm  Tm0  1  0.542178  0.457822  0.250000  1
  Tm  Tm1  1  0.542178  0.084357  0.250000  1
  Tm  Tm2  1  0.915643  0.457822  0.250000  1
  Tm  Tm3  1  0.457822  0.542178  0.750000  1
  Tm  Tm4  1  0.457822  0.915643  0.750000  1
  Tm  Tm5  1  0.084357  0.542178  0.750000  1
  Tm  Tm6  1  0.210487  0.789513  0.437489  1
  Tm  Tm7  1  0.210487  0.420975  0.437489  1
  Tm  Tm8  1  0.579025  0.789513  0.437489  1
  Tm  Tm9  1  0.789513  0.210487  0.562511  1
  Tm  Tm10  1  0.789513  0.579025  0.562511  1
  Tm  Tm11  1  0.420975  0.210487  0.562511  1
  Tm  Tm12  1  0.789513  0.210487  0.937489  1
  Tm  Tm13  1  0.789513  0.579025  0.937489  1
  Tm  Tm14  1  0.420975  0.210487  0.937489  1
  Tm  Tm15  1  0.210487  0.789513  0.062511  1
  Tm  Tm16  1  0.210487  0.420975  0.062511  1
  Tm  Tm17  1  0.579025  0.789513  0.062511  1
  Mg  Mg18  1  0.000000  0.000000  0.500000  1
  Mg  Mg19  1  0.000000  0.000000  0.000000  1
  Cd  Cd20  1  0.888752  0.111248  0.250000  1
  Cd  Cd21  1  0.888752  0.777503  0.250000  1
  Cd  Cd22  1  0.222497  0.111248  0.250000  1
  Cd  Cd23  1  0.111248  0.888752  0.750000  1
  Cd  Cd24  1  0.111248  0.222497  0.750000  1
  Cd  Cd25  1  0.777503  0.888752  0.750000  1
  Co  Co26  1  0.333333  0.666667  0.250000  1
  Co  Co27  1  0.666667  0.333333  0.750000  1
