# generated using pymatgen
data_RbBBr4
_symmetry_space_group_name_H-M   'P 1'
_cell_length_a   11.82793900
_cell_length_b   7.26463400
_cell_length_c   9.68559000
_cell_angle_alpha   90.00000000
_cell_angle_beta   90.00000000
_cell_angle_gamma   90.00000000
_symmetry_Int_Tables_number   1
_chemical_formula_structural   RbBBr4
_chemical_formula_sum   'Rb4 B4 Br16'
_cell_volume   832.24059517
_cell_formula_units_Z   4
loop_
 _symmetry_equiv_pos_site_id
 _symmetry_equiv_pos_as_xyz
  1  'x, y, z'
loop_
 _atom_site_type_symbol
 _atom_site_label
 _atom_site_symmetry_multiplicity
 _atom_site_fract_x
 _atom_site_fract_y
 _atom_site_fract_z
 _atom_site_occupancy
  Rb  Rb0  1  0.680701  0.250000  0.170517  1
  Rb  Rb1  1  0.180702  0.250000  0.329483  1
  Rb  Rb2  1  0.819299  0.750000  0.670517  1
  Rb  Rb3  1  0.319299  0.750000  0.829483  1
  B  B4  1  0.928176  0.750000  0.191909  1
  B  B5  1  0.428176  0.750000  0.308092  1
  B  B6  1  0.571824  0.250000  0.691908  1
  B  B7  1  0.071825  0.250000  0.808091  1
  Br  Br8  1  0.793853  0.750000  0.060877  1
  Br  Br9  1  0.076245  0.750000  0.091060  1
  Br  Br10  1  0.417715  0.523349  0.182117  1
  Br  Br11  1  0.417715  0.976651  0.182117  1
  Br  Br12  1  0.917715  0.523349  0.317883  1
  Br  Br13  1  0.917715  0.976651  0.317883  1
  Br  Br14  1  0.576245  0.750000  0.408941  1
  Br  Br15  1  0.293854  0.750000  0.439124  1
  Br  Br16  1  0.706147  0.250000  0.560876  1
  Br  Br17  1  0.423755  0.250000  0.591059  1
  Br  Br18  1  0.082285  0.023349  0.682117  1
  Br  Br19  1  0.082285  0.476651  0.682117  1
  Br  Br20  1  0.582285  0.023349  0.817883  1
  Br  Br21  1  0.582285  0.476651  0.817883  1
  Br  Br22  1  0.923755  0.250000  0.908940  1
  Br  Br23  1  0.206147  0.250000  0.939123  1
