# generated using pymatgen
data_Dy4Y3Th(ReB6)4
_symmetry_space_group_name_H-M   'P 1'
_cell_length_a   3.71407300
_cell_length_b   9.21041747
_cell_length_c   11.61010502
_cell_angle_alpha   90.03559645
_cell_angle_beta   90.00000000
_cell_angle_gamma   90.00000000
_symmetry_Int_Tables_number   1
_chemical_formula_structural   Dy4Y3Th(ReB6)4
_chemical_formula_sum   'Dy4 Y3 Th1 Re4 B24'
_cell_volume   397.16028640
_cell_formula_units_Z   1
loop_
 _symmetry_equiv_pos_site_id
 _symmetry_equiv_pos_as_xyz
  1  'x, y, z'
loop_
 _atom_site_type_symbol
 _atom_site_label
 _atom_site_symmetry_multiplicity
 _atom_site_fract_x
 _atom_site_fract_y
 _atom_site_fract_z
 _atom_site_occupancy
  Dy  Dy0  1  0.000000  0.941559  0.369344  1
  Dy  Dy1  1  0.000000  0.056507  0.631397  1
  Dy  Dy2  1  0.000000  0.443061  0.128436  1
  Dy  Dy3  1  0.000000  0.557837  0.870457  1
  Y  Y4  1  0.000000  0.677915  0.587146  1
  Y  Y5  1  0.000000  0.823144  0.085022  1
  Y  Y6  1  0.000000  0.176208  0.914087  1
  Th  Th7  1  0.000000  0.322287  0.414141  1
  Re  Re8  1  0.000000  0.638425  0.320609  1
  Re  Re9  1  0.000000  0.362284  0.680083  1
  Re  Re10  1  0.000000  0.137962  0.178380  1
  Re  Re11  1  0.000000  0.861947  0.820978  1
  B  B12  1  0.500000  0.555397  0.432042  1
  B  B13  1  0.500000  0.447045  0.569569  1
  B  B14  1  0.500000  0.052896  0.066522  1
  B  B15  1  0.500000  0.946670  0.932771  1
  B  B16  1  0.500000  0.749462  0.417839  1
  B  B17  1  0.500000  0.251545  0.585212  1
  B  B18  1  0.500000  0.248199  0.080540  1
  B  B19  1  0.500000  0.751427  0.918133  1
  B  B20  1  0.500000  0.791340  0.265111  1
  B  B21  1  0.500000  0.208884  0.736011  1
  B  B22  1  0.500000  0.289735  0.232184  1
  B  B23  1  0.500000  0.708843  0.765865  1
  B  B24  1  0.500000  0.631535  0.184746  1
  B  B25  1  0.500000  0.370056  0.815016  1
  B  B26  1  0.500000  0.128988  0.312086  1
  B  B27  1  0.500000  0.869355  0.686398  1
  B  B28  1  0.500000  0.981990  0.210917  1
  B  B29  1  0.500000  0.017128  0.788648  1
  B  B30  1  0.500000  0.485281  0.286357  1
  B  B31  1  0.500000  0.518141  0.713481  1
  B  B32  1  0.500000  0.601352  0.027799  1
  B  B33  1  0.500000  0.399378  0.971434  1
  B  B34  1  0.500000  0.097251  0.472784  1
  B  B35  1  0.500000  0.898966  0.528451  1
