# generated using pymatgen
data_Zr10AlZnGeSb5
_symmetry_space_group_name_H-M   'P 1'
_cell_length_a   8.64744863
_cell_length_b   8.64744881
_cell_length_c   5.86299696
_cell_angle_alpha   90.07442196
_cell_angle_beta   90.07441867
_cell_angle_gamma   120.08222391
_symmetry_Int_Tables_number   1
_chemical_formula_structural   Zr10AlZnGeSb5
_chemical_formula_sum   'Zr10 Al1 Zn1 Ge1 Sb5'
_cell_volume   379.37123120
_cell_formula_units_Z   1
loop_
 _symmetry_equiv_pos_site_id
 _symmetry_equiv_pos_as_xyz
  1  'x, y, z'
loop_
 _atom_site_type_symbol
 _atom_site_label
 _atom_site_symmetry_multiplicity
 _atom_site_fract_x
 _atom_site_fract_y
 _atom_site_fract_z
 _atom_site_occupancy
  Zr  Zr0  1  0.665017  0.333466  0.997429  1
  Zr  Zr1  1  0.333466  0.665017  0.997429  1
  Zr  Zr2  1  0.333520  0.664453  0.502785  1
  Zr  Zr3  1  0.664453  0.333520  0.502785  1
  Zr  Zr4  1  0.726782  0.726782  0.746795  1
  Zr  Zr5  1  0.273101  0.007864  0.747980  1
  Zr  Zr6  1  0.007864  0.273101  0.747980  1
  Zr  Zr7  1  0.263758  0.263758  0.251477  1
  Zr  Zr8  1  0.734903  0.998452  0.253081  1
  Zr  Zr9  1  0.998452  0.734903  0.253081  1
  Al  Al10  1  0.388658  0.388658  0.752563  1
  Zn  Zn11  1  0.000174  0.000174  0.992058  1
  Ge  Ge12  1  0.000387  0.000387  0.506761  1
  Sb  Sb13  1  0.614867  0.001143  0.753014  1
  Sb  Sb14  1  0.001143  0.614867  0.753014  1
  Sb  Sb15  1  0.604336  0.604336  0.246241  1
  Sb  Sb16  1  0.389485  0.999634  0.247763  1
  Sb  Sb17  1  0.999634  0.389485  0.247763  1
