# generated using pymatgen
data_Ti5Sb2C3
_symmetry_space_group_name_H-M   'P 1'
_cell_length_a   16.21878558
_cell_length_b   16.21878544
_cell_length_c   16.21878515
_cell_angle_alpha   11.27415277
_cell_angle_beta   11.27415436
_cell_angle_gamma   11.27415071
_symmetry_Int_Tables_number   1
_chemical_formula_structural   Ti5Sb2C3
_chemical_formula_sum   'Ti5 Sb2 C3'
_cell_volume   141.67550665
_cell_formula_units_Z   1
loop_
 _symmetry_equiv_pos_site_id
 _symmetry_equiv_pos_as_xyz
  1  'x, y, z'
loop_
 _atom_site_type_symbol
 _atom_site_label
 _atom_site_symmetry_multiplicity
 _atom_site_fract_x
 _atom_site_fract_y
 _atom_site_fract_z
 _atom_site_occupancy
  Ti  Ti0  1  0.500000  0.500000  0.500000  1
  Ti  Ti1  1  0.214163  0.214163  0.214163  1
  Ti  Ti2  1  0.311129  0.311129  0.311129  1
  Ti  Ti3  1  0.688871  0.688871  0.688871  1
  Ti  Ti4  1  0.785837  0.785837  0.785837  1
  Sb  Sb5  1  0.404208  0.404208  0.404208  1
  Sb  Sb6  1  0.595792  0.595792  0.595792  1
  C  C7  1  0.140360  0.140360  0.140360  1
  C  C8  1  0.859640  0.859640  0.859640  1
  C  C9  1  0.000000  0.000000  0.000000  1
