# generated using pymatgen
data_BaLiGaP2
_symmetry_space_group_name_H-M   'P 1'
_cell_length_a   7.21496649
_cell_length_b   7.21496685
_cell_length_c   7.21496900
_cell_angle_alpha   147.64658126
_cell_angle_beta   147.64658579
_cell_angle_gamma   46.40735746
_symmetry_Int_Tables_number   1
_chemical_formula_structural   BaLiGaP2
_chemical_formula_sum   'Ba1 Li1 Ga1 P2'
_cell_volume   107.17538627
_cell_formula_units_Z   1
loop_
 _symmetry_equiv_pos_site_id
 _symmetry_equiv_pos_as_xyz
  1  'x, y, z'
loop_
 _atom_site_type_symbol
 _atom_site_label
 _atom_site_symmetry_multiplicity
 _atom_site_fract_x
 _atom_site_fract_y
 _atom_site_fract_z
 _atom_site_occupancy
  Ba  Ba0  1  0.000000  0.000000  0.000000  1
  Li  Li1  1  0.750000  0.250000  0.500000  1
  Ga  Ga2  1  0.250000  0.750000  0.500000  1
  P  P3  1  0.640381  0.640381  0.000000  1
  P  P4  1  0.359619  0.359619  0.000000  1
