# generated using pymatgen
data_LaPr7V4O20
_symmetry_space_group_name_H-M   'P 1'
_cell_length_a   3.92459900
_cell_length_b   10.91496172
_cell_length_c   11.52233575
_cell_angle_alpha   90.04153999
_cell_angle_beta   90.00000000
_cell_angle_gamma   90.00000000
_symmetry_Int_Tables_number   1
_chemical_formula_structural   LaPr7V4O20
_chemical_formula_sum   'La1 Pr7 V4 O20'
_cell_volume   493.58041387
_cell_formula_units_Z   1
loop_
 _symmetry_equiv_pos_site_id
 _symmetry_equiv_pos_as_xyz
  1  'x, y, z'
loop_
 _atom_site_type_symbol
 _atom_site_label
 _atom_site_symmetry_multiplicity
 _atom_site_fract_x
 _atom_site_fract_y
 _atom_site_fract_z
 _atom_site_occupancy
  La  La0  1  0.250000  0.136637  0.941448  1
  Pr  Pr1  1  0.250000  0.637974  0.556203  1
  Pr  Pr2  1  0.750000  0.861113  0.057180  1
  Pr  Pr3  1  0.750000  0.362139  0.443108  1
  Pr  Pr4  1  0.750000  0.394211  0.777116  1
  Pr  Pr5  1  0.750000  0.892378  0.722000  1
  Pr  Pr6  1  0.250000  0.606495  0.222409  1
  Pr  Pr7  1  0.250000  0.107170  0.277396  1
  V  V8  1  0.250000  0.183398  0.623534  1
  V  V9  1  0.250000  0.682918  0.876209  1
  V  V10  1  0.750000  0.817135  0.376211  1
  V  V11  1  0.750000  0.317219  0.123723  1
  O  O12  1  0.250000  0.225700  0.464873  1
  O  O13  1  0.250000  0.725066  0.035138  1
  O  O14  1  0.750000  0.774434  0.535031  1
  O  O15  1  0.750000  0.274921  0.964963  1
  O  O16  1  0.250000  0.491289  0.396930  1
  O  O17  1  0.250000  0.990713  0.103583  1
  O  O18  1  0.750000  0.509027  0.602934  1
  O  O19  1  0.750000  0.006769  0.897350  1
  O  O20  1  0.250000  0.265584  0.121865  1
  O  O21  1  0.250000  0.764514  0.379028  1
  O  O22  1  0.750000  0.734945  0.878806  1
  O  O23  1  0.750000  0.235477  0.620779  1
  O  O24  1  0.250000  0.029600  0.665894  1
  O  O25  1  0.250000  0.528788  0.836092  1
  O  O26  1  0.750000  0.971415  0.336590  1
  O  O27  1  0.750000  0.471539  0.164783  1
  O  O28  1  0.250000  0.273702  0.767368  1
  O  O29  1  0.250000  0.771652  0.731287  1
  O  O30  1  0.750000  0.727967  0.231667  1
  O  O31  1  0.750000  0.228112  0.268505  1
