# generated using pymatgen
data_Ac6Si3Au
_symmetry_space_group_name_H-M   'P 1'
_cell_length_a   8.26942556
_cell_length_b   8.26942527
_cell_length_c   4.71126700
_cell_angle_alpha   90.00000000
_cell_angle_beta   90.00000000
_cell_angle_gamma   86.53808634
_symmetry_Int_Tables_number   1
_chemical_formula_structural   Ac6Si3Au
_chemical_formula_sum   'Ac6 Si3 Au1'
_cell_volume   321.58452683
_cell_formula_units_Z   1
loop_
 _symmetry_equiv_pos_site_id
 _symmetry_equiv_pos_as_xyz
  1  'x, y, z'
loop_
 _atom_site_type_symbol
 _atom_site_label
 _atom_site_symmetry_multiplicity
 _atom_site_fract_x
 _atom_site_fract_y
 _atom_site_fract_z
 _atom_site_occupancy
  Ac  Ac0  1  0.500399  0.503475  0.000000  1
  Ac  Ac1  1  0.003475  0.000399  0.000000  1
  Ac  Ac2  1  0.669203  0.169203  0.500000  1
  Ac  Ac3  1  0.338043  0.838043  0.500000  1
  Ac  Ac4  1  0.171254  0.323256  0.500000  1
  Ac  Ac5  1  0.823256  0.671254  0.500000  1
  Si  Si6  1  0.879705  0.379705  0.000000  1
  Si  Si7  1  0.608622  0.890015  0.000000  1
  Si  Si8  1  0.390015  0.108622  0.000000  1
  Au  Au9  1  0.116028  0.616028  0.000000  1
