# generated using pymatgen
data_CaY6(CCl5)2
_symmetry_space_group_name_H-M   'P 1'
_cell_length_a   10.14756222
_cell_length_b   10.14756308
_cell_length_c   12.68153993
_cell_angle_alpha   81.18089511
_cell_angle_beta   81.18089506
_cell_angle_gamma   21.68930164
_symmetry_Int_Tables_number   1
_chemical_formula_structural   CaY6(CCl5)2
_chemical_formula_sum   'Ca1 Y6 C2 Cl10'
_cell_volume   476.69323667
_cell_formula_units_Z   1
loop_
 _symmetry_equiv_pos_site_id
 _symmetry_equiv_pos_as_xyz
  1  'x, y, z'
loop_
 _atom_site_type_symbol
 _atom_site_label
 _atom_site_symmetry_multiplicity
 _atom_site_fract_x
 _atom_site_fract_y
 _atom_site_fract_z
 _atom_site_occupancy
  Ca  Ca0  1  0.000000  0.000000  0.000000  1
  Y  Y1  1  0.819672  0.819672  0.507982  1
  Y  Y2  1  0.180328  0.180328  0.492018  1
  Y  Y3  1  0.697853  0.697853  0.726365  1
  Y  Y4  1  0.302147  0.302147  0.273635  1
  Y  Y5  1  0.348067  0.348067  0.737250  1
  Y  Y6  1  0.651933  0.651933  0.262750  1
  C  C7  1  0.262261  0.262261  0.628268  1
  C  C8  1  0.737739  0.737739  0.371732  1
  Cl  Cl9  1  0.449910  0.449910  0.880461  1
  Cl  Cl10  1  0.550090  0.550090  0.119539  1
  Cl  Cl11  1  0.787858  0.787858  0.872838  1
  Cl  Cl12  1  0.212142  0.212142  0.127162  1
  Cl  Cl13  1  0.124743  0.124743  0.861988  1
  Cl  Cl14  1  0.073450  0.073450  0.369983  1
  Cl  Cl15  1  0.926550  0.926550  0.630017  1
  Cl  Cl16  1  0.403688  0.403688  0.389085  1
  Cl  Cl17  1  0.596312  0.596312  0.610915  1
  Cl  Cl18  1  0.875257  0.875257  0.138012  1
