# generated using pymatgen
data_UIO2
_symmetry_space_group_name_H-M   'P 1'
_cell_length_a   11.56636408
_cell_length_b   11.56636303
_cell_length_c   4.08171100
_cell_angle_alpha   90.00000000
_cell_angle_beta   90.00000000
_cell_angle_gamma   159.27359423
_symmetry_Int_Tables_number   1
_chemical_formula_structural   UIO2
_chemical_formula_sum   'U2 I2 O4'
_cell_volume   193.25189424
_cell_formula_units_Z   2
loop_
 _symmetry_equiv_pos_site_id
 _symmetry_equiv_pos_as_xyz
  1  'x, y, z'
loop_
 _atom_site_type_symbol
 _atom_site_label
 _atom_site_symmetry_multiplicity
 _atom_site_fract_x
 _atom_site_fract_y
 _atom_site_fract_z
 _atom_site_occupancy
  U  U0  1  0.932148  0.067854  0.249999  1
  U  U1  1  0.067854  0.932148  0.750000  1
  I  I2  1  0.175195  0.824806  0.249999  1
  I  I3  1  0.824806  0.175195  0.750000  1
  O  O4  1  0.429472  0.570530  0.249999  1
  O  O5  1  0.032830  0.967172  0.249999  1
  O  O6  1  0.967172  0.032830  0.750000  1
  O  O7  1  0.570530  0.429472  0.750000  1
