# generated using pymatgen
data_Yb9PdPt5
_symmetry_space_group_name_H-M   'P 1'
_cell_length_a   7.51953324
_cell_length_b   7.51526838
_cell_length_c   7.49211390
_cell_angle_alpha   70.37685271
_cell_angle_beta   70.62750050
_cell_angle_gamma   70.30451074
_symmetry_Int_Tables_number   1
_chemical_formula_structural   Yb9PdPt5
_chemical_formula_sum   'Yb9 Pd1 Pt5'
_cell_volume   363.89068572
_cell_formula_units_Z   1
loop_
 _symmetry_equiv_pos_site_id
 _symmetry_equiv_pos_as_xyz
  1  'x, y, z'
loop_
 _atom_site_type_symbol
 _atom_site_label
 _atom_site_symmetry_multiplicity
 _atom_site_fract_x
 _atom_site_fract_y
 _atom_site_fract_z
 _atom_site_occupancy
  Yb  Yb0  1  0.998634  0.000921  0.001899  1
  Yb  Yb1  1  0.798787  0.800681  0.804691  1
  Yb  Yb2  1  0.197389  0.197265  0.197112  1
  Yb  Yb3  1  0.330186  0.593949  0.853740  1
  Yb  Yb4  1  0.846700  0.333744  0.596948  1
  Yb  Yb5  1  0.602684  0.850884  0.325900  1
  Yb  Yb6  1  0.671950  0.401652  0.150085  1
  Yb  Yb7  1  0.148190  0.667896  0.402031  1
  Yb  Yb8  1  0.405382  0.150141  0.671489  1
  Pd  Pd9  1  0.162465  0.954039  0.589117  1
  Pt  Pt10  1  0.588727  0.167697  0.953747  1
  Pt  Pt11  1  0.954490  0.590142  0.162478  1
  Pt  Pt12  1  0.838578  0.045616  0.412509  1
  Pt  Pt13  1  0.407921  0.834997  0.047073  1
  Pt  Pt14  1  0.047917  0.410375  0.831181  1
