# generated using pymatgen
data_Hf3Sc5FeSi16Ru11
_symmetry_space_group_name_H-M   'P 1'
_cell_length_a   9.89886841
_cell_length_b   9.91597215
_cell_length_c   13.31556038
_cell_angle_alpha   53.83179614
_cell_angle_beta   53.80728946
_cell_angle_gamma   31.01065226
_symmetry_Int_Tables_number   1
_chemical_formula_structural   Hf3Sc5FeSi16Ru11
_chemical_formula_sum   'Hf3 Sc5 Fe1 Si16 Ru11'
_cell_volume   532.21323251
_cell_formula_units_Z   1
loop_
 _symmetry_equiv_pos_site_id
 _symmetry_equiv_pos_as_xyz
  1  'x, y, z'
loop_
 _atom_site_type_symbol
 _atom_site_label
 _atom_site_symmetry_multiplicity
 _atom_site_fract_x
 _atom_site_fract_y
 _atom_site_fract_z
 _atom_site_occupancy
  Hf  Hf0  1  0.704844  0.960946  0.865043  1
  Hf  Hf1  1  0.958319  0.705696  0.363213  1
  Hf  Hf2  1  0.294691  0.038689  0.137026  1
  Sc  Sc3  1  0.293281  0.560457  0.645438  1
  Sc  Sc4  1  0.438076  0.707517  0.854582  1
  Sc  Sc5  1  0.707525  0.440696  0.353239  1
  Sc  Sc6  1  0.560122  0.292824  0.147093  1
  Sc  Sc7  1  0.037253  0.294133  0.637403  1
  Fe  Fe8  1  0.649990  0.830513  0.280810  1
  Si  Si9  1  0.875532  0.124132  0.250543  1
  Si  Si10  1  0.126157  0.874724  0.749160  1
  Si  Si11  1  0.382706  0.617160  0.249931  1
  Si  Si12  1  0.617299  0.383136  0.749454  1
  Si  Si13  1  0.972347  0.255008  0.891165  1
  Si  Si14  1  0.747856  0.025472  0.608079  1
  Si  Si15  1  0.020068  0.747620  0.112015  1
  Si  Si16  1  0.265029  0.969297  0.389313  1
  Si  Si17  1  0.575201  0.078369  0.071118  1
  Si  Si18  1  0.911824  0.432285  0.431783  1
  Si  Si19  1  0.424377  0.917940  0.934104  1
  Si  Si20  1  0.081383  0.574570  0.565568  1
  Si  Si21  1  0.390426  0.138923  0.393581  1
  Si  Si22  1  0.852024  0.615710  0.106789  1
  Si  Si23  1  0.612364  0.856715  0.603814  1
  Si  Si24  1  0.146567  0.385998  0.895307  1
  Ru  Ru25  1  0.168651  0.350733  0.219914  1
  Ru  Ru26  1  0.759083  0.484881  0.070452  1
  Ru  Ru27  1  0.829771  0.649035  0.782764  1
  Ru  Ru28  1  0.897949  0.143705  0.584292  1
  Ru  Ru29  1  0.855706  0.101141  0.915593  1
  Ru  Ru30  1  0.105155  0.857058  0.413914  1
  Ru  Ru31  1  0.142197  0.897153  0.085897  1
  Ru  Ru32  1  0.242915  0.512879  0.931256  1
  Ru  Ru33  1  0.488878  0.758167  0.564630  1
  Ru  Ru34  1  0.512173  0.245657  0.428177  1
  Ru  Ru35  1  0.352258  0.171062  0.717543  1
