# generated using pymatgen
data_Zr9TaRe3Rh
_symmetry_space_group_name_H-M   'P 1'
_cell_length_a   8.83856400
_cell_length_b   8.83829912
_cell_length_c   8.53582100
_cell_angle_alpha   90.00000000
_cell_angle_beta   90.00000000
_cell_angle_gamma   120.00052596
_symmetry_Int_Tables_number   1
_chemical_formula_structural   Zr9TaRe3Rh
_chemical_formula_sum   'Zr18 Ta2 Re6 Rh2'
_cell_volume   577.46283123
_cell_formula_units_Z   2
loop_
 _symmetry_equiv_pos_site_id
 _symmetry_equiv_pos_as_xyz
  1  'x, y, z'
loop_
 _atom_site_type_symbol
 _atom_site_label
 _atom_site_symmetry_multiplicity
 _atom_site_fract_x
 _atom_site_fract_y
 _atom_site_fract_z
 _atom_site_occupancy
  Zr  Zr0  1  0.196580  0.803410  0.445329  1
  Zr  Zr1  1  0.196585  0.393175  0.445322  1
  Zr  Zr2  1  0.606832  0.803414  0.445325  1
  Zr  Zr3  1  0.803420  0.196590  0.554671  1
  Zr  Zr4  1  0.803415  0.606825  0.554678  1
  Zr  Zr5  1  0.393168  0.196586  0.554675  1
  Zr  Zr6  1  0.803420  0.196590  0.945329  1
  Zr  Zr7  1  0.803415  0.606825  0.945322  1
  Zr  Zr8  1  0.393168  0.196586  0.945325  1
  Zr  Zr9  1  0.196580  0.803410  0.054671  1
  Zr  Zr10  1  0.196585  0.393175  0.054678  1
  Zr  Zr11  1  0.606832  0.803414  0.054675  1
  Zr  Zr12  1  0.542891  0.457105  0.250000  1
  Zr  Zr13  1  0.542899  0.085788  0.250000  1
  Zr  Zr14  1  0.914223  0.457108  0.250000  1
  Zr  Zr15  1  0.457109  0.542895  0.750000  1
  Zr  Zr16  1  0.457101  0.914212  0.750000  1
  Zr  Zr17  1  0.085777  0.542892  0.750000  1
  Ta  Ta18  1  0.000000  0.000000  0.500000  1
  Ta  Ta19  1  0.000000  0.000000  0.000000  1
  Re  Re20  1  0.890012  0.110010  0.250000  1
  Re  Re21  1  0.890000  0.780006  0.250000  1
  Re  Re22  1  0.219998  0.110017  0.250000  1
  Re  Re23  1  0.109988  0.889990  0.750000  1
  Re  Re24  1  0.110000  0.219994  0.750000  1
  Re  Re25  1  0.780002  0.889983  0.750000  1
  Rh  Rh26  1  0.333330  0.666652  0.250000  1
  Rh  Rh27  1  0.666670  0.333348  0.750000  1
