# generated using pymatgen
data_Yb2Pr18Si15P
_symmetry_space_group_name_H-M   'P 1'
_cell_length_a   7.92126376
_cell_length_b   7.91608388
_cell_length_c   15.24723100
_cell_angle_alpha   90.05754851
_cell_angle_beta   89.67586584
_cell_angle_gamma   90.20168098
_symmetry_Int_Tables_number   1
_chemical_formula_structural   Yb2Pr18Si15P
_chemical_formula_sum   'Yb2 Pr18 Si15 P1'
_cell_volume   956.06185494
_cell_formula_units_Z   1
loop_
 _symmetry_equiv_pos_site_id
 _symmetry_equiv_pos_as_xyz
  1  'x, y, z'
loop_
 _atom_site_type_symbol
 _atom_site_label
 _atom_site_symmetry_multiplicity
 _atom_site_fract_x
 _atom_site_fract_y
 _atom_site_fract_z
 _atom_site_occupancy
  Yb  Yb0  1  0.312643  0.311002  0.000361  1
  Yb  Yb1  1  0.188559  0.809088  0.250007  1
  Pr  Pr2  1  0.806775  0.194500  0.749004  1
  Pr  Pr3  1  0.689088  0.692474  0.500588  1
  Pr  Pr4  1  0.382325  0.007776  0.442628  1
  Pr  Pr5  1  0.487701  0.877391  0.698869  1
  Pr  Pr6  1  0.509488  0.120435  0.195899  1
  Pr  Pr7  1  0.875265  0.489757  0.301500  1
  Pr  Pr8  1  0.122556  0.508843  0.803909  1
  Pr  Pr9  1  0.623983  0.990949  0.947618  1
  Pr  Pr10  1  0.010271  0.374968  0.552751  1
  Pr  Pr11  1  0.991588  0.619301  0.053448  1
  Pr  Pr12  1  0.126971  0.986052  0.876067  1
  Pr  Pr13  1  0.513297  0.626697  0.125865  1
  Pr  Pr14  1  0.475295  0.369428  0.627494  1
  Pr  Pr15  1  0.627315  0.515687  0.873470  1
  Pr  Pr16  1  0.373483  0.481455  0.373913  1
  Pr  Pr17  1  0.875067  0.015374  0.376630  1
  Pr  Pr18  1  0.986859  0.125139  0.122648  1
  Pr  Pr19  1  0.023480  0.879758  0.624235  1
  Si  Si20  1  0.331944  0.699500  0.950182  1
  Si  Si21  1  0.668941  0.304754  0.452390  1
  Si  Si22  1  0.701205  0.334147  0.050519  1
  Si  Si23  1  0.302971  0.667625  0.548969  1
  Si  Si24  1  0.800859  0.833268  0.199728  1
  Si  Si25  1  0.166705  0.199232  0.297554  1
  Si  Si26  1  0.833599  0.804486  0.798042  1
  Si  Si27  1  0.287349  0.917775  0.059153  1
  Si  Si28  1  0.581591  0.787096  0.308328  1
  Si  Si29  1  0.423629  0.209901  0.811378  1
  Si  Si30  1  0.790096  0.579520  0.689546  1
  Si  Si31  1  0.212595  0.418457  0.190002  1
  Si  Si32  1  0.709620  0.077264  0.559754  1
  Si  Si33  1  0.919595  0.287834  0.940958  1
  Si  Si34  1  0.077581  0.709280  0.441075  1
  P  P35  1  0.189705  0.173790  0.705516  1
