# generated using pymatgen
data_Dy3Y5(Si3Rh)4
_symmetry_space_group_name_H-M   'P 1'
_cell_length_a   8.18130100
_cell_length_b   8.18130205
_cell_length_c   7.91862100
_cell_angle_alpha   90.00000000
_cell_angle_beta   90.00000000
_cell_angle_gamma   119.99999172
_symmetry_Int_Tables_number   1
_chemical_formula_structural   Dy3Y5(Si3Rh)4
_chemical_formula_sum   'Dy3 Y5 Si12 Rh4'
_cell_volume   459.01303968
_cell_formula_units_Z   1
loop_
 _symmetry_equiv_pos_site_id
 _symmetry_equiv_pos_as_xyz
  1  'x, y, z'
loop_
 _atom_site_type_symbol
 _atom_site_label
 _atom_site_symmetry_multiplicity
 _atom_site_fract_x
 _atom_site_fract_y
 _atom_site_fract_z
 _atom_site_occupancy
  Dy  Dy0  1  0.491252  0.508748  0.750000  1
  Dy  Dy1  1  0.491252  0.982503  0.750000  1
  Dy  Dy2  1  0.017497  0.508748  0.750000  1
  Y  Y3  1  0.000000  0.000000  0.250000  1
  Y  Y4  1  0.000000  0.000000  0.750000  1
  Y  Y5  1  0.508896  0.491104  0.250000  1
  Y  Y6  1  0.508896  0.017794  0.250000  1
  Y  Y7  1  0.982206  0.491104  0.250000  1
  Si  Si8  1  0.166968  0.833032  0.500024  1
  Si  Si9  1  0.166968  0.333937  0.500024  1
  Si  Si10  1  0.666063  0.833032  0.500024  1
  Si  Si11  1  0.833023  0.166977  0.500643  1
  Si  Si12  1  0.833023  0.666044  0.500643  1
  Si  Si13  1  0.333956  0.166977  0.500643  1
  Si  Si14  1  0.833023  0.166977  0.999357  1
  Si  Si15  1  0.833023  0.666044  0.999357  1
  Si  Si16  1  0.333956  0.166977  0.999357  1
  Si  Si17  1  0.166968  0.833032  0.999976  1
  Si  Si18  1  0.166968  0.333937  0.999976  1
  Si  Si19  1  0.666063  0.833032  0.999976  1
  Rh  Rh20  1  0.333333  0.666667  0.467984  1
  Rh  Rh21  1  0.666667  0.333333  0.534191  1
  Rh  Rh22  1  0.666667  0.333333  0.965809  1
  Rh  Rh23  1  0.333333  0.666667  0.032016  1
