# generated using pymatgen
data_Tm3Lu(V3Si4)2
_symmetry_space_group_name_H-M   'P 1'
_cell_length_a   6.62216600
_cell_length_b   6.81079425
_cell_length_c   12.80110948
_cell_angle_alpha   89.96876123
_cell_angle_beta   90.00000000
_cell_angle_gamma   90.00000000
_symmetry_Int_Tables_number   1
_chemical_formula_structural   Tm3Lu(V3Si4)2
_chemical_formula_sum   'Tm6 Lu2 V12 Si16'
_cell_volume   577.35824373
_cell_formula_units_Z   2
loop_
 _symmetry_equiv_pos_site_id
 _symmetry_equiv_pos_as_xyz
  1  'x, y, z'
loop_
 _atom_site_type_symbol
 _atom_site_label
 _atom_site_symmetry_multiplicity
 _atom_site_fract_x
 _atom_site_fract_y
 _atom_site_fract_z
 _atom_site_occupancy
  Tm  Tm0  1  0.498815  0.330698  0.095337  1
  Tm  Tm1  1  0.998815  0.169302  0.404663  1
  Tm  Tm2  1  0.501191  0.669168  0.595212  1
  Tm  Tm3  1  0.001191  0.830832  0.904788  1
  Tm  Tm4  1  0.501217  0.669256  0.904744  1
  Tm  Tm5  1  0.001217  0.830744  0.595256  1
  Lu  Lu6  1  0.498577  0.330541  0.404468  1
  Lu  Lu7  1  0.998577  0.169459  0.095532  1
  V  V8  1  0.837529  0.326877  0.626194  1
  V  V9  1  0.337529  0.173123  0.873806  1
  V  V10  1  0.162464  0.673170  0.126302  1
  V  V11  1  0.662464  0.826830  0.373698  1
  V  V12  1  0.162503  0.673019  0.373754  1
  V  V13  1  0.662503  0.826981  0.126246  1
  V  V14  1  0.837644  0.326786  0.873849  1
  V  V15  1  0.337644  0.173214  0.626151  1
  V  V16  1  0.665435  0.013403  0.750004  1
  V  V17  1  0.165435  0.486597  0.749996  1
  V  V18  1  0.334608  0.986698  0.249957  1
  V  V19  1  0.834608  0.513302  0.250043  1
  Si  Si20  1  0.661414  0.042730  0.543245  1
  Si  Si21  1  0.161414  0.457270  0.956755  1
  Si  Si22  1  0.337689  0.957997  0.043633  1
  Si  Si23  1  0.837689  0.542003  0.456367  1
  Si  Si24  1  0.338704  0.958200  0.456385  1
  Si  Si25  1  0.838704  0.541800  0.043615  1
  Si  Si26  1  0.661947  0.042452  0.956717  1
  Si  Si27  1  0.161947  0.457548  0.543283  1
  Si  Si28  1  0.540061  0.367215  0.750021  1
  Si  Si29  1  0.040061  0.132785  0.749979  1
  Si  Si30  1  0.460022  0.632469  0.250150  1
  Si  Si31  1  0.960022  0.867531  0.249850  1
  Si  Si32  1  0.804024  0.620281  0.750022  1
  Si  Si33  1  0.304024  0.879719  0.749978  1
  Si  Si34  1  0.196157  0.379132  0.249973  1
  Si  Si35  1  0.696157  0.120868  0.250027  1
