# generated using pymatgen
data_Ca19LaIr3Pd
_symmetry_space_group_name_H-M   'P 1'
_cell_length_a   6.85509032
_cell_length_b   7.55658283
_cell_length_c   16.07861900
_cell_angle_alpha   90.00000000
_cell_angle_beta   90.00000000
_cell_angle_gamma   90.79359298
_symmetry_Int_Tables_number   1
_chemical_formula_structural   Ca19LaIr3Pd
_chemical_formula_sum   'Ca19 La1 Ir3 Pd1'
_cell_volume   832.80958122
_cell_formula_units_Z   1
loop_
 _symmetry_equiv_pos_site_id
 _symmetry_equiv_pos_as_xyz
  1  'x, y, z'
loop_
 _atom_site_type_symbol
 _atom_site_label
 _atom_site_symmetry_multiplicity
 _atom_site_fract_x
 _atom_site_fract_y
 _atom_site_fract_z
 _atom_site_occupancy
  Ca  Ca0  1  0.856865  0.190389  0.559225  1
  Ca  Ca1  1  0.839052  0.903522  0.750000  1
  Ca  Ca2  1  0.824098  0.462518  0.145935  1
  Ca  Ca3  1  0.177300  0.544083  0.643800  1
  Ca  Ca4  1  0.356507  0.312019  0.063618  1
  Ca  Ca5  1  0.343541  0.596376  0.250000  1
  Ca  Ca6  1  0.824098  0.462518  0.354065  1
  Ca  Ca7  1  0.330299  0.031190  0.856816  1
  Ca  Ca8  1  0.141180  0.806536  0.063507  1
  Ca  Ca9  1  0.646050  0.688466  0.565857  1
  Ca  Ca10  1  0.674351  0.963137  0.355443  1
  Ca  Ca11  1  0.646050  0.688466  0.934143  1
  Ca  Ca12  1  0.330299  0.031190  0.643184  1
  Ca  Ca13  1  0.141180  0.806536  0.436493  1
  Ca  Ca14  1  0.646240  0.405654  0.750000  1
  Ca  Ca15  1  0.177300  0.544083  0.856200  1
  Ca  Ca16  1  0.356507  0.312019  0.436382  1
  Ca  Ca17  1  0.674351  0.963137  0.144557  1
  Ca  Ca18  1  0.856865  0.190389  0.940775  1
  La  La19  1  0.160680  0.087878  0.250000  1
  Ir  Ir20  1  0.462325  0.739207  0.750000  1
  Ir  Ir21  1  0.521130  0.255720  0.250000  1
  Ir  Ir22  1  0.971735  0.773074  0.250000  1
  Pd  Pd23  1  0.041996  0.241890  0.750000  1
