# generated using pymatgen
data_Sr8CaYb(InSb3)4
_symmetry_space_group_name_H-M   'P 1'
_cell_length_a   4.73344500
_cell_length_b   12.64911173
_cell_length_c   14.75425002
_cell_angle_alpha   89.94000081
_cell_angle_beta   90.00000000
_cell_angle_gamma   90.00000000
_symmetry_Int_Tables_number   1
_chemical_formula_structural   Sr8CaYb(InSb3)4
_chemical_formula_sum   'Sr8 Ca1 Yb1 In4 Sb12'
_cell_volume   883.39363264
_cell_formula_units_Z   1
loop_
 _symmetry_equiv_pos_site_id
 _symmetry_equiv_pos_as_xyz
  1  'x, y, z'
loop_
 _atom_site_type_symbol
 _atom_site_label
 _atom_site_symmetry_multiplicity
 _atom_site_fract_x
 _atom_site_fract_y
 _atom_site_fract_z
 _atom_site_occupancy
  Sr  Sr0  1  0.500000  0.088720  0.748316  1
  Sr  Sr1  1  0.500000  0.174617  0.018092  1
  Sr  Sr2  1  0.500000  0.411307  0.248179  1
  Sr  Sr3  1  0.500000  0.825383  0.981908  1
  Sr  Sr4  1  0.500000  0.325435  0.518102  1
  Sr  Sr5  1  0.500000  0.588693  0.751821  1
  Sr  Sr6  1  0.500000  0.911280  0.251684  1
  Sr  Sr7  1  0.500000  0.674565  0.481898  1
  Ca  Ca8  1  0.500000  0.000000  0.500000  1
  Yb  Yb9  1  0.500000  0.500000  0.000000  1
  In  In10  1  0.000000  0.328293  0.714345  1
  In  In11  1  0.000000  0.171548  0.214425  1
  In  In12  1  0.000000  0.671707  0.285655  1
  In  In13  1  0.000000  0.828452  0.785575  1
  Sb  Sb14  1  0.000000  0.647136  0.909292  1
  Sb  Sb15  1  0.500000  0.661769  0.171695  1
  Sb  Sb16  1  0.000000  0.025525  0.904400  1
  Sb  Sb17  1  0.000000  0.474436  0.404412  1
  Sb  Sb18  1  0.500000  0.338231  0.828305  1
  Sb  Sb19  1  0.500000  0.162117  0.328249  1
  Sb  Sb20  1  0.000000  0.352864  0.090708  1
  Sb  Sb21  1  0.000000  0.147662  0.591025  1
  Sb  Sb22  1  0.000000  0.974475  0.095600  1
  Sb  Sb23  1  0.500000  0.837883  0.671751  1
  Sb  Sb24  1  0.000000  0.525564  0.595588  1
  Sb  Sb25  1  0.000000  0.852338  0.408975  1
