# generated using pymatgen
data_Th2Ni14(GeH)3
_symmetry_space_group_name_H-M   'P 1'
_cell_length_a   6.38530706
_cell_length_b   6.38530581
_cell_length_c   6.38530629
_cell_angle_alpha   84.01765388
_cell_angle_beta   84.01764871
_cell_angle_gamma   84.01764723
_symmetry_Int_Tables_number   1
_chemical_formula_structural   Th2Ni14(GeH)3
_chemical_formula_sum   'Th2 Ni14 Ge3 H3'
_cell_volume   256.36507926
_cell_formula_units_Z   1
loop_
 _symmetry_equiv_pos_site_id
 _symmetry_equiv_pos_as_xyz
  1  'x, y, z'
loop_
 _atom_site_type_symbol
 _atom_site_label
 _atom_site_symmetry_multiplicity
 _atom_site_fract_x
 _atom_site_fract_y
 _atom_site_fract_z
 _atom_site_occupancy
  Th  Th0  1  0.651557  0.651557  0.651557  1
  Th  Th1  1  0.348443  0.348443  0.348443  1
  Ni  Ni2  1  0.708101  0.291899  0.000000  1
  Ni  Ni3  1  0.000000  0.708101  0.291899  1
  Ni  Ni4  1  0.291899  0.000000  0.708101  1
  Ni  Ni5  1  0.000000  0.291899  0.708101  1
  Ni  Ni6  1  0.708101  0.000000  0.291899  1
  Ni  Ni7  1  0.291899  0.708101  0.000000  1
  Ni  Ni8  1  0.344244  0.344244  0.854089  1
  Ni  Ni9  1  0.854089  0.344244  0.344244  1
  Ni  Ni10  1  0.344244  0.854089  0.344244  1
  Ni  Ni11  1  0.655756  0.655756  0.145911  1
  Ni  Ni12  1  0.145911  0.655756  0.655756  1
  Ni  Ni13  1  0.655756  0.145911  0.655756  1
  Ni  Ni14  1  0.900828  0.900828  0.900828  1
  Ni  Ni15  1  0.099172  0.099172  0.099172  1
  Ge  Ge16  1  0.000000  0.000000  0.500000  1
  Ge  Ge17  1  0.500000  0.000000  0.000000  1
  Ge  Ge18  1  0.000000  0.500000  0.000000  1
  H  H19  1  0.500000  0.500000  0.000000  1
  H  H20  1  0.000000  0.500000  0.500000  1
  H  H21  1  0.500000  0.000000  0.500000  1
