# generated using pymatgen
data_Nb6Si6Tc5Pd
_symmetry_space_group_name_H-M   'P 1'
_cell_length_a   7.58534115
_cell_length_b   7.55072233
_cell_length_c   7.59073817
_cell_angle_alpha   127.48431732
_cell_angle_beta   124.37485901
_cell_angle_gamma   80.17671608
_symmetry_Int_Tables_number   1
_chemical_formula_structural   Nb6Si6Tc5Pd
_chemical_formula_sum   'Nb6 Si6 Tc5 Pd1'
_cell_volume   274.63022224
_cell_formula_units_Z   1
loop_
 _symmetry_equiv_pos_site_id
 _symmetry_equiv_pos_as_xyz
  1  'x, y, z'
loop_
 _atom_site_type_symbol
 _atom_site_label
 _atom_site_symmetry_multiplicity
 _atom_site_fract_x
 _atom_site_fract_y
 _atom_site_fract_z
 _atom_site_occupancy
  Nb  Nb0  1  0.560623  0.088408  0.041808  1
  Nb  Nb1  1  0.450538  0.494594  0.550438  1
  Nb  Nb2  1  0.954409  0.496382  0.035109  1
  Nb  Nb3  1  0.037396  0.066415  0.534498  1
  Nb  Nb4  1  0.766540  0.920331  0.678753  1
  Nb  Nb5  1  0.246447  0.907571  0.157994  1
  Si  Si6  1  0.766201  0.511118  0.238633  1
  Si  Si7  1  0.220420  0.488986  0.760431  1
  Si  Si8  1  0.339310  0.830935  0.500430  1
  Si  Si9  1  0.665116  0.162565  0.494567  1
  Si  Si10  1  0.833628  0.824914  0.994998  1
  Si  Si11  1  0.177218  0.163648  0.002256  1
  Tc  Tc12  1  0.469911  0.247348  0.714011  1
  Tc  Tc13  1  0.017730  0.244937  0.260112  1
  Tc  Tc14  1  0.153821  0.746821  0.643018  1
  Tc  Tc15  1  0.845796  0.497409  0.593294  1
  Tc  Tc16  1  0.589456  0.748669  0.083911  1
  Pd  Pd17  1  0.405440  0.501150  0.157939  1
