# generated using pymatgen
data_CsRbH2S4(O3F)4
_symmetry_space_group_name_H-M   'P 1'
_cell_length_a   8.09748115
_cell_length_b   8.09748106
_cell_length_c   9.89781300
_cell_angle_alpha   57.42061908
_cell_angle_beta   57.42061949
_cell_angle_gamma   60.12153165
_symmetry_Int_Tables_number   1
_chemical_formula_structural   CsRbH2S4(O3F)4
_chemical_formula_sum   'Cs1 Rb1 H2 S4 O12 F4'
_cell_volume   440.56043056
_cell_formula_units_Z   1
loop_
 _symmetry_equiv_pos_site_id
 _symmetry_equiv_pos_as_xyz
  1  'x, y, z'
loop_
 _atom_site_type_symbol
 _atom_site_label
 _atom_site_symmetry_multiplicity
 _atom_site_fract_x
 _atom_site_fract_y
 _atom_site_fract_z
 _atom_site_occupancy
  Cs  Cs0  1  0.891308  0.108692  0.250000  1
  Rb  Rb1  1  0.085355  0.914645  0.750000  1
  H  H2  1  0.999781  0.502121  0.497755  1
  H  H3  1  0.497879  0.000219  0.002245  1
  S  S4  1  0.840404  0.511875  0.770336  1
  S  S5  1  0.488125  0.159596  0.729664  1
  S  S6  1  0.163882  0.487706  0.224051  1
  S  S7  1  0.512294  0.836118  0.275949  1
  O  O8  1  0.881971  0.292754  0.836993  1
  O  O9  1  0.707246  0.118029  0.663007  1
  O  O10  1  0.122657  0.706860  0.154772  1
  O  O11  1  0.293140  0.877343  0.345228  1
  O  O12  1  0.857266  0.598384  0.854964  1
  O  O13  1  0.401616  0.142734  0.645036  1
  O  O14  1  0.151551  0.398007  0.139246  1
  O  O15  1  0.601993  0.848449  0.360754  1
  O  O16  1  0.939327  0.604809  0.577397  1
  O  O17  1  0.395191  0.060673  0.922603  1
  O  O18  1  0.062206  0.397185  0.416779  1
  O  O19  1  0.602815  0.937794  0.083221  1
  F  F20  1  0.601798  0.602706  0.794936  1
  F  F21  1  0.397294  0.398202  0.705064  1
  F  F22  1  0.401985  0.397085  0.203030  1
  F  F23  1  0.602915  0.598015  0.296970  1
