# generated using pymatgen
data_Nd2Dy14MgHg3Pt4
_symmetry_space_group_name_H-M   'P 1'
_cell_length_a   9.70514452
_cell_length_b   9.72586720
_cell_length_c   9.69829700
_cell_angle_alpha   60.09372448
_cell_angle_beta   60.02333346
_cell_angle_gamma   59.89935522
_symmetry_Int_Tables_number   1
_chemical_formula_structural   Nd2Dy14MgHg3Pt4
_chemical_formula_sum   'Nd2 Dy14 Mg1 Hg3 Pt4'
_cell_volume   647.38425032
_cell_formula_units_Z   1
loop_
 _symmetry_equiv_pos_site_id
 _symmetry_equiv_pos_as_xyz
  1  'x, y, z'
loop_
 _atom_site_type_symbol
 _atom_site_label
 _atom_site_symmetry_multiplicity
 _atom_site_fract_x
 _atom_site_fract_y
 _atom_site_fract_z
 _atom_site_occupancy
  Nd  Nd0  1  0.566390  0.568942  0.932334  1
  Nd  Nd1  1  0.935808  0.929542  0.567325  1
  Dy  Dy2  1  0.352224  0.350967  0.348630  1
  Dy  Dy3  1  0.352224  0.350967  0.948180  1
  Dy  Dy4  1  0.354540  0.942523  0.351469  1
  Dy  Dy5  1  0.933522  0.354869  0.355805  1
  Dy  Dy6  1  0.808583  0.191332  0.191502  1
  Dy  Dy7  1  0.186859  0.813359  0.811254  1
  Dy  Dy8  1  0.186859  0.813359  0.188527  1
  Dy  Dy9  1  0.808583  0.191332  0.808582  1
  Dy  Dy10  1  0.186348  0.190744  0.811454  1
  Dy  Dy11  1  0.808518  0.810596  0.190443  1
  Dy  Dy12  1  0.937327  0.561200  0.561923  1
  Dy  Dy13  1  0.559597  0.940709  0.937375  1
  Dy  Dy14  1  0.559597  0.940709  0.562318  1
  Dy  Dy15  1  0.937327  0.561200  0.939549  1
  Mg  Mg16  1  0.284518  0.569464  0.573009  1
  Hg  Hg17  1  0.583563  0.588665  0.583044  1
  Hg  Hg18  1  0.583563  0.588665  0.244728  1
  Hg  Hg19  1  0.578911  0.240451  0.590319  1
  Pt  Pt20  1  0.143114  0.144814  0.143160  1
  Pt  Pt21  1  0.143114  0.144814  0.568912  1
  Pt  Pt22  1  0.137293  0.571065  0.145821  1
  Pt  Pt23  1  0.571618  0.139712  0.144335  1
