# generated using pymatgen
data_Tb3Y2Er(Si3Ru)8
_symmetry_space_group_name_H-M   'P 1'
_cell_length_a   10.12113066
_cell_length_b   10.12112550
_cell_length_c   8.15101407
_cell_angle_alpha   89.99605322
_cell_angle_beta   89.97486534
_cell_angle_gamma   132.54668523
_symmetry_Int_Tables_number   1
_chemical_formula_structural   Tb3Y2Er(Si3Ru)8
_chemical_formula_sum   'Tb3 Y2 Er1 Si24 Ru8'
_cell_volume   615.14252007
_cell_formula_units_Z   1
loop_
 _symmetry_equiv_pos_site_id
 _symmetry_equiv_pos_as_xyz
  1  'x, y, z'
loop_
 _atom_site_type_symbol
 _atom_site_label
 _atom_site_symmetry_multiplicity
 _atom_site_fract_x
 _atom_site_fract_y
 _atom_site_fract_z
 _atom_site_occupancy
  Tb  Tb0  1  0.497628  0.997469  0.249725  1
  Tb  Tb1  1  0.002532  0.502378  0.750287  1
  Tb  Tb2  1  0.502338  0.002499  0.750283  1
  Y  Y3  1  0.997507  0.497645  0.249715  1
  Y  Y4  1  0.499999  0.500003  0.499966  1
  Er  Er5  1  0.999983  0.999999  0.999947  1
  Si  Si6  1  0.388514  0.154954  0.004836  1
  Si  Si7  1  0.654691  0.888105  0.495091  1
  Si  Si8  1  0.111923  0.345261  0.504915  1
  Si  Si9  1  0.845003  0.611513  0.995170  1
  Si  Si10  1  0.611494  0.845042  0.995204  1
  Si  Si11  1  0.345308  0.111906  0.504889  1
  Si  Si12  1  0.888109  0.654749  0.495135  1
  Si  Si13  1  0.155007  0.388517  0.004793  1
  Si  Si14  1  0.613228  0.378928  0.228010  1
  Si  Si15  1  0.878084  0.111956  0.271501  1
  Si  Si16  1  0.887969  0.121888  0.728525  1
  Si  Si17  1  0.621068  0.386706  0.771983  1
  Si  Si18  1  0.386683  0.621078  0.771986  1
  Si  Si19  1  0.121915  0.887948  0.728514  1
  Si  Si20  1  0.705770  0.294368  0.000076  1
  Si  Si21  1  0.794737  0.205399  0.499912  1
  Si  Si22  1  0.294245  0.705646  0.000061  1
  Si  Si23  1  0.205284  0.794618  0.499956  1
  Si  Si24  1  0.167798  0.167834  0.333219  1
  Si  Si25  1  0.667339  0.667309  0.167065  1
  Si  Si26  1  0.332678  0.332698  0.832931  1
  Si  Si27  1  0.832196  0.832178  0.666793  1
  Si  Si28  1  0.378968  0.613323  0.228005  1
  Si  Si29  1  0.112054  0.878140  0.271490  1
  Ru  Ru30  1  0.626656  0.626698  0.874136  1
  Ru  Ru31  1  0.125413  0.125353  0.627973  1
  Ru  Ru32  1  0.874623  0.874553  0.372036  1
  Ru  Ru33  1  0.373235  0.373311  0.125865  1
  Ru  Ru34  1  0.330955  0.668913  0.499993  1
  Ru  Ru35  1  0.168157  0.831732  0.000016  1
  Ru  Ru36  1  0.669070  0.331081  0.499956  1
  Ru  Ru37  1  0.831842  0.168301  0.000041  1
