# generated using pymatgen
data_La3PSe3
_symmetry_space_group_name_H-M   'P 1'
_cell_length_a   7.77405983
_cell_length_b   7.86116081
_cell_length_c   7.86116124
_cell_angle_alpha   109.69458313
_cell_angle_beta   109.24692274
_cell_angle_gamma   109.24693037
_symmetry_Int_Tables_number   1
_chemical_formula_structural   La3PSe3
_chemical_formula_sum   'La6 P2 Se6'
_cell_volume   370.84637965
_cell_formula_units_Z   2
loop_
 _symmetry_equiv_pos_site_id
 _symmetry_equiv_pos_as_xyz
  1  'x, y, z'
loop_
 _atom_site_type_symbol
 _atom_site_label
 _atom_site_symmetry_multiplicity
 _atom_site_fract_x
 _atom_site_fract_y
 _atom_site_fract_z
 _atom_site_occupancy
  La  La0  1  0.878088  0.762029  0.120948  1
  La  La1  1  0.116058  0.358918  0.237971  1
  La  La2  1  0.616058  0.237971  0.358918  1
  La  La3  1  0.757140  0.879050  0.641080  1
  La  La4  1  0.378090  0.120950  0.762029  1
  La  La5  1  0.257140  0.641080  0.879050  1
  P  P6  1  0.652085  0.000000  0.000000  1
  P  P7  1  0.152085  0.000000  0.000000  1
  Se  Se8  1  0.499730  0.501666  0.150897  1
  Se  Se9  1  0.348833  0.849103  0.350769  1
  Se  Se10  1  0.999730  0.150897  0.501666  1
  Se  Se11  1  0.998064  0.649231  0.498334  1
  Se  Se12  1  0.498064  0.498334  0.649231  1
  Se  Se13  1  0.848833  0.350769  0.849103  1
