# generated using pymatgen
data_Nd6Mn3WC12
_symmetry_space_group_name_H-M   'P 1'
_cell_length_a   8.33427400
_cell_length_b   8.33427386
_cell_length_c   5.23206900
_cell_angle_alpha   90.00000000
_cell_angle_beta   90.00000000
_cell_angle_gamma   119.99998468
_symmetry_Int_Tables_number   1
_chemical_formula_structural   Nd6Mn3WC12
_chemical_formula_sum   'Nd6 Mn3 W1 C12'
_cell_volume   314.73113141
_cell_formula_units_Z   1
loop_
 _symmetry_equiv_pos_site_id
 _symmetry_equiv_pos_as_xyz
  1  'x, y, z'
loop_
 _atom_site_type_symbol
 _atom_site_label
 _atom_site_symmetry_multiplicity
 _atom_site_fract_x
 _atom_site_fract_y
 _atom_site_fract_z
 _atom_site_occupancy
  Nd  Nd0  1  0.613821  0.682620  0.751261  1
  Nd  Nd1  1  0.931201  0.613821  0.248739  1
  Nd  Nd2  1  0.682620  0.068799  0.248739  1
  Nd  Nd3  1  0.317380  0.931201  0.751261  1
  Nd  Nd4  1  0.068799  0.386179  0.751261  1
  Nd  Nd5  1  0.386179  0.317380  0.248739  1
  Mn  Mn6  1  0.000000  0.000000  0.000000  1
  Mn  Mn7  1  0.666667  0.333333  0.753502  1
  Mn  Mn8  1  0.333333  0.666667  0.246498  1
  W  W9  1  0.000000  0.000000  0.500000  1
  C  C10  1  0.956151  0.764468  0.742599  1
  C  C11  1  0.191682  0.956151  0.257401  1
  C  C12  1  0.764468  0.808318  0.257401  1
  C  C13  1  0.235532  0.191682  0.742599  1
  C  C14  1  0.808318  0.043849  0.742599  1
  C  C15  1  0.043849  0.235532  0.257401  1
  C  C16  1  0.857778  0.574376  0.750047  1
  C  C17  1  0.283401  0.857778  0.249953  1
  C  C18  1  0.574376  0.716599  0.249953  1
  C  C19  1  0.425624  0.283401  0.750047  1
  C  C20  1  0.142222  0.425624  0.249953  1
  C  C21  1  0.716599  0.142222  0.750047  1
