# generated using pymatgen
data_Dy2HoAl12FeOs3
_symmetry_space_group_name_H-M   'P 1'
_cell_length_a   8.76765728
_cell_length_b   8.76765824
_cell_length_c   9.51031600
_cell_angle_alpha   90.00000000
_cell_angle_beta   90.00000000
_cell_angle_gamma   120.02897607
_symmetry_Int_Tables_number   1
_chemical_formula_structural   Dy2HoAl12FeOs3
_chemical_formula_sum   'Dy4 Ho2 Al24 Fe2 Os6'
_cell_volume   632.94485945
_cell_formula_units_Z   2
loop_
 _symmetry_equiv_pos_site_id
 _symmetry_equiv_pos_as_xyz
  1  'x, y, z'
loop_
 _atom_site_type_symbol
 _atom_site_label
 _atom_site_symmetry_multiplicity
 _atom_site_fract_x
 _atom_site_fract_y
 _atom_site_fract_z
 _atom_site_occupancy
  Dy  Dy0  1  0.193524  0.387111  0.250000  1
  Dy  Dy1  1  0.806476  0.612889  0.750000  1
  Dy  Dy2  1  0.612889  0.806476  0.250000  1
  Dy  Dy3  1  0.387111  0.193524  0.750000  1
  Ho  Ho4  1  0.193690  0.806310  0.250000  1
  Ho  Ho5  1  0.806310  0.193690  0.750000  1
  Al  Al6  1  0.333269  0.666731  0.015801  1
  Al  Al7  1  0.666731  0.333269  0.984199  1
  Al  Al8  1  0.666731  0.333269  0.515801  1
  Al  Al9  1  0.333269  0.666731  0.484199  1
  Al  Al10  1  0.159313  0.318830  0.575571  1
  Al  Al11  1  0.840687  0.681170  0.424429  1
  Al  Al12  1  0.681170  0.840687  0.575571  1
  Al  Al13  1  0.840687  0.681170  0.075571  1
  Al  Al14  1  0.318830  0.159313  0.424429  1
  Al  Al15  1  0.159313  0.318830  0.924429  1
  Al  Al16  1  0.159440  0.840560  0.575425  1
  Al  Al17  1  0.318830  0.159313  0.075571  1
  Al  Al18  1  0.840560  0.159440  0.424575  1
  Al  Al19  1  0.681170  0.840687  0.924429  1
  Al  Al20  1  0.840560  0.159440  0.075425  1
  Al  Al21  1  0.159440  0.840560  0.924575  1
  Al  Al22  1  0.561377  0.122990  0.250000  1
  Al  Al23  1  0.438623  0.877010  0.750000  1
  Al  Al24  1  0.877010  0.438623  0.250000  1
  Al  Al25  1  0.122990  0.561377  0.750000  1
  Al  Al26  1  0.561597  0.438403  0.250000  1
  Al  Al27  1  0.438403  0.561597  0.750000  1
  Al  Al28  1  0.000119  0.999881  0.250000  1
  Al  Al29  1  0.999881  0.000119  0.750000  1
  Fe  Fe30  1  0.000000  0.000000  0.000000  1
  Fe  Fe31  1  0.000000  0.000000  0.500000  1
  Os  Os32  1  0.500000  0.000000  0.000000  1
  Os  Os33  1  0.000000  0.500000  0.000000  1
  Os  Os34  1  0.500000  0.000000  0.500000  1
  Os  Os35  1  0.500000  0.500000  0.000000  1
  Os  Os36  1  0.000000  0.500000  0.500000  1
  Os  Os37  1  0.500000  0.500000  0.500000  1
