# generated using pymatgen
data_TbDy7(PBr6)2
_symmetry_space_group_name_H-M   'P 1'
_cell_length_a   4.00057900
_cell_length_b   13.13143632
_cell_length_c   13.84977834
_cell_angle_alpha   90.02535085
_cell_angle_beta   90.00000000
_cell_angle_gamma   90.00000000
_symmetry_Int_Tables_number   1
_chemical_formula_structural   TbDy7(PBr6)2
_chemical_formula_sum   'Tb1 Dy7 P2 Br12'
_cell_volume   727.57515934
_cell_formula_units_Z   1
loop_
 _symmetry_equiv_pos_site_id
 _symmetry_equiv_pos_as_xyz
  1  'x, y, z'
loop_
 _atom_site_type_symbol
 _atom_site_label
 _atom_site_symmetry_multiplicity
 _atom_site_fract_x
 _atom_site_fract_y
 _atom_site_fract_z
 _atom_site_occupancy
  Tb  Tb0  1  0.000000  0.384852  0.076486  1
  Dy  Dy1  1  0.500000  0.117128  0.343070  1
  Dy  Dy2  1  0.500000  0.882876  0.656909  1
  Dy  Dy3  1  0.500000  0.617154  0.156967  1
  Dy  Dy4  1  0.500000  0.382834  0.843050  1
  Dy  Dy5  1  0.000000  0.114777  0.576228  1
  Dy  Dy6  1  0.000000  0.885210  0.423783  1
  Dy  Dy7  1  0.000000  0.614980  0.923640  1
  P  P8  1  0.500000  0.000000  0.500000  1
  P  P9  1  0.500000  0.500650  0.999584  1
  Br  Br10  1  0.500000  0.242710  0.163042  1
  Br  Br11  1  0.500000  0.756750  0.837311  1
  Br  Br12  1  0.500000  0.743342  0.337377  1
  Br  Br13  1  0.500000  0.256669  0.662615  1
  Br  Br14  1  0.000000  0.256481  0.412467  1
  Br  Br15  1  0.000000  0.743505  0.587551  1
  Br  Br16  1  0.000000  0.756521  0.087556  1
  Br  Br17  1  0.000000  0.243282  0.912030  1
  Br  Br18  1  0.000000  0.000426  0.242487  1
  Br  Br19  1  0.000000  0.999543  0.757530  1
  Br  Br20  1  0.000000  0.500766  0.257879  1
  Br  Br21  1  0.000000  0.499545  0.742438  1
