# generated using pymatgen
data_Tb4Lu4B24Ir3Ru
_symmetry_space_group_name_H-M   'P 1'
_cell_length_a   3.62285500
_cell_length_b   9.12363301
_cell_length_c   11.47784902
_cell_angle_alpha   90.00657372
_cell_angle_beta   90.00000000
_cell_angle_gamma   90.00000000
_symmetry_Int_Tables_number   1
_chemical_formula_structural   Tb4Lu4B24Ir3Ru
_chemical_formula_sum   'Tb4 Lu4 B24 Ir3 Ru1'
_cell_volume   379.38422194
_cell_formula_units_Z   1
loop_
 _symmetry_equiv_pos_site_id
 _symmetry_equiv_pos_as_xyz
  1  'x, y, z'
loop_
 _atom_site_type_symbol
 _atom_site_label
 _atom_site_symmetry_multiplicity
 _atom_site_fract_x
 _atom_site_fract_y
 _atom_site_fract_z
 _atom_site_occupancy
  Tb  Tb0  1  0.000000  0.320121  0.413841  1
  Tb  Tb1  1  0.000000  0.680753  0.587246  1
  Tb  Tb2  1  0.000000  0.820308  0.084678  1
  Tb  Tb3  1  0.000000  0.178023  0.913438  1
  Lu  Lu4  1  0.000000  0.944077  0.373907  1
  Lu  Lu5  1  0.000000  0.054155  0.627138  1
  Lu  Lu6  1  0.000000  0.444162  0.125968  1
  Lu  Lu7  1  0.000000  0.557684  0.873941  1
  B  B8  1  0.500000  0.554836  0.434211  1
  B  B9  1  0.500000  0.445346  0.566021  1
  B  B10  1  0.500000  0.054553  0.066119  1
  B  B11  1  0.500000  0.944899  0.932960  1
  B  B12  1  0.500000  0.751507  0.420102  1
  B  B13  1  0.500000  0.248471  0.580087  1
  B  B14  1  0.500000  0.251138  0.079907  1
  B  B15  1  0.500000  0.749936  0.918966  1
  B  B16  1  0.500000  0.793448  0.264729  1
  B  B17  1  0.500000  0.206643  0.734688  1
  B  B18  1  0.500000  0.293827  0.235317  1
  B  B19  1  0.500000  0.707432  0.765461  1
  B  B20  1  0.500000  0.630641  0.182990  1
  B  B21  1  0.500000  0.369427  0.816925  1
  B  B22  1  0.500000  0.131095  0.316969  1
  B  B23  1  0.500000  0.869265  0.684250  1
  B  B24  1  0.500000  0.982024  0.214350  1
  B  B25  1  0.500000  0.016635  0.785711  1
  B  B26  1  0.500000  0.482120  0.285444  1
  B  B27  1  0.500000  0.517864  0.714892  1
  B  B28  1  0.500000  0.604814  0.028746  1
  B  B29  1  0.500000  0.394781  0.971590  1
  B  B30  1  0.500000  0.104876  0.471467  1
  B  B31  1  0.500000  0.895145  0.528192  1
  Ir  Ir32  1  0.000000  0.639335  0.320225  1
  Ir  Ir33  1  0.000000  0.361057  0.680120  1
  Ir  Ir34  1  0.000000  0.138686  0.179607  1
  Ru  Ru35  1  0.000000  0.860914  0.819798  1
