# generated using pymatgen
data_Mo2IrOsRu4
_symmetry_space_group_name_H-M   'P 1'
_cell_length_a   5.52854103
_cell_length_b   5.52783070
_cell_length_c   4.37622900
_cell_angle_alpha   90.00000000
_cell_angle_beta   90.00000000
_cell_angle_gamma   119.99310039
_symmetry_Int_Tables_number   1
_chemical_formula_structural   Mo2IrOsRu4
_chemical_formula_sum   'Mo2 Ir1 Os1 Ru4'
_cell_volume   115.83135365
_cell_formula_units_Z   1
loop_
 _symmetry_equiv_pos_site_id
 _symmetry_equiv_pos_as_xyz
  1  'x, y, z'
loop_
 _atom_site_type_symbol
 _atom_site_label
 _atom_site_symmetry_multiplicity
 _atom_site_fract_x
 _atom_site_fract_y
 _atom_site_fract_z
 _atom_site_occupancy
  Mo  Mo0  1  0.665858  0.335776  0.250000  1
  Mo  Mo1  1  0.336607  0.666350  0.750000  1
  Ir  Ir2  1  0.832614  0.164040  0.750000  1
  Os  Os3  1  0.333048  0.169565  0.750000  1
  Ru  Ru4  1  0.828094  0.666649  0.750000  1
  Ru  Ru5  1  0.167180  0.833380  0.250000  1
  Ru  Ru6  1  0.667073  0.830583  0.250000  1
  Ru  Ru7  1  0.169528  0.333657  0.250000  1
