# generated using pymatgen
data_Er4Ti(ReN4)3
_symmetry_space_group_name_H-M   'P 1'
_cell_length_a   7.30142047
_cell_length_b   7.38316088
_cell_length_c   6.25239703
_cell_angle_alpha   72.50544725
_cell_angle_beta   73.73689443
_cell_angle_gamma   81.81161088
_symmetry_Int_Tables_number   1
_chemical_formula_structural   Er4Ti(ReN4)3
_chemical_formula_sum   'Er4 Ti1 Re3 N12'
_cell_volume   307.97334150
_cell_formula_units_Z   1
loop_
 _symmetry_equiv_pos_site_id
 _symmetry_equiv_pos_as_xyz
  1  'x, y, z'
loop_
 _atom_site_type_symbol
 _atom_site_label
 _atom_site_symmetry_multiplicity
 _atom_site_fract_x
 _atom_site_fract_y
 _atom_site_fract_z
 _atom_site_occupancy
  Er  Er0  1  0.906878  0.084130  0.766924  1
  Er  Er1  1  0.091293  0.904411  0.262230  1
  Er  Er2  1  0.709288  0.276770  0.242563  1
  Er  Er3  1  0.299706  0.721536  0.737402  1
  Ti  Ti4  1  0.618595  0.801570  0.274523  1
  Re  Re5  1  0.199801  0.378714  0.215820  1
  Re  Re6  1  0.379245  0.205108  0.719719  1
  Re  Re7  1  0.794306  0.617542  0.783346  1
  N  N8  1  0.658530  0.620187  0.075130  1
  N  N9  1  0.367879  0.879039  0.355109  1
  N  N10  1  0.362163  0.331907  0.418404  1
  N  N11  1  0.125002  0.624297  0.161309  1
  N  N12  1  0.001981  0.223873  0.336605  1
  N  N13  1  0.791203  0.001194  0.148713  1
  N  N14  1  0.225699  0.005896  0.842960  1
  N  N15  1  0.627972  0.131351  0.658838  1
  N  N16  1  0.333908  0.369133  0.913642  1
  N  N17  1  0.884985  0.374933  0.829226  1
  N  N18  1  0.631151  0.665462  0.592016  1
  N  N19  1  0.990414  0.782948  0.665524  1
