# generated using pymatgen
data_PrDyCr2(TeO6)2
_symmetry_space_group_name_H-M   'P 1'
_cell_length_a   5.21034725
_cell_length_b   5.21032259
_cell_length_c   10.06584002
_cell_angle_alpha   90.00182413
_cell_angle_beta   89.99998148
_cell_angle_gamma   120.00038481
_symmetry_Int_Tables_number   1
_chemical_formula_structural   PrDyCr2(TeO6)2
_chemical_formula_sum   'Pr1 Dy1 Cr2 Te2 O12'
_cell_volume   236.65203990
_cell_formula_units_Z   1
loop_
 _symmetry_equiv_pos_site_id
 _symmetry_equiv_pos_as_xyz
  1  'x, y, z'
loop_
 _atom_site_type_symbol
 _atom_site_label
 _atom_site_symmetry_multiplicity
 _atom_site_fract_x
 _atom_site_fract_y
 _atom_site_fract_z
 _atom_site_occupancy
  Pr  Pr0  1  0.000000  0.000000  0.000000  1
  Dy  Dy1  1  0.000001  0.999999  0.500000  1
  Cr  Cr2  1  0.666637  0.333313  0.743759  1
  Cr  Cr3  1  0.333362  0.666687  0.256241  1
  Te  Te4  1  0.666677  0.333334  0.256122  1
  Te  Te5  1  0.333322  0.666666  0.743878  1
  O  O6  1  0.623402  0.991436  0.853551  1
  O  O7  1  0.368048  0.376656  0.853557  1
  O  O8  1  0.008622  0.631998  0.853551  1
  O  O9  1  0.376601  0.008564  0.146449  1
  O  O10  1  0.631953  0.623344  0.146444  1
  O  O11  1  0.991379  0.368002  0.146449  1
  O  O12  1  0.350734  0.988612  0.637114  1
  O  O13  1  0.637854  0.649260  0.637109  1
  O  O14  1  0.011384  0.362131  0.637119  1
  O  O15  1  0.649266  0.011386  0.362887  1
  O  O16  1  0.362147  0.350740  0.362892  1
  O  O17  1  0.988615  0.637869  0.362881  1
