# generated using pymatgen
data_NdU5O12
_symmetry_space_group_name_H-M   'P 1'
_cell_length_a   6.65628980
_cell_length_b   6.65629061
_cell_length_c   6.66504323
_cell_angle_alpha   80.40616853
_cell_angle_beta   80.40616914
_cell_angle_gamma   119.97484024
_symmetry_Int_Tables_number   1
_chemical_formula_structural   NdU5O12
_chemical_formula_sum   'Nd1 U5 O12'
_cell_volume   241.18697210
_cell_formula_units_Z   1
loop_
 _symmetry_equiv_pos_site_id
 _symmetry_equiv_pos_as_xyz
  1  'x, y, z'
loop_
 _atom_site_type_symbol
 _atom_site_label
 _atom_site_symmetry_multiplicity
 _atom_site_fract_x
 _atom_site_fract_y
 _atom_site_fract_z
 _atom_site_occupancy
  Nd  Nd0  1  0.500000  0.500000  0.500000  1
  U  U1  1  0.833382  0.166618  0.500000  1
  U  U2  1  0.166618  0.833382  0.500000  1
  U  U3  1  0.666814  0.333186  0.000000  1
  U  U4  1  0.000000  0.000000  0.000000  1
  U  U5  1  0.333186  0.666814  0.000000  1
  O  O6  1  0.111771  0.111771  0.631840  1
  O  O7  1  0.707323  0.042518  0.877941  1
  O  O8  1  0.957482  0.292677  0.122059  1
  O  O9  1  0.368539  0.368539  0.887797  1
  O  O10  1  0.042518  0.707323  0.877941  1
  O  O11  1  0.543092  0.199561  0.368021  1
  O  O12  1  0.888229  0.888229  0.368160  1
  O  O13  1  0.456908  0.800439  0.631979  1
  O  O14  1  0.631461  0.631461  0.112203  1
  O  O15  1  0.292677  0.957482  0.122059  1
  O  O16  1  0.800439  0.456908  0.631979  1
  O  O17  1  0.199561  0.543092  0.368021  1
