# generated using pymatgen
data_Zr4ZnIn2Co3
_symmetry_space_group_name_H-M   'P 1'
_cell_length_a   7.28095835
_cell_length_b   7.28095835
_cell_length_c   3.34067100
_cell_angle_alpha   90.00000000
_cell_angle_beta   90.00000000
_cell_angle_gamma   91.03214655
_symmetry_Int_Tables_number   1
_chemical_formula_structural   Zr4ZnIn2Co3
_chemical_formula_sum   'Zr4 Zn1 In2 Co3'
_cell_volume   177.06810048
_cell_formula_units_Z   1
loop_
 _symmetry_equiv_pos_site_id
 _symmetry_equiv_pos_as_xyz
  1  'x, y, z'
loop_
 _atom_site_type_symbol
 _atom_site_label
 _atom_site_symmetry_multiplicity
 _atom_site_fract_x
 _atom_site_fract_y
 _atom_site_fract_z
 _atom_site_occupancy
  Zr  Zr0  1  0.693040  0.162681  0.500000  1
  Zr  Zr1  1  0.148943  0.351057  0.500000  1
  Zr  Zr2  1  0.827604  0.672396  0.500000  1
  Zr  Zr3  1  0.337319  0.806960  0.500000  1
  Zn  Zn4  1  0.374749  0.125251  0.000000  1
  In  In5  1  0.005867  0.996135  0.000000  1
  In  In6  1  0.503865  0.494133  0.000000  1
  Co  Co7  1  0.122551  0.630420  0.000000  1
  Co  Co8  1  0.616482  0.883518  0.000000  1
  Co  Co9  1  0.869580  0.377449  0.000000  1
