# generated using pymatgen
data_U4Re6Si6Ru
_symmetry_space_group_name_H-M   'P 1'
_cell_length_a   7.13268323
_cell_length_b   7.13268326
_cell_length_c   7.13268314
_cell_angle_alpha   109.74122048
_cell_angle_beta   109.33637850
_cell_angle_gamma   109.33639522
_symmetry_Int_Tables_number   1
_chemical_formula_structural   U4Re6Si6Ru
_chemical_formula_sum   'U4 Re6 Si6 Ru1'
_cell_volume   279.33780032
_cell_formula_units_Z   1
loop_
 _symmetry_equiv_pos_site_id
 _symmetry_equiv_pos_as_xyz
  1  'x, y, z'
loop_
 _atom_site_type_symbol
 _atom_site_label
 _atom_site_symmetry_multiplicity
 _atom_site_fract_x
 _atom_site_fract_y
 _atom_site_fract_z
 _atom_site_occupancy
  U  U0  1  0.500000  0.497783  0.502217  1
  U  U1  1  0.995565  0.497783  0.997783  1
  U  U2  1  0.500000  0.002217  0.997783  1
  U  U3  1  0.004435  0.002217  0.502217  1
  Re  Re4  1  0.749888  0.248761  0.498872  1
  Re  Re5  1  0.250112  0.748984  0.498872  1
  Re  Re6  1  0.250112  0.501128  0.751239  1
  Re  Re7  1  0.000000  0.000000  0.000000  1
  Re  Re8  1  0.500000  0.250000  0.750000  1
  Re  Re9  1  0.749888  0.501128  0.251016  1
  Si  Si10  1  0.689937  0.997339  0.687276  1
  Si  Si11  1  0.689937  0.692599  0.002661  1
  Si  Si12  1  0.310063  0.312724  0.002661  1
  Si  Si13  1  0.000000  0.690397  0.690397  1
  Si  Si14  1  0.000000  0.309603  0.309603  1
  Si  Si15  1  0.310063  0.997339  0.307401  1
  Ru  Ru16  1  0.500000  0.750000  0.250000  1
