# generated using pymatgen
data_Th2Si5Tc3
_symmetry_space_group_name_H-M   'P 1'
_cell_length_a   8.44200357
_cell_length_b   8.44200221
_cell_length_c   8.44200270
_cell_angle_alpha   140.17562118
_cell_angle_beta   108.80592931
_cell_angle_gamma   84.81483268
_symmetry_Int_Tables_number   1
_chemical_formula_structural   Th2Si5Tc3
_chemical_formula_sum   'Th4 Si10 Tc6'
_cell_volume   352.26648580
_cell_formula_units_Z   2
loop_
 _symmetry_equiv_pos_site_id
 _symmetry_equiv_pos_as_xyz
  1  'x, y, z'
loop_
 _atom_site_type_symbol
 _atom_site_label
 _atom_site_symmetry_multiplicity
 _atom_site_fract_x
 _atom_site_fract_y
 _atom_site_fract_z
 _atom_site_occupancy
  Th  Th0  1  0.633323  0.866646  0.766677  1
  Th  Th1  1  0.366677  0.133354  0.233323  1
  Th  Th2  1  0.099969  0.366646  0.733323  1
  Th  Th3  1  0.900031  0.633354  0.266677  1
  Si  Si4  1  0.292878  0.042878  0.750000  1
  Si  Si5  1  0.707122  0.957122  0.250000  1
  Si  Si6  1  0.707122  0.457122  0.750000  1
  Si  Si7  1  0.292878  0.542878  0.250000  1
  Si  Si8  1  0.431402  0.598457  0.832944  1
  Si  Si9  1  0.568598  0.401543  0.167056  1
  Si  Si10  1  0.765513  0.098457  0.667056  1
  Si  Si11  1  0.234487  0.901543  0.332944  1
  Si  Si12  1  0.000000  0.750000  0.750000  1
  Si  Si13  1  0.000000  0.250000  0.250000  1
  Tc  Tc14  1  0.241412  0.648831  0.592582  1
  Tc  Tc15  1  0.758588  0.351169  0.407418  1
  Tc  Tc16  1  0.056247  0.148831  0.907418  1
  Tc  Tc17  1  0.943753  0.851169  0.092582  1
  Tc  Tc18  1  0.500000  0.750000  0.250000  1
  Tc  Tc19  1  0.500000  0.250000  0.750000  1
