# generated using pymatgen
data_CsNd3CBr6
_symmetry_space_group_name_H-M   'P 1'
_cell_length_a   9.12008378
_cell_length_b   9.16010834
_cell_length_c   9.79316516
_cell_angle_alpha   69.53185961
_cell_angle_beta   85.87906536
_cell_angle_gamma   89.30307328
_symmetry_Int_Tables_number   1
_chemical_formula_structural   CsNd3CBr6
_chemical_formula_sum   'Cs2 Nd6 C2 Br12'
_cell_volume   764.42391110
_cell_formula_units_Z   2
loop_
 _symmetry_equiv_pos_site_id
 _symmetry_equiv_pos_as_xyz
  1  'x, y, z'
loop_
 _atom_site_type_symbol
 _atom_site_label
 _atom_site_symmetry_multiplicity
 _atom_site_fract_x
 _atom_site_fract_y
 _atom_site_fract_z
 _atom_site_occupancy
  Cs  Cs0  1  0.473900  0.349280  0.334070  1
  Cs  Cs1  1  0.526101  0.650720  0.665930  1
  Nd  Nd2  1  0.914279  0.741161  0.004110  1
  Nd  Nd3  1  0.085721  0.258839  0.995889  1
  Nd  Nd4  1  0.739754  0.087610  0.000943  1
  Nd  Nd5  1  0.260245  0.912390  0.999058  1
  Nd  Nd6  1  0.978887  0.876782  0.327283  1
  Nd  Nd7  1  0.021112  0.123218  0.672718  1
  C  C8  1  0.004839  0.028527  0.922972  1
  C  C9  1  0.995160  0.971473  0.077028  1
  Br  Br10  1  0.086781  0.188716  0.325608  1
  Br  Br11  1  0.913219  0.811284  0.674392  1
  Br  Br12  1  0.204315  0.591316  0.001501  1
  Br  Br13  1  0.795686  0.408684  0.998499  1
  Br  Br14  1  0.405164  0.199228  0.005245  1
  Br  Br15  1  0.594835  0.800773  0.994754  1
  Br  Br16  1  0.672518  0.995306  0.326691  1
  Br  Br17  1  0.327482  0.004694  0.673309  1
  Br  Br18  1  0.285469  0.763228  0.323323  1
  Br  Br19  1  0.714531  0.236772  0.676677  1
  Br  Br20  1  0.848237  0.584363  0.325639  1
  Br  Br21  1  0.151762  0.415637  0.674361  1
