# generated using pymatgen
data_Ho8Tc(B8Os)3
_symmetry_space_group_name_H-M   'P 1'
_cell_length_a   3.65245100
_cell_length_b   9.12664232
_cell_length_c   11.50975400
_cell_angle_alpha   89.95263995
_cell_angle_beta   90.00000000
_cell_angle_gamma   90.00000000
_symmetry_Int_Tables_number   1
_chemical_formula_structural   Ho8Tc(B8Os)3
_chemical_formula_sum   'Ho8 Tc1 B24 Os3'
_cell_volume   383.67307453
_cell_formula_units_Z   1
loop_
 _symmetry_equiv_pos_site_id
 _symmetry_equiv_pos_as_xyz
  1  'x, y, z'
loop_
 _atom_site_type_symbol
 _atom_site_label
 _atom_site_symmetry_multiplicity
 _atom_site_fract_x
 _atom_site_fract_y
 _atom_site_fract_z
 _atom_site_occupancy
  Ho  Ho0  1  0.000000  0.323809  0.412981  1
  Ho  Ho1  1  0.000000  0.677280  0.583659  1
  Ho  Ho2  1  0.000000  0.820154  0.088228  1
  Ho  Ho3  1  0.000000  0.177863  0.914778  1
  Ho  Ho4  1  0.000000  0.942797  0.372537  1
  Ho  Ho5  1  0.000000  0.056780  0.627523  1
  Ho  Ho6  1  0.000000  0.444652  0.128182  1
  Ho  Ho7  1  0.000000  0.556572  0.872205  1
  Tc  Tc8  1  0.000000  0.637563  0.321286  1
  B  B9  1  0.500000  0.552925  0.433171  1
  B  B10  1  0.500000  0.446504  0.567145  1
  B  B11  1  0.500000  0.053607  0.066973  1
  B  B12  1  0.500000  0.946386  0.933240  1
  B  B13  1  0.500000  0.748121  0.419604  1
  B  B14  1  0.500000  0.252004  0.580279  1
  B  B15  1  0.500000  0.248392  0.080234  1
  B  B16  1  0.500000  0.751707  0.919756  1
  B  B17  1  0.500000  0.791420  0.266146  1
  B  B18  1  0.500000  0.208937  0.733765  1
  B  B19  1  0.500000  0.291022  0.233297  1
  B  B20  1  0.500000  0.709315  0.766150  1
  B  B21  1  0.500000  0.631555  0.185679  1
  B  B22  1  0.500000  0.368290  0.814748  1
  B  B23  1  0.500000  0.131508  0.314147  1
  B  B24  1  0.500000  0.868719  0.685389  1
  B  B25  1  0.500000  0.982734  0.212678  1
  B  B26  1  0.500000  0.017190  0.787583  1
  B  B27  1  0.500000  0.482287  0.287343  1
  B  B28  1  0.500000  0.516950  0.712737  1
  B  B29  1  0.500000  0.606843  0.029237  1
  B  B30  1  0.500000  0.393004  0.970181  1
  B  B31  1  0.500000  0.107254  0.470356  1
  B  B32  1  0.500000  0.893695  0.529975  1
  Os  Os33  1  0.000000  0.362087  0.679292  1
  Os  Os34  1  0.000000  0.137360  0.178061  1
  Os  Os35  1  0.000000  0.862714  0.821455  1
