# generated using pymatgen
data_ErH5Ru
_symmetry_space_group_name_H-M   'P 1'
_cell_length_a   4.43658100
_cell_length_b   4.84375500
_cell_length_c   11.78091800
_cell_angle_alpha   90.00000000
_cell_angle_beta   90.00000000
_cell_angle_gamma   90.00000000
_symmetry_Int_Tables_number   1
_chemical_formula_structural   ErH5Ru
_chemical_formula_sum   'Er4 H20 Ru4'
_cell_volume   253.16852787
_cell_formula_units_Z   4
loop_
 _symmetry_equiv_pos_site_id
 _symmetry_equiv_pos_as_xyz
  1  'x, y, z'
loop_
 _atom_site_type_symbol
 _atom_site_label
 _atom_site_symmetry_multiplicity
 _atom_site_fract_x
 _atom_site_fract_y
 _atom_site_fract_z
 _atom_site_occupancy
  Er  Er0  1  0.716723  0.356530  0.147431  1
  Er  Er1  1  0.216723  0.143470  0.852569  1
  Er  Er2  1  0.283277  0.856530  0.352569  1
  Er  Er3  1  0.783277  0.643470  0.647431  1
  H  H4  1  0.920041  0.366076  0.973816  1
  H  H5  1  0.402833  0.966976  0.684149  1
  H  H6  1  0.982653  0.897998  0.000048  1
  H  H7  1  0.701499  0.950793  0.835803  1
  H  H8  1  0.400931  0.359272  0.318840  1
  H  H9  1  0.798501  0.049207  0.335803  1
  H  H10  1  0.482653  0.602002  0.999952  1
  H  H11  1  0.298501  0.450793  0.664197  1
  H  H12  1  0.902833  0.533024  0.315851  1
  H  H13  1  0.579959  0.633924  0.473816  1
  H  H14  1  0.017347  0.397998  0.499952  1
  H  H15  1  0.079959  0.866076  0.526184  1
  H  H16  1  0.599069  0.859272  0.181160  1
  H  H17  1  0.900931  0.140728  0.681160  1
  H  H18  1  0.099069  0.640728  0.818840  1
  H  H19  1  0.097167  0.033024  0.184149  1
  H  H20  1  0.420041  0.133924  0.026184  1
  H  H21  1  0.597167  0.466976  0.815851  1
  H  H22  1  0.517347  0.102002  0.500048  1
  H  H23  1  0.201499  0.549207  0.164197  1
  Ru  Ru24  1  0.194136  0.155860  0.593071  1
  Ru  Ru25  1  0.305864  0.844140  0.093071  1
  Ru  Ru26  1  0.805864  0.655860  0.906929  1
  Ru  Ru27  1  0.694136  0.344140  0.406929  1
