# generated using pymatgen
data_Tb7YSc11Si16Hg
_symmetry_space_group_name_H-M   'P 1'
_cell_length_a   7.07133702
_cell_length_b   7.40518261
_cell_length_c   14.04666510
_cell_angle_alpha   89.98712491
_cell_angle_beta   89.99457354
_cell_angle_gamma   89.89393669
_symmetry_Int_Tables_number   1
_chemical_formula_structural   Tb7YSc11Si16Hg
_chemical_formula_sum   'Tb7 Y1 Sc11 Si16 Hg1'
_cell_volume   735.54590169
_cell_formula_units_Z   1
loop_
 _symmetry_equiv_pos_site_id
 _symmetry_equiv_pos_as_xyz
  1  'x, y, z'
loop_
 _atom_site_type_symbol
 _atom_site_label
 _atom_site_symmetry_multiplicity
 _atom_site_fract_x
 _atom_site_fract_y
 _atom_site_fract_z
 _atom_site_occupancy
  Tb  Tb0  1  0.990798  0.817601  0.901338  1
  Tb  Tb1  1  0.483986  0.672927  0.901347  1
  Tb  Tb2  1  0.990802  0.817613  0.598669  1
  Tb  Tb3  1  0.511420  0.324357  0.097360  1
  Tb  Tb4  1  0.010354  0.173424  0.403024  1
  Tb  Tb5  1  0.511425  0.324375  0.402644  1
  Tb  Tb6  1  0.483987  0.672961  0.598668  1
  Y  Y7  1  0.010360  0.173429  0.097012  1
  Sc  Sc8  1  0.838513  0.498185  0.249985  1
  Sc  Sc9  1  0.339359  0.002632  0.250006  1
  Sc  Sc10  1  0.657936  0.998652  0.749989  1
  Sc  Sc11  1  0.325811  0.183093  0.625563  1
  Sc  Sc12  1  0.671169  0.823881  0.375200  1
  Sc  Sc13  1  0.169730  0.679860  0.373336  1
  Sc  Sc14  1  0.671147  0.823905  0.124771  1
  Sc  Sc15  1  0.837651  0.325263  0.625644  1
  Sc  Sc16  1  0.325800  0.183133  0.874443  1
  Sc  Sc17  1  0.837645  0.325233  0.874322  1
  Sc  Sc18  1  0.169712  0.679882  0.126644  1
  Si  Si19  1  0.028266  0.097743  0.750016  1
  Si  Si20  1  0.967382  0.885718  0.249994  1
  Si  Si21  1  0.466865  0.618559  0.249999  1
  Si  Si22  1  0.545088  0.378200  0.750012  1
  Si  Si23  1  0.291524  0.890618  0.750000  1
  Si  Si24  1  0.713074  0.126653  0.249956  1
  Si  Si25  1  0.212630  0.374142  0.250000  1
  Si  Si26  1  0.770057  0.629624  0.750003  1
  Si  Si27  1  0.160764  0.459363  0.528759  1
  Si  Si28  1  0.843076  0.536171  0.461797  1
  Si  Si29  1  0.344771  0.965771  0.462045  1
  Si  Si30  1  0.843083  0.536181  0.038228  1
  Si  Si31  1  0.656968  0.033239  0.540676  1
  Si  Si32  1  0.160758  0.459301  0.971254  1
  Si  Si33  1  0.656983  0.033235  0.959319  1
  Si  Si34  1  0.344716  0.965767  0.037984  1
  Hg  Hg35  1  0.156388  0.509313  0.749994  1
