# generated using pymatgen
data_Nd2Sc3Ga3Sn
_symmetry_space_group_name_H-M   'P 1'
_cell_length_a   7.41053900
_cell_length_b   7.74662900
_cell_length_c   14.79077400
_cell_angle_alpha   90.00000000
_cell_angle_beta   90.00000000
_cell_angle_gamma   90.00000000
_symmetry_Int_Tables_number   1
_chemical_formula_structural   Nd2Sc3Ga3Sn
_chemical_formula_sum   'Nd8 Sc12 Ga12 Sn4'
_cell_volume   849.08947140
_cell_formula_units_Z   4
loop_
 _symmetry_equiv_pos_site_id
 _symmetry_equiv_pos_as_xyz
  1  'x, y, z'
loop_
 _atom_site_type_symbol
 _atom_site_label
 _atom_site_symmetry_multiplicity
 _atom_site_fract_x
 _atom_site_fract_y
 _atom_site_fract_z
 _atom_site_occupancy
  Nd  Nd0  1  0.490506  0.325104  0.903492  1
  Nd  Nd1  1  0.990506  0.174896  0.596508  1
  Nd  Nd2  1  0.509494  0.674896  0.403492  1
  Nd  Nd3  1  0.009494  0.825104  0.096508  1
  Nd  Nd4  1  0.493542  0.678973  0.099499  1
  Nd  Nd5  1  0.993542  0.821027  0.400501  1
  Nd  Nd6  1  0.506458  0.321027  0.599499  1
  Nd  Nd7  1  0.006458  0.178973  0.900501  1
  Sc  Sc8  1  0.328585  0.827340  0.873109  1
  Sc  Sc9  1  0.828585  0.672660  0.626891  1
  Sc  Sc10  1  0.671415  0.172660  0.373109  1
  Sc  Sc11  1  0.171415  0.327340  0.126891  1
  Sc  Sc12  1  0.653797  0.168701  0.131467  1
  Sc  Sc13  1  0.153797  0.331299  0.368533  1
  Sc  Sc14  1  0.346203  0.831299  0.631467  1
  Sc  Sc15  1  0.846203  0.668701  0.868533  1
  Sc  Sc16  1  0.174568  0.499613  0.750897  1
  Sc  Sc17  1  0.674568  0.000387  0.749103  1
  Sc  Sc18  1  0.825432  0.500387  0.250897  1
  Sc  Sc19  1  0.325432  0.999613  0.249103  1
  Ga  Ga20  1  0.332189  0.042799  0.040776  1
  Ga  Ga21  1  0.832189  0.457201  0.459224  1
  Ga  Ga22  1  0.667811  0.957201  0.540776  1
  Ga  Ga23  1  0.167811  0.542799  0.959224  1
  Ga  Ga24  1  0.539769  0.619692  0.754012  1
  Ga  Ga25  1  0.039769  0.880308  0.745988  1
  Ga  Ga26  1  0.460231  0.380308  0.254012  1
  Ga  Ga27  1  0.960231  0.119692  0.245988  1
  Ga  Ga28  1  0.295623  0.123592  0.749179  1
  Ga  Ga29  1  0.795623  0.376408  0.750821  1
  Ga  Ga30  1  0.704377  0.876408  0.249179  1
  Ga  Ga31  1  0.204377  0.623592  0.250821  1
  Sn  Sn32  1  0.669049  0.959452  0.960629  1
  Sn  Sn33  1  0.169049  0.540548  0.539371  1
  Sn  Sn34  1  0.330951  0.040548  0.460629  1
  Sn  Sn35  1  0.830951  0.459452  0.039371  1
