# generated using pymatgen
data_Tb2Co12GeP6
_symmetry_space_group_name_H-M   'P 1'
_cell_length_a   9.09616800
_cell_length_b   9.09616801
_cell_length_c   3.58465900
_cell_angle_alpha   90.00000000
_cell_angle_beta   90.00000000
_cell_angle_gamma   120.00000723
_symmetry_Int_Tables_number   1
_chemical_formula_structural   Tb2Co12GeP6
_chemical_formula_sum   'Tb2 Co12 Ge1 P6'
_cell_volume   256.85935926
_cell_formula_units_Z   1
loop_
 _symmetry_equiv_pos_site_id
 _symmetry_equiv_pos_as_xyz
  1  'x, y, z'
loop_
 _atom_site_type_symbol
 _atom_site_label
 _atom_site_symmetry_multiplicity
 _atom_site_fract_x
 _atom_site_fract_y
 _atom_site_fract_z
 _atom_site_occupancy
  Tb  Tb0  1  0.000000  0.000000  0.000000  1
  Tb  Tb1  1  0.333333  0.666667  0.500000  1
  Co  Co2  1  0.102572  0.393815  0.000000  1
  Co  Co3  1  0.606185  0.708757  0.000000  1
  Co  Co4  1  0.291243  0.897428  0.000000  1
  Co  Co5  1  0.053001  0.771154  0.500000  1
  Co  Co6  1  0.228846  0.281848  0.500000  1
  Co  Co7  1  0.718152  0.946999  0.500000  1
  Co  Co8  1  0.827369  0.619979  0.000000  1
  Co  Co9  1  0.380021  0.207390  0.000000  1
  Co  Co10  1  0.792610  0.172631  0.000000  1
  Co  Co11  1  0.914609  0.443563  0.500000  1
  Co  Co12  1  0.556437  0.471045  0.500000  1
  Co  Co13  1  0.528955  0.085391  0.500000  1
  Ge  Ge14  1  0.666667  0.333333  0.000000  1
  P  P15  1  0.777057  0.735295  0.500000  1
  P  P16  1  0.264705  0.041762  0.500000  1
  P  P17  1  0.958238  0.222943  0.500000  1
  P  P18  1  0.071694  0.626652  0.000000  1
  P  P19  1  0.373348  0.445043  0.000000  1
  P  P20  1  0.554957  0.928306  0.000000  1
