# generated using pymatgen
data_Dy2MgAlRh2
_symmetry_space_group_name_H-M   'P 1'
_cell_length_a   4.11569100
_cell_length_b   7.04569888
_cell_length_c   8.32685804
_cell_angle_alpha   90.32602345
_cell_angle_beta   90.00000000
_cell_angle_gamma   90.00000000
_symmetry_Int_Tables_number   1
_chemical_formula_structural   Dy2MgAlRh2
_chemical_formula_sum   'Dy4 Mg2 Al2 Rh4'
_cell_volume   241.45764989
_cell_formula_units_Z   2
loop_
 _symmetry_equiv_pos_site_id
 _symmetry_equiv_pos_as_xyz
  1  'x, y, z'
loop_
 _atom_site_type_symbol
 _atom_site_label
 _atom_site_symmetry_multiplicity
 _atom_site_fract_x
 _atom_site_fract_y
 _atom_site_fract_z
 _atom_site_occupancy
  Dy  Dy0  1  0.250000  0.543245  0.173582  1
  Dy  Dy1  1  0.750000  0.456755  0.826418  1
  Dy  Dy2  1  0.750000  0.967876  0.685502  1
  Dy  Dy3  1  0.250000  0.032124  0.314498  1
  Mg  Mg4  1  0.250000  0.638384  0.564257  1
  Mg  Mg5  1  0.750000  0.361616  0.435743  1
  Al  Al6  1  0.750000  0.864562  0.057799  1
  Al  Al7  1  0.250000  0.135438  0.942201  1
  Rh  Rh8  1  0.250000  0.767857  0.891637  1
  Rh  Rh9  1  0.750000  0.232143  0.108363  1
  Rh  Rh10  1  0.750000  0.753028  0.361748  1
  Rh  Rh11  1  0.250000  0.246972  0.638252  1
