# generated using pymatgen
data_Tm4Zn10SiSn
_symmetry_space_group_name_H-M   'P 1'
_cell_length_a   8.18245836
_cell_length_b   8.18245884
_cell_length_c   8.86307100
_cell_angle_alpha   90.00000000
_cell_angle_beta   90.00000000
_cell_angle_gamma   149.60523217
_symmetry_Int_Tables_number   1
_chemical_formula_structural   Tm4Zn10SiSn
_chemical_formula_sum   'Tm4 Zn10 Si1 Sn1'
_cell_volume   300.23668235
_cell_formula_units_Z   1
loop_
 _symmetry_equiv_pos_site_id
 _symmetry_equiv_pos_as_xyz
  1  'x, y, z'
loop_
 _atom_site_type_symbol
 _atom_site_label
 _atom_site_symmetry_multiplicity
 _atom_site_fract_x
 _atom_site_fract_y
 _atom_site_fract_z
 _atom_site_occupancy
  Tm  Tm0  1  0.196729  0.803271  0.250000  1
  Tm  Tm1  1  0.799847  0.200153  0.750000  1
  Tm  Tm2  1  0.000285  0.999715  0.479848  1
  Tm  Tm3  1  0.000285  0.999715  0.020152  1
  Zn  Zn4  1  0.811397  0.188603  0.391049  1
  Zn  Zn5  1  0.187364  0.812636  0.605406  1
  Zn  Zn6  1  0.811397  0.188603  0.108951  1
  Zn  Zn7  1  0.187364  0.812636  0.894594  1
  Zn  Zn8  1  0.647890  0.352110  0.471905  1
  Zn  Zn9  1  0.346174  0.653826  0.517947  1
  Zn  Zn10  1  0.647890  0.352110  0.028095  1
  Zn  Zn11  1  0.346174  0.653826  0.982053  1
  Zn  Zn12  1  0.400342  0.599658  0.250000  1
  Zn  Zn13  1  0.612303  0.387697  0.750000  1
  Si  Si14  1  0.554189  0.445811  0.250000  1
  Sn  Sn15  1  0.450368  0.549632  0.750000  1
