# generated using pymatgen
data_Th5Bi3Ru
_symmetry_space_group_name_H-M   'P 1'
_cell_length_a   6.53613800
_cell_length_b   9.73322993
_cell_length_c   9.73287381
_cell_angle_alpha   120.00121294
_cell_angle_beta   90.00000000
_cell_angle_gamma   90.00000000
_symmetry_Int_Tables_number   1
_chemical_formula_structural   Th5Bi3Ru
_chemical_formula_sum   'Th10 Bi6 Ru2'
_cell_volume   536.22198012
_cell_formula_units_Z   2
loop_
 _symmetry_equiv_pos_site_id
 _symmetry_equiv_pos_as_xyz
  1  'x, y, z'
loop_
 _atom_site_type_symbol
 _atom_site_label
 _atom_site_symmetry_multiplicity
 _atom_site_fract_x
 _atom_site_fract_y
 _atom_site_fract_z
 _atom_site_occupancy
  Th  Th0  1  0.499998  0.333307  0.666609  1
  Th  Th1  1  0.499998  0.666698  0.333391  1
  Th  Th2  1  0.999998  0.666693  0.333391  1
  Th  Th3  1  0.999998  0.333302  0.666609  1
  Th  Th4  1  0.750005  0.243235  0.000000  1
  Th  Th5  1  0.749995  0.756736  0.756747  1
  Th  Th6  1  0.749995  0.999989  0.243253  1
  Th  Th7  1  0.250005  0.756765  0.000000  1
  Th  Th8  1  0.249995  0.243264  0.243253  1
  Th  Th9  1  0.249995  0.000011  0.756747  1
  Bi  Bi10  1  0.750001  0.606471  0.000000  1
  Bi  Bi11  1  0.749991  0.393507  0.393514  1
  Bi  Bi12  1  0.749991  0.999995  0.606486  1
  Bi  Bi13  1  0.250001  0.393529  0.000000  1
  Bi  Bi14  1  0.249991  0.606493  0.606486  1
  Bi  Bi15  1  0.249991  0.000005  0.393514  1
  Ru  Ru16  1  0.500027  0.000002  0.000000  1
  Ru  Ru17  1  0.000027  0.999998  0.000000  1
