# generated using pymatgen
data_Sc2Ti3P7Rh9
_symmetry_space_group_name_H-M   'P 1'
_cell_length_a   3.76597100
_cell_length_b   9.65741868
_cell_length_c   9.65494000
_cell_angle_alpha   120.00164194
_cell_angle_beta   89.99936272
_cell_angle_gamma   90.00044242
_symmetry_Int_Tables_number   1
_chemical_formula_structural   Sc2Ti3P7Rh9
_chemical_formula_sum   'Sc2 Ti3 P7 Rh9'
_cell_volume   304.09624433
_cell_formula_units_Z   1
loop_
 _symmetry_equiv_pos_site_id
 _symmetry_equiv_pos_as_xyz
  1  'x, y, z'
loop_
 _atom_site_type_symbol
 _atom_site_label
 _atom_site_symmetry_multiplicity
 _atom_site_fract_x
 _atom_site_fract_y
 _atom_site_fract_z
 _atom_site_occupancy
  Sc  Sc0  1  0.261803  0.666658  0.333338  1
  Sc  Sc1  1  0.761803  0.333366  0.666680  1
  Ti  Ti2  1  0.761908  0.100217  0.875950  1
  Ti  Ti3  1  0.761908  0.123979  0.224217  1
  Ti  Ti4  1  0.761916  0.775759  0.899732  1
  P  P5  1  0.261830  0.999983  0.999935  1
  P  P6  1  0.761924  0.869419  0.581890  1
  P  P7  1  0.761916  0.418179  0.287524  1
  P  P8  1  0.761904  0.712490  0.130690  1
  P  P9  1  0.261894  0.117367  0.420434  1
  P  P10  1  0.261920  0.579582  0.696929  1
  P  P11  1  0.261912  0.303027  0.882684  1
  Rh  Rh12  1  0.261926  0.881643  0.159148  1
  Rh  Rh13  1  0.261952  0.840827  0.722461  1
  Rh  Rh14  1  0.261930  0.277471  0.118337  1
  Rh  Rh15  1  0.761954  0.609907  0.554169  1
  Rh  Rh16  1  0.761940  0.445802  0.055734  1
  Rh  Rh17  1  0.761925  0.944315  0.390155  1
  Rh  Rh18  1  0.261931  0.361920  0.438945  1
  Rh  Rh19  1  0.261916  0.561025  0.922952  1
  Rh  Rh20  1  0.261887  0.077064  0.638099  1
