# generated using pymatgen
data_Gd4GaAs5Rh7
_symmetry_space_group_name_H-M   'P 1'
_cell_length_a   7.43828572
_cell_length_b   7.43828457
_cell_length_c   7.43828400
_cell_angle_alpha   109.65881490
_cell_angle_beta   109.09668051
_cell_angle_gamma   109.65881494
_symmetry_Int_Tables_number   1
_chemical_formula_structural   Gd4GaAs5Rh7
_chemical_formula_sum   'Gd4 Ga1 As5 Rh7'
_cell_volume   316.79812363
_cell_formula_units_Z   1
loop_
 _symmetry_equiv_pos_site_id
 _symmetry_equiv_pos_as_xyz
  1  'x, y, z'
loop_
 _atom_site_type_symbol
 _atom_site_label
 _atom_site_symmetry_multiplicity
 _atom_site_fract_x
 _atom_site_fract_y
 _atom_site_fract_z
 _atom_site_occupancy
  Gd  Gd0  1  0.492379  0.490886  0.492379  1
  Gd  Gd1  1  0.001493  0.509114  0.001493  1
  Gd  Gd2  1  0.492379  0.000000  0.001493  1
  Gd  Gd3  1  0.001493  0.000000  0.492379  1
  Ga  Ga4  1  0.683630  0.000000  0.683630  1
  As  As5  1  0.673905  0.678909  0.994995  1
  As  As6  1  0.316086  0.321091  0.994995  1
  As  As7  1  0.994995  0.678909  0.673905  1
  As  As8  1  0.994995  0.321091  0.316086  1
  As  As9  1  0.343263  0.000000  0.343263  1
  Rh  Rh10  1  0.503920  0.747280  0.251200  1
  Rh  Rh11  1  0.756642  0.252720  0.503920  1
  Rh  Rh12  1  0.251200  0.747280  0.503920  1
  Rh  Rh13  1  0.247377  0.500000  0.747377  1
  Rh  Rh14  1  0.994946  0.000000  0.994946  1
  Rh  Rh15  1  0.503920  0.252720  0.756642  1
  Rh  Rh16  1  0.747377  0.500000  0.247377  1
