# generated using pymatgen
data_Ca4In2Pd3Pt
_symmetry_space_group_name_H-M   'P 1'
_cell_length_a   5.87477347
_cell_length_b   5.85264337
_cell_length_c   8.23132598
_cell_angle_alpha   77.18099780
_cell_angle_beta   77.11693721
_cell_angle_gamma   59.03703777
_symmetry_Int_Tables_number   1
_chemical_formula_structural   Ca4In2Pd3Pt
_chemical_formula_sum   'Ca4 In2 Pd3 Pt1'
_cell_volume   234.62615280
_cell_formula_units_Z   1
loop_
 _symmetry_equiv_pos_site_id
 _symmetry_equiv_pos_as_xyz
  1  'x, y, z'
loop_
 _atom_site_type_symbol
 _atom_site_label
 _atom_site_symmetry_multiplicity
 _atom_site_fract_x
 _atom_site_fract_y
 _atom_site_fract_z
 _atom_site_occupancy
  Ca  Ca0  1  0.506765  0.796574  0.348011  1
  Ca  Ca1  1  0.204103  0.496681  0.146168  1
  Ca  Ca2  1  0.499534  0.203493  0.653167  1
  Ca  Ca3  1  0.792556  0.503710  0.853224  1
  In  In4  1  0.842397  0.154198  0.250053  1
  In  In5  1  0.153678  0.845985  0.750514  1
  Pd  Pd6  1  0.997500  0.270332  0.495606  1
  Pd  Pd7  1  0.271477  0.998118  0.998173  1
  Pd  Pd8  1  0.005115  0.729040  0.502140  1
  Pt  Pt9  1  0.726876  0.001868  0.002943  1
