# generated using pymatgen
data_Zr20Zn3BiSb8
_symmetry_space_group_name_H-M   'P 1'
_cell_length_a   5.56872360
_cell_length_b   8.40993013
_cell_length_c   15.82932700
_cell_angle_alpha   90.00000000
_cell_angle_beta   90.00000000
_cell_angle_gamma   109.38745787
_symmetry_Int_Tables_number   1
_chemical_formula_structural   Zr20Zn3BiSb8
_chemical_formula_sum   'Zr20 Zn3 Bi1 Sb8'
_cell_volume   699.29140783
_cell_formula_units_Z   1
loop_
 _symmetry_equiv_pos_site_id
 _symmetry_equiv_pos_as_xyz
  1  'x, y, z'
loop_
 _atom_site_type_symbol
 _atom_site_label
 _atom_site_symmetry_multiplicity
 _atom_site_fract_x
 _atom_site_fract_y
 _atom_site_fract_z
 _atom_site_occupancy
  Zr  Zr0  1  0.430486  0.859468  0.355406  1
  Zr  Zr1  1  0.923855  0.860551  0.851772  1
  Zr  Zr2  1  0.061755  0.135775  0.148720  1
  Zr  Zr3  1  0.570625  0.140538  0.644448  1
  Zr  Zr4  1  0.652043  0.292504  0.070714  1
  Zr  Zr5  1  0.146006  0.290107  0.568143  1
  Zr  Zr6  1  0.854782  0.709689  0.431987  1
  Zr  Zr7  1  0.358345  0.707054  0.927064  1
  Zr  Zr8  1  0.847957  0.707496  0.070714  1
  Zr  Zr9  1  0.353994  0.709893  0.568143  1
  Zr  Zr10  1  0.645218  0.290311  0.431987  1
  Zr  Zr11  1  0.141655  0.292946  0.927064  1
  Zr  Zr12  1  0.069514  0.140532  0.355406  1
  Zr  Zr13  1  0.576145  0.139449  0.851772  1
  Zr  Zr14  1  0.438245  0.864225  0.148720  1
  Zr  Zr15  1  0.929375  0.859462  0.644448  1
  Zr  Zr16  1  0.501497  0.500193  0.252426  1
  Zr  Zr17  1  0.000402  0.499600  0.749606  1
  Zr  Zr18  1  0.998503  0.499807  0.252426  1
  Zr  Zr19  1  0.499598  0.500400  0.749606  1
  Zn  Zn20  1  0.750000  0.000000  0.499943  1
  Zn  Zn21  1  0.750000  0.000000  0.999974  1
  Zn  Zn22  1  0.250000  0.000000  0.500006  1
  Bi  Bi23  1  0.250000  0.500000  0.085880  1
  Sb  Sb24  1  0.915130  0.826421  0.252459  1
  Sb  Sb25  1  0.412018  0.827042  0.747293  1
  Sb  Sb26  1  0.584870  0.173579  0.252459  1
  Sb  Sb27  1  0.087982  0.172958  0.747293  1
  Sb  Sb28  1  0.750000  0.500000  0.586274  1
  Sb  Sb29  1  0.250000  0.500000  0.414277  1
  Sb  Sb30  1  0.750000  0.500000  0.913643  1
  Sb  Sb31  1  0.250000  0.000000  0.999927  1
