# generated using pymatgen
data_Tb2GaRuRh
_symmetry_space_group_name_H-M   'P 1'
_cell_length_a   4.08218896
_cell_length_b   5.92986959
_cell_length_c   5.53853142
_cell_angle_alpha   122.36621088
_cell_angle_beta   111.62476131
_cell_angle_gamma   90.00000923
_symmetry_Int_Tables_number   1
_chemical_formula_structural   Tb2GaRuRh
_chemical_formula_sum   'Tb2 Ga1 Ru1 Rh1'
_cell_volume   101.89449947
_cell_formula_units_Z   1
loop_
 _symmetry_equiv_pos_site_id
 _symmetry_equiv_pos_as_xyz
  1  'x, y, z'
loop_
 _atom_site_type_symbol
 _atom_site_label
 _atom_site_symmetry_multiplicity
 _atom_site_fract_x
 _atom_site_fract_y
 _atom_site_fract_z
 _atom_site_occupancy
  Tb  Tb0  1  0.797028  0.294142  0.594056  1
  Tb  Tb1  1  0.202972  0.700086  0.405944  1
  Ga  Ga2  1  0.000000  0.006716  0.000000  1
  Ru  Ru3  1  0.500000  0.262117  0.000000  1
  Rh  Rh4  1  0.500000  0.736938  0.000000  1
