# generated using pymatgen
data_Dy4SnSb5Rh7
_symmetry_space_group_name_H-M   'P 1'
_cell_length_a   7.61111440
_cell_length_b   7.61111505
_cell_length_c   7.61111501
_cell_angle_alpha   109.60465850
_cell_angle_beta   109.40454836
_cell_angle_gamma   109.40453789
_symmetry_Int_Tables_number   1
_chemical_formula_structural   Dy4SnSb5Rh7
_chemical_formula_sum   'Dy4 Sn1 Sb5 Rh7'
_cell_volume   339.40728589
_cell_formula_units_Z   1
loop_
 _symmetry_equiv_pos_site_id
 _symmetry_equiv_pos_as_xyz
  1  'x, y, z'
loop_
 _atom_site_type_symbol
 _atom_site_label
 _atom_site_symmetry_multiplicity
 _atom_site_fract_x
 _atom_site_fract_y
 _atom_site_fract_z
 _atom_site_occupancy
  Dy  Dy0  1  0.498678  0.000641  0.000641  1
  Dy  Dy1  1  0.000000  0.501963  0.000641  1
  Dy  Dy2  1  0.000000  0.000641  0.501963  1
  Dy  Dy3  1  0.501322  0.501963  0.501963  1
  Sn  Sn4  1  0.000000  0.313959  0.313959  1
  Sb  Sb5  1  0.682992  0.001492  0.684484  1
  Sb  Sb6  1  0.682992  0.684484  0.001492  1
  Sb  Sb7  1  0.000000  0.678251  0.678251  1
  Sb  Sb8  1  0.317008  0.001492  0.318499  1
  Sb  Sb9  1  0.317008  0.318499  0.001492  1
  Rh  Rh10  1  0.000000  0.994656  0.994656  1
  Rh  Rh11  1  0.500000  0.751201  0.251201  1
  Rh  Rh12  1  0.749036  0.499888  0.248925  1
  Rh  Rh13  1  0.250964  0.750852  0.499888  1
  Rh  Rh14  1  0.250964  0.499888  0.750852  1
  Rh  Rh15  1  0.500000  0.251201  0.751201  1
  Rh  Rh16  1  0.749036  0.248925  0.499888  1
