# generated using pymatgen
data_Nd2P7PdRu11
_symmetry_space_group_name_H-M   'P 1'
_cell_length_a   9.47228203
_cell_length_b   9.53021225
_cell_length_c   3.96821600
_cell_angle_alpha   90.00000000
_cell_angle_beta   90.00000000
_cell_angle_gamma   119.80869719
_symmetry_Int_Tables_number   1
_chemical_formula_structural   Nd2P7PdRu11
_chemical_formula_sum   'Nd2 P7 Pd1 Ru11'
_cell_volume   310.82582296
_cell_formula_units_Z   1
loop_
 _symmetry_equiv_pos_site_id
 _symmetry_equiv_pos_as_xyz
  1  'x, y, z'
loop_
 _atom_site_type_symbol
 _atom_site_label
 _atom_site_symmetry_multiplicity
 _atom_site_fract_x
 _atom_site_fract_y
 _atom_site_fract_z
 _atom_site_occupancy
  Nd  Nd0  1  0.000496  0.000124  0.000000  1
  Nd  Nd1  1  0.334263  0.668663  0.500000  1
  P  P2  1  0.777693  0.729935  0.500000  1
  P  P3  1  0.268132  0.048330  0.500000  1
  P  P4  1  0.941404  0.206676  0.500000  1
  P  P5  1  0.667098  0.331380  0.000000  1
  P  P6  1  0.086462  0.654227  0.000000  1
  P  P7  1  0.368819  0.445984  0.000000  1
  P  P8  1  0.556055  0.913764  0.000000  1
  Pd  Pd9  1  0.096098  0.405657  0.000000  1
  Ru  Ru10  1  0.600691  0.693262  0.000000  1
  Ru  Ru11  1  0.308284  0.909804  0.000000  1
  Ru  Ru12  1  0.055188  0.773212  0.500000  1
  Ru  Ru13  1  0.225664  0.285565  0.500000  1
  Ru  Ru14  1  0.712341  0.938959  0.500000  1
  Ru  Ru15  1  0.825012  0.600487  0.000000  1
  Ru  Ru16  1  0.395923  0.223352  0.000000  1
  Ru  Ru17  1  0.776936  0.170586  0.000000  1
  Ru  Ru18  1  0.881399  0.420537  0.500000  1
  Ru  Ru19  1  0.578638  0.454929  0.500000  1
  Ru  Ru20  1  0.543406  0.124563  0.500000  1
