# generated using pymatgen
data_CePrSi2(Ru2C)2
_symmetry_space_group_name_H-M   'P 1'
_cell_length_a   5.91741132
_cell_length_b   5.91741193
_cell_length_c   7.17712900
_cell_angle_alpha   90.00000000
_cell_angle_beta   90.00000000
_cell_angle_gamma   141.09552442
_symmetry_Int_Tables_number   1
_chemical_formula_structural   CePrSi2(Ru2C)2
_chemical_formula_sum   'Ce1 Pr1 Si2 Ru4 C2'
_cell_volume   157.83032400
_cell_formula_units_Z   1
loop_
 _symmetry_equiv_pos_site_id
 _symmetry_equiv_pos_as_xyz
  1  'x, y, z'
loop_
 _atom_site_type_symbol
 _atom_site_label
 _atom_site_symmetry_multiplicity
 _atom_site_fract_x
 _atom_site_fract_y
 _atom_site_fract_z
 _atom_site_occupancy
  Ce  Ce0  1  0.553040  0.446960  0.250000  1
  Pr  Pr1  1  0.449218  0.550782  0.750000  1
  Si  Si2  1  0.272946  0.727054  0.250000  1
  Si  Si3  1  0.728504  0.271496  0.750000  1
  Ru  Ru4  1  0.834405  0.165595  0.058988  1
  Ru  Ru5  1  0.164206  0.835794  0.943833  1
  Ru  Ru6  1  0.164206  0.835794  0.556167  1
  Ru  Ru7  1  0.834405  0.165595  0.441012  1
  C  C8  1  0.999536  0.000464  0.004522  1
  C  C9  1  0.999536  0.000464  0.495478  1
