# generated using pymatgen
data_Sc12Bi(RuI8)2
_symmetry_space_group_name_H-M   'P 1'
_cell_length_a   9.47809271
_cell_length_b   12.17757432
_cell_length_c   12.84060291
_cell_angle_alpha   117.00392340
_cell_angle_beta   101.39359723
_cell_angle_gamma   100.82322788
_symmetry_Int_Tables_number   1
_chemical_formula_structural   Sc12Bi(RuI8)2
_chemical_formula_sum   'Sc12 Bi1 Ru2 I16'
_cell_volume   1227.40054222
_cell_formula_units_Z   1
loop_
 _symmetry_equiv_pos_site_id
 _symmetry_equiv_pos_as_xyz
  1  'x, y, z'
loop_
 _atom_site_type_symbol
 _atom_site_label
 _atom_site_symmetry_multiplicity
 _atom_site_fract_x
 _atom_site_fract_y
 _atom_site_fract_z
 _atom_site_occupancy
  Sc  Sc0  1  0.113485  0.266699  0.356926  1
  Sc  Sc1  1  0.886515  0.733301  0.643074  1
  Sc  Sc2  1  0.754262  0.536498  0.327258  1
  Sc  Sc3  1  0.245738  0.463502  0.672742  1
  Sc  Sc4  1  0.302747  0.733560  0.642698  1
  Sc  Sc5  1  0.697253  0.266440  0.357302  1
  Sc  Sc6  1  0.170635  0.536419  0.327036  1
  Sc  Sc7  1  0.829365  0.463581  0.672964  1
  Sc  Sc8  1  0.411199  0.367314  0.287223  1
  Sc  Sc9  1  0.588801  0.632686  0.712777  1
  Sc  Sc10  1  0.461513  0.319009  0.520158  1
  Sc  Sc11  1  0.538487  0.680991  0.479842  1
  Bi  Bi12  1  0.000000  0.500000  0.500000  1
  Ru  Ru13  1  0.343437  0.500052  0.499783  1
  Ru  Ru14  1  0.656564  0.499948  0.500217  1
  I  I15  1  0.396296  0.736453  0.878813  1
  I  I16  1  0.603704  0.263547  0.121187  1
  I  I17  1  0.178834  0.942110  0.769657  1
  I  I18  1  0.821166  0.057890  0.230343  1
  I  I19  1  0.338731  0.100526  0.255082  1
  I  I20  1  0.661269  0.899474  0.744918  1
  I  I21  1  0.562769  0.437975  0.796344  1
  I  I22  1  0.437231  0.562025  0.203656  1
  I  I23  1  0.308483  0.823519  0.463322  1
  I  I24  1  0.691517  0.176481  0.536678  1
  I  I25  1  0.170874  0.176536  0.535678  1
  I  I26  1  0.829126  0.823464  0.464322  1
  I  I27  1  0.929358  0.570629  0.173863  1
  I  I28  1  0.070642  0.429371  0.826137  1
  I  I29  1  0.919560  0.735923  0.879066  1
  I  I30  1  0.080440  0.264077  0.120934  1
