# generated using pymatgen
data_MoWO4
_symmetry_space_group_name_H-M   'P 1'
_cell_length_a   3.26687400
_cell_length_b   4.78008847
_cell_length_c   4.78183079
_cell_angle_alpha   91.32003911
_cell_angle_beta   89.99982647
_cell_angle_gamma   90.00022822
_symmetry_Int_Tables_number   1
_chemical_formula_structural   MoWO4
_chemical_formula_sum   'Mo1 W1 O4'
_cell_volume   74.65299772
_cell_formula_units_Z   1
loop_
 _symmetry_equiv_pos_site_id
 _symmetry_equiv_pos_as_xyz
  1  'x, y, z'
loop_
 _atom_site_type_symbol
 _atom_site_label
 _atom_site_symmetry_multiplicity
 _atom_site_fract_x
 _atom_site_fract_y
 _atom_site_fract_z
 _atom_site_occupancy
  Mo  Mo0  1  0.000001  0.500000  0.500000  1
  W  W1  1  0.499999  0.000000  0.000000  1
  O  O2  1  0.999997  0.815355  0.184417  1
  O  O3  1  0.000002  0.184644  0.815582  1
  O  O4  1  0.500000  0.708434  0.708298  1
  O  O5  1  0.500000  0.291565  0.291701  1
