# generated using pymatgen
data_TbLu(FeB)8
_symmetry_space_group_name_H-M   'P 1'
_cell_length_a   6.92472500
_cell_length_b   6.92472500
_cell_length_c   3.82216900
_cell_angle_alpha   90.00000000
_cell_angle_beta   90.00000000
_cell_angle_gamma   90.00000000
_symmetry_Int_Tables_number   1
_chemical_formula_structural   TbLu(FeB)8
_chemical_formula_sum   'Tb1 Lu1 Fe8 B8'
_cell_volume   183.27994585
_cell_formula_units_Z   1
loop_
 _symmetry_equiv_pos_site_id
 _symmetry_equiv_pos_as_xyz
  1  'x, y, z'
loop_
 _atom_site_type_symbol
 _atom_site_label
 _atom_site_symmetry_multiplicity
 _atom_site_fract_x
 _atom_site_fract_y
 _atom_site_fract_z
 _atom_site_occupancy
  Tb  Tb0  1  0.500000  0.500000  0.500000  1
  Lu  Lu1  1  0.000000  0.000000  0.000000  1
  Fe  Fe2  1  0.868698  0.384149  0.109663  1
  Fe  Fe3  1  0.131302  0.615851  0.109663  1
  Fe  Fe4  1  0.885256  0.633033  0.609433  1
  Fe  Fe5  1  0.114744  0.366967  0.609433  1
  Fe  Fe6  1  0.633033  0.114744  0.390567  1
  Fe  Fe7  1  0.366967  0.885256  0.390567  1
  Fe  Fe8  1  0.615851  0.868698  0.890337  1
  Fe  Fe9  1  0.384149  0.131302  0.890337  1
  B  B10  1  0.332292  0.802634  0.893876  1
  B  B11  1  0.667708  0.197366  0.893876  1
  B  B12  1  0.298778  0.165663  0.392644  1
  B  B13  1  0.701222  0.834337  0.392644  1
  B  B14  1  0.165663  0.701222  0.607356  1
  B  B15  1  0.834337  0.298778  0.607356  1
  B  B16  1  0.197366  0.332292  0.106124  1
  B  B17  1  0.802634  0.667708  0.106124  1
