# generated using pymatgen
data_Li2La6MgCd20P
_symmetry_space_group_name_H-M   'P 1'
_cell_length_a   10.11156165
_cell_length_b   10.12452408
_cell_length_c   10.13190059
_cell_angle_alpha   59.78930232
_cell_angle_beta   59.94924356
_cell_angle_gamma   60.10586501
_symmetry_Int_Tables_number   1
_chemical_formula_structural   Li2La6MgCd20P
_chemical_formula_sum   'Li2 La6 Mg1 Cd20 P1'
_cell_volume   732.57314831
_cell_formula_units_Z   1
loop_
 _symmetry_equiv_pos_site_id
 _symmetry_equiv_pos_as_xyz
  1  'x, y, z'
loop_
 _atom_site_type_symbol
 _atom_site_label
 _atom_site_symmetry_multiplicity
 _atom_site_fract_x
 _atom_site_fract_y
 _atom_site_fract_z
 _atom_site_occupancy
  Li  Li0  1  0.000000  0.000000  0.500000  1
  Li  Li1  1  0.500000  0.500000  0.500000  1
  La  La2  1  0.792992  0.794803  0.207366  1
  La  La3  1  0.207184  0.792223  0.204435  1
  La  La4  1  0.791365  0.205906  0.205324  1
  La  La5  1  0.207008  0.205197  0.792634  1
  La  La6  1  0.792816  0.207777  0.795565  1
  La  La7  1  0.208635  0.794094  0.794676  1
  Mg  Mg8  1  0.000000  0.500000  0.000000  1
  Cd  Cd9  1  0.833547  0.832798  0.509914  1
  Cd  Cd10  1  0.831958  0.508274  0.831079  1
  Cd  Cd11  1  0.508960  0.830624  0.830366  1
  Cd  Cd12  1  0.834402  0.832036  0.825207  1
  Cd  Cd13  1  0.166453  0.167202  0.490086  1
  Cd  Cd14  1  0.168042  0.491726  0.168921  1
  Cd  Cd15  1  0.491040  0.169376  0.169634  1
  Cd  Cd16  1  0.165598  0.167964  0.174793  1
  Cd  Cd17  1  0.620987  0.616891  0.146112  1
  Cd  Cd18  1  0.625734  0.145071  0.615411  1
  Cd  Cd19  1  0.145244  0.623707  0.617584  1
  Cd  Cd20  1  0.618008  0.617099  0.617748  1
  Cd  Cd21  1  0.379013  0.383109  0.853888  1
  Cd  Cd22  1  0.374266  0.854929  0.384589  1
  Cd  Cd23  1  0.854756  0.376293  0.382416  1
  Cd  Cd24  1  0.381992  0.382901  0.382252  1
  Cd  Cd25  1  0.500000  0.000000  0.500000  1
  Cd  Cd26  1  0.000000  0.500000  0.500000  1
  Cd  Cd27  1  0.500000  0.500000  0.000000  1
  Cd  Cd28  1  0.500000  0.000000  0.000000  1
  P  P29  1  0.000000  0.000000  0.000000  1
