# generated using pymatgen
data_DyNb8FeSe16
_symmetry_space_group_name_H-M   'P 1'
_cell_length_a   6.99815300
_cell_length_b   6.99815251
_cell_length_c   13.69608200
_cell_angle_alpha   90.00000000
_cell_angle_beta   90.00000000
_cell_angle_gamma   119.99999759
_symmetry_Int_Tables_number   1
_chemical_formula_structural   DyNb8FeSe16
_chemical_formula_sum   'Dy1 Nb8 Fe1 Se16'
_cell_volume   580.88990039
_cell_formula_units_Z   1
loop_
 _symmetry_equiv_pos_site_id
 _symmetry_equiv_pos_as_xyz
  1  'x, y, z'
loop_
 _atom_site_type_symbol
 _atom_site_label
 _atom_site_symmetry_multiplicity
 _atom_site_fract_x
 _atom_site_fract_y
 _atom_site_fract_z
 _atom_site_occupancy
  Dy  Dy0  1  0.000000  0.000000  0.500000  1
  Nb  Nb1  1  0.000000  0.000000  0.234951  1
  Nb  Nb2  1  0.000000  0.000000  0.765049  1
  Nb  Nb3  1  0.507409  0.014820  0.233800  1
  Nb  Nb4  1  0.985180  0.492591  0.233800  1
  Nb  Nb5  1  0.507409  0.492591  0.233800  1
  Nb  Nb6  1  0.492591  0.985180  0.766200  1
  Nb  Nb7  1  0.014820  0.507409  0.766200  1
  Nb  Nb8  1  0.492591  0.507409  0.766200  1
  Fe  Fe9  1  0.000000  0.000000  0.000000  1
  Se  Se10  1  0.333333  0.666667  0.891616  1
  Se  Se11  1  0.666667  0.333333  0.108384  1
  Se  Se12  1  0.666667  0.333333  0.361577  1
  Se  Se13  1  0.333333  0.666667  0.638423  1
  Se  Se14  1  0.169489  0.830511  0.356385  1
  Se  Se15  1  0.169489  0.338977  0.356385  1
  Se  Se16  1  0.661023  0.830511  0.356385  1
  Se  Se17  1  0.830511  0.169489  0.643615  1
  Se  Se18  1  0.830511  0.661023  0.643615  1
  Se  Se19  1  0.338977  0.169489  0.643615  1
  Se  Se20  1  0.832248  0.167752  0.887097  1
  Se  Se21  1  0.832248  0.664496  0.887097  1
  Se  Se22  1  0.335504  0.167752  0.887097  1
  Se  Se23  1  0.167752  0.832248  0.112903  1
  Se  Se24  1  0.167752  0.335504  0.112903  1
  Se  Se25  1  0.664496  0.832248  0.112903  1
