# generated using pymatgen
data_Li4LaYb2HoSi8
_symmetry_space_group_name_H-M   'P 1'
_cell_length_a   3.82571100
_cell_length_b   7.81203901
_cell_length_c   10.50349408
_cell_angle_alpha   89.89465397
_cell_angle_beta   90.00000000
_cell_angle_gamma   90.00000000
_symmetry_Int_Tables_number   1
_chemical_formula_structural   Li4LaYb2HoSi8
_chemical_formula_sum   'Li4 La1 Yb2 Ho1 Si8'
_cell_volume   313.91323303
_cell_formula_units_Z   1
loop_
 _symmetry_equiv_pos_site_id
 _symmetry_equiv_pos_as_xyz
  1  'x, y, z'
loop_
 _atom_site_type_symbol
 _atom_site_label
 _atom_site_symmetry_multiplicity
 _atom_site_fract_x
 _atom_site_fract_y
 _atom_site_fract_z
 _atom_site_occupancy
  Li  Li0  1  0.250000  0.997283  0.387539  1
  Li  Li1  1  0.750000  0.003014  0.609782  1
  Li  Li2  1  0.250000  0.497116  0.108623  1
  Li  Li3  1  0.750000  0.508839  0.892279  1
  La  La4  1  0.250000  0.633341  0.635929  1
  Yb  Yb5  1  0.750000  0.867447  0.133866  1
  Yb  Yb6  1  0.750000  0.362278  0.365226  1
  Ho  Ho7  1  0.250000  0.129321  0.866804  1
  Si  Si8  1  0.750000  0.266430  0.061870  1
  Si  Si9  1  0.250000  0.742108  0.934518  1
  Si  Si10  1  0.750000  0.767977  0.428510  1
  Si  Si11  1  0.250000  0.227734  0.573122  1
  Si  Si12  1  0.750000  0.844648  0.823319  1
  Si  Si13  1  0.250000  0.162728  0.170481  1
  Si  Si14  1  0.750000  0.328492  0.685288  1
  Si  Si15  1  0.250000  0.661249  0.322841  1
