# generated using pymatgen
data_CsSi2Sn2MoP6O25
_symmetry_space_group_name_H-M   'P 1'
_cell_length_a   8.45599000
_cell_length_b   8.45598987
_cell_length_c   18.19295400
_cell_angle_alpha   90.00000000
_cell_angle_beta   90.00000000
_cell_angle_gamma   120.00000052
_symmetry_Int_Tables_number   1
_chemical_formula_structural   CsSi2Sn2MoP6O25
_chemical_formula_sum   'Cs2 Si4 Sn4 Mo2 P12 O50'
_cell_volume   1126.58188947
_cell_formula_units_Z   2
loop_
 _symmetry_equiv_pos_site_id
 _symmetry_equiv_pos_as_xyz
  1  'x, y, z'
loop_
 _atom_site_type_symbol
 _atom_site_label
 _atom_site_symmetry_multiplicity
 _atom_site_fract_x
 _atom_site_fract_y
 _atom_site_fract_z
 _atom_site_occupancy
  Cs  Cs0  1  0.666667  0.333333  0.750000  1
  Cs  Cs1  1  0.333333  0.666667  0.250000  1
  Si  Si2  1  0.000000  0.000000  0.587940  1
  Si  Si3  1  0.000000  0.000000  0.412060  1
  Si  Si4  1  0.000000  0.000000  0.912060  1
  Si  Si5  1  0.000000  0.000000  0.087940  1
  Sn  Sn6  1  0.666667  0.333333  0.518506  1
  Sn  Sn7  1  0.333333  0.666667  0.481494  1
  Sn  Sn8  1  0.666667  0.333333  0.981494  1
  Sn  Sn9  1  0.333333  0.666667  0.018506  1
  Mo  Mo10  1  0.333333  0.666667  0.750000  1
  Mo  Mo11  1  0.666667  0.333333  0.250000  1
  P  P12  1  0.331474  0.377086  0.608688  1
  P  P13  1  0.668526  0.622914  0.391312  1
  P  P14  1  0.622914  0.954389  0.608688  1
  P  P15  1  0.331474  0.954389  0.891312  1
  P  P16  1  0.377086  0.045611  0.391312  1
  P  P17  1  0.668526  0.045611  0.108688  1
  P  P18  1  0.045611  0.668526  0.608688  1
  P  P19  1  0.622914  0.668526  0.891312  1
  P  P20  1  0.954389  0.331474  0.391312  1
  P  P21  1  0.377086  0.331474  0.108688  1
  P  P22  1  0.045611  0.377086  0.891312  1
  P  P23  1  0.954389  0.622914  0.108688  1
  O  O24  1  0.249211  0.435448  0.545412  1
  O  O25  1  0.750789  0.564552  0.454588  1
  O  O26  1  0.564552  0.813763  0.545412  1
  O  O27  1  0.249211  0.813763  0.954588  1
  O  O28  1  0.435448  0.186237  0.454588  1
  O  O29  1  0.750789  0.186237  0.045412  1
  O  O30  1  0.186237  0.750789  0.545412  1
  O  O31  1  0.564552  0.750789  0.954588  1
  O  O32  1  0.813763  0.249211  0.454588  1
  O  O33  1  0.435448  0.249211  0.045412  1
  O  O34  1  0.186237  0.435448  0.954588  1
  O  O35  1  0.813763  0.564552  0.045412  1
  O  O36  1  0.342198  0.463383  0.682439  1
  O  O37  1  0.657802  0.536617  0.317561  1
  O  O38  1  0.536617  0.878814  0.682439  1
  O  O39  1  0.342198  0.878814  0.817561  1
  O  O40  1  0.463383  0.121186  0.317561  1
  O  O41  1  0.657802  0.121186  0.182439  1
  O  O42  1  0.121186  0.657802  0.682439  1
  O  O43  1  0.536617  0.657802  0.817561  1
  O  O44  1  0.878814  0.342198  0.317561  1
  O  O45  1  0.463383  0.342198  0.182439  1
  O  O46  1  0.121186  0.463383  0.817561  1
  O  O47  1  0.878814  0.536617  0.182439  1
  O  O48  1  0.000000  0.000000  0.500000  1
  O  O49  1  0.000000  0.000000  0.000000  1
  O  O50  1  0.598062  0.117986  0.589272  1
  O  O51  1  0.401938  0.882014  0.410728  1
  O  O52  1  0.882014  0.480076  0.589272  1
  O  O53  1  0.598062  0.480076  0.910728  1
  O  O54  1  0.117986  0.519924  0.410728  1
  O  O55  1  0.401938  0.519924  0.089272  1
  O  O56  1  0.519924  0.401938  0.589272  1
  O  O57  1  0.882014  0.401938  0.910728  1
  O  O58  1  0.480076  0.598062  0.410728  1
  O  O59  1  0.117986  0.598062  0.089272  1
  O  O60  1  0.519924  0.117986  0.910728  1
  O  O61  1  0.480076  0.882014  0.089272  1
  O  O62  1  0.837375  0.032597  0.619118  1
  O  O63  1  0.162625  0.967403  0.380882  1
  O  O64  1  0.967403  0.804778  0.619118  1
  O  O65  1  0.837375  0.804778  0.880882  1
  O  O66  1  0.032597  0.195222  0.380882  1
  O  O67  1  0.162625  0.195222  0.119118  1
  O  O68  1  0.195222  0.162625  0.619118  1
  O  O69  1  0.967403  0.162625  0.880882  1
  O  O70  1  0.804778  0.837375  0.380882  1
  O  O71  1  0.032597  0.837375  0.119118  1
  O  O72  1  0.195222  0.032597  0.880882  1
  O  O73  1  0.804778  0.967403  0.119118  1
