# generated using pymatgen
data_Hf5NbAl7
_symmetry_space_group_name_H-M   'P 1'
_cell_length_a   5.29751523
_cell_length_b   5.29751679
_cell_length_c   10.14049677
_cell_angle_alpha   74.85838191
_cell_angle_beta   74.85837803
_cell_angle_gamma   59.99999402
_symmetry_Int_Tables_number   1
_chemical_formula_structural   Hf5NbAl7
_chemical_formula_sum   'Hf5 Nb1 Al7'
_cell_volume   234.97583328
_cell_formula_units_Z   1
loop_
 _symmetry_equiv_pos_site_id
 _symmetry_equiv_pos_as_xyz
  1  'x, y, z'
loop_
 _atom_site_type_symbol
 _atom_site_label
 _atom_site_symmetry_multiplicity
 _atom_site_fract_x
 _atom_site_fract_y
 _atom_site_fract_z
 _atom_site_occupancy
  Hf  Hf0  1  0.834016  0.834016  0.497954  1
  Hf  Hf1  1  0.164534  0.164534  0.506398  1
  Hf  Hf2  1  0.649349  0.649349  0.051954  1
  Hf  Hf3  1  0.351866  0.351866  0.944401  1
  Hf  Hf4  1  0.543852  0.543852  0.368443  1
  Nb  Nb5  1  0.453986  0.453986  0.638041  1
  Al  Al6  1  0.000259  0.000259  0.999225  1
  Al  Al7  1  0.907806  0.907806  0.769930  1
  Al  Al8  1  0.414456  0.907806  0.769930  1
  Al  Al9  1  0.907806  0.414456  0.769930  1
  Al  Al10  1  0.092912  0.092912  0.227930  1
  Al  Al11  1  0.586245  0.092912  0.227930  1
  Al  Al12  1  0.092912  0.586245  0.227930  1
