# generated using pymatgen
data_Y4SiAsSe2
_symmetry_space_group_name_H-M   'P 1'
_cell_length_a   7.15176287
_cell_length_b   7.15176240
_cell_length_c   7.15176210
_cell_angle_alpha   132.11577208
_cell_angle_beta   132.11576629
_cell_angle_gamma   70.04624405
_symmetry_Int_Tables_number   1
_chemical_formula_structural   Y4SiAsSe2
_chemical_formula_sum   'Y4 Si1 As1 Se2'
_cell_volume   197.33038656
_cell_formula_units_Z   1
loop_
 _symmetry_equiv_pos_site_id
 _symmetry_equiv_pos_as_xyz
  1  'x, y, z'
loop_
 _atom_site_type_symbol
 _atom_site_label
 _atom_site_symmetry_multiplicity
 _atom_site_fract_x
 _atom_site_fract_y
 _atom_site_fract_z
 _atom_site_occupancy
  Y  Y0  1  0.245830  0.245830  0.000000  1
  Y  Y1  1  0.754170  0.754170  0.000000  1
  Y  Y2  1  0.507706  0.007706  0.500000  1
  Y  Y3  1  0.992294  0.492294  0.500000  1
  Si  Si4  1  0.750000  0.250000  0.500000  1
  As  As5  1  0.000000  0.000000  0.000000  1
  Se  Se6  1  0.250000  0.750000  0.500000  1
  Se  Se7  1  0.500000  0.500000  0.000000  1
