# generated using pymatgen
data_HoEr5(Si3Ru2)2
_symmetry_space_group_name_H-M   'P 1'
_cell_length_a   5.70384116
_cell_length_b   5.70384153
_cell_length_c   13.69745000
_cell_angle_alpha   90.00000000
_cell_angle_beta   90.00000000
_cell_angle_gamma   137.21831123
_symmetry_Int_Tables_number   1
_chemical_formula_structural   HoEr5(Si3Ru2)2
_chemical_formula_sum   'Ho1 Er5 Si6 Ru4'
_cell_volume   302.67503940
_cell_formula_units_Z   1
loop_
 _symmetry_equiv_pos_site_id
 _symmetry_equiv_pos_as_xyz
  1  'x, y, z'
loop_
 _atom_site_type_symbol
 _atom_site_label
 _atom_site_symmetry_multiplicity
 _atom_site_fract_x
 _atom_site_fract_y
 _atom_site_fract_z
 _atom_site_occupancy
  Ho  Ho0  1  0.640613  0.359387  0.250000  1
  Er  Er1  1  0.358982  0.641018  0.750000  1
  Er  Er2  1  0.922768  0.077232  0.114262  1
  Er  Er3  1  0.077228  0.922772  0.885675  1
  Er  Er4  1  0.077228  0.922772  0.614325  1
  Er  Er5  1  0.922768  0.077232  0.385738  1
  Si  Si6  1  0.329343  0.670657  0.250000  1
  Si  Si7  1  0.670930  0.329070  0.750000  1
  Si  Si8  1  0.616530  0.383470  0.038244  1
  Si  Si9  1  0.383452  0.616548  0.961548  1
  Si  Si10  1  0.383452  0.616548  0.538452  1
  Si  Si11  1  0.616530  0.383470  0.461756  1
  Ru  Ru12  1  0.787236  0.212764  0.581636  1
  Ru  Ru13  1  0.212851  0.787149  0.418631  1
  Ru  Ru14  1  0.212851  0.787149  0.081369  1
  Ru  Ru15  1  0.787236  0.212764  0.918364  1
