# generated using pymatgen
data_CeTh2(GeRh)3
_symmetry_space_group_name_H-M   'P 1'
_cell_length_a   7.27342788
_cell_length_b   7.27342862
_cell_length_c   4.00401500
_cell_angle_alpha   90.00000000
_cell_angle_beta   90.00000000
_cell_angle_gamma   120.04288691
_symmetry_Int_Tables_number   1
_chemical_formula_structural   CeTh2(GeRh)3
_chemical_formula_sum   'Ce1 Th2 Ge3 Rh3'
_cell_volume   183.36515078
_cell_formula_units_Z   1
loop_
 _symmetry_equiv_pos_site_id
 _symmetry_equiv_pos_as_xyz
  1  'x, y, z'
loop_
 _atom_site_type_symbol
 _atom_site_label
 _atom_site_symmetry_multiplicity
 _atom_site_fract_x
 _atom_site_fract_y
 _atom_site_fract_z
 _atom_site_occupancy
  Ce  Ce0  1  0.587699  0.587699  0.500000  1
  Th  Th1  1  0.413519  0.999724  0.500000  1
  Th  Th2  1  0.999724  0.413519  0.500000  1
  Ge  Ge3  1  0.752398  0.994586  0.000000  1
  Ge  Ge4  1  0.994586  0.752398  0.000000  1
  Ge  Ge5  1  0.253501  0.253501  0.000000  1
  Rh  Rh6  1  0.329874  0.664693  0.000000  1
  Rh  Rh7  1  0.664693  0.329874  0.000000  1
  Rh  Rh8  1  0.004006  0.004006  0.500000  1
