# generated using pymatgen
data_Rb6Na4Zr2(AsP)3
_symmetry_space_group_name_H-M   'P 1'
_cell_length_a   10.94017224
_cell_length_b   10.94017351
_cell_length_c   15.78388700
_cell_angle_alpha   90.00068119
_cell_angle_beta   90.00067815
_cell_angle_gamma   142.92532118
_symmetry_Int_Tables_number   1
_chemical_formula_structural   Rb6Na4Zr2(AsP)3
_chemical_formula_sum   'Rb12 Na8 Zr4 As6 P6'
_cell_volume   1138.87358675
_cell_formula_units_Z   2
loop_
 _symmetry_equiv_pos_site_id
 _symmetry_equiv_pos_as_xyz
  1  'x, y, z'
loop_
 _atom_site_type_symbol
 _atom_site_label
 _atom_site_symmetry_multiplicity
 _atom_site_fract_x
 _atom_site_fract_y
 _atom_site_fract_z
 _atom_site_occupancy
  Rb  Rb0  1  0.946901  0.606868  0.823195  1
  Rb  Rb1  1  0.553317  0.893667  0.325192  1
  Rb  Rb2  1  0.392385  0.053145  0.178587  1
  Rb  Rb3  1  0.053145  0.392385  0.178587  1
  Rb  Rb4  1  0.893667  0.553317  0.325192  1
  Rb  Rb5  1  0.446827  0.106746  0.675537  1
  Rb  Rb6  1  0.606868  0.946901  0.823195  1
  Rb  Rb7  1  0.279584  0.279584  0.314722  1
  Rb  Rb8  1  0.779912  0.779912  0.186829  1
  Rb  Rb9  1  0.220437  0.220437  0.812766  1
  Rb  Rb10  1  0.721262  0.721262  0.684998  1
  Rb  Rb11  1  0.106746  0.446827  0.675537  1
  Na  Na12  1  0.920701  0.079257  0.000056  1
  Na  Na13  1  0.578775  0.419179  0.499132  1
  Na  Na14  1  0.079257  0.920701  0.000056  1
  Na  Na15  1  0.419179  0.578775  0.499132  1
  Na  Na16  1  0.754884  0.245104  0.000122  1
  Na  Na17  1  0.745162  0.254285  0.498583  1
  Na  Na18  1  0.245104  0.754884  0.000122  1
  Na  Na19  1  0.254285  0.745162  0.498583  1
  Zr  Zr20  1  0.584410  0.415496  0.000305  1
  Zr  Zr21  1  0.918048  0.087981  0.498030  1
  Zr  Zr22  1  0.415496  0.584410  0.000305  1
  Zr  Zr23  1  0.087981  0.918048  0.498030  1
  As  As24  1  0.874025  0.561572  0.099445  1
  As  As25  1  0.437971  0.125852  0.901456  1
  As  As26  1  0.625088  0.938092  0.597332  1
  As  As27  1  0.938092  0.625088  0.597332  1
  As  As28  1  0.125852  0.437971  0.901456  1
  As  As29  1  0.561572  0.874025  0.099445  1
  P  P30  1  0.369958  0.060470  0.404792  1
  P  P31  1  0.198959  0.198959  0.582744  1
  P  P32  1  0.697178  0.697178  0.915989  1
  P  P33  1  0.302420  0.302420  0.084419  1
  P  P34  1  0.060470  0.369958  0.404792  1
  P  P35  1  0.804084  0.804084  0.414007  1
