# generated using pymatgen
data_HoNp3As4
_symmetry_space_group_name_H-M   'P 1'
_cell_length_a   4.12134600
_cell_length_b   5.81450000
_cell_length_c   8.20705300
_cell_angle_alpha   90.00000000
_cell_angle_beta   90.00000000
_cell_angle_gamma   90.00000000
_symmetry_Int_Tables_number   1
_chemical_formula_structural   HoNp3As4
_chemical_formula_sum   'Ho1 Np3 As4'
_cell_volume   196.67025883
_cell_formula_units_Z   1
loop_
 _symmetry_equiv_pos_site_id
 _symmetry_equiv_pos_as_xyz
  1  'x, y, z'
loop_
 _atom_site_type_symbol
 _atom_site_label
 _atom_site_symmetry_multiplicity
 _atom_site_fract_x
 _atom_site_fract_y
 _atom_site_fract_z
 _atom_site_occupancy
  Ho  Ho0  1  0.000000  0.000000  0.000000  1
  Np  Np1  1  0.500000  0.500000  0.248799  1
  Np  Np2  1  0.000000  0.000000  0.500000  1
  Np  Np3  1  0.500000  0.500000  0.751201  1
  As  As4  1  0.000000  0.500000  0.500000  1
  As  As5  1  0.500000  0.000000  0.749610  1
  As  As6  1  0.000000  0.500000  0.000000  1
  As  As7  1  0.500000  0.000000  0.250390  1
