# generated using pymatgen
data_K2BaCr2O8
_symmetry_space_group_name_H-M   'P 1'
_cell_length_a   8.06365209
_cell_length_b   8.06365267
_cell_length_c   8.06365173
_cell_angle_alpha   42.48509258
_cell_angle_beta   42.48508884
_cell_angle_gamma   42.48508954
_symmetry_Int_Tables_number   1
_chemical_formula_structural   K2BaCr2O8
_chemical_formula_sum   'K2 Ba1 Cr2 O8'
_cell_volume   216.56167407
_cell_formula_units_Z   1
loop_
 _symmetry_equiv_pos_site_id
 _symmetry_equiv_pos_as_xyz
  1  'x, y, z'
loop_
 _atom_site_type_symbol
 _atom_site_label
 _atom_site_symmetry_multiplicity
 _atom_site_fract_x
 _atom_site_fract_y
 _atom_site_fract_z
 _atom_site_occupancy
  K  K0  1  0.797868  0.797868  0.797868  1
  K  K1  1  0.202132  0.202132  0.202132  1
  Ba  Ba2  1  0.000000  0.000000  0.000000  1
  Cr  Cr3  1  0.595800  0.595800  0.595800  1
  Cr  Cr4  1  0.404200  0.404200  0.404200  1
  O  O5  1  0.726653  0.726653  0.259306  1
  O  O6  1  0.259306  0.726653  0.726653  1
  O  O7  1  0.726653  0.259306  0.726653  1
  O  O8  1  0.273347  0.740694  0.273347  1
  O  O9  1  0.273347  0.273347  0.740694  1
  O  O10  1  0.328579  0.328579  0.328579  1
  O  O11  1  0.671421  0.671421  0.671421  1
  O  O12  1  0.740694  0.273347  0.273347  1
