# generated using pymatgen
data_Y4HfSc2GaPt4
_symmetry_space_group_name_H-M   'P 1'
_cell_length_a   4.56339900
_cell_length_b   7.06319047
_cell_length_c   8.23161657
_cell_angle_alpha   93.67448845
_cell_angle_beta   90.00000000
_cell_angle_gamma   90.00000000
_symmetry_Int_Tables_number   1
_chemical_formula_structural   Y4HfSc2GaPt4
_chemical_formula_sum   'Y4 Hf1 Sc2 Ga1 Pt4'
_cell_volume   264.77731593
_cell_formula_units_Z   1
loop_
 _symmetry_equiv_pos_site_id
 _symmetry_equiv_pos_as_xyz
  1  'x, y, z'
loop_
 _atom_site_type_symbol
 _atom_site_label
 _atom_site_symmetry_multiplicity
 _atom_site_fract_x
 _atom_site_fract_y
 _atom_site_fract_z
 _atom_site_occupancy
  Y  Y0  1  0.250000  0.982098  0.313065  1
  Y  Y1  1  0.250000  0.458129  0.171085  1
  Y  Y2  1  0.750000  0.033367  0.688170  1
  Y  Y3  1  0.750000  0.510256  0.837735  1
  Hf  Hf4  1  0.750000  0.641551  0.427944  1
  Sc  Sc5  1  0.250000  0.366510  0.571006  1
  Sc  Sc6  1  0.250000  0.856209  0.935195  1
  Ga  Ga7  1  0.750000  0.140217  0.070509  1
  Pt  Pt8  1  0.250000  0.230793  0.877961  1
  Pt  Pt9  1  0.250000  0.745148  0.595863  1
  Pt  Pt10  1  0.750000  0.767767  0.119543  1
  Pt  Pt11  1  0.750000  0.267958  0.391922  1
