# generated using pymatgen
data_Ho2Fe3NiP7Ru8
_symmetry_space_group_name_H-M   'P 1'
_cell_length_a   9.24257295
_cell_length_b   9.27665315
_cell_length_c   3.82665500
_cell_angle_alpha   90.00000000
_cell_angle_beta   90.00000000
_cell_angle_gamma   119.70765092
_symmetry_Int_Tables_number   1
_chemical_formula_structural   Ho2Fe3NiP7Ru8
_chemical_formula_sum   'Ho2 Fe3 Ni1 P7 Ru8'
_cell_volume   284.97450844
_cell_formula_units_Z   1
loop_
 _symmetry_equiv_pos_site_id
 _symmetry_equiv_pos_as_xyz
  1  'x, y, z'
loop_
 _atom_site_type_symbol
 _atom_site_label
 _atom_site_symmetry_multiplicity
 _atom_site_fract_x
 _atom_site_fract_y
 _atom_site_fract_z
 _atom_site_occupancy
  Ho  Ho0  1  0.999792  0.000713  0.000000  1
  Ho  Ho1  1  0.330120  0.664296  0.500000  1
  Fe  Fe2  1  0.783189  0.179649  0.000000  1
  Fe  Fe3  1  0.393712  0.221041  0.000000  1
  Fe  Fe4  1  0.823788  0.599793  0.000000  1
  Ni  Ni5  1  0.090198  0.395393  0.000000  1
  P  P6  1  0.559647  0.923943  0.000000  1
  P  P7  1  0.363443  0.442067  0.000000  1
  P  P8  1  0.077378  0.634789  0.000000  1
  P  P9  1  0.944730  0.211532  0.500000  1
  P  P10  1  0.268116  0.053391  0.500000  1
  P  P11  1  0.782761  0.730068  0.500000  1
  P  P12  1  0.665017  0.332281  0.000000  1
  Ru  Ru13  1  0.304540  0.908227  0.000000  1
  Ru  Ru14  1  0.601816  0.693046  0.000000  1
  Ru  Ru15  1  0.717588  0.945507  0.500000  1
  Ru  Ru16  1  0.225956  0.286877  0.500000  1
  Ru  Ru17  1  0.052783  0.772022  0.500000  1
  Ru  Ru18  1  0.549268  0.129178  0.500000  1
  Ru  Ru19  1  0.579593  0.449348  0.500000  1
  Ru  Ru20  1  0.886566  0.426836  0.500000  1
