# generated using pymatgen
data_Cs2SrAs2O7
_symmetry_space_group_name_H-M   'P 1'
_cell_length_a   6.28908805
_cell_length_b   6.28908913
_cell_length_c   8.05491462
_cell_angle_alpha   65.44779227
_cell_angle_beta   65.44778984
_cell_angle_gamma   60.47548844
_symmetry_Int_Tables_number   1
_chemical_formula_structural   Cs2SrAs2O7
_chemical_formula_sum   'Cs2 Sr1 As2 O7'
_cell_volume   243.05245863
_cell_formula_units_Z   1
loop_
 _symmetry_equiv_pos_site_id
 _symmetry_equiv_pos_as_xyz
  1  'x, y, z'
loop_
 _atom_site_type_symbol
 _atom_site_label
 _atom_site_symmetry_multiplicity
 _atom_site_fract_x
 _atom_site_fract_y
 _atom_site_fract_z
 _atom_site_occupancy
  Cs  Cs0  1  0.788684  0.788684  0.685204  1
  Cs  Cs1  1  0.194794  0.194794  0.391316  1
  Sr  Sr2  1  0.996835  0.996835  0.011438  1
  As  As3  1  0.445714  0.445714  0.728199  1
  As  As4  1  0.567585  0.567585  0.254397  1
  O  O5  1  0.272167  0.721461  0.793594  1
  O  O6  1  0.721461  0.272167  0.793594  1
  O  O7  1  0.708013  0.255962  0.253136  1
  O  O8  1  0.255962  0.708013  0.253136  1
  O  O9  1  0.277936  0.277936  0.764128  1
  O  O10  1  0.741490  0.741490  0.099060  1
  O  O11  1  0.573856  0.573856  0.475398  1
