# generated using pymatgen
data_YEr2FeB7
_symmetry_space_group_name_H-M   'P 1'
_cell_length_a   7.97457728
_cell_length_b   7.97457692
_cell_length_c   9.28393300
_cell_angle_alpha   90.00000000
_cell_angle_beta   90.00000000
_cell_angle_gamma   155.33586820
_symmetry_Int_Tables_number   1
_chemical_formula_structural   YEr2FeB7
_chemical_formula_sum   'Y2 Er4 Fe2 B14'
_cell_volume   246.37343721
_cell_formula_units_Z   2
loop_
 _symmetry_equiv_pos_site_id
 _symmetry_equiv_pos_as_xyz
  1  'x, y, z'
loop_
 _atom_site_type_symbol
 _atom_site_label
 _atom_site_symmetry_multiplicity
 _atom_site_fract_x
 _atom_site_fract_y
 _atom_site_fract_z
 _atom_site_occupancy
  Y  Y0  1  0.244150  0.755850  0.250000  1
  Y  Y1  1  0.755850  0.244150  0.750000  1
  Er  Er2  1  0.895223  0.104777  0.440667  1
  Er  Er3  1  0.104777  0.895223  0.559333  1
  Er  Er4  1  0.895223  0.104777  0.059333  1
  Er  Er5  1  0.104777  0.895223  0.940667  1
  Fe  Fe6  1  0.053616  0.946384  0.250000  1
  Fe  Fe7  1  0.946384  0.053616  0.750000  1
  B  B8  1  0.727465  0.272535  0.467111  1
  B  B9  1  0.272535  0.727465  0.532889  1
  B  B10  1  0.727465  0.272535  0.032889  1
  B  B11  1  0.272535  0.727465  0.967111  1
  B  B12  1  0.629899  0.370101  0.152844  1
  B  B13  1  0.370101  0.629899  0.847156  1
  B  B14  1  0.629899  0.370101  0.347156  1
  B  B15  1  0.370101  0.629899  0.652844  1
  B  B16  1  0.521079  0.478921  0.098394  1
  B  B17  1  0.478921  0.521079  0.901606  1
  B  B18  1  0.521079  0.478921  0.401606  1
  B  B19  1  0.478921  0.521079  0.598394  1
  B  B20  1  0.458151  0.541849  0.250000  1
  B  B21  1  0.541849  0.458151  0.750000  1
