# generated using pymatgen
data_Nb4VGa3N
_symmetry_space_group_name_H-M   'P 1'
_cell_length_a   7.68184700
_cell_length_b   7.68184619
_cell_length_c   5.29153500
_cell_angle_alpha   90.00000000
_cell_angle_beta   90.00000000
_cell_angle_gamma   119.99999919
_symmetry_Int_Tables_number   1
_chemical_formula_structural   Nb4VGa3N
_chemical_formula_sum   'Nb8 V2 Ga6 N2'
_cell_volume   270.42296385
_cell_formula_units_Z   2
loop_
 _symmetry_equiv_pos_site_id
 _symmetry_equiv_pos_as_xyz
  1  'x, y, z'
loop_
 _atom_site_type_symbol
 _atom_site_label
 _atom_site_symmetry_multiplicity
 _atom_site_fract_x
 _atom_site_fract_y
 _atom_site_fract_z
 _atom_site_occupancy
  Nb  Nb0  1  0.231250  0.000000  0.252338  1
  Nb  Nb1  1  0.768750  0.000000  0.747662  1
  Nb  Nb2  1  0.000000  0.231250  0.252338  1
  Nb  Nb3  1  0.000000  0.768750  0.747662  1
  Nb  Nb4  1  0.768750  0.768750  0.252338  1
  Nb  Nb5  1  0.231250  0.231250  0.747662  1
  Nb  Nb6  1  0.666667  0.333333  0.500000  1
  Nb  Nb7  1  0.333333  0.666667  0.500000  1
  V  V8  1  0.333333  0.666667  0.000000  1
  V  V9  1  0.666667  0.333333  0.000000  1
  Ga  Ga10  1  0.589297  0.000000  0.234984  1
  Ga  Ga11  1  0.410703  0.000000  0.765016  1
  Ga  Ga12  1  0.000000  0.589297  0.234984  1
  Ga  Ga13  1  0.000000  0.410703  0.765016  1
  Ga  Ga14  1  0.410703  0.410703  0.234984  1
  Ga  Ga15  1  0.589297  0.589297  0.765016  1
  N  N16  1  0.000000  0.000000  0.000000  1
  N  N17  1  0.000000  0.000000  0.500000  1
