# generated using pymatgen
data_Zr3ReSi3MoRh
_symmetry_space_group_name_H-M   'P 1'
_cell_length_a   6.90262059
_cell_length_b   6.98927109
_cell_length_c   3.54527300
_cell_angle_alpha   90.00000000
_cell_angle_beta   90.00000000
_cell_angle_gamma   119.85624085
_symmetry_Int_Tables_number   1
_chemical_formula_structural   Zr3ReSi3MoRh
_chemical_formula_sum   'Zr3 Re1 Si3 Mo1 Rh1'
_cell_volume   148.33837146
_cell_formula_units_Z   1
loop_
 _symmetry_equiv_pos_site_id
 _symmetry_equiv_pos_as_xyz
  1  'x, y, z'
loop_
 _atom_site_type_symbol
 _atom_site_label
 _atom_site_symmetry_multiplicity
 _atom_site_fract_x
 _atom_site_fract_y
 _atom_site_fract_z
 _atom_site_occupancy
  Zr  Zr0  1  0.400822  0.999002  0.500000  1
  Zr  Zr1  1  0.007461  0.413839  0.500000  1
  Zr  Zr2  1  0.594000  0.584560  0.500000  1
  Re  Re3  1  0.250561  0.251122  0.000000  1
  Si  Si4  1  0.338768  0.669464  0.000000  1
  Si  Si5  1  0.667615  0.329827  0.000000  1
  Si  Si6  1  0.990911  0.001074  0.500000  1
  Mo  Mo7  1  0.000193  0.750609  0.000000  1
  Rh  Rh8  1  0.749668  0.000501  0.000000  1
