# generated using pymatgen
data_Ce2CrIrF14
_symmetry_space_group_name_H-M   'P 1'
_cell_length_a   5.70609417
_cell_length_b   5.96390554
_cell_length_c   8.19021141
_cell_angle_alpha   100.91622104
_cell_angle_beta   90.07024814
_cell_angle_gamma   90.05697561
_symmetry_Int_Tables_number   1
_chemical_formula_structural   Ce2CrIrF14
_chemical_formula_sum   'Ce2 Cr1 Ir1 F14'
_cell_volume   273.67408265
_cell_formula_units_Z   1
loop_
 _symmetry_equiv_pos_site_id
 _symmetry_equiv_pos_as_xyz
  1  'x, y, z'
loop_
 _atom_site_type_symbol
 _atom_site_label
 _atom_site_symmetry_multiplicity
 _atom_site_fract_x
 _atom_site_fract_y
 _atom_site_fract_z
 _atom_site_occupancy
  Ce  Ce0  1  0.703591  0.668409  0.691615  1
  Ce  Ce1  1  0.203109  0.333443  0.301289  1
  Cr  Cr2  1  0.709639  0.808920  0.224037  1
  Ir  Ir3  1  0.211311  0.193575  0.772079  1
  F  F4  1  0.883526  0.440107  0.484514  1
  F  F5  1  0.377357  0.547926  0.523076  1
  F  F6  1  0.411720  0.923315  0.768733  1
  F  F7  1  0.921942  0.067792  0.230980  1
  F  F8  1  0.936002  0.987842  0.763105  1
  F  F9  1  0.451855  0.029631  0.237819  1
  F  F10  1  0.011713  0.469670  0.792272  1
  F  F11  1  0.500760  0.547207  0.213670  1
  F  F12  1  0.705181  0.761186  0.982058  1
  F  F13  1  0.206098  0.241148  0.016811  1
  F  F14  1  0.713576  0.856007  0.467016  1
  F  F15  1  0.219009  0.128671  0.526636  1
  F  F16  1  0.499728  0.382553  0.786505  1
  F  F17  1  0.986598  0.612598  0.217786  1
