# generated using pymatgen
data_Li2Dy2Y3P12Ru17
_symmetry_space_group_name_H-M   'P 1'
_cell_length_a   12.72280100
_cell_length_b   12.51465251
_cell_length_c   3.96676500
_cell_angle_alpha   90.00000000
_cell_angle_beta   90.00000000
_cell_angle_gamma   120.55173438
_symmetry_Int_Tables_number   1
_chemical_formula_structural   Li2Dy2Y3P12Ru17
_chemical_formula_sum   'Li2 Dy2 Y3 P12 Ru17'
_cell_volume   543.91015123
_cell_formula_units_Z   1
loop_
 _symmetry_equiv_pos_site_id
 _symmetry_equiv_pos_as_xyz
  1  'x, y, z'
loop_
 _atom_site_type_symbol
 _atom_site_label
 _atom_site_symmetry_multiplicity
 _atom_site_fract_x
 _atom_site_fract_y
 _atom_site_fract_z
 _atom_site_occupancy
  Li  Li0  1  0.000586  0.562376  0.000000  1
  Li  Li1  1  0.438210  0.437624  0.000000  1
  Dy  Dy2  1  0.663570  0.325839  0.000000  1
  Dy  Dy3  1  0.337730  0.674161  0.000000  1
  Y  Y4  1  0.000625  0.181722  0.500000  1
  Y  Y5  1  0.818902  0.818278  0.500000  1
  Y  Y6  1  0.182114  0.000000  0.500000  1
  P  P7  1  0.998720  0.809255  0.000000  1
  P  P8  1  0.189465  0.190745  0.000000  1
  P  P9  1  0.818114  0.000000  0.000000  1
  P  P10  1  0.691762  0.169702  0.500000  1
  P  P11  1  0.816942  0.515291  0.500000  1
  P  P12  1  0.477430  0.301233  0.500000  1
  P  P13  1  0.176197  0.698767  0.500000  1
  P  P14  1  0.522060  0.830298  0.500000  1
  P  P15  1  0.301650  0.484709  0.500000  1
  P  P16  1  0.002406  0.370724  0.000000  1
  P  P17  1  0.631683  0.629276  0.000000  1
  P  P18  1  0.376300  0.000000  0.000000  1
  Ru  Ru19  1  0.556824  0.000000  0.000000  1
  Ru  Ru20  1  0.998114  0.711887  0.500000  1
  Ru  Ru21  1  0.286226  0.288113  0.500000  1
  Ru  Ru22  1  0.717946  0.000000  0.500000  1
  Ru  Ru23  1  0.809103  0.185715  0.000000  1
  Ru  Ru24  1  0.812174  0.615034  0.000000  1
  Ru  Ru25  1  0.377292  0.191493  0.000000  1
  Ru  Ru26  1  0.185799  0.808507  0.000000  1
  Ru  Ru27  1  0.623389  0.814285  0.000000  1
  Ru  Ru28  1  0.197142  0.384966  0.000000  1
  Ru  Ru29  1  0.873671  0.366225  0.500000  1
  Ru  Ru30  1  0.629169  0.510282  0.500000  1
  Ru  Ru31  1  0.491643  0.124207  0.500000  1
  Ru  Ru32  1  0.367436  0.875793  0.500000  1
  Ru  Ru33  1  0.507446  0.633775  0.500000  1
  Ru  Ru34  1  0.118888  0.489718  0.500000  1
  Ru  Ru35  1  0.003273  0.000000  0.000000  1
