# generated using pymatgen
data_La7PaAl8(IrRh3)2
_symmetry_space_group_name_H-M   'P 1'
_cell_length_a   4.26970500
_cell_length_b   7.27632848
_cell_length_c   16.24190849
_cell_angle_alpha   89.34409577
_cell_angle_beta   90.00000000
_cell_angle_gamma   90.00000000
_symmetry_Int_Tables_number   1
_chemical_formula_structural   La7PaAl8(IrRh3)2
_chemical_formula_sum   'La7 Pa1 Al8 Ir2 Rh6'
_cell_volume   504.56691269
_cell_formula_units_Z   1
loop_
 _symmetry_equiv_pos_site_id
 _symmetry_equiv_pos_as_xyz
  1  'x, y, z'
loop_
 _atom_site_type_symbol
 _atom_site_label
 _atom_site_symmetry_multiplicity
 _atom_site_fract_x
 _atom_site_fract_y
 _atom_site_fract_z
 _atom_site_occupancy
  La  La0  1  0.750000  0.477251  0.219207  1
  La  La1  1  0.750000  0.976186  0.280587  1
  La  La2  1  0.250000  0.025687  0.721355  1
  La  La3  1  0.250000  0.652202  0.561216  1
  La  La4  1  0.750000  0.337613  0.440421  1
  La  La5  1  0.750000  0.846714  0.058591  1
  La  La6  1  0.250000  0.164858  0.937384  1
  Pa  Pa7  1  0.250000  0.527254  0.779934  1
  Al  Al8  1  0.250000  0.649999  0.352493  1
  Al  Al9  1  0.750000  0.347727  0.649489  1
  Al  Al10  1  0.750000  0.840649  0.849532  1
  Al  Al11  1  0.250000  0.149296  0.146224  1
  Al  Al12  1  0.250000  0.506837  0.059779  1
  Al  Al13  1  0.750000  0.498859  0.939765  1
  Al  Al14  1  0.750000  0.989919  0.562668  1
  Al  Al15  1  0.250000  0.999708  0.439886  1
  Ir  Ir16  1  0.750000  0.277234  0.813951  1
  Ir  Ir17  1  0.750000  0.707038  0.693246  1
  Rh  Rh18  1  0.250000  0.768592  0.178624  1
  Rh  Rh19  1  0.250000  0.270740  0.321274  1
  Rh  Rh20  1  0.250000  0.710862  0.920458  1
  Rh  Rh21  1  0.750000  0.283107  0.072570  1
  Rh  Rh22  1  0.750000  0.782294  0.429033  1
  Rh  Rh23  1  0.250000  0.209373  0.572311  1
