# generated using pymatgen
data_Eu2IO2
_symmetry_space_group_name_H-M   'P 1'
_cell_length_a   7.35341684
_cell_length_b   7.35341655
_cell_length_c   7.35341566
_cell_angle_alpha   147.07507734
_cell_angle_beta   147.07507652
_cell_angle_gamma   47.25263518
_symmetry_Int_Tables_number   1
_chemical_formula_structural   Eu2IO2
_chemical_formula_sum   'Eu2 I1 O2'
_cell_volume   117.02207815
_cell_formula_units_Z   1
loop_
 _symmetry_equiv_pos_site_id
 _symmetry_equiv_pos_as_xyz
  1  'x, y, z'
loop_
 _atom_site_type_symbol
 _atom_site_label
 _atom_site_symmetry_multiplicity
 _atom_site_fract_x
 _atom_site_fract_y
 _atom_site_fract_z
 _atom_site_occupancy
  Eu  Eu0  1  0.673272  0.673272  0.000000  1
  Eu  Eu1  1  0.326728  0.326728  0.000000  1
  I  I2  1  0.000000  0.000000  0.000000  1
  O  O3  1  0.750000  0.250000  0.500000  1
  O  O4  1  0.250000  0.750000  0.500000  1
