# generated using pymatgen
data_TmPa7Ti12Si15Sn
_symmetry_space_group_name_H-M   'P 1'
_cell_length_a   7.06204409
_cell_length_b   7.04846353
_cell_length_c   13.07026764
_cell_angle_alpha   89.83973958
_cell_angle_beta   89.74556301
_cell_angle_gamma   90.11287880
_symmetry_Int_Tables_number   1
_chemical_formula_structural   TmPa7Ti12Si15Sn
_chemical_formula_sum   'Tm1 Pa7 Ti12 Si15 Sn1'
_cell_volume   650.58272518
_cell_formula_units_Z   1
loop_
 _symmetry_equiv_pos_site_id
 _symmetry_equiv_pos_as_xyz
  1  'x, y, z'
loop_
 _atom_site_type_symbol
 _atom_site_label
 _atom_site_symmetry_multiplicity
 _atom_site_fract_x
 _atom_site_fract_y
 _atom_site_fract_z
 _atom_site_occupancy
  Tm  Tm0  1  0.340779  0.996447  0.463227  1
  Pa  Pa1  1  0.504926  0.829993  0.720067  1
  Pa  Pa2  1  0.505371  0.164543  0.217533  1
  Pa  Pa3  1  0.837246  0.495690  0.281595  1
  Pa  Pa4  1  0.167203  0.513185  0.784097  1
  Pa  Pa5  1  0.665843  0.998480  0.969875  1
  Pa  Pa6  1  0.987658  0.349691  0.525084  1
  Pa  Pa7  1  0.998831  0.664984  0.032631  1
  Ti  Ti8  1  0.331411  0.330190  0.001593  1
  Ti  Ti9  1  0.169612  0.827863  0.248461  1
  Ti  Ti10  1  0.817962  0.168889  0.751292  1
  Ti  Ti11  1  0.673614  0.665200  0.500328  1
  Ti  Ti12  1  0.157907  0.000097  0.883358  1
  Ti  Ti13  1  0.499668  0.657031  0.126840  1
  Ti  Ti14  1  0.509088  0.352142  0.625966  1
  Ti  Ti15  1  0.660222  0.499399  0.876255  1
  Ti  Ti16  1  0.341341  0.502290  0.373143  1
  Ti  Ti17  1  0.839044  0.999334  0.373959  1
  Ti  Ti18  1  0.003718  0.156795  0.124767  1
  Ti  Ti19  1  0.980689  0.826032  0.619849  1
  Si  Si20  1  0.377032  0.703469  0.936434  1
  Si  Si21  1  0.620362  0.296545  0.432837  1
  Si  Si22  1  0.705452  0.374290  0.066030  1
  Si  Si23  1  0.294431  0.628820  0.565043  1
  Si  Si24  1  0.798747  0.872496  0.184813  1
  Si  Si25  1  0.129465  0.200450  0.316212  1
  Si  Si26  1  0.874586  0.800161  0.816999  1
  Si  Si27  1  0.292975  0.959614  0.067878  1
  Si  Si28  1  0.542386  0.789698  0.315420  1
  Si  Si29  1  0.464215  0.210817  0.819689  1
  Si  Si30  1  0.793836  0.535372  0.687213  1
  Si  Si31  1  0.210283  0.457983  0.184279  1
  Si  Si32  1  0.704515  0.043649  0.564195  1
  Si  Si33  1  0.961051  0.291733  0.933802  1
  Si  Si34  1  0.041666  0.714215  0.430784  1
  Sn  Sn35  1  0.196867  0.122416  0.678452  1
