# generated using pymatgen
data_Sc6Co2CuRu3
_symmetry_space_group_name_H-M   'P 1'
_cell_length_a   4.51451300
_cell_length_b   6.34814200
_cell_length_c   13.50282200
_cell_angle_alpha   89.99996922
_cell_angle_beta   90.00188117
_cell_angle_gamma   89.99976844
_symmetry_Int_Tables_number   1
_chemical_formula_structural   Sc6Co2CuRu3
_chemical_formula_sum   'Sc12 Co4 Cu2 Ru6'
_cell_volume   386.97426434
_cell_formula_units_Z   2
loop_
 _symmetry_equiv_pos_site_id
 _symmetry_equiv_pos_as_xyz
  1  'x, y, z'
loop_
 _atom_site_type_symbol
 _atom_site_label
 _atom_site_symmetry_multiplicity
 _atom_site_fract_x
 _atom_site_fract_y
 _atom_site_fract_z
 _atom_site_occupancy
  Sc  Sc0  1  0.500013  0.246203  0.996477  1
  Sc  Sc1  1  0.500014  0.753797  0.996477  1
  Sc  Sc2  1  0.999909  0.253800  0.170180  1
  Sc  Sc3  1  0.999907  0.746199  0.170180  1
  Sc  Sc4  1  0.499915  0.253696  0.337099  1
  Sc  Sc5  1  0.499916  0.746304  0.337099  1
  Sc  Sc6  1  0.999999  0.249271  0.500768  1
  Sc  Sc7  1  0.999999  0.750730  0.500769  1
  Sc  Sc8  1  0.500083  0.250857  0.665932  1
  Sc  Sc9  1  0.500082  0.749143  0.665932  1
  Sc  Sc10  1  0.000082  0.246343  0.829543  1
  Sc  Sc11  1  0.000081  0.753657  0.829543  1
  Co  Co12  1  0.999902  0.500000  0.333876  1
  Co  Co13  1  0.500001  0.000000  0.500446  1
  Co  Co14  1  0.000101  0.500000  0.666240  1
  Co  Co15  1  0.500100  0.000000  0.832793  1
  Cu  Cu16  1  0.000008  0.500000  0.999100  1
  Cu  Cu17  1  0.499891  0.000000  0.167554  1
  Ru  Ru18  1  0.000015  0.000000  0.001147  1
  Ru  Ru19  1  0.499906  0.499999  0.165506  1
  Ru  Ru20  1  0.999920  0.000000  0.333017  1
  Ru  Ru21  1  0.500003  0.500000  0.500510  1
  Ru  Ru22  1  0.000067  0.000000  0.666167  1
  Ru  Ru23  1  0.500087  0.500000  0.833644  1
