# generated using pymatgen
data_HfZr7Co7Si14Os
_symmetry_space_group_name_H-M   'P 1'
_cell_length_a   9.52140217
_cell_length_b   9.51334906
_cell_length_c   9.52973000
_cell_angle_alpha   94.13111214
_cell_angle_beta   94.17913528
_cell_angle_gamma   148.75089065
_symmetry_Int_Tables_number   1
_chemical_formula_structural   HfZr7Co7Si14Os
_chemical_formula_sum   'Hf1 Zr7 Co7 Si14 Os1'
_cell_volume   431.28839797
_cell_formula_units_Z   1
loop_
 _symmetry_equiv_pos_site_id
 _symmetry_equiv_pos_as_xyz
  1  'x, y, z'
loop_
 _atom_site_type_symbol
 _atom_site_label
 _atom_site_symmetry_multiplicity
 _atom_site_fract_x
 _atom_site_fract_y
 _atom_site_fract_z
 _atom_site_occupancy
  Hf  Hf0  1  0.138114  0.138093  0.276130  1
  Zr  Zr1  1  0.862382  0.862331  0.724801  1
  Zr  Zr2  1  0.862144  0.137197  0.001139  1
  Zr  Zr3  1  0.138939  0.863914  0.001113  1
  Zr  Zr4  1  0.499546  0.303733  0.803684  1
  Zr  Zr5  1  0.502013  0.696293  0.197340  1
  Zr  Zr6  1  0.695423  0.501129  0.197388  1
  Zr  Zr7  1  0.304063  0.499881  0.803719  1
  Co  Co8  1  0.103725  0.603719  0.207487  1
  Co  Co9  1  0.099937  0.896133  0.498520  1
  Co  Co10  1  0.398607  0.602429  0.498535  1
  Co  Co11  1  0.599629  0.394889  0.498910  1
  Co  Co12  1  0.899360  0.104033  0.498923  1
  Co  Co13  1  0.897745  0.397828  0.795596  1
  Co  Co14  1  0.602698  0.102703  0.205410  1
  Si  Si15  1  0.504249  0.097231  0.586478  1
  Si  Si16  1  0.501844  0.909322  0.407282  1
  Si  Si17  1  0.905360  0.497942  0.407289  1
  Si  Si18  1  0.082261  0.489358  0.586494  1
  Si  Si19  1  0.749842  0.750437  0.000680  1
  Si  Si20  1  0.250819  0.250233  0.000670  1
  Si  Si21  1  0.289198  0.289120  0.578005  1
  Si  Si22  1  0.710718  0.710640  0.421603  1
  Si  Si23  1  0.721531  0.301910  0.005465  1
  Si  Si24  1  0.283869  0.703491  0.005456  1
  Si  Si25  1  0.000654  0.302273  0.301949  1
  Si  Si26  1  0.989189  0.692906  0.696830  1
  Si  Si27  1  0.707630  0.003947  0.696909  1
  Si  Si28  1  0.301377  0.999806  0.301992  1
  Os  Os29  1  0.397136  0.897083  0.794201  1
