# generated using pymatgen
data_La12Pb(AuI4)3
_symmetry_space_group_name_H-M   'P 1'
_cell_length_a   11.21548232
_cell_length_b   11.21548261
_cell_length_c   11.21548100
_cell_angle_alpha   109.76733190
_cell_angle_beta   109.76733244
_cell_angle_gamma   109.76733787
_symmetry_Int_Tables_number   1
_chemical_formula_structural   La12Pb(AuI4)3
_chemical_formula_sum   'La12 Pb1 Au3 I12'
_cell_volume   1073.93411690
_cell_formula_units_Z   1
loop_
 _symmetry_equiv_pos_site_id
 _symmetry_equiv_pos_as_xyz
  1  'x, y, z'
loop_
 _atom_site_type_symbol
 _atom_site_label
 _atom_site_symmetry_multiplicity
 _atom_site_fract_x
 _atom_site_fract_y
 _atom_site_fract_z
 _atom_site_occupancy
  La  La0  1  0.482605  0.496069  0.235823  1
  La  La1  1  0.750000  0.231411  0.268589  1
  La  La2  1  0.750000  0.014370  0.485630  1
  La  La3  1  0.235823  0.482605  0.496069  1
  La  La4  1  0.268589  0.750000  0.231411  1
  La  La5  1  0.017395  0.264177  0.003931  1
  La  La6  1  0.003931  0.017395  0.264177  1
  La  La7  1  0.485630  0.750000  0.014370  1
  La  La8  1  0.496069  0.235823  0.482605  1
  La  La9  1  0.014370  0.485630  0.750000  1
  La  La10  1  0.264177  0.003931  0.017395  1
  La  La11  1  0.231411  0.268589  0.750000  1
  Pb  Pb12  1  0.250000  0.250000  0.250000  1
  Au  Au13  1  0.499440  0.000560  0.250000  1
  Au  Au14  1  0.000560  0.250000  0.499440  1
  Au  Au15  1  0.250000  0.499440  0.000560  1
  I  I16  1  0.250000  0.758831  0.741169  1
  I  I17  1  0.513462  0.506334  0.755706  1
  I  I18  1  0.986538  0.744294  0.993666  1
  I  I19  1  0.741169  0.250000  0.758831  1
  I  I20  1  0.993666  0.986538  0.744294  1
  I  I21  1  0.250000  0.992812  0.507188  1
  I  I22  1  0.755706  0.513462  0.506334  1
  I  I23  1  0.507188  0.250000  0.992812  1
  I  I24  1  0.758831  0.741169  0.250000  1
  I  I25  1  0.744294  0.993666  0.986538  1
  I  I26  1  0.992812  0.507188  0.250000  1
  I  I27  1  0.506334  0.755706  0.513462  1
