# generated using pymatgen
data_Pr18Nd2Si15Br
_symmetry_space_group_name_H-M   'P 1'
_cell_length_a   7.96103638
_cell_length_b   7.90495671
_cell_length_c   15.35455900
_cell_angle_alpha   89.66282450
_cell_angle_beta   89.13874994
_cell_angle_gamma   90.21782929
_symmetry_Int_Tables_number   1
_chemical_formula_structural   Pr18Nd2Si15Br
_chemical_formula_sum   'Pr18 Nd2 Si15 Br1'
_cell_volume   966.15449451
_cell_formula_units_Z   1
loop_
 _symmetry_equiv_pos_site_id
 _symmetry_equiv_pos_as_xyz
  1  'x, y, z'
loop_
 _atom_site_type_symbol
 _atom_site_label
 _atom_site_symmetry_multiplicity
 _atom_site_fract_x
 _atom_site_fract_y
 _atom_site_fract_z
 _atom_site_occupancy
  Pr  Pr0  1  0.795694  0.189470  0.753104  1
  Pr  Pr1  1  0.687405  0.689240  0.496728  1
  Pr  Pr2  1  0.381064  0.005275  0.442282  1
  Pr  Pr3  1  0.497003  0.868843  0.699312  1
  Pr  Pr4  1  0.510313  0.121469  0.196649  1
  Pr  Pr5  1  0.875856  0.485674  0.300308  1
  Pr  Pr6  1  0.122354  0.517866  0.804612  1
  Pr  Pr7  1  0.631550  0.985939  0.952307  1
  Pr  Pr8  1  0.996590  0.383677  0.545072  1
  Pr  Pr9  1  0.992424  0.622743  0.053449  1
  Pr  Pr10  1  0.139579  0.987587  0.875354  1
  Pr  Pr11  1  0.518236  0.629594  0.126151  1
  Pr  Pr12  1  0.482411  0.371612  0.630635  1
  Pr  Pr13  1  0.634351  0.521707  0.876709  1
  Pr  Pr14  1  0.368495  0.477392  0.374359  1
  Pr  Pr15  1  0.870474  0.019697  0.376110  1
  Pr  Pr16  1  0.983125  0.128007  0.124383  1
  Pr  Pr17  1  0.013039  0.862646  0.620810  1
  Nd  Nd18  1  0.310722  0.310818  0.000025  1
  Nd  Nd19  1  0.186878  0.808408  0.249542  1
  Si  Si20  1  0.331261  0.696682  0.951665  1
  Si  Si21  1  0.661710  0.304186  0.453536  1
  Si  Si22  1  0.700406  0.334592  0.050321  1
  Si  Si23  1  0.304245  0.667605  0.549144  1
  Si  Si24  1  0.804671  0.831181  0.202760  1
  Si  Si25  1  0.168223  0.193580  0.296299  1
  Si  Si26  1  0.842631  0.804858  0.797485  1
  Si  Si27  1  0.287799  0.922667  0.059334  1
  Si  Si28  1  0.574782  0.786223  0.307870  1
  Si  Si29  1  0.450235  0.210702  0.826149  1
  Si  Si30  1  0.790769  0.577015  0.688875  1
  Si  Si31  1  0.211711  0.423610  0.190216  1
  Si  Si32  1  0.704297  0.075557  0.560651  1
  Si  Si33  1  0.928624  0.291029  0.940988  1
  Si  Si34  1  0.078037  0.711694  0.439117  1
  Br  Br35  1  0.163040  0.181156  0.687690  1
