# generated using pymatgen
data_Zr15Sc
_symmetry_space_group_name_H-M   'P 1'
_cell_length_a   6.49591300
_cell_length_b   6.49591266
_cell_length_c   10.31009300
_cell_angle_alpha   90.00000000
_cell_angle_beta   90.00000000
_cell_angle_gamma   120.00000681
_symmetry_Int_Tables_number   1
_chemical_formula_structural   Zr15Sc
_chemical_formula_sum   'Zr15 Sc1'
_cell_volume   376.76761114
_cell_formula_units_Z   1
loop_
 _symmetry_equiv_pos_site_id
 _symmetry_equiv_pos_as_xyz
  1  'x, y, z'
loop_
 _atom_site_type_symbol
 _atom_site_label
 _atom_site_symmetry_multiplicity
 _atom_site_fract_x
 _atom_site_fract_y
 _atom_site_fract_z
 _atom_site_occupancy
  Zr  Zr0  1  0.666667  0.333333  0.500000  1
  Zr  Zr1  1  0.166545  0.333089  0.000000  1
  Zr  Zr2  1  0.167004  0.334009  0.500000  1
  Zr  Zr3  1  0.166545  0.833455  0.000000  1
  Zr  Zr4  1  0.167004  0.832996  0.500000  1
  Zr  Zr5  1  0.666911  0.833455  0.000000  1
  Zr  Zr6  1  0.665991  0.832996  0.500000  1
  Zr  Zr7  1  0.000540  0.500271  0.249312  1
  Zr  Zr8  1  0.000540  0.500271  0.750688  1
  Zr  Zr9  1  0.499729  0.500271  0.249312  1
  Zr  Zr10  1  0.499729  0.500271  0.750688  1
  Zr  Zr11  1  0.499729  0.999460  0.249312  1
  Zr  Zr12  1  0.499729  0.999460  0.750688  1
  Zr  Zr13  1  0.000000  0.000000  0.249752  1
  Zr  Zr14  1  0.000000  0.000000  0.750248  1
  Sc  Sc15  1  0.666667  0.333333  0.000000  1
