# generated using pymatgen
data_TbEr2Mn8CoP6
_symmetry_space_group_name_H-M   'P 1'
_cell_length_a   3.63321600
_cell_length_b   10.86001200
_cell_length_c   12.62233700
_cell_angle_alpha   90.00000000
_cell_angle_beta   90.00000000
_cell_angle_gamma   90.00000000
_symmetry_Int_Tables_number   1
_chemical_formula_structural   TbEr2Mn8CoP6
_chemical_formula_sum   'Tb2 Er4 Mn16 Co2 P12'
_cell_volume   498.03663978
_cell_formula_units_Z   2
loop_
 _symmetry_equiv_pos_site_id
 _symmetry_equiv_pos_as_xyz
  1  'x, y, z'
loop_
 _atom_site_type_symbol
 _atom_site_label
 _atom_site_symmetry_multiplicity
 _atom_site_fract_x
 _atom_site_fract_y
 _atom_site_fract_z
 _atom_site_occupancy
  Tb  Tb0  1  0.000000  0.500000  0.532597  1
  Tb  Tb1  1  0.500000  0.000000  0.467403  1
  Er  Er2  1  0.500000  0.823221  0.206108  1
  Er  Er3  1  0.500000  0.176779  0.206108  1
  Er  Er4  1  0.000000  0.676779  0.793892  1
  Er  Er5  1  0.000000  0.323221  0.793892  1
  Mn  Mn6  1  0.500000  0.500000  0.166139  1
  Mn  Mn7  1  0.000000  0.000000  0.833861  1
  Mn  Mn8  1  0.000000  0.500000  0.992765  1
  Mn  Mn9  1  0.500000  0.000000  0.007235  1
  Mn  Mn10  1  0.500000  0.332610  0.997143  1
  Mn  Mn11  1  0.500000  0.667390  0.997143  1
  Mn  Mn12  1  0.000000  0.167390  0.002857  1
  Mn  Mn13  1  0.000000  0.832610  0.002857  1
  Mn  Mn14  1  0.500000  0.297709  0.432560  1
  Mn  Mn15  1  0.500000  0.702291  0.432560  1
  Mn  Mn16  1  0.000000  0.202291  0.567440  1
  Mn  Mn17  1  0.000000  0.797709  0.567440  1
  Mn  Mn18  1  0.500000  0.881000  0.702854  1
  Mn  Mn19  1  0.500000  0.119000  0.702854  1
  Mn  Mn20  1  0.000000  0.619000  0.297146  1
  Mn  Mn21  1  0.000000  0.381000  0.297146  1
  Co  Co22  1  0.500000  0.500000  0.707023  1
  Co  Co23  1  0.000000  0.000000  0.292977  1
  P  P24  1  0.500000  0.500000  0.881357  1
  P  P25  1  0.000000  0.000000  0.118643  1
  P  P26  1  0.500000  0.500000  0.358953  1
  P  P27  1  0.000000  0.000000  0.641047  1
  P  P28  1  0.500000  0.317728  0.620000  1
  P  P29  1  0.500000  0.682272  0.620000  1
  P  P30  1  0.000000  0.182272  0.380000  1
  P  P31  1  0.000000  0.817728  0.380000  1
  P  P32  1  0.500000  0.844824  0.884474  1
  P  P33  1  0.500000  0.155176  0.884474  1
  P  P34  1  0.000000  0.655176  0.115526  1
  P  P35  1  0.000000  0.344824  0.115526  1
