# generated using pymatgen
data_Ac2Tb3Pt4
_symmetry_space_group_name_H-M   'P 1'
_cell_length_a   7.96442100
_cell_length_b   7.89131900
_cell_length_c   14.76132500
_cell_angle_alpha   90.00000000
_cell_angle_beta   90.00000000
_cell_angle_gamma   90.00000000
_symmetry_Int_Tables_number   1
_chemical_formula_structural   Ac2Tb3Pt4
_chemical_formula_sum   'Ac8 Tb12 Pt16'
_cell_volume   927.74612856
_cell_formula_units_Z   4
loop_
 _symmetry_equiv_pos_site_id
 _symmetry_equiv_pos_as_xyz
  1  'x, y, z'
loop_
 _atom_site_type_symbol
 _atom_site_label
 _atom_site_symmetry_multiplicity
 _atom_site_fract_x
 _atom_site_fract_y
 _atom_site_fract_z
 _atom_site_occupancy
  Ac  Ac0  1  0.488503  0.177036  0.598821  1
  Ac  Ac1  1  0.988503  0.322964  0.901179  1
  Ac  Ac2  1  0.511497  0.822964  0.098821  1
  Ac  Ac3  1  0.011497  0.677036  0.401179  1
  Ac  Ac4  1  0.511497  0.822964  0.401179  1
  Ac  Ac5  1  0.011497  0.677036  0.098821  1
  Ac  Ac6  1  0.488503  0.177036  0.901179  1
  Ac  Ac7  1  0.988503  0.322964  0.598821  1
  Tb  Tb8  1  0.334534  0.662978  0.623259  1
  Tb  Tb9  1  0.834534  0.837022  0.876741  1
  Tb  Tb10  1  0.665466  0.337022  0.123259  1
  Tb  Tb11  1  0.165466  0.162978  0.376741  1
  Tb  Tb12  1  0.665466  0.337022  0.376741  1
  Tb  Tb13  1  0.165466  0.162978  0.123259  1
  Tb  Tb14  1  0.334534  0.662978  0.876741  1
  Tb  Tb15  1  0.834534  0.837022  0.623259  1
  Tb  Tb16  1  0.669037  0.504584  0.750000  1
  Tb  Tb17  1  0.169037  0.995416  0.750000  1
  Tb  Tb18  1  0.330963  0.495416  0.250000  1
  Tb  Tb19  1  0.830963  0.004584  0.250000  1
  Pt  Pt20  1  0.831057  0.041232  0.453238  1
  Pt  Pt21  1  0.331057  0.458768  0.046762  1
  Pt  Pt22  1  0.168943  0.958768  0.953238  1
  Pt  Pt23  1  0.668943  0.541232  0.546762  1
  Pt  Pt24  1  0.168943  0.958768  0.546762  1
  Pt  Pt25  1  0.668943  0.541232  0.953238  1
  Pt  Pt26  1  0.831057  0.041232  0.046762  1
  Pt  Pt27  1  0.331057  0.458768  0.453238  1
  Pt  Pt28  1  0.295129  0.367082  0.750000  1
  Pt  Pt29  1  0.795129  0.132918  0.750000  1
  Pt  Pt30  1  0.704871  0.632918  0.250000  1
  Pt  Pt31  1  0.204871  0.867082  0.250000  1
  Pt  Pt32  1  0.535965  0.866054  0.750000  1
  Pt  Pt33  1  0.035965  0.633946  0.750000  1
  Pt  Pt34  1  0.464035  0.133946  0.250000  1
  Pt  Pt35  1  0.964035  0.366054  0.250000  1
