# generated using pymatgen
data_SbRuBr18
_symmetry_space_group_name_H-M   'P 1'
_cell_length_a   9.33227477
_cell_length_b   9.34872348
_cell_length_c   9.24679749
_cell_angle_alpha   88.77144861
_cell_angle_beta   88.80059132
_cell_angle_gamma   89.51632114
_symmetry_Int_Tables_number   1
_chemical_formula_structural   SbRuBr18
_chemical_formula_sum   'Sb1 Ru1 Br18'
_cell_volume   806.34757090
_cell_formula_units_Z   1
loop_
 _symmetry_equiv_pos_site_id
 _symmetry_equiv_pos_as_xyz
  1  'x, y, z'
loop_
 _atom_site_type_symbol
 _atom_site_label
 _atom_site_symmetry_multiplicity
 _atom_site_fract_x
 _atom_site_fract_y
 _atom_site_fract_z
 _atom_site_occupancy
  Sb  Sb0  1  0.000000  0.000000  0.000000  1
  Ru  Ru1  1  0.500000  0.500000  0.500000  1
  Br  Br2  1  0.768040  0.485353  0.504801  1
  Br  Br3  1  0.502823  0.767112  0.469945  1
  Br  Br4  1  0.481734  0.513470  0.769479  1
  Br  Br5  1  0.231960  0.514647  0.495199  1
  Br  Br6  1  0.497177  0.232888  0.530055  1
  Br  Br7  1  0.518266  0.486530  0.230521  1
  Br  Br8  1  0.881650  0.384922  0.735707  1
  Br  Br9  1  0.737139  0.882231  0.380566  1
  Br  Br10  1  0.383617  0.744552  0.879621  1
  Br  Br11  1  0.118350  0.615078  0.264293  1
  Br  Br12  1  0.262861  0.117769  0.619434  1
  Br  Br13  1  0.616383  0.255448  0.120379  1
  Br  Br14  1  0.036987  0.969879  0.695556  1
  Br  Br15  1  0.697957  0.033727  0.973100  1
  Br  Br16  1  0.972222  0.697639  0.040689  1
  Br  Br17  1  0.963013  0.030121  0.304444  1
  Br  Br18  1  0.302043  0.966273  0.026900  1
  Br  Br19  1  0.027778  0.302361  0.959311  1
