# generated using pymatgen
data_Ho6Tm4Sn5Sb
_symmetry_space_group_name_H-M   'P 1'
_cell_length_a   8.90886800
_cell_length_b   8.89890573
_cell_length_c   6.43706600
_cell_angle_alpha   90.00000000
_cell_angle_beta   90.00000000
_cell_angle_gamma   120.03703203
_symmetry_Int_Tables_number   1
_chemical_formula_structural   Ho6Tm4Sn5Sb
_chemical_formula_sum   'Ho6 Tm4 Sn5 Sb1'
_cell_volume   441.78965486
_cell_formula_units_Z   1
loop_
 _symmetry_equiv_pos_site_id
 _symmetry_equiv_pos_as_xyz
  1  'x, y, z'
loop_
 _atom_site_type_symbol
 _atom_site_label
 _atom_site_symmetry_multiplicity
 _atom_site_fract_x
 _atom_site_fract_y
 _atom_site_fract_z
 _atom_site_occupancy
  Ho  Ho0  1  0.997909  0.759815  0.750000  1
  Ho  Ho1  1  0.000746  0.239209  0.250000  1
  Ho  Ho2  1  0.761538  0.760791  0.250000  1
  Ho  Ho3  1  0.761629  0.000000  0.750000  1
  Ho  Ho4  1  0.238093  0.240185  0.750000  1
  Ho  Ho5  1  0.239316  0.000000  0.250000  1
  Tm  Tm6  1  0.333131  0.665641  0.499840  1
  Tm  Tm7  1  0.667491  0.334359  0.000160  1
  Tm  Tm8  1  0.667491  0.334359  0.499840  1
  Tm  Tm9  1  0.333131  0.665641  0.000160  1
  Sn  Sn10  1  0.396174  0.395341  0.250000  1
  Sn  Sn11  1  0.000833  0.604659  0.250000  1
  Sn  Sn12  1  0.999732  0.396074  0.750000  1
  Sn  Sn13  1  0.603658  0.603926  0.750000  1
  Sn  Sn14  1  0.604940  0.000000  0.250000  1
  Sb  Sb15  1  0.394184  0.000000  0.750000  1
