# generated using pymatgen
data_Gd2HoMg3Ge2Pd
_symmetry_space_group_name_H-M   'P 1'
_cell_length_a   7.32080125
_cell_length_b   7.32080054
_cell_length_c   4.29950200
_cell_angle_alpha   90.00000000
_cell_angle_beta   90.00000000
_cell_angle_gamma   119.86123601
_symmetry_Int_Tables_number   1
_chemical_formula_structural   Gd2HoMg3Ge2Pd
_chemical_formula_sum   'Gd2 Ho1 Mg3 Ge2 Pd1'
_cell_volume   199.83499561
_cell_formula_units_Z   1
loop_
 _symmetry_equiv_pos_site_id
 _symmetry_equiv_pos_as_xyz
  1  'x, y, z'
loop_
 _atom_site_type_symbol
 _atom_site_label
 _atom_site_symmetry_multiplicity
 _atom_site_fract_x
 _atom_site_fract_y
 _atom_site_fract_z
 _atom_site_occupancy
  Gd  Gd0  1  0.583177  0.999969  0.000000  1
  Gd  Gd1  1  0.999969  0.583177  0.000000  1
  Ho  Ho2  1  0.416238  0.416238  0.000000  1
  Mg  Mg3  1  0.241878  0.000800  0.500000  1
  Mg  Mg4  1  0.000800  0.241878  0.500000  1
  Mg  Mg5  1  0.757345  0.757345  0.500000  1
  Ge  Ge6  1  0.333893  0.665072  0.500000  1
  Ge  Ge7  1  0.665072  0.333893  0.500000  1
  Pd  Pd8  1  0.001628  0.001628  0.000000  1
