# generated using pymatgen
data_DyErTm4(Si3Ru)8
_symmetry_space_group_name_H-M   'P 1'
_cell_length_a   10.09883235
_cell_length_b   10.09883275
_cell_length_c   8.11463432
_cell_angle_alpha   90.00157196
_cell_angle_beta   89.99842492
_cell_angle_gamma   132.67379040
_symmetry_Int_Tables_number   1
_chemical_formula_structural   DyErTm4(Si3Ru)8
_chemical_formula_sum   'Dy1 Er1 Tm4 Si24 Ru8'
_cell_volume   608.45912257
_cell_formula_units_Z   1
loop_
 _symmetry_equiv_pos_site_id
 _symmetry_equiv_pos_as_xyz
  1  'x, y, z'
loop_
 _atom_site_type_symbol
 _atom_site_label
 _atom_site_symmetry_multiplicity
 _atom_site_fract_x
 _atom_site_fract_y
 _atom_site_fract_z
 _atom_site_occupancy
  Dy  Dy0  1  0.497451  0.997451  0.250000  1
  Er  Er1  1  0.997597  0.497597  0.250000  1
  Tm  Tm2  1  0.002465  0.502465  0.750000  1
  Tm  Tm3  1  0.502339  0.002339  0.750000  1
  Tm  Tm4  1  0.500007  0.499986  0.500069  1
  Tm  Tm5  1  0.999986  0.000007  0.999931  1
  Si  Si6  1  0.388156  0.154947  0.004584  1
  Si  Si7  1  0.654947  0.888156  0.495416  1
  Si  Si8  1  0.111890  0.345565  0.505079  1
  Si  Si9  1  0.845565  0.611890  0.994921  1
  Si  Si10  1  0.611763  0.845040  0.994998  1
  Si  Si11  1  0.345040  0.111763  0.505002  1
  Si  Si12  1  0.888095  0.654491  0.495159  1
  Si  Si13  1  0.154491  0.388095  0.004841  1
  Si  Si14  1  0.613162  0.378753  0.228871  1
  Si  Si15  1  0.878753  0.113162  0.271129  1
  Si  Si16  1  0.887559  0.121892  0.728358  1
  Si  Si17  1  0.621892  0.387559  0.771642  1
  Si  Si18  1  0.386949  0.621335  0.771527  1
  Si  Si19  1  0.121335  0.886949  0.728473  1
  Si  Si20  1  0.705393  0.295503  0.999584  1
  Si  Si21  1  0.795503  0.205393  0.500416  1
  Si  Si22  1  0.294542  0.704435  0.999477  1
  Si  Si23  1  0.204435  0.794542  0.500523  1
  Si  Si24  1  0.167725  0.167762  0.333242  1
  Si  Si25  1  0.667762  0.667725  0.166758  1
  Si  Si26  1  0.332245  0.332292  0.833295  1
  Si  Si27  1  0.832292  0.832245  0.666705  1
  Si  Si28  1  0.377932  0.612455  0.228709  1
  Si  Si29  1  0.112455  0.877932  0.271291  1
  Ru  Ru30  1  0.626464  0.626440  0.872282  1
  Ru  Ru31  1  0.126440  0.126464  0.627718  1
  Ru  Ru32  1  0.873708  0.873628  0.372083  1
  Ru  Ru33  1  0.373628  0.373708  0.127917  1
  Ru  Ru34  1  0.330683  0.669697  0.501111  1
  Ru  Ru35  1  0.169697  0.830683  0.998889  1
  Ru  Ru36  1  0.669375  0.330278  0.501248  1
  Ru  Ru37  1  0.830278  0.169375  0.998752  1
