# generated using pymatgen
data_Dy4S3N2
_symmetry_space_group_name_H-M   'P 1'
_cell_length_a   6.74959825
_cell_length_b   3.83382774
_cell_length_c   10.34488901
_cell_angle_alpha   90.00000035
_cell_angle_beta   50.64013694
_cell_angle_gamma   73.50068284
_symmetry_Int_Tables_number   1
_chemical_formula_structural   Dy4S3N2
_chemical_formula_sum   'Dy4 S3 N2'
_cell_volume   192.50541600
_cell_formula_units_Z   1
loop_
 _symmetry_equiv_pos_site_id
 _symmetry_equiv_pos_as_xyz
  1  'x, y, z'
loop_
 _atom_site_type_symbol
 _atom_site_label
 _atom_site_symmetry_multiplicity
 _atom_site_fract_x
 _atom_site_fract_y
 _atom_site_fract_z
 _atom_site_occupancy
  Dy  Dy0  1  0.223640  0.888180  0.648996  1
  Dy  Dy1  1  0.776360  0.111820  0.351004  1
  Dy  Dy2  1  0.581247  0.709377  0.145794  1
  Dy  Dy3  1  0.418753  0.290623  0.854206  1
  S  S4  1  0.000000  0.000000  0.000000  1
  S  S5  1  0.779265  0.610368  0.784596  1
  S  S6  1  0.220735  0.389632  0.215404  1
  N  N7  1  0.563062  0.718470  0.361765  1
  N  N8  1  0.436938  0.281530  0.638235  1
