# generated using pymatgen
data_Pr15Nd5Si15Ru
_symmetry_space_group_name_H-M   'P 1'
_cell_length_a   7.91393549
_cell_length_b   7.91905988
_cell_length_c   15.26152620
_cell_angle_alpha   90.23028390
_cell_angle_beta   89.96358844
_cell_angle_gamma   90.16056167
_symmetry_Int_Tables_number   1
_chemical_formula_structural   Pr15Nd5Si15Ru
_chemical_formula_sum   'Pr15 Nd5 Si15 Ru1'
_cell_volume   956.44235839
_cell_formula_units_Z   1
loop_
 _symmetry_equiv_pos_site_id
 _symmetry_equiv_pos_as_xyz
  1  'x, y, z'
loop_
 _atom_site_type_symbol
 _atom_site_label
 _atom_site_symmetry_multiplicity
 _atom_site_fract_x
 _atom_site_fract_y
 _atom_site_fract_z
 _atom_site_occupancy
  Pr  Pr0  1  0.487883  0.879153  0.696819  1
  Pr  Pr1  1  0.510491  0.123507  0.198209  1
  Pr  Pr2  1  0.875797  0.488257  0.300626  1
  Pr  Pr3  1  0.126418  0.505241  0.798849  1
  Pr  Pr4  1  0.625561  0.988742  0.948291  1
  Pr  Pr5  1  0.006525  0.377612  0.552028  1
  Pr  Pr6  1  0.988016  0.624721  0.050909  1
  Pr  Pr7  1  0.133802  0.984355  0.873002  1
  Pr  Pr8  1  0.517158  0.630376  0.126216  1
  Pr  Pr9  1  0.471303  0.359685  0.628680  1
  Pr  Pr10  1  0.627243  0.515464  0.874087  1
  Pr  Pr11  1  0.374588  0.483681  0.373673  1
  Pr  Pr12  1  0.873815  0.021043  0.377031  1
  Pr  Pr13  1  0.982043  0.126502  0.124229  1
  Pr  Pr14  1  0.027184  0.882595  0.626629  1
  Nd  Nd15  1  0.305651  0.306552  0.997972  1
  Nd  Nd16  1  0.191088  0.809263  0.249724  1
  Nd  Nd17  1  0.823227  0.188325  0.749412  1
  Nd  Nd18  1  0.694573  0.689396  0.501900  1
  Nd  Nd19  1  0.373112  0.010490  0.449555  1
  Si  Si20  1  0.332711  0.693964  0.951274  1
  Si  Si21  1  0.664182  0.302921  0.451993  1
  Si  Si22  1  0.696248  0.334418  0.049830  1
  Si  Si23  1  0.304901  0.669148  0.547172  1
  Si  Si24  1  0.806287  0.831960  0.203801  1
  Si  Si25  1  0.168690  0.196915  0.298033  1
  Si  Si26  1  0.833063  0.802282  0.799683  1
  Si  Si27  1  0.287793  0.921984  0.058783  1
  Si  Si28  1  0.579448  0.787875  0.311278  1
  Si  Si29  1  0.424153  0.207734  0.811667  1
  Si  Si30  1  0.779093  0.582757  0.690693  1
  Si  Si31  1  0.212642  0.422005  0.189989  1
  Si  Si32  1  0.704380  0.073981  0.558803  1
  Si  Si33  1  0.919646  0.287350  0.941372  1
  Si  Si34  1  0.079765  0.716242  0.440534  1
  Ru  Ru35  1  0.191521  0.173506  0.697255  1
