# generated using pymatgen
data_TmPa3(CoGe)4
_symmetry_space_group_name_H-M   'P 1'
_cell_length_a   4.24202000
_cell_length_b   6.91059512
_cell_length_c   7.18648761
_cell_angle_alpha   90.48598351
_cell_angle_beta   90.00000000
_cell_angle_gamma   90.00000000
_symmetry_Int_Tables_number   1
_chemical_formula_structural   TmPa3(CoGe)4
_chemical_formula_sum   'Tm1 Pa3 Co4 Ge4'
_cell_volume   210.66346310
_cell_formula_units_Z   1
loop_
 _symmetry_equiv_pos_site_id
 _symmetry_equiv_pos_as_xyz
  1  'x, y, z'
loop_
 _atom_site_type_symbol
 _atom_site_label
 _atom_site_symmetry_multiplicity
 _atom_site_fract_x
 _atom_site_fract_y
 _atom_site_fract_z
 _atom_site_occupancy
  Tm  Tm0  1  0.750000  0.487489  0.290847  1
  Pa  Pa1  1  0.250000  0.011792  0.797357  1
  Pa  Pa2  1  0.250000  0.515743  0.712677  1
  Pa  Pa3  1  0.750000  0.990362  0.202289  1
  Co  Co4  1  0.250000  0.800201  0.423392  1
  Co  Co5  1  0.250000  0.261630  0.069341  1
  Co  Co6  1  0.750000  0.202152  0.582674  1
  Co  Co7  1  0.750000  0.720443  0.916809  1
  Ge  Ge8  1  0.250000  0.200549  0.411916  1
  Ge  Ge9  1  0.250000  0.693587  0.096763  1
  Ge  Ge10  1  0.750000  0.803198  0.582083  1
  Ge  Ge11  1  0.750000  0.312854  0.913852  1
