# generated using pymatgen
data_Hf3ZrRu9(RhC)3
_symmetry_space_group_name_H-M   'P 1'
_cell_length_a   4.07722800
_cell_length_b   4.07722800
_cell_length_c   16.09836800
_cell_angle_alpha   90.00000000
_cell_angle_beta   90.00000000
_cell_angle_gamma   90.00000000
_symmetry_Int_Tables_number   1
_chemical_formula_structural   Hf3ZrRu9(RhC)3
_chemical_formula_sum   'Hf3 Zr1 Ru9 Rh3 C3'
_cell_volume   267.61585942
_cell_formula_units_Z   1
loop_
 _symmetry_equiv_pos_site_id
 _symmetry_equiv_pos_as_xyz
  1  'x, y, z'
loop_
 _atom_site_type_symbol
 _atom_site_label
 _atom_site_symmetry_multiplicity
 _atom_site_fract_x
 _atom_site_fract_y
 _atom_site_fract_z
 _atom_site_occupancy
  Hf  Hf0  1  0.000000  0.000000  0.117923  1
  Hf  Hf1  1  0.000000  0.000000  0.372624  1
  Hf  Hf2  1  0.000000  0.000000  0.627278  1
  Zr  Zr3  1  0.000000  0.000000  0.883573  1
  Ru  Ru4  1  0.500000  0.500000  0.118910  1
  Ru  Ru5  1  0.500000  0.500000  0.372843  1
  Ru  Ru6  1  0.500000  0.500000  0.626813  1
  Ru  Ru7  1  0.500000  0.000000  0.248522  1
  Ru  Ru8  1  0.500000  0.000000  0.499810  1
  Ru  Ru9  1  0.500000  0.000000  0.750047  1
  Ru  Ru10  1  0.000000  0.500000  0.248522  1
  Ru  Ru11  1  0.000000  0.500000  0.499810  1
  Ru  Ru12  1  0.000000  0.500000  0.750047  1
  Rh  Rh13  1  0.500000  0.500000  0.881609  1
  Rh  Rh14  1  0.500000  0.000000  0.001755  1
  Rh  Rh15  1  0.000000  0.500000  0.001755  1
  C  C16  1  0.500000  0.500000  0.240425  1
  C  C17  1  0.500000  0.500000  0.499432  1
  C  C18  1  0.500000  0.500000  0.758298  1
