# generated using pymatgen
data_Er4Al17SiIr6
_symmetry_space_group_name_H-M   'P 1'
_cell_length_a   7.53235933
_cell_length_b   7.53235926
_cell_length_c   9.39556900
_cell_angle_alpha   90.00000000
_cell_angle_beta   90.00000000
_cell_angle_gamma   119.67475489
_symmetry_Int_Tables_number   1
_chemical_formula_structural   Er4Al17SiIr6
_chemical_formula_sum   'Er4 Al17 Si1 Ir6'
_cell_volume   463.15868749
_cell_formula_units_Z   1
loop_
 _symmetry_equiv_pos_site_id
 _symmetry_equiv_pos_as_xyz
  1  'x, y, z'
loop_
 _atom_site_type_symbol
 _atom_site_label
 _atom_site_symmetry_multiplicity
 _atom_site_fract_x
 _atom_site_fract_y
 _atom_site_fract_z
 _atom_site_occupancy
  Er  Er0  1  0.994795  0.675683  0.250000  1
  Er  Er1  1  0.003987  0.330269  0.750000  1
  Er  Er2  1  0.675683  0.994795  0.250000  1
  Er  Er3  1  0.330269  0.003987  0.750000  1
  Al  Al4  1  0.874454  0.874454  0.750000  1
  Al  Al5  1  0.000830  0.336721  0.077238  1
  Al  Al6  1  0.998691  0.665566  0.924945  1
  Al  Al7  1  0.998691  0.665566  0.575055  1
  Al  Al8  1  0.336721  0.000830  0.422762  1
  Al  Al9  1  0.000830  0.336721  0.422762  1
  Al  Al10  1  0.665566  0.998691  0.575055  1
  Al  Al11  1  0.665566  0.998691  0.924945  1
  Al  Al12  1  0.336721  0.000830  0.077238  1
  Al  Al13  1  0.332741  0.332741  0.557259  1
  Al  Al14  1  0.663828  0.663828  0.446690  1
  Al  Al15  1  0.663828  0.663828  0.053310  1
  Al  Al16  1  0.332741  0.332741  0.942741  1
  Al  Al17  1  0.336399  0.549278  0.250000  1
  Al  Al18  1  0.661188  0.451829  0.750000  1
  Al  Al19  1  0.549278  0.336399  0.250000  1
  Al  Al20  1  0.451829  0.661188  0.750000  1
  Si  Si21  1  0.130417  0.130417  0.250000  1
  Ir  Ir22  1  0.670423  0.326672  0.000261  1
  Ir  Ir23  1  0.326672  0.670423  0.000261  1
  Ir  Ir24  1  0.326672  0.670423  0.499739  1
  Ir  Ir25  1  0.670423  0.326672  0.499739  1
  Ir  Ir26  1  0.000379  0.000379  0.007074  1
  Ir  Ir27  1  0.000379  0.000379  0.492926  1
