# generated using pymatgen
data_Zr8Zn2In4NiPt5
_symmetry_space_group_name_H-M   'P 1'
_cell_length_a   7.47566412
_cell_length_b   7.49030219
_cell_length_c   6.96404716
_cell_angle_alpha   90.01888595
_cell_angle_beta   90.09424926
_cell_angle_gamma   90.39639375
_symmetry_Int_Tables_number   1
_chemical_formula_structural   Zr8Zn2In4NiPt5
_chemical_formula_sum   'Zr8 Zn2 In4 Ni1 Pt5'
_cell_volume   389.94182231
_cell_formula_units_Z   1
loop_
 _symmetry_equiv_pos_site_id
 _symmetry_equiv_pos_as_xyz
  1  'x, y, z'
loop_
 _atom_site_type_symbol
 _atom_site_label
 _atom_site_symmetry_multiplicity
 _atom_site_fract_x
 _atom_site_fract_y
 _atom_site_fract_z
 _atom_site_occupancy
  Zr  Zr0  1  0.808534  0.804408  0.990359  1
  Zr  Zr1  1  0.684415  0.305548  0.510725  1
  Zr  Zr2  1  0.342753  0.644356  0.994332  1
  Zr  Zr3  1  0.162668  0.153196  0.508123  1
  Zr  Zr4  1  0.202379  0.195837  0.992238  1
  Zr  Zr5  1  0.858031  0.852057  0.509656  1
  Zr  Zr6  1  0.638778  0.349811  0.989916  1
  Zr  Zr7  1  0.301623  0.686979  0.504698  1
  Zn  Zn8  1  0.628621  0.628740  0.297094  1
  Zn  Zn9  1  0.873660  0.129596  0.203358  1
  In  In10  1  0.499928  0.000845  0.747456  1
  In  In11  1  0.502546  0.997821  0.251128  1
  In  In12  1  0.995622  0.499117  0.248301  1
  In  In13  1  0.003668  0.494753  0.749549  1
  Ni  Ni14  1  0.371742  0.371298  0.704042  1
  Pt  Pt15  1  0.122883  0.879631  0.215536  1
  Pt  Pt16  1  0.130685  0.871452  0.793648  1
  Pt  Pt17  1  0.623798  0.624596  0.704546  1
  Pt  Pt18  1  0.869960  0.130942  0.796578  1
  Pt  Pt19  1  0.377707  0.379015  0.288717  1
