# generated using pymatgen
data_Nd2(GaPd3)3
_symmetry_space_group_name_H-M   'P 1'
_cell_length_a   7.84418894
_cell_length_b   7.84418853
_cell_length_c   9.20232200
_cell_angle_alpha   90.00000000
_cell_angle_beta   90.00000000
_cell_angle_gamma   120.15042413
_symmetry_Int_Tables_number   1
_chemical_formula_structural   Nd2(GaPd3)3
_chemical_formula_sum   'Nd4 Ga6 Pd18'
_cell_volume   489.62528453
_cell_formula_units_Z   2
loop_
 _symmetry_equiv_pos_site_id
 _symmetry_equiv_pos_as_xyz
  1  'x, y, z'
loop_
 _atom_site_type_symbol
 _atom_site_label
 _atom_site_symmetry_multiplicity
 _atom_site_fract_x
 _atom_site_fract_y
 _atom_site_fract_z
 _atom_site_occupancy
  Nd  Nd0  1  0.329483  0.016791  0.750000  1
  Nd  Nd1  1  0.670517  0.983209  0.250000  1
  Nd  Nd2  1  0.016791  0.329483  0.750000  1
  Nd  Nd3  1  0.983209  0.670517  0.250000  1
  Ga  Ga4  1  0.000000  0.000000  0.500000  1
  Ga  Ga5  1  0.677316  0.322684  0.000000  1
  Ga  Ga6  1  0.322684  0.677316  0.500000  1
  Ga  Ga7  1  0.322684  0.677316  0.000000  1
  Ga  Ga8  1  0.000000  0.000000  0.000000  1
  Ga  Ga9  1  0.677316  0.322684  0.500000  1
  Pd  Pd10  1  0.330865  0.330865  0.962510  1
  Pd  Pd11  1  0.447422  0.651449  0.750000  1
  Pd  Pd12  1  0.552578  0.348551  0.250000  1
  Pd  Pd13  1  0.651449  0.447422  0.750000  1
  Pd  Pd14  1  0.000602  0.338009  0.080722  1
  Pd  Pd15  1  0.999398  0.661991  0.580722  1
  Pd  Pd16  1  0.338009  0.000602  0.419278  1
  Pd  Pd17  1  0.661991  0.999398  0.919278  1
  Pd  Pd18  1  0.999398  0.661991  0.919278  1
  Pd  Pd19  1  0.000602  0.338009  0.419278  1
  Pd  Pd20  1  0.661991  0.999398  0.580722  1
  Pd  Pd21  1  0.869406  0.869406  0.750000  1
  Pd  Pd22  1  0.330865  0.330865  0.537490  1
  Pd  Pd23  1  0.669135  0.669135  0.037490  1
  Pd  Pd24  1  0.338009  0.000602  0.080722  1
  Pd  Pd25  1  0.669135  0.669135  0.462510  1
  Pd  Pd26  1  0.130594  0.130594  0.250000  1
  Pd  Pd27  1  0.348551  0.552578  0.250000  1
