# generated using pymatgen
data_Cr2Ir2N
_symmetry_space_group_name_H-M   'P 1'
_cell_length_a   9.00193399
_cell_length_b   9.00193316
_cell_length_c   9.00193292
_cell_angle_alpha   17.45738671
_cell_angle_beta   17.45738163
_cell_angle_gamma   17.45738666
_symmetry_Int_Tables_number   1
_chemical_formula_structural   Cr2Ir2N
_chemical_formula_sum   'Cr2 Ir2 N1'
_cell_volume   57.29495287
_cell_formula_units_Z   1
loop_
 _symmetry_equiv_pos_site_id
 _symmetry_equiv_pos_as_xyz
  1  'x, y, z'
loop_
 _atom_site_type_symbol
 _atom_site_label
 _atom_site_symmetry_multiplicity
 _atom_site_fract_x
 _atom_site_fract_y
 _atom_site_fract_z
 _atom_site_occupancy
  Cr  Cr0  1  0.379172  0.379172  0.379172  1
  Cr  Cr1  1  0.620828  0.620828  0.620828  1
  Ir  Ir2  1  0.878166  0.878166  0.878166  1
  Ir  Ir3  1  0.121834  0.121834  0.121834  1
  N  N4  1  0.000000  0.000000  0.000000  1
