# generated using pymatgen
data_Mn7TlCoO16
_symmetry_space_group_name_H-M   'P 1'
_cell_length_a   5.87233395
_cell_length_b   7.06063160
_cell_length_c   7.19536700
_cell_angle_alpha   88.90739451
_cell_angle_beta   78.18520885
_cell_angle_gamma   77.87263409
_symmetry_Int_Tables_number   1
_chemical_formula_structural   Mn7TlCoO16
_chemical_formula_sum   'Mn7 Tl1 Co1 O16'
_cell_volume   285.41035558
_cell_formula_units_Z   1
loop_
 _symmetry_equiv_pos_site_id
 _symmetry_equiv_pos_as_xyz
  1  'x, y, z'
loop_
 _atom_site_type_symbol
 _atom_site_label
 _atom_site_symmetry_multiplicity
 _atom_site_fract_x
 _atom_site_fract_y
 _atom_site_fract_z
 _atom_site_occupancy
  Mn  Mn0  1  0.081697  0.507874  0.183271  1
  Mn  Mn1  1  0.173613  0.815324  0.516020  1
  Mn  Mn2  1  0.668722  0.815936  0.519354  1
  Mn  Mn3  1  0.338920  0.186617  0.476349  1
  Mn  Mn4  1  0.837395  0.185862  0.480523  1
  Mn  Mn5  1  0.428138  0.488523  0.822130  1
  Mn  Mn6  1  0.924708  0.491865  0.821797  1
  Tl  Tl7  1  0.000007  0.998021  0.002183  1
  Co  Co8  1  0.581804  0.511511  0.180565  1
  O  O9  1  0.830632  0.641242  0.056225  1
  O  O10  1  0.329425  0.640088  0.055815  1
  O  O11  1  0.983073  0.697986  0.386074  1
  O  O12  1  0.484346  0.696380  0.387514  1
  O  O13  1  0.855587  0.958310  0.640798  1
  O  O14  1  0.353259  0.958834  0.639607  1
  O  O15  1  0.344428  0.366553  0.279604  1
  O  O16  1  0.842496  0.364848  0.279684  1
  O  O17  1  0.165898  0.635294  0.720548  1
  O  O18  1  0.664834  0.634245  0.720780  1
  O  O19  1  0.154149  0.042307  0.356242  1
  O  O20  1  0.655691  0.041381  0.357660  1
  O  O21  1  0.025466  0.303133  0.612987  1
  O  O22  1  0.524978  0.302561  0.612540  1
  O  O23  1  0.178023  0.356613  0.944874  1
  O  O24  1  0.679816  0.358688  0.946851  1
