# generated using pymatgen
data_Lu2Hf5SnF30
_symmetry_space_group_name_H-M   'P 1'
_cell_length_a   8.04583730
_cell_length_b   8.04583698
_cell_length_c   8.04262900
_cell_angle_alpha   79.87852437
_cell_angle_beta   79.87852478
_cell_angle_gamma   100.18649456
_symmetry_Int_Tables_number   1
_chemical_formula_structural   Lu2Hf5SnF30
_chemical_formula_sum   'Lu2 Hf5 Sn1 F30'
_cell_volume   492.83624244
_cell_formula_units_Z   1
loop_
 _symmetry_equiv_pos_site_id
 _symmetry_equiv_pos_as_xyz
  1  'x, y, z'
loop_
 _atom_site_type_symbol
 _atom_site_label
 _atom_site_symmetry_multiplicity
 _atom_site_fract_x
 _atom_site_fract_y
 _atom_site_fract_z
 _atom_site_occupancy
  Lu  Lu0  1  0.677441  0.322559  0.750000  1
  Lu  Lu1  1  0.322690  0.677310  0.250000  1
  Hf  Hf2  1  0.748813  0.251187  0.250000  1
  Hf  Hf3  1  0.822287  0.750634  0.325702  1
  Hf  Hf4  1  0.249366  0.177713  0.174298  1
  Hf  Hf5  1  0.177499  0.249373  0.674187  1
  Hf  Hf6  1  0.750627  0.822501  0.825813  1
  Sn  Sn7  1  0.250811  0.749189  0.750000  1
  F  F8  1  0.150311  0.183613  0.946693  1
  F  F9  1  0.686488  0.562475  0.848352  1
  F  F10  1  0.042002  0.655968  0.315681  1
  F  F11  1  0.655914  0.041238  0.816606  1
  F  F12  1  0.562028  0.685979  0.347750  1
  F  F13  1  0.182752  0.150714  0.447354  1
  F  F14  1  0.849286  0.817248  0.052646  1
  F  F15  1  0.314021  0.437972  0.152250  1
  F  F16  1  0.958762  0.344086  0.683394  1
  F  F17  1  0.344032  0.957998  0.184319  1
  F  F18  1  0.437525  0.313512  0.651648  1
  F  F19  1  0.816387  0.849689  0.553307  1
  F  F20  1  0.968124  0.031876  0.750000  1
  F  F21  1  0.542432  0.752334  0.028912  1
  F  F22  1  0.247666  0.457568  0.471088  1
  F  F23  1  0.456564  0.247402  0.970457  1
  F  F24  1  0.752598  0.543436  0.529543  1
  F  F25  1  0.032903  0.967097  0.250000  1
  F  F26  1  0.215907  0.725833  0.003557  1
  F  F27  1  0.224809  0.491623  0.785093  1
  F  F28  1  0.992750  0.718574  0.775867  1
  F  F29  1  0.723082  0.992846  0.276887  1
  F  F30  1  0.491358  0.223795  0.280940  1
  F  F31  1  0.725389  0.219955  0.504414  1
  F  F32  1  0.780045  0.274611  0.995586  1
  F  F33  1  0.776205  0.508642  0.219060  1
  F  F34  1  0.007154  0.276918  0.223113  1
  F  F35  1  0.281426  0.007250  0.724133  1
  F  F36  1  0.508377  0.775191  0.714907  1
  F  F37  1  0.274167  0.784093  0.496443  1
