# generated using pymatgen
data_TaBeNb2P
_symmetry_space_group_name_H-M   'P 1'
_cell_length_a   6.57268200
_cell_length_b   6.59458800
_cell_length_c   3.34749500
_cell_angle_alpha   90.00000000
_cell_angle_beta   90.00000000
_cell_angle_gamma   90.00000000
_symmetry_Int_Tables_number   1
_chemical_formula_structural   TaBeNb2P
_chemical_formula_sum   'Ta2 Be2 Nb4 P2'
_cell_volume   145.09425794
_cell_formula_units_Z   2
loop_
 _symmetry_equiv_pos_site_id
 _symmetry_equiv_pos_as_xyz
  1  'x, y, z'
loop_
 _atom_site_type_symbol
 _atom_site_label
 _atom_site_symmetry_multiplicity
 _atom_site_fract_x
 _atom_site_fract_y
 _atom_site_fract_z
 _atom_site_occupancy
  Ta  Ta0  1  0.497004  0.503808  0.000000  1
  Ta  Ta1  1  0.997004  0.996192  0.000000  1
  Be  Be2  1  0.118862  0.623005  0.000000  1
  Be  Be3  1  0.618862  0.876995  0.000000  1
  Nb  Nb4  1  0.823350  0.678538  0.500000  1
  Nb  Nb5  1  0.323350  0.821462  0.500000  1
  Nb  Nb6  1  0.178473  0.326901  0.500000  1
  Nb  Nb7  1  0.678473  0.173099  0.500000  1
  P  P8  1  0.382311  0.112443  0.000000  1
  P  P9  1  0.882311  0.387557  0.000000  1
