# generated using pymatgen
data_Dy3Y(Al3Rh)6
_symmetry_space_group_name_H-M   'P 1'
_cell_length_a   7.56038644
_cell_length_b   7.56127189
_cell_length_c   9.47941300
_cell_angle_alpha   90.00000000
_cell_angle_beta   90.00000000
_cell_angle_gamma   119.28910262
_symmetry_Int_Tables_number   1
_chemical_formula_structural   Dy3Y(Al3Rh)6
_chemical_formula_sum   'Dy3 Y1 Al18 Rh6'
_cell_volume   472.62601343
_cell_formula_units_Z   1
loop_
 _symmetry_equiv_pos_site_id
 _symmetry_equiv_pos_as_xyz
  1  'x, y, z'
loop_
 _atom_site_type_symbol
 _atom_site_label
 _atom_site_symmetry_multiplicity
 _atom_site_fract_x
 _atom_site_fract_y
 _atom_site_fract_z
 _atom_site_occupancy
  Dy  Dy0  1  0.005642  0.328288  0.250000  1
  Dy  Dy1  1  0.671662  0.994122  0.750000  1
  Dy  Dy2  1  0.328379  0.005777  0.250000  1
  Y  Y3  1  0.994061  0.671518  0.750000  1
  Al  Al4  1  0.128531  0.128839  0.750000  1
  Al  Al5  1  0.871609  0.871653  0.250000  1
  Al  Al6  1  0.001042  0.335557  0.574304  1
  Al  Al7  1  0.999206  0.664256  0.424678  1
  Al  Al8  1  0.999206  0.664256  0.075322  1
  Al  Al9  1  0.335815  0.001126  0.925673  1
  Al  Al10  1  0.001042  0.335557  0.925696  1
  Al  Al11  1  0.664250  0.999182  0.075168  1
  Al  Al12  1  0.664250  0.999182  0.424832  1
  Al  Al13  1  0.335815  0.001126  0.574327  1
  Al  Al14  1  0.332874  0.332890  0.049381  1
  Al  Al15  1  0.667096  0.667179  0.951595  1
  Al  Al16  1  0.667096  0.667179  0.548405  1
  Al  Al17  1  0.332874  0.332890  0.450619  1
  Al  Al18  1  0.339813  0.549743  0.750000  1
  Al  Al19  1  0.660142  0.449968  0.250000  1
  Al  Al20  1  0.549371  0.338971  0.750000  1
  Al  Al21  1  0.449883  0.660229  0.250000  1
  Rh  Rh22  1  0.672231  0.328097  0.500004  1
  Rh  Rh23  1  0.327862  0.672124  0.500007  1
  Rh  Rh24  1  0.327862  0.672124  0.999993  1
  Rh  Rh25  1  0.672231  0.328097  0.999996  1
  Rh  Rh26  1  0.000078  0.000035  0.499960  1
  Rh  Rh27  1  0.000078  0.000035  0.000040  1
