# generated using pymatgen
data_Yb3(RhPb)2
_symmetry_space_group_name_H-M   'P 1'
_cell_length_a   5.92503300
_cell_length_b   8.18107500
_cell_length_c   14.17106800
_cell_angle_alpha   90.00000000
_cell_angle_beta   90.00000000
_cell_angle_gamma   90.00000000
_symmetry_Int_Tables_number   1
_chemical_formula_structural   Yb3(RhPb)2
_chemical_formula_sum   'Yb12 Rh8 Pb8'
_cell_volume   686.91615391
_cell_formula_units_Z   4
loop_
 _symmetry_equiv_pos_site_id
 _symmetry_equiv_pos_as_xyz
  1  'x, y, z'
loop_
 _atom_site_type_symbol
 _atom_site_label
 _atom_site_symmetry_multiplicity
 _atom_site_fract_x
 _atom_site_fract_y
 _atom_site_fract_z
 _atom_site_occupancy
  Yb  Yb0  1  0.173849  0.602308  0.088828  1
  Yb  Yb1  1  0.173849  0.897692  0.911172  1
  Yb  Yb2  1  0.826151  0.102308  0.411172  1
  Yb  Yb3  1  0.826151  0.397692  0.588828  1
  Yb  Yb4  1  0.826151  0.397692  0.911172  1
  Yb  Yb5  1  0.826151  0.102308  0.088828  1
  Yb  Yb6  1  0.173849  0.897692  0.588828  1
  Yb  Yb7  1  0.173849  0.602308  0.411172  1
  Yb  Yb8  1  0.389971  0.242527  0.250000  1
  Yb  Yb9  1  0.389971  0.257473  0.750000  1
  Yb  Yb10  1  0.610029  0.742527  0.250000  1
  Yb  Yb11  1  0.610029  0.757473  0.750000  1
  Rh  Rh12  1  0.632380  0.457665  0.093377  1
  Rh  Rh13  1  0.632380  0.042335  0.906623  1
  Rh  Rh14  1  0.367620  0.957665  0.406623  1
  Rh  Rh15  1  0.367620  0.542335  0.593377  1
  Rh  Rh16  1  0.367620  0.542335  0.906623  1
  Rh  Rh17  1  0.367620  0.957665  0.093377  1
  Rh  Rh18  1  0.632380  0.042335  0.593377  1
  Rh  Rh19  1  0.632380  0.457665  0.406623  1
  Pb  Pb20  1  0.335233  0.250000  0.000000  1
  Pb  Pb21  1  0.664767  0.750000  0.500000  1
  Pb  Pb22  1  0.664767  0.750000  0.000000  1
  Pb  Pb23  1  0.335233  0.250000  0.500000  1
  Pb  Pb24  1  0.891975  0.400054  0.250000  1
  Pb  Pb25  1  0.891975  0.099946  0.750000  1
  Pb  Pb26  1  0.108025  0.900054  0.250000  1
  Pb  Pb27  1  0.108025  0.599946  0.750000  1
