# generated using pymatgen
data_YPaTaB2Ru5
_symmetry_space_group_name_H-M   'P 1'
_cell_length_a   9.66610300
_cell_length_b   9.66610311
_cell_length_c   3.12945800
_cell_angle_alpha   90.00000000
_cell_angle_beta   90.00000000
_cell_angle_gamma   90.23759840
_symmetry_Int_Tables_number   1
_chemical_formula_structural   YPaTaB2Ru5
_chemical_formula_sum   'Y2 Pa2 Ta2 B4 Ru10'
_cell_volume   292.39385105
_cell_formula_units_Z   2
loop_
 _symmetry_equiv_pos_site_id
 _symmetry_equiv_pos_as_xyz
  1  'x, y, z'
loop_
 _atom_site_type_symbol
 _atom_site_label
 _atom_site_symmetry_multiplicity
 _atom_site_fract_x
 _atom_site_fract_y
 _atom_site_fract_z
 _atom_site_occupancy
  Y  Y0  1  0.824914  0.675086  0.000000  1
  Y  Y1  1  0.175086  0.324914  0.000000  1
  Pa  Pa2  1  0.322960  0.822960  0.000000  1
  Pa  Pa3  1  0.677040  0.177040  0.000000  1
  Ta  Ta4  1  0.500000  0.500000  0.000000  1
  Ta  Ta5  1  0.000000  0.000000  0.000000  1
  B  B6  1  0.623408  0.876592  0.000000  1
  B  B7  1  0.376592  0.123408  0.000000  1
  B  B8  1  0.117730  0.617730  0.000000  1
  B  B9  1  0.882270  0.382270  0.000000  1
  Ru  Ru10  1  0.565384  0.720880  0.500000  1
  Ru  Ru11  1  0.434616  0.279120  0.500000  1
  Ru  Ru12  1  0.074610  0.782199  0.500000  1
  Ru  Ru13  1  0.925390  0.217801  0.500000  1
  Ru  Ru14  1  0.282199  0.574610  0.500000  1
  Ru  Ru15  1  0.717801  0.425390  0.500000  1
  Ru  Ru16  1  0.220880  0.065384  0.500000  1
  Ru  Ru17  1  0.779120  0.934616  0.500000  1
  Ru  Ru18  1  0.500000  0.000000  0.500000  1
  Ru  Ru19  1  0.000000  0.500000  0.500000  1
