# generated using pymatgen
data_NdGd2Y2Sn3
_symmetry_space_group_name_H-M   'P 1'
_cell_length_a   9.04974900
_cell_length_b   8.98601221
_cell_length_c   6.61481300
_cell_angle_alpha   90.00000000
_cell_angle_beta   90.00000000
_cell_angle_gamma   119.76729265
_symmetry_Int_Tables_number   1
_chemical_formula_structural   NdGd2Y2Sn3
_chemical_formula_sum   'Nd2 Gd4 Y4 Sn6'
_cell_volume   466.94459805
_cell_formula_units_Z   2
loop_
 _symmetry_equiv_pos_site_id
 _symmetry_equiv_pos_as_xyz
  1  'x, y, z'
loop_
 _atom_site_type_symbol
 _atom_site_label
 _atom_site_symmetry_multiplicity
 _atom_site_fract_x
 _atom_site_fract_y
 _atom_site_fract_z
 _atom_site_occupancy
  Nd  Nd0  1  0.000000  0.763365  0.750000  1
  Nd  Nd1  1  0.000000  0.236635  0.250000  1
  Gd  Gd2  1  0.332305  0.666153  0.500000  1
  Gd  Gd3  1  0.667695  0.333847  0.000000  1
  Gd  Gd4  1  0.667695  0.333847  0.500000  1
  Gd  Gd5  1  0.332305  0.666153  0.000000  1
  Y  Y6  1  0.757601  0.758735  0.250000  1
  Y  Y7  1  0.757601  0.998866  0.750000  1
  Y  Y8  1  0.242399  0.241265  0.750000  1
  Y  Y9  1  0.242399  0.001134  0.250000  1
  Sn  Sn10  1  0.399095  0.002974  0.750000  1
  Sn  Sn11  1  0.399095  0.396120  0.250000  1
  Sn  Sn12  1  0.000000  0.608805  0.250000  1
  Sn  Sn13  1  0.000000  0.391195  0.750000  1
  Sn  Sn14  1  0.600905  0.603880  0.750000  1
  Sn  Sn15  1  0.600905  0.997026  0.250000  1
