# generated using pymatgen
data_Hf2FeNiAs2
_symmetry_space_group_name_H-M   'P 1'
_cell_length_a   3.84593000
_cell_length_b   6.48825556
_cell_length_c   7.27887198
_cell_angle_alpha   88.56419613
_cell_angle_beta   90.00000000
_cell_angle_gamma   90.00000000
_symmetry_Int_Tables_number   1
_chemical_formula_structural   Hf2FeNiAs2
_chemical_formula_sum   'Hf4 Fe2 Ni2 As4'
_cell_volume   181.57540687
_cell_formula_units_Z   2
loop_
 _symmetry_equiv_pos_site_id
 _symmetry_equiv_pos_as_xyz
  1  'x, y, z'
loop_
 _atom_site_type_symbol
 _atom_site_label
 _atom_site_symmetry_multiplicity
 _atom_site_fract_x
 _atom_site_fract_y
 _atom_site_fract_z
 _atom_site_occupancy
  Hf  Hf0  1  0.250000  0.479593  0.179176  1
  Hf  Hf1  1  0.750000  0.520407  0.820824  1
  Hf  Hf2  1  0.750000  0.016188  0.693867  1
  Hf  Hf3  1  0.250000  0.983812  0.306133  1
  Fe  Fe4  1  0.250000  0.861828  0.937179  1
  Fe  Fe5  1  0.750000  0.138172  0.062821  1
  Ni  Ni6  1  0.750000  0.642832  0.435859  1
  Ni  Ni7  1  0.250000  0.357168  0.564141  1
  As  As8  1  0.250000  0.734739  0.620039  1
  As  As9  1  0.750000  0.265261  0.379961  1
  As  As10  1  0.750000  0.772173  0.110642  1
  As  As11  1  0.250000  0.227827  0.889358  1
