# generated using pymatgen
data_Hf3TiMn2
_symmetry_space_group_name_H-M   'P 1'
_cell_length_a   8.34442249
_cell_length_b   8.34442193
_cell_length_c   8.34442200
_cell_angle_alpha   59.99999973
_cell_angle_beta   60.00000195
_cell_angle_gamma   60.00000137
_symmetry_Int_Tables_number   1
_chemical_formula_structural   Hf3TiMn2
_chemical_formula_sum   'Hf12 Ti4 Mn8'
_cell_volume   410.84103296
_cell_formula_units_Z   4
loop_
 _symmetry_equiv_pos_site_id
 _symmetry_equiv_pos_as_xyz
  1  'x, y, z'
loop_
 _atom_site_type_symbol
 _atom_site_label
 _atom_site_symmetry_multiplicity
 _atom_site_fract_x
 _atom_site_fract_y
 _atom_site_fract_z
 _atom_site_occupancy
  Hf  Hf0  1  0.432971  0.817029  0.817029  1
  Hf  Hf1  1  0.817029  0.432971  0.432971  1
  Hf  Hf2  1  0.817029  0.432971  0.817029  1
  Hf  Hf3  1  0.432971  0.817029  0.432971  1
  Hf  Hf4  1  0.817029  0.817029  0.432971  1
  Hf  Hf5  1  0.432971  0.432971  0.817029  1
  Hf  Hf6  1  0.567029  0.182971  0.182971  1
  Hf  Hf7  1  0.182971  0.567029  0.567029  1
  Hf  Hf8  1  0.182971  0.567029  0.182971  1
  Hf  Hf9  1  0.567029  0.182971  0.567029  1
  Hf  Hf10  1  0.182971  0.182971  0.567029  1
  Hf  Hf11  1  0.567029  0.567029  0.182971  1
  Ti  Ti12  1  0.000000  0.000000  0.500000  1
  Ti  Ti13  1  0.000000  0.500000  0.000000  1
  Ti  Ti14  1  0.500000  0.000000  0.000000  1
  Ti  Ti15  1  0.000000  0.000000  0.000000  1
  Mn  Mn16  1  0.207162  0.207162  0.878513  1
  Mn  Mn17  1  0.207162  0.878513  0.207162  1
  Mn  Mn18  1  0.878513  0.207162  0.207162  1
  Mn  Mn19  1  0.207162  0.207162  0.207162  1
  Mn  Mn20  1  0.792838  0.792838  0.121487  1
  Mn  Mn21  1  0.792838  0.121487  0.792838  1
  Mn  Mn22  1  0.121487  0.792838  0.792838  1
  Mn  Mn23  1  0.792838  0.792838  0.792838  1
