# generated using pymatgen
data_Na3LiCu2F12
_symmetry_space_group_name_H-M   'P 1'
_cell_length_a   5.14609000
_cell_length_b   5.14609000
_cell_length_c   18.24279300
_cell_angle_alpha   90.00000000
_cell_angle_beta   90.00000000
_cell_angle_gamma   90.00000000
_symmetry_Int_Tables_number   1
_chemical_formula_structural   Na3LiCu2F12
_chemical_formula_sum   'Na6 Li2 Cu4 F24'
_cell_volume   483.11006424
_cell_formula_units_Z   2
loop_
 _symmetry_equiv_pos_site_id
 _symmetry_equiv_pos_as_xyz
  1  'x, y, z'
loop_
 _atom_site_type_symbol
 _atom_site_label
 _atom_site_symmetry_multiplicity
 _atom_site_fract_x
 _atom_site_fract_y
 _atom_site_fract_z
 _atom_site_occupancy
  Na  Na0  1  0.000000  0.500000  0.303779  1
  Na  Na1  1  0.500000  0.000000  0.696221  1
  Na  Na2  1  0.500000  0.000000  0.196221  1
  Na  Na3  1  0.000000  0.500000  0.803779  1
  Na  Na4  1  0.000000  0.000000  0.500000  1
  Na  Na5  1  0.500000  0.500000  0.000000  1
  Li  Li6  1  0.000000  0.000000  0.000000  1
  Li  Li7  1  0.500000  0.500000  0.500000  1
  Cu  Cu8  1  0.000000  0.500000  0.122355  1
  Cu  Cu9  1  0.500000  0.000000  0.877645  1
  Cu  Cu10  1  0.500000  0.000000  0.377645  1
  Cu  Cu11  1  0.000000  0.500000  0.622355  1
  F  F12  1  0.216957  0.200412  0.381153  1
  F  F13  1  0.783043  0.799588  0.381153  1
  F  F14  1  0.200412  0.783043  0.618847  1
  F  F15  1  0.283043  0.700412  0.118847  1
  F  F16  1  0.799588  0.216957  0.618847  1
  F  F17  1  0.716957  0.299588  0.118847  1
  F  F18  1  0.299588  0.283043  0.881153  1
  F  F19  1  0.700412  0.716957  0.881153  1
  F  F20  1  0.147609  0.292981  0.196822  1
  F  F21  1  0.852391  0.707019  0.196822  1
  F  F22  1  0.292981  0.852391  0.803178  1
  F  F23  1  0.352391  0.792981  0.303178  1
  F  F24  1  0.707019  0.147609  0.803178  1
  F  F25  1  0.647609  0.207019  0.303178  1
  F  F26  1  0.207019  0.352391  0.696822  1
  F  F27  1  0.792981  0.647609  0.696822  1
  F  F28  1  0.153976  0.284724  0.049001  1
  F  F29  1  0.846024  0.715276  0.049001  1
  F  F30  1  0.284724  0.846024  0.950999  1
  F  F31  1  0.346024  0.784724  0.450999  1
  F  F32  1  0.715276  0.153976  0.950999  1
  F  F33  1  0.653976  0.215276  0.450999  1
  F  F34  1  0.215276  0.346024  0.549001  1
  F  F35  1  0.784724  0.653976  0.549001  1
