# generated using pymatgen
data_Y2UAlGa2Ir3
_symmetry_space_group_name_H-M   'P 1'
_cell_length_a   7.21573718
_cell_length_b   7.29855446
_cell_length_c   3.84436300
_cell_angle_alpha   90.00000000
_cell_angle_beta   90.00000000
_cell_angle_gamma   120.38038962
_symmetry_Int_Tables_number   1
_chemical_formula_structural   Y2UAlGa2Ir3
_chemical_formula_sum   'Y2 U1 Al1 Ga2 Ir3'
_cell_volume   174.66066520
_cell_formula_units_Z   1
loop_
 _symmetry_equiv_pos_site_id
 _symmetry_equiv_pos_as_xyz
  1  'x, y, z'
loop_
 _atom_site_type_symbol
 _atom_site_label
 _atom_site_symmetry_multiplicity
 _atom_site_fract_x
 _atom_site_fract_y
 _atom_site_fract_z
 _atom_site_occupancy
  Y  Y0  1  0.411467  0.413700  0.500000  1
  Y  Y1  1  0.588533  0.002233  0.500000  1
  U  U2  1  0.000000  0.583065  0.500000  1
  Al  Al3  1  0.000000  0.230110  0.000000  1
  Ga  Ga4  1  0.740602  0.751554  0.000000  1
  Ga  Ga5  1  0.259398  0.010952  0.000000  1
  Ir  Ir6  1  0.707059  0.363421  0.000000  1
  Ir  Ir7  1  0.292941  0.656362  0.000000  1
  Ir  Ir8  1  0.000000  0.988602  0.500000  1
