# generated using pymatgen
data_ErTmCo2(NiB2)2
_symmetry_space_group_name_H-M   'P 1'
_cell_length_a   4.89103411
_cell_length_b   4.89103486
_cell_length_c   6.97419523
_cell_angle_alpha   58.86997979
_cell_angle_beta   58.86997658
_cell_angle_gamma   62.06701758
_symmetry_Int_Tables_number   1
_chemical_formula_structural   ErTmCo2(NiB2)2
_chemical_formula_sum   'Er1 Tm1 Co2 Ni2 B4'
_cell_volume   117.54983068
_cell_formula_units_Z   1
loop_
 _symmetry_equiv_pos_site_id
 _symmetry_equiv_pos_as_xyz
  1  'x, y, z'
loop_
 _atom_site_type_symbol
 _atom_site_label
 _atom_site_symmetry_multiplicity
 _atom_site_fract_x
 _atom_site_fract_y
 _atom_site_fract_z
 _atom_site_occupancy
  Er  Er0  1  0.873150  0.126850  0.250000  1
  Tm  Tm1  1  0.124667  0.875333  0.750000  1
  Co  Co2  1  0.466874  0.270271  0.703094  1
  Co  Co3  1  0.729729  0.533126  0.796906  1
  Ni  Ni4  1  0.530777  0.733799  0.294668  1
  Ni  Ni5  1  0.266201  0.469223  0.205332  1
  B  B6  1  0.163412  0.495723  0.523787  1
  B  B7  1  0.504277  0.836588  0.976213  1
  B  B8  1  0.831393  0.490479  0.487409  1
  B  B9  1  0.509521  0.168607  0.012591  1
