# generated using pymatgen
data_Dy12Y4MgCo4Hg3
_symmetry_space_group_name_H-M   'P 1'
_cell_length_a   9.49473121
_cell_length_b   9.47379568
_cell_length_c   9.47379709
_cell_angle_alpha   60.01206773
_cell_angle_beta   60.08619621
_cell_angle_gamma   60.08619389
_symmetry_Int_Tables_number   1
_chemical_formula_structural   Dy12Y4MgCo4Hg3
_chemical_formula_sum   'Dy12 Y4 Mg1 Co4 Hg3'
_cell_volume   603.42049062
_cell_formula_units_Z   1
loop_
 _symmetry_equiv_pos_site_id
 _symmetry_equiv_pos_as_xyz
  1  'x, y, z'
loop_
 _atom_site_type_symbol
 _atom_site_label
 _atom_site_symmetry_multiplicity
 _atom_site_fract_x
 _atom_site_fract_y
 _atom_site_fract_z
 _atom_site_occupancy
  Dy  Dy0  1  0.346119  0.344578  0.344578  1
  Dy  Dy1  1  0.347847  0.345977  0.962194  1
  Dy  Dy2  1  0.347847  0.962194  0.345977  1
  Dy  Dy3  1  0.952231  0.349783  0.349783  1
  Dy  Dy4  1  0.808846  0.189760  0.189760  1
  Dy  Dy5  1  0.184340  0.813111  0.813111  1
  Dy  Dy6  1  0.185887  0.812235  0.187560  1
  Dy  Dy7  1  0.809170  0.188580  0.810611  1
  Dy  Dy8  1  0.185887  0.187560  0.812235  1
  Dy  Dy9  1  0.809170  0.810611  0.188580  1
  Dy  Dy10  1  0.939085  0.560984  0.560984  1
  Dy  Dy11  1  0.560048  0.939033  0.939033  1
  Y  Y12  1  0.561102  0.939307  0.562635  1
  Y  Y13  1  0.937800  0.561289  0.939184  1
  Y  Y14  1  0.561102  0.562635  0.939307  1
  Y  Y15  1  0.937800  0.939184  0.561289  1
  Mg  Mg16  1  0.285043  0.571229  0.571229  1
  Co  Co17  1  0.138722  0.142416  0.142416  1
  Co  Co18  1  0.139218  0.143254  0.577578  1
  Co  Co19  1  0.139218  0.577578  0.143254  1
  Co  Co20  1  0.577319  0.141769  0.141769  1
  Hg  Hg21  1  0.581910  0.584961  0.584961  1
  Hg  Hg22  1  0.582143  0.585861  0.246114  1
  Hg  Hg23  1  0.582143  0.246114  0.585861  1
