# generated using pymatgen
data_Hf5ScCo16(P6Ru)2
_symmetry_space_group_name_H-M   'P 1'
_cell_length_a   11.89410237
_cell_length_b   11.94571960
_cell_length_c   3.64767300
_cell_angle_alpha   90.00000000
_cell_angle_beta   90.00000000
_cell_angle_gamma   120.02652513
_symmetry_Int_Tables_number   1
_chemical_formula_structural   Hf5ScCo16(P6Ru)2
_chemical_formula_sum   'Hf5 Sc1 Co16 P12 Ru2'
_cell_volume   448.71891464
_cell_formula_units_Z   1
loop_
 _symmetry_equiv_pos_site_id
 _symmetry_equiv_pos_as_xyz
  1  'x, y, z'
loop_
 _atom_site_type_symbol
 _atom_site_label
 _atom_site_symmetry_multiplicity
 _atom_site_fract_x
 _atom_site_fract_y
 _atom_site_fract_z
 _atom_site_occupancy
  Hf  Hf0  1  0.822011  0.819928  0.500000  1
  Hf  Hf1  1  0.999755  0.175198  0.500000  1
  Hf  Hf2  1  0.667213  0.333702  0.000000  1
  Hf  Hf3  1  0.000169  0.556419  0.000000  1
  Hf  Hf4  1  0.177635  0.997671  0.500000  1
  Sc  Sc5  1  0.333922  0.666543  0.000000  1
  Co  Co6  1  0.625852  0.821879  0.000000  1
  Co  Co7  1  0.376436  0.196504  0.000000  1
  Co  Co8  1  0.999764  0.722056  0.500000  1
  Co  Co9  1  0.282678  0.280804  0.500000  1
  Co  Co10  1  0.869993  0.351373  0.500000  1
  Co  Co11  1  0.717754  0.999253  0.500000  1
  Co  Co12  1  0.817106  0.628287  0.000000  1
  Co  Co13  1  0.181270  0.811013  0.000000  1
  Co  Co14  1  0.356725  0.875694  0.500000  1
  Co  Co15  1  0.127484  0.478005  0.500000  1
  Co  Co16  1  0.642225  0.515617  0.500000  1
  Co  Co17  1  0.000011  0.000842  0.000000  1
  Co  Co18  1  0.517034  0.646632  0.500000  1
  Co  Co19  1  0.485547  0.131375  0.500000  1
  Co  Co20  1  0.195172  0.369051  0.000000  1
  Co  Co21  1  0.804353  0.175843  0.000000  1
  P  P22  1  0.000759  0.346301  0.000000  1
  P  P23  1  0.825116  0.515406  0.500000  1
  P  P24  1  0.684809  0.165478  0.500000  1
  P  P25  1  0.177516  0.174801  0.000000  1
  P  P26  1  0.639875  0.645018  0.000000  1
  P  P27  1  0.822705  0.998333  0.000000  1
  P  P28  1  0.516938  0.833371  0.500000  1
  P  P29  1  0.175472  0.689959  0.500000  1
  P  P30  1  0.359516  0.003849  0.000000  1
  P  P31  1  0.482690  0.315808  0.500000  1
  P  P32  1  0.999564  0.825196  0.000000  1
  P  P33  1  0.315315  0.480667  0.500000  1
  Ru  Ru34  1  0.448671  0.451036  0.000000  1
  Ru  Ru35  1  0.550946  0.001086  0.000000  1
