# generated using pymatgen
data_Al3V12Pt
_symmetry_space_group_name_H-M   'P 1'
_cell_length_a   4.80220100
_cell_length_b   4.79085700
_cell_length_c   9.66661400
_cell_angle_alpha   90.00000000
_cell_angle_beta   90.00000000
_cell_angle_gamma   90.00000000
_symmetry_Int_Tables_number   1
_chemical_formula_structural   Al3V12Pt
_chemical_formula_sum   'Al3 V12 Pt1'
_cell_volume   222.39648499
_cell_formula_units_Z   1
loop_
 _symmetry_equiv_pos_site_id
 _symmetry_equiv_pos_as_xyz
  1  'x, y, z'
loop_
 _atom_site_type_symbol
 _atom_site_label
 _atom_site_symmetry_multiplicity
 _atom_site_fract_x
 _atom_site_fract_y
 _atom_site_fract_z
 _atom_site_occupancy
  Al  Al0  1  0.500000  0.500000  0.500000  1
  Al  Al1  1  0.000000  0.000000  0.749139  1
  Al  Al2  1  0.000000  0.000000  0.250861  1
  V  V3  1  0.000000  0.500000  0.120568  1
  V  V4  1  0.000000  0.500000  0.630910  1
  V  V5  1  0.500000  0.251337  0.750571  1
  V  V6  1  0.500000  0.251337  0.249429  1
  V  V7  1  0.751440  0.000000  0.000000  1
  V  V8  1  0.757563  0.000000  0.500000  1
  V  V9  1  0.000000  0.500000  0.879432  1
  V  V10  1  0.000000  0.500000  0.369090  1
  V  V11  1  0.500000  0.748663  0.750571  1
  V  V12  1  0.500000  0.748663  0.249429  1
  V  V13  1  0.248560  0.000000  0.000000  1
  V  V14  1  0.242437  0.000000  0.500000  1
  Pt  Pt15  1  0.500000  0.500000  0.000000  1
