# generated using pymatgen
data_Er5Lu2Co6Sn23
_symmetry_space_group_name_H-M   'P 1'
_cell_length_a   9.66407429
_cell_length_b   9.66407428
_cell_length_c   9.94112608
_cell_angle_alpha   89.98722058
_cell_angle_beta   90.01277795
_cell_angle_gamma   120.02479538
_symmetry_Int_Tables_number   1
_chemical_formula_structural   Er5Lu2Co6Sn23
_chemical_formula_sum   'Er5 Lu2 Co6 Sn23'
_cell_volume   803.85580717
_cell_formula_units_Z   1
loop_
 _symmetry_equiv_pos_site_id
 _symmetry_equiv_pos_as_xyz
  1  'x, y, z'
loop_
 _atom_site_type_symbol
 _atom_site_label
 _atom_site_symmetry_multiplicity
 _atom_site_fract_x
 _atom_site_fract_y
 _atom_site_fract_z
 _atom_site_occupancy
  Er  Er0  1  0.479078  0.958176  0.305850  1
  Er  Er1  1  0.520922  0.041824  0.694150  1
  Er  Er2  1  0.041824  0.520922  0.305850  1
  Er  Er3  1  0.958176  0.479078  0.694150  1
  Er  Er4  1  0.000000  0.000000  0.000000  1
  Lu  Lu5  1  0.479284  0.520716  0.305964  1
  Lu  Lu6  1  0.520716  0.479284  0.694036  1
  Co  Co7  1  0.832312  0.167688  0.197373  1
  Co  Co8  1  0.167688  0.832312  0.802627  1
  Co  Co9  1  0.831987  0.664479  0.197504  1
  Co  Co10  1  0.168013  0.335521  0.802496  1
  Co  Co11  1  0.335521  0.168013  0.197504  1
  Co  Co12  1  0.664479  0.831987  0.802496  1
  Sn  Sn13  1  0.118342  0.881658  0.274786  1
  Sn  Sn14  1  0.881658  0.118342  0.725214  1
  Sn  Sn15  1  0.118773  0.237011  0.274821  1
  Sn  Sn16  1  0.881227  0.762989  0.725179  1
  Sn  Sn17  1  0.762989  0.881227  0.274821  1
  Sn  Sn18  1  0.237011  0.118773  0.725179  1
  Sn  Sn19  1  0.780826  0.219174  0.452349  1
  Sn  Sn20  1  0.219174  0.780826  0.547651  1
  Sn  Sn21  1  0.780296  0.561623  0.452290  1
  Sn  Sn22  1  0.219704  0.438377  0.547710  1
  Sn  Sn23  1  0.438377  0.219704  0.452290  1
  Sn  Sn24  1  0.561623  0.780296  0.547710  1
  Sn  Sn25  1  0.345985  0.000081  0.000010  1
  Sn  Sn26  1  0.654015  0.999919  0.999990  1
  Sn  Sn27  1  0.000081  0.345985  0.999990  1
  Sn  Sn28  1  0.999919  0.654015  0.000010  1
  Sn  Sn29  1  0.653978  0.653978  0.000000  1
  Sn  Sn30  1  0.346022  0.346022  0.000000  1
  Sn  Sn31  1  0.333620  0.666380  0.119285  1
  Sn  Sn32  1  0.666380  0.333620  0.880715  1
  Sn  Sn33  1  0.333421  0.666579  0.817550  1
  Sn  Sn34  1  0.666579  0.333421  0.182450  1
  Sn  Sn35  1  0.000000  0.000000  0.500000  1
