# generated using pymatgen
data_Sm2MgSi5PPd20
_symmetry_space_group_name_H-M   'P 1'
_cell_length_a   8.69798974
_cell_length_b   8.70213733
_cell_length_c   8.70213699
_cell_angle_alpha   59.96846989
_cell_angle_beta   60.01576385
_cell_angle_gamma   60.01575827
_symmetry_Int_Tables_number   1
_chemical_formula_structural   Sm2MgSi5PPd20
_chemical_formula_sum   'Sm2 Mg1 Si5 P1 Pd20'
_cell_volume   465.75284652
_cell_formula_units_Z   1
loop_
 _symmetry_equiv_pos_site_id
 _symmetry_equiv_pos_as_xyz
  1  'x, y, z'
loop_
 _atom_site_type_symbol
 _atom_site_label
 _atom_site_symmetry_multiplicity
 _atom_site_fract_x
 _atom_site_fract_y
 _atom_site_fract_z
 _atom_site_occupancy
  Sm  Sm0  1  0.249761  0.250239  0.250239  1
  Sm  Sm1  1  0.749761  0.750239  0.750239  1
  Mg  Mg2  1  0.000596  0.999404  0.999404  1
  Si  Si3  1  0.265821  0.734179  0.734179  1
  Si  Si4  1  0.265114  0.734886  0.266011  1
  Si  Si5  1  0.733989  0.266011  0.734886  1
  Si  Si6  1  0.265114  0.266011  0.734886  1
  Si  Si7  1  0.733989  0.734886  0.266011  1
  P  P8  1  0.734926  0.265074  0.265074  1
  Pd  Pd9  1  0.385941  0.384301  0.384301  1
  Pd  Pd10  1  0.615583  0.615373  0.615373  1
  Pd  Pd11  1  0.384627  0.384417  0.846329  1
  Pd  Pd12  1  0.384627  0.846329  0.384417  1
  Pd  Pd13  1  0.615699  0.614059  0.154543  1
  Pd  Pd14  1  0.615699  0.154543  0.614059  1
  Pd  Pd15  1  0.845457  0.384301  0.384301  1
  Pd  Pd16  1  0.153671  0.615373  0.615373  1
  Pd  Pd17  1  0.344619  0.999655  0.999655  1
  Pd  Pd18  1  0.656070  0.999655  0.999655  1
  Pd  Pd19  1  0.000345  0.343930  0.655381  1
  Pd  Pd20  1  0.000345  0.655381  0.343930  1
  Pd  Pd21  1  0.998501  0.343425  0.001499  1
  Pd  Pd22  1  0.656575  0.001499  0.343425  1
  Pd  Pd23  1  0.000078  0.656030  0.999922  1
  Pd  Pd24  1  0.343970  0.999922  0.656030  1
  Pd  Pd25  1  0.998501  0.001499  0.343425  1
  Pd  Pd26  1  0.000078  0.999922  0.656030  1
  Pd  Pd27  1  0.656575  0.343425  0.001499  1
  Pd  Pd28  1  0.343970  0.656030  0.999922  1
