# generated using pymatgen
data_Li(PrC2)2
_symmetry_space_group_name_H-M   'P 1'
_cell_length_a   7.05998826
_cell_length_b   7.05998877
_cell_length_c   7.05998800
_cell_angle_alpha   134.91158117
_cell_angle_beta   111.45017485
_cell_angle_gamma   85.88797790
_symmetry_Int_Tables_number   1
_chemical_formula_structural   Li(PrC2)2
_chemical_formula_sum   'Li2 Pr4 C8'
_cell_volume   222.47325679
_cell_formula_units_Z   2
loop_
 _symmetry_equiv_pos_site_id
 _symmetry_equiv_pos_as_xyz
  1  'x, y, z'
loop_
 _atom_site_type_symbol
 _atom_site_label
 _atom_site_symmetry_multiplicity
 _atom_site_fract_x
 _atom_site_fract_y
 _atom_site_fract_z
 _atom_site_occupancy
  Li  Li0  1  0.000000  0.250000  0.250000  1
  Li  Li1  1  0.000000  0.750000  0.750000  1
  Pr  Pr2  1  0.194180  0.359446  0.834733  1
  Pr  Pr3  1  0.805820  0.640554  0.165267  1
  Pr  Pr4  1  0.524712  0.859446  0.665267  1
  Pr  Pr5  1  0.475288  0.140554  0.334733  1
  C  C6  1  0.777082  0.127671  0.649412  1
  C  C7  1  0.222918  0.872329  0.350588  1
  C  C8  1  0.478258  0.627671  0.850588  1
  C  C9  1  0.521742  0.372329  0.149412  1
  C  C10  1  0.901015  0.092336  0.808679  1
  C  C11  1  0.098985  0.907664  0.191321  1
  C  C12  1  0.283656  0.592336  0.691321  1
  C  C13  1  0.716344  0.407664  0.308679  1
