# generated using pymatgen
data_Ho7Lu9(ScSb3)4
_symmetry_space_group_name_H-M   'P 1'
_cell_length_a   7.90147012
_cell_length_b   9.08347700
_cell_length_c   11.66127017
_cell_angle_alpha   90.00000000
_cell_angle_beta   89.98031158
_cell_angle_gamma   90.00000000
_symmetry_Int_Tables_number   1
_chemical_formula_structural   Ho7Lu9(ScSb3)4
_chemical_formula_sum   'Ho7 Lu9 Sc4 Sb12'
_cell_volume   836.96221977
_cell_formula_units_Z   1
loop_
 _symmetry_equiv_pos_site_id
 _symmetry_equiv_pos_as_xyz
  1  'x, y, z'
loop_
 _atom_site_type_symbol
 _atom_site_label
 _atom_site_symmetry_multiplicity
 _atom_site_fract_x
 _atom_site_fract_y
 _atom_site_fract_z
 _atom_site_occupancy
  Ho  Ho0  1  0.184417  0.750000  0.721265  1
  Ho  Ho1  1  0.684420  0.750000  0.778702  1
  Ho  Ho2  1  0.815714  0.250000  0.278730  1
  Ho  Ho3  1  0.315737  0.250000  0.221053  1
  Ho  Ho4  1  0.854722  0.750000  0.285160  1
  Ho  Ho5  1  0.354941  0.750000  0.214981  1
  Ho  Ho6  1  0.144868  0.250000  0.715000  1
  Lu  Lu7  1  0.196857  0.562338  0.440607  1
  Lu  Lu8  1  0.696887  0.937463  0.059409  1
  Lu  Lu9  1  0.802843  0.062663  0.560041  1
  Lu  Lu10  1  0.303328  0.437503  0.940295  1
  Lu  Lu11  1  0.802843  0.437337  0.560041  1
  Lu  Lu12  1  0.303328  0.062497  0.940295  1
  Lu  Lu13  1  0.196857  0.937662  0.440607  1
  Lu  Lu14  1  0.696887  0.562537  0.059409  1
  Lu  Lu15  1  0.644856  0.250000  0.784622  1
  Sc  Sc16  1  0.027846  0.750000  0.988476  1
  Sc  Sc17  1  0.528313  0.750000  0.511648  1
  Sc  Sc18  1  0.971911  0.250000  0.011420  1
  Sc  Sc19  1  0.472230  0.250000  0.489122  1
  Sb  Sb20  1  0.932808  0.495749  0.831980  1
  Sb  Sb21  1  0.434352  0.004734  0.668557  1
  Sb  Sb22  1  0.066416  0.996264  0.167941  1
  Sb  Sb23  1  0.566447  0.503692  0.332008  1
  Sb  Sb24  1  0.066416  0.503736  0.167941  1
  Sb  Sb25  1  0.566447  0.996308  0.332008  1
  Sb  Sb26  1  0.932808  0.004251  0.831980  1
  Sb  Sb27  1  0.434352  0.495266  0.668557  1
  Sb  Sb28  1  0.906469  0.750000  0.541148  1
  Sb  Sb29  1  0.406560  0.750000  0.958790  1
  Sb  Sb30  1  0.093292  0.250000  0.458818  1
  Sb  Sb31  1  0.593829  0.250000  0.039388  1
