# generated using pymatgen
data_TbDyEr8(In2Ni)4
_symmetry_space_group_name_H-M   'P 1'
_cell_length_a   3.57093500
_cell_length_b   7.97512328
_cell_length_c   17.84843670
_cell_angle_alpha   89.93596278
_cell_angle_beta   90.00000000
_cell_angle_gamma   90.00000000
_symmetry_Int_Tables_number   1
_chemical_formula_structural   TbDyEr8(In2Ni)4
_chemical_formula_sum   'Tb1 Dy1 Er8 In8 Ni4'
_cell_volume   508.29900843
_cell_formula_units_Z   1
loop_
 _symmetry_equiv_pos_site_id
 _symmetry_equiv_pos_as_xyz
  1  'x, y, z'
loop_
 _atom_site_type_symbol
 _atom_site_label
 _atom_site_symmetry_multiplicity
 _atom_site_fract_x
 _atom_site_fract_y
 _atom_site_fract_z
 _atom_site_occupancy
  Tb  Tb0  1  0.500000  0.500000  0.000000  1
  Dy  Dy1  1  0.500000  0.000000  0.500000  1
  Er  Er2  1  0.500000  0.384352  0.588521  1
  Er  Er3  1  0.500000  0.883561  0.911212  1
  Er  Er4  1  0.500000  0.116439  0.088788  1
  Er  Er5  1  0.500000  0.755778  0.721269  1
  Er  Er6  1  0.500000  0.255378  0.778499  1
  Er  Er7  1  0.500000  0.744622  0.221501  1
  Er  Er8  1  0.500000  0.244222  0.278731  1
  Er  Er9  1  0.500000  0.615648  0.411479  1
  In  In10  1  0.000000  0.795461  0.068447  1
  In  In11  1  0.000000  0.924730  0.348336  1
  In  In12  1  0.000000  0.075270  0.651664  1
  In  In13  1  0.000000  0.574039  0.848057  1
  In  In14  1  0.000000  0.705634  0.568209  1
  In  In15  1  0.000000  0.204539  0.931553  1
  In  In16  1  0.000000  0.294366  0.431791  1
  In  In17  1  0.000000  0.425961  0.151943  1
  Ni  Ni18  1  0.000000  0.977356  0.803691  1
  Ni  Ni19  1  0.000000  0.521546  0.304597  1
  Ni  Ni20  1  0.000000  0.478454  0.695403  1
  Ni  Ni21  1  0.000000  0.022644  0.196309  1
