# generated using pymatgen
data_MnBe4CoIr2
_symmetry_space_group_name_H-M   'P 1'
_cell_length_a   5.52242400
_cell_length_b   3.86601500
_cell_length_c   7.77541500
_cell_angle_alpha   90.00000000
_cell_angle_beta   90.00034586
_cell_angle_gamma   90.00000000
_symmetry_Int_Tables_number   1
_chemical_formula_structural   MnBe4CoIr2
_chemical_formula_sum   'Mn2 Be8 Co2 Ir4'
_cell_volume   166.00335316
_cell_formula_units_Z   2
loop_
 _symmetry_equiv_pos_site_id
 _symmetry_equiv_pos_as_xyz
  1  'x, y, z'
loop_
 _atom_site_type_symbol
 _atom_site_label
 _atom_site_symmetry_multiplicity
 _atom_site_fract_x
 _atom_site_fract_y
 _atom_site_fract_z
 _atom_site_occupancy
  Mn  Mn0  1  0.750005  0.250000  0.123259  1
  Mn  Mn1  1  0.249985  0.749999  0.376662  1
  Be  Be2  1  0.013564  0.749999  0.114381  1
  Be  Be3  1  0.486443  0.749999  0.114382  1
  Be  Be4  1  0.986654  0.250000  0.385509  1
  Be  Be5  1  0.513343  0.250000  0.385509  1
  Be  Be6  1  0.510833  0.749999  0.632920  1
  Be  Be7  1  0.989168  0.749999  0.632927  1
  Be  Be8  1  0.488916  0.250000  0.867193  1
  Be  Be9  1  0.011085  0.250000  0.867191  1
  Co  Co10  1  0.749998  0.250000  0.627973  1
  Co  Co11  1  0.250002  0.749999  0.872100  1
  Ir  Ir12  1  0.250003  0.250000  0.129933  1
  Ir  Ir13  1  0.750000  0.749999  0.370054  1
  Ir  Ir14  1  0.249997  0.250000  0.619142  1
  Ir  Ir15  1  0.750004  0.749999  0.880865  1
