# generated using pymatgen
data_Ho3ErPdPt3
_symmetry_space_group_name_H-M   'P 1'
_cell_length_a   4.50282801
_cell_length_b   5.58725111
_cell_length_c   6.97724879
_cell_angle_alpha   90.10470284
_cell_angle_beta   90.00137529
_cell_angle_gamma   89.99839097
_symmetry_Int_Tables_number   1
_chemical_formula_structural   Ho3ErPdPt3
_chemical_formula_sum   'Ho3 Er1 Pd1 Pt3'
_cell_volume   175.53633735
_cell_formula_units_Z   1
loop_
 _symmetry_equiv_pos_site_id
 _symmetry_equiv_pos_as_xyz
  1  'x, y, z'
loop_
 _atom_site_type_symbol
 _atom_site_label
 _atom_site_symmetry_multiplicity
 _atom_site_fract_x
 _atom_site_fract_y
 _atom_site_fract_z
 _atom_site_occupancy
  Ho  Ho0  1  0.250009  0.642807  0.182061  1
  Ho  Ho1  1  0.749989  0.359834  0.815569  1
  Ho  Ho2  1  0.749979  0.139914  0.321680  1
  Er  Er3  1  0.250030  0.856954  0.681015  1
  Pd  Pd4  1  0.249990  0.155092  0.043636  1
  Pt  Pt5  1  0.749999  0.846714  0.956416  1
  Pt  Pt6  1  0.749994  0.656657  0.454912  1
  Pt  Pt7  1  0.250012  0.342027  0.544711  1
