# generated using pymatgen
data_NaGaBr3
_symmetry_space_group_name_H-M   'P 1'
_cell_length_a   11.33000700
_cell_length_b   6.97180332
_cell_length_c   8.53689562
_cell_angle_alpha   87.79548016
_cell_angle_beta   90.00000000
_cell_angle_gamma   90.00000000
_symmetry_Int_Tables_number   1
_chemical_formula_structural   NaGaBr3
_chemical_formula_sum   'Na4 Ga4 Br12'
_cell_volume   673.83525508
_cell_formula_units_Z   4
loop_
 _symmetry_equiv_pos_site_id
 _symmetry_equiv_pos_as_xyz
  1  'x, y, z'
loop_
 _atom_site_type_symbol
 _atom_site_label
 _atom_site_symmetry_multiplicity
 _atom_site_fract_x
 _atom_site_fract_y
 _atom_site_fract_z
 _atom_site_occupancy
  Na  Na0  1  0.500000  0.000000  0.500000  1
  Na  Na1  1  0.500000  0.500000  0.000000  1
  Na  Na2  1  0.000000  0.000000  0.500000  1
  Na  Na3  1  0.000000  0.500000  0.000000  1
  Ga  Ga4  1  0.250000  0.035587  0.965816  1
  Ga  Ga5  1  0.750000  0.862811  0.761302  1
  Ga  Ga6  1  0.750000  0.964413  0.034184  1
  Ga  Ga7  1  0.250000  0.137189  0.238698  1
  Br  Br8  1  0.583006  0.664752  0.689444  1
  Br  Br9  1  0.416994  0.335248  0.310556  1
  Br  Br10  1  0.916994  0.664752  0.689444  1
  Br  Br11  1  0.750000  0.306167  0.071977  1
  Br  Br12  1  0.080846  0.164804  0.819353  1
  Br  Br13  1  0.580846  0.835196  0.180647  1
  Br  Br14  1  0.919154  0.835196  0.180647  1
  Br  Br15  1  0.419154  0.164804  0.819353  1
  Br  Br16  1  0.083006  0.335248  0.310556  1
  Br  Br17  1  0.750000  0.121255  0.562157  1
  Br  Br18  1  0.250000  0.878745  0.437843  1
  Br  Br19  1  0.250000  0.693833  0.928023  1
