# generated using pymatgen
data_LaSb12Ru3Rh
_symmetry_space_group_name_H-M   'P 1'
_cell_length_a   8.12929853
_cell_length_b   8.14732263
_cell_length_c   8.12929850
_cell_angle_alpha   109.51613701
_cell_angle_beta   109.42626187
_cell_angle_gamma   109.51613962
_symmetry_Int_Tables_number   1
_chemical_formula_structural   LaSb12Ru3Rh
_chemical_formula_sum   'La1 Sb12 Ru3 Rh1'
_cell_volume   414.24582319
_cell_formula_units_Z   1
loop_
 _symmetry_equiv_pos_site_id
 _symmetry_equiv_pos_as_xyz
  1  'x, y, z'
loop_
 _atom_site_type_symbol
 _atom_site_label
 _atom_site_symmetry_multiplicity
 _atom_site_fract_x
 _atom_site_fract_y
 _atom_site_fract_z
 _atom_site_occupancy
  La  La0  1  0.000000  0.000000  0.000000  1
  Sb  Sb1  1  0.158263  0.819108  0.660814  1
  Sb  Sb2  1  0.841737  0.180892  0.339186  1
  Sb  Sb3  1  0.841002  0.502635  0.658483  1
  Sb  Sb4  1  0.158998  0.497365  0.341517  1
  Sb  Sb5  1  0.817481  0.661633  0.158998  1
  Sb  Sb6  1  0.182519  0.338367  0.841002  1
  Sb  Sb7  1  0.502551  0.660845  0.841737  1
  Sb  Sb8  1  0.497449  0.339155  0.158263  1
  Sb  Sb9  1  0.658483  0.155848  0.817481  1
  Sb  Sb10  1  0.341517  0.844152  0.182519  1
  Sb  Sb11  1  0.660814  0.841707  0.502551  1
  Sb  Sb12  1  0.339186  0.158293  0.497449  1
  Ru  Ru13  1  0.000000  0.000000  0.500000  1
  Ru  Ru14  1  0.500000  0.000000  0.000000  1
  Ru  Ru15  1  0.500000  0.500000  0.500000  1
  Rh  Rh16  1  0.000000  0.500000  0.000000  1
