# generated using pymatgen
data_U2Pa(NiP2)3
_symmetry_space_group_name_H-M   'P 1'
_cell_length_a   3.82762500
_cell_length_b   3.82103400
_cell_length_c   13.30094600
_cell_angle_alpha   90.00000000
_cell_angle_beta   90.00000000
_cell_angle_gamma   90.00000000
_symmetry_Int_Tables_number   1
_chemical_formula_structural   U2Pa(NiP2)3
_chemical_formula_sum   'U2 Pa1 Ni3 P6'
_cell_volume   194.53278972
_cell_formula_units_Z   1
loop_
 _symmetry_equiv_pos_site_id
 _symmetry_equiv_pos_as_xyz
  1  'x, y, z'
loop_
 _atom_site_type_symbol
 _atom_site_label
 _atom_site_symmetry_multiplicity
 _atom_site_fract_x
 _atom_site_fract_y
 _atom_site_fract_z
 _atom_site_occupancy
  U  U0  1  0.500000  0.000000  0.354380  1
  U  U1  1  0.500000  0.000000  0.656888  1
  Pa  Pa2  1  0.000000  0.500000  0.988320  1
  Ni  Ni3  1  0.000000  0.000000  0.174016  1
  Ni  Ni4  1  0.500000  0.500000  0.170748  1
  Ni  Ni5  1  0.000000  0.000000  0.823202  1
  P  P6  1  0.500000  0.000000  0.081502  1
  P  P7  1  0.500000  0.000000  0.908624  1
  P  P8  1  0.000000  0.500000  0.273671  1
  P  P9  1  0.000000  0.500000  0.730506  1
  P  P10  1  0.500000  0.500000  0.505524  1
  P  P11  1  0.000000  0.000000  0.505316  1
