# generated using pymatgen
data_Y4GaOs3Ru4
_symmetry_space_group_name_H-M   'P 1'
_cell_length_a   5.21079900
_cell_length_b   5.21079726
_cell_length_c   9.09515800
_cell_angle_alpha   90.00000000
_cell_angle_beta   90.00000000
_cell_angle_gamma   116.77183714
_symmetry_Int_Tables_number   1
_chemical_formula_structural   Y4GaOs3Ru4
_chemical_formula_sum   'Y4 Ga1 Os3 Ru4'
_cell_volume   220.48370261
_cell_formula_units_Z   1
loop_
 _symmetry_equiv_pos_site_id
 _symmetry_equiv_pos_as_xyz
  1  'x, y, z'
loop_
 _atom_site_type_symbol
 _atom_site_label
 _atom_site_symmetry_multiplicity
 _atom_site_fract_x
 _atom_site_fract_y
 _atom_site_fract_z
 _atom_site_occupancy
  Y  Y0  1  0.332542  0.667458  0.433946  1
  Y  Y1  1  0.671265  0.328735  0.568171  1
  Y  Y2  1  0.671265  0.328735  0.931829  1
  Y  Y3  1  0.332542  0.667458  0.066054  1
  Ga  Ga4  1  0.832611  0.167389  0.250000  1
  Os  Os5  1  0.158640  0.841360  0.750000  1
  Os  Os6  1  0.177294  0.352579  0.750000  1
  Os  Os7  1  0.647421  0.822706  0.750000  1
  Ru  Ru8  1  0.006667  0.993333  0.501238  1
  Ru  Ru9  1  0.006667  0.993333  0.998762  1
  Ru  Ru10  1  0.821981  0.658894  0.250000  1
  Ru  Ru11  1  0.341106  0.178019  0.250000  1
