# generated using pymatgen
data_LaPrSm2GeI5
_symmetry_space_group_name_H-M   'P 1'
_cell_length_a   10.06323104
_cell_length_b   10.06323054
_cell_length_c   9.18751819
_cell_angle_alpha   77.89400394
_cell_angle_beta   77.89400390
_cell_angle_gamma   25.06229870
_symmetry_Int_Tables_number   1
_chemical_formula_structural   LaPrSm2GeI5
_chemical_formula_sum   'La1 Pr1 Sm2 Ge1 I5'
_cell_volume   384.92074770
_cell_formula_units_Z   1
loop_
 _symmetry_equiv_pos_site_id
 _symmetry_equiv_pos_as_xyz
  1  'x, y, z'
loop_
 _atom_site_type_symbol
 _atom_site_label
 _atom_site_symmetry_multiplicity
 _atom_site_fract_x
 _atom_site_fract_y
 _atom_site_fract_z
 _atom_site_occupancy
  La  La0  1  0.501163  0.501163  0.219717  1
  Pr  Pr1  1  0.498968  0.498968  0.785205  1
  Sm  Sm2  1  0.853684  0.853684  0.072648  1
  Sm  Sm3  1  0.146419  0.146419  0.923991  1
  Ge  Ge4  1  0.000113  0.000113  0.000413  1
  I  I5  1  0.674961  0.674961  0.159066  1
  I  I6  1  0.326536  0.326536  0.837576  1
  I  I7  1  0.667493  0.667493  0.671253  1
  I  I8  1  0.330685  0.330685  0.326931  1
  I  I9  1  0.999977  0.999977  0.503200  1
