# generated using pymatgen
data_SrU3(Al8Pt3)3
_symmetry_space_group_name_H-M   'P 1'
_cell_length_a   7.56335191
_cell_length_b   7.59800042
_cell_length_c   13.19709308
_cell_angle_alpha   84.45063185
_cell_angle_beta   78.88397822
_cell_angle_gamma   59.98283700
_symmetry_Int_Tables_number   1
_chemical_formula_structural   SrU3(Al8Pt3)3
_chemical_formula_sum   'Sr1 U3 Al24 Pt9'
_cell_volume   644.35037520
_cell_formula_units_Z   1
loop_
 _symmetry_equiv_pos_site_id
 _symmetry_equiv_pos_as_xyz
  1  'x, y, z'
loop_
 _atom_site_type_symbol
 _atom_site_label
 _atom_site_symmetry_multiplicity
 _atom_site_fract_x
 _atom_site_fract_y
 _atom_site_fract_z
 _atom_site_occupancy
  Sr  Sr0  1  0.393649  0.167847  0.810143  1
  U  U1  1  0.605095  0.831352  0.197119  1
  U  U2  1  0.735520  0.499050  0.801384  1
  U  U3  1  0.263667  0.503406  0.195398  1
  Al  Al4  1  0.684978  0.831142  0.948724  1
  Al  Al5  1  0.316477  0.165509  0.057969  1
  Al  Al6  1  0.146251  0.833437  0.560189  1
  Al  Al7  1  0.853410  0.166045  0.438994  1
  Al  Al8  1  0.481321  0.167186  0.557727  1
  Al  Al9  1  0.518633  0.834338  0.441455  1
  Al  Al10  1  0.215942  0.165985  0.329397  1
  Al  Al11  1  0.784163  0.836766  0.666750  1
  Al  Al12  1  0.436960  0.506139  0.667672  1
  Al  Al13  1  0.564132  0.491210  0.329906  1
  Al  Al14  1  0.113212  0.157238  0.666671  1
  Al  Al15  1  0.890691  0.842369  0.330598  1
  Al  Al16  1  0.353012  0.501206  0.948300  1
  Al  Al17  1  0.644772  0.502580  0.054324  1
  Al  Al18  1  0.011439  0.168662  0.954760  1
  Al  Al19  1  0.983939  0.830103  0.048890  1
  Al  Al20  1  0.186909  0.500109  0.441434  1
  Al  Al21  1  0.814296  0.499164  0.557081  1
  Al  Al22  1  0.735781  0.163609  0.182084  1
  Al  Al23  1  0.267709  0.826914  0.817521  1
  Al  Al24  1  0.052648  0.636964  0.816434  1
  Al  Al25  1  0.937674  0.368604  0.182902  1
  Al  Al26  1  0.861513  0.043649  0.817639  1
  Al  Al27  1  0.144319  0.959177  0.182475  1
  Pt  Pt28  1  0.118069  0.494475  0.637545  1
  Pt  Pt29  1  0.880288  0.508148  0.359585  1
  Pt  Pt30  1  0.657635  0.170333  0.001896  1
  Pt  Pt31  1  0.340230  0.831020  0.000998  1
  Pt  Pt32  1  0.538659  0.166706  0.360346  1
  Pt  Pt33  1  0.463324  0.830304  0.637272  1
  Pt  Pt34  1  0.782174  0.173915  0.636349  1
  Pt  Pt35  1  0.222038  0.826145  0.361225  1
  Pt  Pt36  1  0.999470  0.499195  0.000846  1
