# generated using pymatgen
data_AcWN3
_symmetry_space_group_name_H-M   'P 1'
_cell_length_a   5.80789795
_cell_length_b   5.80789807
_cell_length_c   5.80789699
_cell_angle_alpha   59.66510316
_cell_angle_beta   59.66510367
_cell_angle_gamma   59.66509741
_symmetry_Int_Tables_number   1
_chemical_formula_structural   AcWN3
_chemical_formula_sum   'Ac2 W2 N6'
_cell_volume   137.47532836
_cell_formula_units_Z   2
loop_
 _symmetry_equiv_pos_site_id
 _symmetry_equiv_pos_as_xyz
  1  'x, y, z'
loop_
 _atom_site_type_symbol
 _atom_site_label
 _atom_site_symmetry_multiplicity
 _atom_site_fract_x
 _atom_site_fract_y
 _atom_site_fract_z
 _atom_site_occupancy
  Ac  Ac0  1  0.256068  0.256068  0.256068  1
  Ac  Ac1  1  0.756068  0.756068  0.756068  1
  W  W2  1  0.009534  0.009534  0.009534  1
  W  W3  1  0.509534  0.509534  0.509534  1
  N  N4  1  0.253721  0.737223  0.225166  1
  N  N5  1  0.753720  0.725166  0.237223  1
  N  N6  1  0.737222  0.225166  0.253721  1
  N  N7  1  0.237222  0.753721  0.725166  1
  N  N8  1  0.225167  0.253720  0.737222  1
  N  N9  1  0.725166  0.237224  0.753720  1
