# generated using pymatgen
data_Ho16Mg3TlIr4
_symmetry_space_group_name_H-M   'P 1'
_cell_length_a   9.63302523
_cell_length_b   9.63302491
_cell_length_c   9.63302600
_cell_angle_alpha   60.00903410
_cell_angle_beta   60.00903522
_cell_angle_gamma   60.00903723
_symmetry_Int_Tables_number   1
_chemical_formula_structural   Ho16Mg3TlIr4
_chemical_formula_sum   'Ho16 Mg3 Tl1 Ir4'
_cell_volume   632.21103216
_cell_formula_units_Z   1
loop_
 _symmetry_equiv_pos_site_id
 _symmetry_equiv_pos_as_xyz
  1  'x, y, z'
loop_
 _atom_site_type_symbol
 _atom_site_label
 _atom_site_symmetry_multiplicity
 _atom_site_fract_x
 _atom_site_fract_y
 _atom_site_fract_z
 _atom_site_occupancy
  Ho  Ho0  1  0.345221  0.345221  0.345221  1
  Ho  Ho1  1  0.348770  0.348770  0.957773  1
  Ho  Ho2  1  0.348770  0.957773  0.348770  1
  Ho  Ho3  1  0.957773  0.348770  0.348770  1
  Ho  Ho4  1  0.811046  0.187661  0.187661  1
  Ho  Ho5  1  0.187346  0.809299  0.809299  1
  Ho  Ho6  1  0.187661  0.811046  0.187661  1
  Ho  Ho7  1  0.809299  0.187346  0.809299  1
  Ho  Ho8  1  0.187661  0.187661  0.811046  1
  Ho  Ho9  1  0.809299  0.809299  0.187346  1
  Ho  Ho10  1  0.937297  0.563753  0.563753  1
  Ho  Ho11  1  0.560826  0.938251  0.938251  1
  Ho  Ho12  1  0.563753  0.937297  0.563753  1
  Ho  Ho13  1  0.938251  0.560826  0.938251  1
  Ho  Ho14  1  0.563753  0.563753  0.937297  1
  Ho  Ho15  1  0.938251  0.938251  0.560826  1
  Mg  Mg16  1  0.579234  0.579234  0.263760  1
  Mg  Mg17  1  0.579234  0.263760  0.579234  1
  Mg  Mg18  1  0.263760  0.579234  0.579234  1
  Tl  Tl19  1  0.582450  0.582450  0.582450  1
  Ir  Ir20  1  0.141578  0.141578  0.141578  1
  Ir  Ir21  1  0.140746  0.140746  0.577278  1
  Ir  Ir22  1  0.140746  0.577278  0.140746  1
  Ir  Ir23  1  0.577278  0.140746  0.140746  1
