# generated using pymatgen
data_TmCuTeO6
_symmetry_space_group_name_H-M   'P 1'
_cell_length_a   5.13681311
_cell_length_b   5.13734172
_cell_length_c   9.68235928
_cell_angle_alpha   90.02574741
_cell_angle_beta   89.97750424
_cell_angle_gamma   120.00163726
_symmetry_Int_Tables_number   1
_chemical_formula_structural   TmCuTeO6
_chemical_formula_sum   'Tm2 Cu2 Te2 O12'
_cell_volume   221.27728192
_cell_formula_units_Z   2
loop_
 _symmetry_equiv_pos_site_id
 _symmetry_equiv_pos_as_xyz
  1  'x, y, z'
loop_
 _atom_site_type_symbol
 _atom_site_label
 _atom_site_symmetry_multiplicity
 _atom_site_fract_x
 _atom_site_fract_y
 _atom_site_fract_z
 _atom_site_occupancy
  Tm  Tm0  1  0.000064  0.000015  0.999973  1
  Tm  Tm1  1  0.000054  0.000046  0.500027  1
  Cu  Cu2  1  0.333376  0.666741  0.250002  1
  Cu  Cu3  1  0.666569  0.333220  0.750002  1
  Te  Te4  1  0.666591  0.333237  0.249999  1
  Te  Te5  1  0.333226  0.666678  0.750000  1
  O  O6  1  0.646816  0.636568  0.136958  1
  O  O7  1  0.363435  0.010156  0.137000  1
  O  O8  1  0.989822  0.353283  0.137011  1
  O  O9  1  0.363464  0.353269  0.362995  1
  O  O10  1  0.989756  0.636565  0.363043  1
  O  O11  1  0.646716  0.010144  0.362992  1
  O  O12  1  0.353146  0.989667  0.636978  1
  O  O13  1  0.636549  0.646726  0.637004  1
  O  O14  1  0.010454  0.363451  0.636920  1
  O  O15  1  0.010357  0.646870  0.863016  1
  O  O16  1  0.636593  0.989875  0.863004  1
  O  O17  1  0.353006  0.363481  0.863077  1
