# generated using pymatgen
data_Zr4InHgAu4
_symmetry_space_group_name_H-M   'P 1'
_cell_length_a   7.62755700
_cell_length_b   7.62755700
_cell_length_c   7.13666500
_cell_angle_alpha   90.00000000
_cell_angle_beta   90.00000000
_cell_angle_gamma   90.00000000
_symmetry_Int_Tables_number   1
_chemical_formula_structural   Zr4InHgAu4
_chemical_formula_sum   'Zr8 In2 Hg2 Au8'
_cell_volume   415.20849908
_cell_formula_units_Z   2
loop_
 _symmetry_equiv_pos_site_id
 _symmetry_equiv_pos_as_xyz
  1  'x, y, z'
loop_
 _atom_site_type_symbol
 _atom_site_label
 _atom_site_symmetry_multiplicity
 _atom_site_fract_x
 _atom_site_fract_y
 _atom_site_fract_z
 _atom_site_occupancy
  Zr  Zr0  1  0.144235  0.147280  0.000000  1
  Zr  Zr1  1  0.855765  0.852720  0.000000  1
  Zr  Zr2  1  0.647280  0.355765  0.500000  1
  Zr  Zr3  1  0.352720  0.644235  0.500000  1
  Zr  Zr4  1  0.692576  0.300621  0.000000  1
  Zr  Zr5  1  0.307424  0.699379  0.000000  1
  Zr  Zr6  1  0.800621  0.807424  0.500000  1
  Zr  Zr7  1  0.199379  0.192576  0.500000  1
  In  In8  1  0.000000  0.500000  0.250000  1
  In  In9  1  0.000000  0.500000  0.750000  1
  Hg  Hg10  1  0.500000  0.000000  0.250000  1
  Hg  Hg11  1  0.500000  0.000000  0.750000  1
  Au  Au12  1  0.368831  0.371552  0.204914  1
  Au  Au13  1  0.631169  0.628448  0.795086  1
  Au  Au14  1  0.631169  0.628448  0.204914  1
  Au  Au15  1  0.871552  0.131169  0.704914  1
  Au  Au16  1  0.871552  0.131169  0.295086  1
  Au  Au17  1  0.368831  0.371552  0.795086  1
  Au  Au18  1  0.128448  0.868831  0.295086  1
  Au  Au19  1  0.128448  0.868831  0.704914  1
