# generated using pymatgen
data_Ga(CoMo)6
_symmetry_space_group_name_H-M   'P 1'
_cell_length_a   8.92834791
_cell_length_b   8.92834807
_cell_length_c   8.92834926
_cell_angle_alpha   31.18262496
_cell_angle_beta   31.18262074
_cell_angle_gamma   31.18262549
_symmetry_Int_Tables_number   1
_chemical_formula_structural   Ga(CoMo)6
_chemical_formula_sum   'Ga1 Co6 Mo6'
_cell_volume   169.31105468
_cell_formula_units_Z   1
loop_
 _symmetry_equiv_pos_site_id
 _symmetry_equiv_pos_as_xyz
  1  'x, y, z'
loop_
 _atom_site_type_symbol
 _atom_site_label
 _atom_site_symmetry_multiplicity
 _atom_site_fract_x
 _atom_site_fract_y
 _atom_site_fract_z
 _atom_site_occupancy
  Ga  Ga0  1  0.000000  0.000000  0.000000  1
  Co  Co1  1  0.090369  0.090369  0.583549  1
  Co  Co2  1  0.416451  0.909631  0.909631  1
  Co  Co3  1  0.583549  0.090369  0.090369  1
  Co  Co4  1  0.909631  0.909631  0.416451  1
  Co  Co5  1  0.909631  0.416451  0.909631  1
  Co  Co6  1  0.090369  0.583549  0.090369  1
  Mo  Mo7  1  0.832271  0.832271  0.832271  1
  Mo  Mo8  1  0.652144  0.652144  0.652144  1
  Mo  Mo9  1  0.450480  0.450480  0.450480  1
  Mo  Mo10  1  0.549520  0.549520  0.549520  1
  Mo  Mo11  1  0.167729  0.167729  0.167729  1
  Mo  Mo12  1  0.347856  0.347856  0.347856  1
