# generated using pymatgen
data_Li3Ce4Co8(P4Ru3)3
_symmetry_space_group_name_H-M   'P 1'
_cell_length_a   3.78069100
_cell_length_b   10.70143661
_cell_length_c   12.39476519
_cell_angle_alpha   89.68020799
_cell_angle_beta   90.00000000
_cell_angle_gamma   90.00000000
_symmetry_Int_Tables_number   1
_chemical_formula_structural   Li3Ce4Co8(P4Ru3)3
_chemical_formula_sum   'Li3 Ce4 Co8 P12 Ru9'
_cell_volume   501.46982568
_cell_formula_units_Z   1
loop_
 _symmetry_equiv_pos_site_id
 _symmetry_equiv_pos_as_xyz
  1  'x, y, z'
loop_
 _atom_site_type_symbol
 _atom_site_label
 _atom_site_symmetry_multiplicity
 _atom_site_fract_x
 _atom_site_fract_y
 _atom_site_fract_z
 _atom_site_occupancy
  Li  Li0  1  0.250000  0.700874  0.989350  1
  Li  Li1  1  0.250000  0.799019  0.488823  1
  Li  Li2  1  0.750000  0.299204  0.011143  1
  Ce  Ce3  1  0.250000  0.579845  0.704942  1
  Ce  Ce4  1  0.250000  0.919410  0.207944  1
  Ce  Ce5  1  0.750000  0.419030  0.296364  1
  Ce  Ce6  1  0.750000  0.082096  0.792568  1
  Co  Co7  1  0.250000  0.882871  0.692769  1
  Co  Co8  1  0.250000  0.618216  0.191936  1
  Co  Co9  1  0.750000  0.114371  0.306991  1
  Co  Co10  1  0.750000  0.380249  0.806779  1
  Co  Co11  1  0.250000  0.464840  0.934540  1
  Co  Co12  1  0.250000  0.034907  0.434360  1
  Co  Co13  1  0.750000  0.534886  0.064527  1
  Co  Co14  1  0.750000  0.965301  0.565719  1
  P  P15  1  0.250000  0.430911  0.111704  1
  P  P16  1  0.250000  0.071762  0.608054  1
  P  P17  1  0.750000  0.568891  0.887244  1
  P  P18  1  0.750000  0.926096  0.389893  1
  P  P19  1  0.250000  0.276258  0.863324  1
  P  P20  1  0.250000  0.223585  0.369908  1
  P  P21  1  0.750000  0.724483  0.135003  1
  P  P22  1  0.750000  0.776637  0.634936  1
  P  P23  1  0.250000  0.605782  0.386589  1
  P  P24  1  0.250000  0.895538  0.885511  1
  P  P25  1  0.750000  0.392380  0.611641  1
  P  P26  1  0.750000  0.106031  0.116606  1
  Ru  Ru27  1  0.750000  0.206427  0.509389  1
  Ru  Ru28  1  0.250000  0.405057  0.480134  1
  Ru  Ru29  1  0.250000  0.095404  0.979941  1
  Ru  Ru30  1  0.750000  0.593580  0.520058  1
  Ru  Ru31  1  0.750000  0.906663  0.020456  1
  Ru  Ru32  1  0.250000  0.224499  0.179040  1
  Ru  Ru33  1  0.250000  0.276602  0.673806  1
  Ru  Ru34  1  0.750000  0.777172  0.824617  1
  Ru  Ru35  1  0.750000  0.721122  0.323393  1
