# generated using pymatgen
data_Rb5Th(CrH9)3
_symmetry_space_group_name_H-M   'P 1'
_cell_length_a   9.10144500
_cell_length_b   8.79568923
_cell_length_c   5.17472900
_cell_angle_alpha   90.00000000
_cell_angle_beta   90.00000000
_cell_angle_gamma   118.89480908
_symmetry_Int_Tables_number   1
_chemical_formula_structural   Rb5Th(CrH9)3
_chemical_formula_sum   'Rb5 Th1 Cr3 H27'
_cell_volume   362.68375881
_cell_formula_units_Z   1
loop_
 _symmetry_equiv_pos_site_id
 _symmetry_equiv_pos_as_xyz
  1  'x, y, z'
loop_
 _atom_site_type_symbol
 _atom_site_label
 _atom_site_symmetry_multiplicity
 _atom_site_fract_x
 _atom_site_fract_y
 _atom_site_fract_z
 _atom_site_occupancy
  Rb  Rb0  1  0.729648  0.740160  0.500000  1
  Rb  Rb1  1  0.270352  0.010511  0.500000  1
  Rb  Rb2  1  0.000000  0.625820  0.000000  1
  Rb  Rb3  1  0.440313  0.398156  0.000000  1
  Rb  Rb4  1  0.559687  0.957845  0.000000  1
  Th  Th5  1  0.000000  0.279546  0.500000  1
  Cr  Cr6  1  0.700302  0.321075  0.500000  1
  Cr  Cr7  1  0.299698  0.620774  0.500000  1
  Cr  Cr8  1  0.000000  0.055761  0.000000  1
  H  H9  1  0.796206  0.302714  0.755207  1
  H  H10  1  0.717531  0.463594  0.707634  1
  H  H11  1  0.561334  0.207187  0.711249  1
  H  H12  1  0.203794  0.506509  0.244793  1
  H  H13  1  0.561334  0.207187  0.288751  1
  H  H14  1  0.796206  0.302714  0.244793  1
  H  H15  1  0.717531  0.463594  0.292366  1
  H  H16  1  0.282469  0.746065  0.707634  1
  H  H17  1  0.438666  0.645854  0.711249  1
  H  H18  1  0.165147  0.039604  0.000000  1
  H  H19  1  0.834853  0.874457  0.000000  1
  H  H20  1  0.000000  0.244062  0.000000  1
  H  H21  1  0.867041  0.042874  0.220321  1
  H  H22  1  0.132959  0.175832  0.779679  1
  H  H23  1  0.000000  0.923092  0.793722  1
  H  H24  1  0.000000  0.923092  0.206278  1
  H  H25  1  0.132959  0.175832  0.220321  1
  H  H26  1  0.867041  0.042874  0.779679  1
  H  H27  1  0.110702  0.591657  0.500000  1
  H  H28  1  0.452859  0.808947  0.500000  1
  H  H29  1  0.308471  0.437803  0.500000  1
  H  H30  1  0.547141  0.356088  0.500000  1
  H  H31  1  0.889298  0.480955  0.500000  1
  H  H32  1  0.691529  0.129333  0.500000  1
  H  H33  1  0.203794  0.506509  0.755207  1
  H  H34  1  0.282469  0.746065  0.292366  1
  H  H35  1  0.438666  0.645854  0.288751  1
