# generated using pymatgen
data_Sc8Re11Si16Ir
_symmetry_space_group_name_H-M   'P 1'
_cell_length_a   6.62427769
_cell_length_b   6.62427769
_cell_length_c   12.49616201
_cell_angle_alpha   89.95398054
_cell_angle_beta   90.04601946
_cell_angle_gamma   90.29640590
_symmetry_Int_Tables_number   1
_chemical_formula_structural   Sc8Re11Si16Ir
_chemical_formula_sum   'Sc8 Re11 Si16 Ir1'
_cell_volume   548.33708221
_cell_formula_units_Z   1
loop_
 _symmetry_equiv_pos_site_id
 _symmetry_equiv_pos_as_xyz
  1  'x, y, z'
loop_
 _atom_site_type_symbol
 _atom_site_label
 _atom_site_symmetry_multiplicity
 _atom_site_fract_x
 _atom_site_fract_y
 _atom_site_fract_z
 _atom_site_occupancy
  Sc  Sc0  1  0.007536  0.658282  0.031114  1
  Sc  Sc1  1  0.994694  0.337184  0.532013  1
  Sc  Sc2  1  0.337184  0.994694  0.467987  1
  Sc  Sc3  1  0.158734  0.492034  0.781542  1
  Sc  Sc4  1  0.842718  0.505384  0.278957  1
  Sc  Sc5  1  0.492034  0.158734  0.218458  1
  Sc  Sc6  1  0.505384  0.842718  0.721043  1
  Sc  Sc7  1  0.658282  0.007536  0.968886  1
  Re  Re8  1  0.167632  0.830919  0.250044  1
  Re  Re9  1  0.331572  0.331572  0.000000  1
  Re  Re10  1  0.019893  0.812794  0.631740  1
  Re  Re11  1  0.980613  0.189194  0.134079  1
  Re  Re12  1  0.812794  0.019893  0.368260  1
  Re  Re13  1  0.314151  0.482654  0.384204  1
  Re  Re14  1  0.686704  0.516962  0.882682  1
  Re  Re15  1  0.482654  0.314151  0.615796  1
  Re  Re16  1  0.516962  0.686704  0.117318  1
  Re  Re17  1  0.189194  0.980613  0.865921  1
  Re  Re18  1  0.830919  0.167632  0.749956  1
  Si  Si19  1  0.027758  0.722068  0.437832  1
  Si  Si20  1  0.618425  0.303229  0.430499  1
  Si  Si21  1  0.380644  0.695337  0.930496  1
  Si  Si22  1  0.195470  0.120428  0.680033  1
  Si  Si23  1  0.303229  0.618425  0.569501  1
  Si  Si24  1  0.695337  0.380644  0.069504  1
  Si  Si25  1  0.805324  0.880010  0.180189  1
  Si  Si26  1  0.120428  0.195470  0.319967  1
  Si  Si27  1  0.974893  0.275741  0.938424  1
  Si  Si28  1  0.722068  0.027758  0.562168  1
  Si  Si29  1  0.222845  0.474215  0.188422  1
  Si  Si30  1  0.777492  0.524819  0.689314  1
  Si  Si31  1  0.474215  0.222845  0.811578  1
  Si  Si32  1  0.524819  0.777492  0.310686  1
  Si  Si33  1  0.275741  0.974893  0.061576  1
  Si  Si34  1  0.880010  0.805324  0.819811  1
  Ir  Ir35  1  0.671649  0.671649  0.500000  1
