# generated using pymatgen
data_Er2ZnInRh
_symmetry_space_group_name_H-M   'P 1'
_cell_length_a   7.66829000
_cell_length_b   7.66185400
_cell_length_c   3.70346000
_cell_angle_alpha   90.00000000
_cell_angle_beta   90.00000000
_cell_angle_gamma   90.00000000
_symmetry_Int_Tables_number   1
_chemical_formula_structural   Er2ZnInRh
_chemical_formula_sum   'Er4 Zn2 In2 Rh2'
_cell_volume   217.59056460
_cell_formula_units_Z   2
loop_
 _symmetry_equiv_pos_site_id
 _symmetry_equiv_pos_as_xyz
  1  'x, y, z'
loop_
 _atom_site_type_symbol
 _atom_site_label
 _atom_site_symmetry_multiplicity
 _atom_site_fract_x
 _atom_site_fract_y
 _atom_site_fract_z
 _atom_site_occupancy
  Er  Er0  1  0.331358  0.808282  0.500000  1
  Er  Er1  1  0.831358  0.691718  0.500000  1
  Er  Er2  1  0.175245  0.351574  0.500000  1
  Er  Er3  1  0.675245  0.148426  0.500000  1
  Zn  Zn4  1  0.372189  0.118734  0.000000  1
  Zn  Zn5  1  0.872189  0.381266  0.000000  1
  In  In6  1  0.005313  0.003715  0.000000  1
  In  In7  1  0.505313  0.496285  0.000000  1
  Rh  Rh8  1  0.115895  0.622265  0.000000  1
  Rh  Rh9  1  0.615895  0.877735  0.000000  1
