# generated using pymatgen
data_TaCoB2W
_symmetry_space_group_name_H-M   'P 1'
_cell_length_a   4.57515457
_cell_length_b   4.57515419
_cell_length_c   4.57515374
_cell_angle_alpha   138.86297718
_cell_angle_beta   119.24145755
_cell_angle_gamma   76.01726682
_symmetry_Int_Tables_number   1
_chemical_formula_structural   TaCoB2W
_chemical_formula_sum   'Ta1 Co1 B2 W1'
_cell_volume   53.62675226
_cell_formula_units_Z   1
loop_
 _symmetry_equiv_pos_site_id
 _symmetry_equiv_pos_as_xyz
  1  'x, y, z'
loop_
 _atom_site_type_symbol
 _atom_site_label
 _atom_site_symmetry_multiplicity
 _atom_site_fract_x
 _atom_site_fract_y
 _atom_site_fract_z
 _atom_site_occupancy
  Ta  Ta0  1  0.705669  0.205669  0.500000  1
  Co  Co1  1  0.000489  0.000489  0.000000  1
  B  B2  1  0.701817  0.498379  0.203438  1
  B  B3  1  0.294941  0.498379  0.796562  1
  W  W4  1  0.297084  0.797084  0.500000  1
