# generated using pymatgen
data_TbEuCuTe3
_symmetry_space_group_name_H-M   'P 1'
_cell_length_a   7.49075297
_cell_length_b   7.49075387
_cell_length_c   11.33992600
_cell_angle_alpha   90.00000000
_cell_angle_beta   90.00000000
_cell_angle_gamma   146.39597136
_symmetry_Int_Tables_number   1
_chemical_formula_structural   TbEuCuTe3
_chemical_formula_sum   'Tb2 Eu2 Cu2 Te6'
_cell_volume   352.15973921
_cell_formula_units_Z   2
loop_
 _symmetry_equiv_pos_site_id
 _symmetry_equiv_pos_as_xyz
  1  'x, y, z'
loop_
 _atom_site_type_symbol
 _atom_site_label
 _atom_site_symmetry_multiplicity
 _atom_site_fract_x
 _atom_site_fract_y
 _atom_site_fract_z
 _atom_site_occupancy
  Tb  Tb0  1  0.499999  0.499999  0.000000  1
  Tb  Tb1  1  0.499999  0.499999  0.500000  1
  Eu  Eu2  1  0.740806  0.259193  0.250000  1
  Eu  Eu3  1  0.259193  0.740806  0.750000  1
  Cu  Cu4  1  0.029143  0.970855  0.250000  1
  Cu  Cu5  1  0.970855  0.029143  0.750000  1
  Te  Te6  1  0.144169  0.855829  0.067163  1
  Te  Te7  1  0.416925  0.583074  0.250000  1
  Te  Te8  1  0.144169  0.855829  0.432837  1
  Te  Te9  1  0.855829  0.144169  0.567163  1
  Te  Te10  1  0.583074  0.416925  0.750000  1
  Te  Te11  1  0.855829  0.144169  0.932836  1
