# generated using pymatgen
data_Dy2Er4Al24Os5Pt3
_symmetry_space_group_name_H-M   'P 1'
_cell_length_a   8.79951449
_cell_length_b   8.81855317
_cell_length_c   9.54302972
_cell_angle_alpha   90.14254323
_cell_angle_beta   89.74267961
_cell_angle_gamma   119.48855360
_symmetry_Int_Tables_number   1
_chemical_formula_structural   Dy2Er4Al24Os5Pt3
_chemical_formula_sum   'Dy2 Er4 Al24 Os5 Pt3'
_cell_volume   644.59031340
_cell_formula_units_Z   1
loop_
 _symmetry_equiv_pos_site_id
 _symmetry_equiv_pos_as_xyz
  1  'x, y, z'
loop_
 _atom_site_type_symbol
 _atom_site_label
 _atom_site_symmetry_multiplicity
 _atom_site_fract_x
 _atom_site_fract_y
 _atom_site_fract_z
 _atom_site_occupancy
  Dy  Dy0  1  0.187555  0.383044  0.250987  1
  Dy  Dy1  1  0.812445  0.616956  0.749013  1
  Er  Er2  1  0.612298  0.813992  0.252330  1
  Er  Er3  1  0.387702  0.186008  0.747670  1
  Er  Er4  1  0.196313  0.808362  0.251881  1
  Er  Er5  1  0.803687  0.191638  0.748119  1
  Al  Al6  1  0.335374  0.671326  0.029863  1
  Al  Al7  1  0.664626  0.328674  0.970137  1
  Al  Al8  1  0.669049  0.331204  0.527975  1
  Al  Al9  1  0.330951  0.668796  0.472025  1
  Al  Al10  1  0.158018  0.325295  0.575981  1
  Al  Al11  1  0.841982  0.674705  0.424019  1
  Al  Al12  1  0.673447  0.840811  0.575808  1
  Al  Al13  1  0.837025  0.676439  0.078711  1
  Al  Al14  1  0.326553  0.159189  0.424192  1
  Al  Al15  1  0.162975  0.323561  0.921289  1
  Al  Al16  1  0.163988  0.835273  0.576372  1
  Al  Al17  1  0.325543  0.158693  0.076694  1
  Al  Al18  1  0.836012  0.164727  0.423628  1
  Al  Al19  1  0.674457  0.841307  0.923306  1
  Al  Al20  1  0.831667  0.159164  0.077729  1
  Al  Al21  1  0.168333  0.840836  0.922271  1
  Al  Al22  1  0.560649  0.124451  0.249796  1
  Al  Al23  1  0.439351  0.875549  0.750204  1
  Al  Al24  1  0.874185  0.438230  0.252623  1
  Al  Al25  1  0.125815  0.561770  0.747377  1
  Al  Al26  1  0.562746  0.436931  0.249725  1
  Al  Al27  1  0.437254  0.563069  0.750275  1
  Al  Al28  1  0.998529  0.001628  0.250210  1
  Al  Al29  1  0.001471  0.998372  0.749790  1
  Os  Os30  1  0.500000  0.000000  0.000000  1
  Os  Os31  1  0.500000  0.000000  0.500000  1
  Os  Os32  1  0.000000  0.500000  0.500000  1
  Os  Os33  1  0.000000  0.000000  0.000000  1
  Os  Os34  1  0.000000  0.000000  0.500000  1
  Pt  Pt35  1  0.000000  0.500000  0.000000  1
  Pt  Pt36  1  0.500000  0.500000  0.000000  1
  Pt  Pt37  1  0.500000  0.500000  0.500000  1
