# generated using pymatgen
data_AcNd(CdSn)2
_symmetry_space_group_name_H-M   'P 1'
_cell_length_a   4.86940100
_cell_length_b   4.86939955
_cell_length_c   17.31449000
_cell_angle_alpha   90.00000000
_cell_angle_beta   90.00000000
_cell_angle_gamma   120.00001667
_symmetry_Int_Tables_number   1
_chemical_formula_structural   AcNd(CdSn)2
_chemical_formula_sum   'Ac2 Nd2 Cd4 Sn4'
_cell_volume   355.54224814
_cell_formula_units_Z   2
loop_
 _symmetry_equiv_pos_site_id
 _symmetry_equiv_pos_as_xyz
  1  'x, y, z'
loop_
 _atom_site_type_symbol
 _atom_site_label
 _atom_site_symmetry_multiplicity
 _atom_site_fract_x
 _atom_site_fract_y
 _atom_site_fract_z
 _atom_site_occupancy
  Ac  Ac0  1  0.000000  0.000000  0.500000  1
  Ac  Ac1  1  0.000000  0.000000  0.000000  1
  Nd  Nd2  1  0.000000  0.000000  0.250000  1
  Nd  Nd3  1  0.000000  0.000000  0.750000  1
  Cd  Cd4  1  0.333333  0.666667  0.339804  1
  Cd  Cd5  1  0.666667  0.333333  0.660196  1
  Cd  Cd6  1  0.666667  0.333333  0.839804  1
  Cd  Cd7  1  0.333333  0.666667  0.160196  1
  Sn  Sn8  1  0.333333  0.666667  0.882888  1
  Sn  Sn9  1  0.666667  0.333333  0.117112  1
  Sn  Sn10  1  0.666667  0.333333  0.382888  1
  Sn  Sn11  1  0.333333  0.666667  0.617112  1
