# generated using pymatgen
data_PaBe11Co2
_symmetry_space_group_name_H-M   'P 1'
_cell_length_a   7.26838119
_cell_length_b   7.28012054
_cell_length_c   7.19218887
_cell_angle_alpha   60.29155621
_cell_angle_beta   60.45105771
_cell_angle_gamma   59.25521603
_symmetry_Int_Tables_number   1
_chemical_formula_structural   PaBe11Co2
_chemical_formula_sum   'Pa2 Be22 Co4'
_cell_volume   269.03231209
_cell_formula_units_Z   2
loop_
 _symmetry_equiv_pos_site_id
 _symmetry_equiv_pos_as_xyz
  1  'x, y, z'
loop_
 _atom_site_type_symbol
 _atom_site_label
 _atom_site_symmetry_multiplicity
 _atom_site_fract_x
 _atom_site_fract_y
 _atom_site_fract_z
 _atom_site_occupancy
  Pa  Pa0  1  0.249997  0.250003  0.249998  1
  Pa  Pa1  1  0.750003  0.749997  0.750002  1
  Be  Be2  1  0.500000  0.500000  0.500000  1
  Be  Be3  1  0.000000  0.000000  0.000000  1
  Be  Be4  1  0.282552  0.933197  0.717447  1
  Be  Be5  1  0.717448  0.066803  0.282553  1
  Be  Be6  1  0.933249  0.282614  0.066750  1
  Be  Be7  1  0.066751  0.717386  0.933250  1
  Be  Be8  1  0.202848  0.797094  0.561300  1
  Be  Be9  1  0.797152  0.202906  0.438700  1
  Be  Be10  1  0.438698  0.561242  0.797150  1
  Be  Be11  1  0.561302  0.438758  0.202850  1
  Be  Be12  1  0.714433  0.285593  0.930896  1
  Be  Be13  1  0.285567  0.714407  0.069104  1
  Be  Be14  1  0.069105  0.930921  0.285567  1
  Be  Be15  1  0.930895  0.069079  0.714433  1
  Be  Be16  1  0.557260  0.204438  0.795586  1
  Be  Be17  1  0.442740  0.795562  0.204414  1
  Be  Be18  1  0.795586  0.442715  0.557259  1
  Be  Be19  1  0.204414  0.557285  0.442741  1
  Be  Be20  1  0.937897  0.708188  0.291749  1
  Be  Be21  1  0.062103  0.291812  0.708251  1
  Be  Be22  1  0.291749  0.062167  0.937895  1
  Be  Be23  1  0.708251  0.937833  0.062105  1
  Co  Co24  1  0.810299  0.558113  0.189701  1
  Co  Co25  1  0.189701  0.441887  0.810299  1
  Co  Co26  1  0.558103  0.810326  0.441896  1
  Co  Co27  1  0.441897  0.189674  0.558104  1
