# generated using pymatgen
data_Tb2Dy3Y3(CdIr)2
_symmetry_space_group_name_H-M   'P 1'
_cell_length_a   9.65715477
_cell_length_b   9.65715425
_cell_length_c   9.65715400
_cell_angle_alpha   59.99999401
_cell_angle_beta   59.99999577
_cell_angle_gamma   59.99999740
_symmetry_Int_Tables_number   1
_chemical_formula_structural   Tb2Dy3Y3(CdIr)2
_chemical_formula_sum   'Tb4 Dy6 Y6 Cd4 Ir4'
_cell_volume   636.84314293
_cell_formula_units_Z   2
loop_
 _symmetry_equiv_pos_site_id
 _symmetry_equiv_pos_as_xyz
  1  'x, y, z'
loop_
 _atom_site_type_symbol
 _atom_site_label
 _atom_site_symmetry_multiplicity
 _atom_site_fract_x
 _atom_site_fract_y
 _atom_site_fract_z
 _atom_site_occupancy
  Tb  Tb0  1  0.348850  0.348850  0.348850  1
  Tb  Tb1  1  0.348850  0.348850  0.953448  1
  Tb  Tb2  1  0.348850  0.953448  0.348850  1
  Tb  Tb3  1  0.953448  0.348850  0.348850  1
  Dy  Dy4  1  0.810503  0.189497  0.189497  1
  Dy  Dy5  1  0.189497  0.810503  0.810503  1
  Dy  Dy6  1  0.189497  0.810503  0.189497  1
  Dy  Dy7  1  0.810503  0.189497  0.810503  1
  Dy  Dy8  1  0.189497  0.189497  0.810503  1
  Dy  Dy9  1  0.810503  0.810503  0.189497  1
  Y  Y10  1  0.937919  0.562081  0.562081  1
  Y  Y11  1  0.562081  0.937919  0.937919  1
  Y  Y12  1  0.562081  0.937919  0.562081  1
  Y  Y13  1  0.937919  0.562081  0.937919  1
  Y  Y14  1  0.562081  0.562081  0.937919  1
  Y  Y15  1  0.937919  0.937919  0.562081  1
  Cd  Cd16  1  0.580803  0.580803  0.580803  1
  Cd  Cd17  1  0.580803  0.580803  0.257591  1
  Cd  Cd18  1  0.580803  0.257591  0.580803  1
  Cd  Cd19  1  0.257591  0.580803  0.580803  1
  Ir  Ir20  1  0.141387  0.141387  0.141387  1
  Ir  Ir21  1  0.141387  0.141387  0.575839  1
  Ir  Ir22  1  0.141387  0.575839  0.141387  1
  Ir  Ir23  1  0.575839  0.141387  0.141387  1
