# generated using pymatgen
data_Ta5Ti7Al8(AuC)4
_symmetry_space_group_name_H-M   'P 1'
_cell_length_a   8.35866320
_cell_length_b   8.35491781
_cell_length_c   8.35733991
_cell_angle_alpha   60.01978952
_cell_angle_beta   59.94095559
_cell_angle_gamma   60.01423190
_symmetry_Int_Tables_number   1
_chemical_formula_structural   Ta5Ti7Al8(AuC)4
_chemical_formula_sum   'Ta5 Ti7 Al8 Au4 C4'
_cell_volume   412.61919006
_cell_formula_units_Z   1
loop_
 _symmetry_equiv_pos_site_id
 _symmetry_equiv_pos_as_xyz
  1  'x, y, z'
loop_
 _atom_site_type_symbol
 _atom_site_label
 _atom_site_symmetry_multiplicity
 _atom_site_fract_x
 _atom_site_fract_y
 _atom_site_fract_z
 _atom_site_occupancy
  Ta  Ta0  1  0.929369  0.928080  0.571609  1
  Ta  Ta1  1  0.680946  0.321419  0.319819  1
  Ta  Ta2  1  0.319117  0.679622  0.679521  1
  Ta  Ta3  1  0.679074  0.677430  0.320703  1
  Ta  Ta4  1  0.679149  0.321384  0.677602  1
  Ti  Ti5  1  0.320466  0.680131  0.320958  1
  Ti  Ti6  1  0.572359  0.928654  0.569918  1
  Ti  Ti7  1  0.572794  0.927991  0.929828  1
  Ti  Ti8  1  0.929416  0.571963  0.570163  1
  Ti  Ti9  1  0.928794  0.572061  0.929623  1
  Ti  Ti10  1  0.319638  0.321628  0.680186  1
  Ti  Ti11  1  0.570993  0.570100  0.930151  1
  Al  Al12  1  0.912569  0.262689  0.912681  1
  Al  Al13  1  0.334978  0.335221  0.992353  1
  Al  Al14  1  0.995311  0.334812  0.334784  1
  Al  Al15  1  0.335456  0.337949  0.337382  1
  Al  Al16  1  0.261904  0.912628  0.912754  1
  Al  Al17  1  0.912604  0.912092  0.914685  1
  Al  Al18  1  0.912775  0.912667  0.259893  1
  Al  Al19  1  0.334998  0.991617  0.335327  1
  Au  Au20  1  0.125971  0.624962  0.125248  1
  Au  Au21  1  0.126089  0.126035  0.625541  1
  Au  Au22  1  0.624132  0.125589  0.125275  1
  Au  Au23  1  0.126108  0.124501  0.122987  1
  C  C24  1  0.618972  0.123525  0.628260  1
  C  C25  1  0.622808  0.627648  0.120542  1
  C  C26  1  0.126622  0.620052  0.624243  1
  C  C27  1  0.626589  0.627550  0.627963  1
