# generated using pymatgen
data_TbTmGa3Cu
_symmetry_space_group_name_H-M   'P 1'
_cell_length_a   4.36167403
_cell_length_b   4.36168251
_cell_length_c   7.19328500
_cell_angle_alpha   90.00084669
_cell_angle_beta   89.99917851
_cell_angle_gamma   120.00125632
_symmetry_Int_Tables_number   1
_chemical_formula_structural   TbTmGa3Cu
_chemical_formula_sum   'Tb1 Tm1 Ga3 Cu1'
_cell_volume   118.51127108
_cell_formula_units_Z   1
loop_
 _symmetry_equiv_pos_site_id
 _symmetry_equiv_pos_as_xyz
  1  'x, y, z'
loop_
 _atom_site_type_symbol
 _atom_site_label
 _atom_site_symmetry_multiplicity
 _atom_site_fract_x
 _atom_site_fract_y
 _atom_site_fract_z
 _atom_site_occupancy
  Tb  Tb0  1  0.999996  0.000004  0.259909  1
  Tm  Tm1  1  0.999993  0.000008  0.729339  1
  Ga  Ga2  1  0.333337  0.666663  0.483938  1
  Ga  Ga3  1  0.333327  0.666671  0.040673  1
  Ga  Ga4  1  0.666658  0.333341  0.947519  1
  Cu  Cu5  1  0.666692  0.333314  0.538621  1
