# generated using pymatgen
data_Ca2In4PdAu
_symmetry_space_group_name_H-M   'P 1'
_cell_length_a   5.82427801
_cell_length_b   5.82427796
_cell_length_c   7.82887500
_cell_angle_alpha   90.00000000
_cell_angle_beta   90.00000000
_cell_angle_gamma   133.65991397
_symmetry_Int_Tables_number   1
_chemical_formula_structural   Ca2In4PdAu
_chemical_formula_sum   'Ca2 In4 Pd1 Au1'
_cell_volume   192.12871134
_cell_formula_units_Z   1
loop_
 _symmetry_equiv_pos_site_id
 _symmetry_equiv_pos_as_xyz
  1  'x, y, z'
loop_
 _atom_site_type_symbol
 _atom_site_label
 _atom_site_symmetry_multiplicity
 _atom_site_fract_x
 _atom_site_fract_y
 _atom_site_fract_z
 _atom_site_occupancy
  Ca  Ca0  1  0.927054  0.072946  0.750000  1
  Ca  Ca1  1  0.069155  0.930845  0.250000  1
  In  In2  1  0.639873  0.360127  0.951990  1
  In  In3  1  0.360980  0.639020  0.057218  1
  In  In4  1  0.360980  0.639020  0.442782  1
  In  In5  1  0.639873  0.360127  0.548010  1
  Pd  Pd6  1  0.786852  0.213148  0.250000  1
  Au  Au7  1  0.215234  0.784766  0.750000  1
