# generated using pymatgen
data_Tb3Lu5Hf5Zr7Si15As
_symmetry_space_group_name_H-M   'P 1'
_cell_length_a   7.28055087
_cell_length_b   7.28893787
_cell_length_c   13.37653857
_cell_angle_alpha   89.71446168
_cell_angle_beta   89.91546694
_cell_angle_gamma   89.94661158
_symmetry_Int_Tables_number   1
_chemical_formula_structural   Tb3Lu5Hf5Zr7Si15As
_chemical_formula_sum   'Tb3 Lu5 Hf5 Zr7 Si15 As1'
_cell_volume   709.84934197
_cell_formula_units_Z   1
loop_
 _symmetry_equiv_pos_site_id
 _symmetry_equiv_pos_as_xyz
  1  'x, y, z'
loop_
 _atom_site_type_symbol
 _atom_site_label
 _atom_site_symmetry_multiplicity
 _atom_site_fract_x
 _atom_site_fract_y
 _atom_site_fract_z
 _atom_site_occupancy
  Tb  Tb0  1  0.495776  0.154660  0.536019  1
  Tb  Tb1  1  0.346534  0.994890  0.786360  1
  Tb  Tb2  1  0.654059  0.005222  0.283897  1
  Lu  Lu3  1  0.996240  0.347374  0.213760  1
  Lu  Lu4  1  0.003538  0.654560  0.715020  1
  Lu  Lu5  1  0.150992  0.502426  0.466137  1
  Lu  Lu6  1  0.505881  0.842316  0.033663  1
  Lu  Lu7  1  0.845059  0.501776  0.965203  1
  Hf  Hf8  1  0.354082  0.496650  0.875785  1
  Hf  Hf9  1  0.493789  0.350956  0.125438  1
  Hf  Hf10  1  0.651608  0.506305  0.375422  1
  Hf  Hf11  1  0.997583  0.149109  0.625374  1
  Hf  Hf12  1  0.000282  0.849550  0.123400  1
  Zr  Zr13  1  0.174098  0.175180  0.000290  1
  Zr  Zr14  1  0.826677  0.825727  0.499703  1
  Zr  Zr15  1  0.323820  0.677442  0.249122  1
  Zr  Zr16  1  0.676288  0.325760  0.750533  1
  Zr  Zr17  1  0.147367  0.995878  0.372516  1
  Zr  Zr18  1  0.852765  0.002548  0.876365  1
  Zr  Zr19  1  0.503921  0.648320  0.625442  1
  Si  Si20  1  0.642085  0.703932  0.818487  1
  Si  Si21  1  0.202860  0.859974  0.566998  1
  Si  Si22  1  0.139097  0.790385  0.932625  1
  Si  Si23  1  0.793229  0.140872  0.069305  1
  Si  Si24  1  0.862679  0.209025  0.432600  1
  Si  Si25  1  0.292157  0.362444  0.683276  1
  Si  Si26  1  0.704755  0.636468  0.181097  1
  Si  Si27  1  0.294924  0.039628  0.179216  1
  Si  Si28  1  0.707490  0.949084  0.687032  1
  Si  Si29  1  0.449414  0.794713  0.436526  1
  Si  Si30  1  0.201524  0.547971  0.063397  1
  Si  Si31  1  0.550431  0.204107  0.938249  1
  Si  Si32  1  0.799141  0.451004  0.563376  1
  Si  Si33  1  0.049670  0.299299  0.813169  1
  Si  Si34  1  0.950569  0.701087  0.312606  1
  As  As35  1  0.359622  0.303359  0.322591  1
