# generated using pymatgen
data_Sc6Zn17Ni6S
_symmetry_space_group_name_H-M   'P 1'
_cell_length_a   8.60581474
_cell_length_b   8.60558960
_cell_length_c   8.60713100
_cell_angle_alpha   60.00180513
_cell_angle_beta   60.02460063
_cell_angle_gamma   60.02534300
_symmetry_Int_Tables_number   1
_chemical_formula_structural   Sc6Zn17Ni6S
_chemical_formula_sum   'Sc6 Zn17 Ni6 S1'
_cell_volume   450.90576537
_cell_formula_units_Z   1
loop_
 _symmetry_equiv_pos_site_id
 _symmetry_equiv_pos_as_xyz
  1  'x, y, z'
loop_
 _atom_site_type_symbol
 _atom_site_label
 _atom_site_symmetry_multiplicity
 _atom_site_fract_x
 _atom_site_fract_y
 _atom_site_fract_z
 _atom_site_occupancy
  Sc  Sc0  1  0.712008  0.287992  0.288039  1
  Sc  Sc1  1  0.287993  0.712006  0.711961  1
  Sc  Sc2  1  0.288027  0.711989  0.288046  1
  Sc  Sc3  1  0.711975  0.288012  0.711953  1
  Sc  Sc4  1  0.288003  0.288008  0.712006  1
  Sc  Sc5  1  0.711998  0.711994  0.287992  1
  Zn  Zn6  1  0.123812  0.123732  0.123782  1
  Zn  Zn7  1  0.876188  0.876269  0.876217  1
  Zn  Zn8  1  0.123747  0.123823  0.628669  1
  Zn  Zn9  1  0.123782  0.628673  0.123827  1
  Zn  Zn10  1  0.876253  0.876176  0.371333  1
  Zn  Zn11  1  0.876219  0.371327  0.876173  1
  Zn  Zn12  1  0.628667  0.123775  0.123754  1
  Zn  Zn13  1  0.371331  0.876225  0.876245  1
  Zn  Zn14  1  0.334273  0.334361  0.334396  1
  Zn  Zn15  1  0.665728  0.665639  0.665602  1
  Zn  Zn16  1  0.334326  0.334291  0.996970  1
  Zn  Zn17  1  0.334371  0.996973  0.334285  1
  Zn  Zn18  1  0.665674  0.665710  0.003028  1
  Zn  Zn19  1  0.665630  0.003028  0.665714  1
  Zn  Zn20  1  0.996971  0.334388  0.334340  1
  Zn  Zn21  1  0.003029  0.665613  0.665660  1
  Zn  Zn22  1  0.999998  0.000000  0.000002  1
  Ni  Ni23  1  0.500000  0.999998  0.000003  1
  Ni  Ni24  1  0.000000  0.500002  0.500005  1
  Ni  Ni25  1  0.000001  0.500005  0.999997  1
  Ni  Ni26  1  0.500001  0.000000  0.500000  1
  Ni  Ni27  1  0.999995  0.999999  0.500004  1
  Ni  Ni28  1  0.500002  0.499996  0.999997  1
  S  S29  1  0.500001  0.500000  0.500000  1
