# generated using pymatgen
data_Tb5HoLu10(CdPt)4
_symmetry_space_group_name_H-M   'P 1'
_cell_length_a   9.56028572
_cell_length_b   9.56028633
_cell_length_c   9.56307600
_cell_angle_alpha   59.99034003
_cell_angle_beta   59.99033789
_cell_angle_gamma   60.00629789
_symmetry_Int_Tables_number   1
_chemical_formula_structural   Tb5HoLu10(CdPt)4
_chemical_formula_sum   'Tb5 Ho1 Lu10 Cd4 Pt4'
_cell_volume   617.99022726
_cell_formula_units_Z   1
loop_
 _symmetry_equiv_pos_site_id
 _symmetry_equiv_pos_as_xyz
  1  'x, y, z'
loop_
 _atom_site_type_symbol
 _atom_site_label
 _atom_site_symmetry_multiplicity
 _atom_site_fract_x
 _atom_site_fract_y
 _atom_site_fract_z
 _atom_site_occupancy
  Tb  Tb0  1  0.186957  0.813502  0.813044  1
  Tb  Tb1  1  0.813502  0.186957  0.186497  1
  Tb  Tb2  1  0.813502  0.186957  0.813044  1
  Tb  Tb3  1  0.186957  0.813502  0.186497  1
  Tb  Tb4  1  0.812896  0.812896  0.187104  1
  Ho  Ho5  1  0.187386  0.187386  0.812614  1
  Lu  Lu6  1  0.601567  0.601567  0.601776  1
  Lu  Lu7  1  0.601567  0.601567  0.195089  1
  Lu  Lu8  1  0.601328  0.195228  0.601722  1
  Lu  Lu9  1  0.195228  0.601328  0.601722  1
  Lu  Lu10  1  0.061620  0.438035  0.438837  1
  Lu  Lu11  1  0.438035  0.061620  0.061508  1
  Lu  Lu12  1  0.438035  0.061620  0.438837  1
  Lu  Lu13  1  0.061620  0.438035  0.061508  1
  Lu  Lu14  1  0.438379  0.438379  0.061621  1
  Lu  Lu15  1  0.061407  0.061407  0.438593  1
  Cd  Cd16  1  0.831334  0.831334  0.831281  1
  Cd  Cd17  1  0.831334  0.831334  0.506052  1
  Cd  Cd18  1  0.831563  0.505864  0.831286  1
  Cd  Cd19  1  0.505864  0.831563  0.831286  1
  Pt  Pt20  1  0.392934  0.392934  0.393042  1
  Pt  Pt21  1  0.392934  0.392934  0.821089  1
  Pt  Pt22  1  0.392893  0.821158  0.392974  1
  Pt  Pt23  1  0.821158  0.392893  0.392974  1
