# generated using pymatgen
data_LiZn5(SnRh2)6
_symmetry_space_group_name_H-M   'P 1'
_cell_length_a   4.42447400
_cell_length_b   6.25465600
_cell_length_c   13.35697001
_cell_angle_alpha   89.99985805
_cell_angle_beta   90.00109433
_cell_angle_gamma   90.00201773
_symmetry_Int_Tables_number   1
_chemical_formula_structural   LiZn5(SnRh2)6
_chemical_formula_sum   'Li1 Zn5 Sn6 Rh12'
_cell_volume   369.63494879
_cell_formula_units_Z   1
loop_
 _symmetry_equiv_pos_site_id
 _symmetry_equiv_pos_as_xyz
  1  'x, y, z'
loop_
 _atom_site_type_symbol
 _atom_site_label
 _atom_site_symmetry_multiplicity
 _atom_site_fract_x
 _atom_site_fract_y
 _atom_site_fract_z
 _atom_site_occupancy
  Li  Li0  1  0.500156  0.000001  0.833298  1
  Zn  Zn1  1  0.999998  0.499999  0.000242  1
  Zn  Zn2  1  0.499883  0.000001  0.165600  1
  Zn  Zn3  1  0.999895  0.500001  0.333344  1
  Zn  Zn4  1  0.499996  0.000001  0.501010  1
  Zn  Zn5  1  0.000102  0.499999  0.666394  1
  Sn  Sn6  1  0.999997  0.000000  0.994735  1
  Sn  Sn7  1  0.499865  0.500000  0.166832  1
  Sn  Sn8  1  0.999885  0.000001  0.333410  1
  Sn  Sn9  1  0.499998  0.499999  0.499774  1
  Sn  Sn10  1  0.000109  0.999997  0.671951  1
  Sn  Sn11  1  0.500128  0.499997  0.833382  1
  Rh  Rh12  1  0.500025  0.252055  0.002075  1
  Rh  Rh13  1  0.499971  0.747945  0.002076  1
  Rh  Rh14  1  0.999842  0.247849  0.166106  1
  Rh  Rh15  1  0.999928  0.752153  0.166106  1
  Rh  Rh16  1  0.499918  0.250135  0.333325  1
  Rh  Rh17  1  0.499847  0.749870  0.333325  1
  Rh  Rh18  1  0.999955  0.247880  0.500595  1
  Rh  Rh19  1  0.000037  0.752119  0.500596  1
  Rh  Rh20  1  0.500142  0.252085  0.664574  1
  Rh  Rh21  1  0.500073  0.747915  0.664574  1
  Rh  Rh22  1  0.000108  0.255814  0.833337  1
  Rh  Rh23  1  0.000146  0.744179  0.833339  1
