# generated using pymatgen
data_Be2Nb10GaSn5
_symmetry_space_group_name_H-M   'P 1'
_cell_length_a   8.21112513
_cell_length_b   8.17662391
_cell_length_c   5.53029900
_cell_angle_alpha   90.00000000
_cell_angle_beta   90.00000000
_cell_angle_gamma   119.86110665
_symmetry_Int_Tables_number   1
_chemical_formula_structural   Be2Nb10GaSn5
_chemical_formula_sum   'Be2 Nb10 Ga1 Sn5'
_cell_volume   322.00459394
_cell_formula_units_Z   1
loop_
 _symmetry_equiv_pos_site_id
 _symmetry_equiv_pos_as_xyz
  1  'x, y, z'
loop_
 _atom_site_type_symbol
 _atom_site_label
 _atom_site_symmetry_multiplicity
 _atom_site_fract_x
 _atom_site_fract_y
 _atom_site_fract_z
 _atom_site_occupancy
  Be  Be0  1  0.000000  0.999137  0.000806  1
  Be  Be1  1  0.000000  0.999137  0.499194  1
  Nb  Nb2  1  0.673851  0.334523  0.003276  1
  Nb  Nb3  1  0.326149  0.660673  0.003276  1
  Nb  Nb4  1  0.326149  0.660673  0.496724  1
  Nb  Nb5  1  0.673851  0.334523  0.496724  1
  Nb  Nb6  1  0.750607  0.750366  0.750000  1
  Nb  Nb7  1  0.249393  0.999759  0.750000  1
  Nb  Nb8  1  0.000000  0.251625  0.750000  1
  Nb  Nb9  1  0.242507  0.254451  0.250000  1
  Nb  Nb10  1  0.757493  0.011944  0.250000  1
  Nb  Nb11  1  0.000000  0.741786  0.250000  1
  Ga  Ga12  1  0.000000  0.393790  0.250000  1
  Sn  Sn13  1  0.395414  0.392671  0.750000  1
  Sn  Sn14  1  0.604586  0.997257  0.750000  1
  Sn  Sn15  1  0.000000  0.605554  0.750000  1
  Sn  Sn16  1  0.608238  0.610184  0.250000  1
  Sn  Sn17  1  0.391762  0.001946  0.250000  1
