# generated using pymatgen
data_Ho3Er7In8(PdAu)2
_symmetry_space_group_name_H-M   'P 1'
_cell_length_a   3.62812000
_cell_length_b   8.12945402
_cell_length_c   18.28357737
_cell_angle_alpha   90.01542258
_cell_angle_beta   90.00000000
_cell_angle_gamma   90.00000000
_symmetry_Int_Tables_number   1
_chemical_formula_structural   Ho3Er7In8(PdAu)2
_chemical_formula_sum   'Ho3 Er7 In8 Pd2 Au2'
_cell_volume   539.26741628
_cell_formula_units_Z   1
loop_
 _symmetry_equiv_pos_site_id
 _symmetry_equiv_pos_as_xyz
  1  'x, y, z'
loop_
 _atom_site_type_symbol
 _atom_site_label
 _atom_site_symmetry_multiplicity
 _atom_site_fract_x
 _atom_site_fract_y
 _atom_site_fract_z
 _atom_site_occupancy
  Ho  Ho0  1  0.000000  0.500095  0.499967  1
  Ho  Ho1  1  0.000000  0.999881  0.999952  1
  Ho  Ho2  1  0.000000  0.746604  0.283737  1
  Er  Er3  1  0.000000  0.252941  0.716551  1
  Er  Er4  1  0.000000  0.766269  0.779197  1
  Er  Er5  1  0.000000  0.233586  0.220641  1
  Er  Er6  1  0.000000  0.619782  0.080413  1
  Er  Er7  1  0.000000  0.380023  0.919410  1
  Er  Er8  1  0.000000  0.884923  0.582678  1
  Er  Er9  1  0.000000  0.115488  0.417404  1
  In  In10  1  0.500000  0.709738  0.932333  1
  In  In11  1  0.500000  0.289790  0.067435  1
  In  In12  1  0.500000  0.792206  0.434025  1
  In  In13  1  0.500000  0.208864  0.566629  1
  In  In14  1  0.500000  0.582462  0.647350  1
  In  In15  1  0.500000  0.416714  0.352758  1
  In  In16  1  0.500000  0.921983  0.148657  1
  In  In17  1  0.500000  0.078048  0.851281  1
  Pd  Pd18  1  0.500000  0.974462  0.695677  1
  Pd  Pd19  1  0.500000  0.026959  0.304317  1
  Au  Au20  1  0.500000  0.527394  0.197231  1
  Au  Au21  1  0.500000  0.471787  0.802360  1
