# generated using pymatgen
data_LaYb3(OsC2)2
_symmetry_space_group_name_H-M   'P 1'
_cell_length_a   5.18717300
_cell_length_b   6.46878170
_cell_length_c   10.59446955
_cell_angle_alpha   90.01048247
_cell_angle_beta   90.00000000
_cell_angle_gamma   90.00000000
_symmetry_Int_Tables_number   1
_chemical_formula_structural   LaYb3(OsC2)2
_chemical_formula_sum   'La2 Yb6 Os4 C8'
_cell_volume   355.49413317
_cell_formula_units_Z   2
loop_
 _symmetry_equiv_pos_site_id
 _symmetry_equiv_pos_as_xyz
  1  'x, y, z'
loop_
 _atom_site_type_symbol
 _atom_site_label
 _atom_site_symmetry_multiplicity
 _atom_site_fract_x
 _atom_site_fract_y
 _atom_site_fract_z
 _atom_site_occupancy
  La  La0  1  0.250000  0.711849  0.551695  1
  La  La1  1  0.750000  0.288151  0.448305  1
  Yb  Yb2  1  0.750000  0.802112  0.047491  1
  Yb  Yb3  1  0.250000  0.197888  0.952509  1
  Yb  Yb4  1  0.250000  0.536325  0.211503  1
  Yb  Yb5  1  0.750000  0.463675  0.788497  1
  Yb  Yb6  1  0.750000  0.975932  0.746204  1
  Yb  Yb7  1  0.250000  0.024068  0.253796  1
  Os  Os8  1  0.250000  0.733726  0.859948  1
  Os  Os9  1  0.750000  0.266274  0.140052  1
  Os  Os10  1  0.750000  0.767817  0.338330  1
  Os  Os11  1  0.250000  0.232183  0.661670  1
  C  C12  1  0.250000  0.474756  0.764615  1
  C  C13  1  0.750000  0.525244  0.235385  1
  C  C14  1  0.750000  0.027260  0.247810  1
  C  C15  1  0.250000  0.972740  0.752190  1
  C  C16  1  0.250000  0.798250  0.030842  1
  C  C17  1  0.750000  0.201750  0.969158  1
  C  C18  1  0.750000  0.713508  0.513897  1
  C  C19  1  0.250000  0.286492  0.486103  1
