# generated using pymatgen
data_Er3Mg(ZnPt)4
_symmetry_space_group_name_H-M   'P 1'
_cell_length_a   4.17838000
_cell_length_b   6.78131394
_cell_length_c   8.01897630
_cell_angle_alpha   88.60569028
_cell_angle_beta   90.00000000
_cell_angle_gamma   90.00000000
_symmetry_Int_Tables_number   1
_chemical_formula_structural   Er3Mg(ZnPt)4
_chemical_formula_sum   'Er3 Mg1 Zn4 Pt4'
_cell_volume   227.14966759
_cell_formula_units_Z   1
loop_
 _symmetry_equiv_pos_site_id
 _symmetry_equiv_pos_as_xyz
  1  'x, y, z'
loop_
 _atom_site_type_symbol
 _atom_site_label
 _atom_site_symmetry_multiplicity
 _atom_site_fract_x
 _atom_site_fract_y
 _atom_site_fract_z
 _atom_site_occupancy
  Er  Er0  1  0.250000  0.538670  0.188946  1
  Er  Er1  1  0.750000  0.961983  0.674428  1
  Er  Er2  1  0.750000  0.458500  0.819035  1
  Mg  Mg3  1  0.250000  0.039874  0.317031  1
  Zn  Zn4  1  0.250000  0.642899  0.559789  1
  Zn  Zn5  1  0.250000  0.138206  0.943459  1
  Zn  Zn6  1  0.750000  0.355990  0.436717  1
  Zn  Zn7  1  0.750000  0.864245  0.061785  1
  Pt  Pt8  1  0.250000  0.253042  0.621016  1
  Pt  Pt9  1  0.250000  0.752781  0.875376  1
  Pt  Pt10  1  0.750000  0.750551  0.375580  1
  Pt  Pt11  1  0.750000  0.243259  0.126839  1
