# generated using pymatgen
data_DyScP7(Ru5Rh)2
_symmetry_space_group_name_H-M   'P 1'
_cell_length_a   9.38594725
_cell_length_b   9.46361531
_cell_length_c   3.92002900
_cell_angle_alpha   90.00000000
_cell_angle_beta   90.00000000
_cell_angle_gamma   120.14931015
_symmetry_Int_Tables_number   1
_chemical_formula_structural   DyScP7(Ru5Rh)2
_chemical_formula_sum   'Dy1 Sc1 P7 Ru10 Rh2'
_cell_volume   301.09234479
_cell_formula_units_Z   1
loop_
 _symmetry_equiv_pos_site_id
 _symmetry_equiv_pos_as_xyz
  1  'x, y, z'
loop_
 _atom_site_type_symbol
 _atom_site_label
 _atom_site_symmetry_multiplicity
 _atom_site_fract_x
 _atom_site_fract_y
 _atom_site_fract_z
 _atom_site_occupancy
  Dy  Dy0  1  0.329697  0.665098  0.000000  1
  Sc  Sc1  1  0.668883  0.333161  0.500000  1
  P  P2  1  0.601113  0.716025  0.500000  1
  P  P3  1  0.000403  0.002106  0.000000  1
  P  P4  1  0.278643  0.880564  0.500000  1
  P  P5  1  0.113912  0.401731  0.500000  1
  P  P6  1  0.882635  0.574038  0.000000  1
  P  P7  1  0.427233  0.303310  0.000000  1
  P  P8  1  0.696840  0.120392  0.000000  1
  Ru  Ru9  1  0.913625  0.125301  0.500000  1
  Ru  Ru10  1  0.213917  0.088206  0.500000  1
  Ru  Ru11  1  0.876195  0.791956  0.500000  1
  Ru  Ru12  1  0.724342  0.889685  0.000000  1
  Ru  Ru13  1  0.109434  0.838425  0.000000  1
  Ru  Ru14  1  0.166774  0.274785  0.000000  1
  Ru  Ru15  1  0.432372  0.067762  0.000000  1
  Ru  Ru16  1  0.932676  0.361012  0.000000  1
  Ru  Ru17  1  0.638680  0.568801  0.000000  1
  Ru  Ru18  1  0.047831  0.607802  0.500000  1
  Rh  Rh19  1  0.552318  0.944689  0.500000  1
  Rh  Rh20  1  0.392479  0.445148  0.500000  1
