# generated using pymatgen
data_CsPuP2Se7
_symmetry_space_group_name_H-M   'P 1'
_cell_length_a   9.76483000
_cell_length_b   10.62161535
_cell_length_c   13.45661700
_cell_angle_alpha   90.00000000
_cell_angle_beta   90.00000000
_cell_angle_gamma   90.24656710
_symmetry_Int_Tables_number   1
_chemical_formula_structural   CsPuP2Se7
_chemical_formula_sum   'Cs4 Pu4 P8 Se28'
_cell_volume   1395.68408797
_cell_formula_units_Z   4
loop_
 _symmetry_equiv_pos_site_id
 _symmetry_equiv_pos_as_xyz
  1  'x, y, z'
loop_
 _atom_site_type_symbol
 _atom_site_label
 _atom_site_symmetry_multiplicity
 _atom_site_fract_x
 _atom_site_fract_y
 _atom_site_fract_z
 _atom_site_occupancy
  Cs  Cs0  1  0.865017  0.398183  0.698252  1
  Cs  Cs1  1  0.634983  0.601817  0.198252  1
  Cs  Cs2  1  0.134983  0.601817  0.301748  1
  Cs  Cs3  1  0.365017  0.398183  0.801748  1
  Pu  Pu4  1  0.105016  0.865893  0.637082  1
  Pu  Pu5  1  0.394984  0.134107  0.137082  1
  Pu  Pu6  1  0.894984  0.134107  0.362918  1
  Pu  Pu7  1  0.605016  0.865893  0.862918  1
  P  P8  1  0.197283  0.179173  0.534201  1
  P  P9  1  0.302717  0.820827  0.034201  1
  P  P10  1  0.802717  0.820827  0.465799  1
  P  P11  1  0.697283  0.179173  0.965799  1
  P  P12  1  0.977060  0.738578  0.889111  1
  P  P13  1  0.522940  0.261422  0.389111  1
  P  P14  1  0.022940  0.261422  0.110889  1
  P  P15  1  0.477060  0.738578  0.610889  1
  Se  Se16  1  0.171311  0.008528  0.442213  1
  Se  Se17  1  0.328689  0.991472  0.942213  1
  Se  Se18  1  0.828689  0.991472  0.557787  1
  Se  Se19  1  0.671311  0.008528  0.057787  1
  Se  Se20  1  0.937579  0.674277  0.527365  1
  Se  Se21  1  0.562421  0.325723  0.027365  1
  Se  Se22  1  0.062421  0.325723  0.472635  1
  Se  Se23  1  0.437579  0.674277  0.972635  1
  Se  Se24  1  0.147564  0.139841  0.692259  1
  Se  Se25  1  0.352436  0.860159  0.192259  1
  Se  Se26  1  0.852436  0.860159  0.307741  1
  Se  Se27  1  0.647564  0.139841  0.807741  1
  Se  Se28  1  0.284671  0.645665  0.562910  1
  Se  Se29  1  0.215329  0.354335  0.062910  1
  Se  Se30  1  0.715329  0.354335  0.437090  1
  Se  Se31  1  0.784671  0.645665  0.937090  1
  Se  Se32  1  0.917272  0.920149  0.822582  1
  Se  Se33  1  0.582728  0.079851  0.322582  1
  Se  Se34  1  0.082728  0.079851  0.177418  1
  Se  Se35  1  0.417272  0.920149  0.677418  1
  Se  Se36  1  0.115539  0.650138  0.780303  1
  Se  Se37  1  0.384461  0.349861  0.280303  1
  Se  Se38  1  0.884461  0.349861  0.219697  1
  Se  Se39  1  0.615539  0.650138  0.719697  1
  Se  Se40  1  0.075686  0.757542  0.045836  1
  Se  Se41  1  0.424314  0.242458  0.545836  1
  Se  Se42  1  0.924314  0.242458  0.954164  1
  Se  Se43  1  0.575686  0.757542  0.454164  1
