# generated using pymatgen
data_Rb3Na(US3)2
_symmetry_space_group_name_H-M   'P 1'
_cell_length_a   7.13283248
_cell_length_b   7.13283199
_cell_length_c   7.91734300
_cell_angle_alpha   81.41379013
_cell_angle_beta   81.41378260
_cell_angle_gamma   120.07720521
_symmetry_Int_Tables_number   1
_chemical_formula_structural   Rb3Na(US3)2
_chemical_formula_sum   'Rb3 Na1 U2 S6'
_cell_volume   332.63452023
_cell_formula_units_Z   1
loop_
 _symmetry_equiv_pos_site_id
 _symmetry_equiv_pos_as_xyz
  1  'x, y, z'
loop_
 _atom_site_type_symbol
 _atom_site_label
 _atom_site_symmetry_multiplicity
 _atom_site_fract_x
 _atom_site_fract_y
 _atom_site_fract_z
 _atom_site_occupancy
  Rb  Rb0  1  0.656983  0.343017  0.500000  1
  Rb  Rb1  1  0.343017  0.656983  0.500000  1
  Rb  Rb2  1  0.000000  0.000000  0.500000  1
  Na  Na3  1  0.500000  0.500000  0.000000  1
  U  U4  1  0.832421  0.167579  0.000000  1
  U  U5  1  0.167579  0.832421  0.000000  1
  S  S6  1  0.794429  0.794429  0.190924  1
  S  S7  1  0.205571  0.205571  0.809076  1
  S  S8  1  0.434082  0.073774  0.195952  1
  S  S9  1  0.565918  0.926226  0.804048  1
  S  S10  1  0.926226  0.565918  0.804048  1
  S  S11  1  0.073774  0.434082  0.195952  1
