# generated using pymatgen
data_Tb7DyTe12
_symmetry_space_group_name_H-M   'P 1'
_cell_length_a   14.55135091
_cell_length_b   13.87887824
_cell_length_c   7.57639503
_cell_angle_alpha   79.51152528
_cell_angle_beta   69.69356856
_cell_angle_gamma   30.78762756
_symmetry_Int_Tables_number   1
_chemical_formula_structural   Tb7DyTe12
_chemical_formula_sum   'Tb7 Dy1 Te12'
_cell_volume   712.71471208
_cell_formula_units_Z   1
loop_
 _symmetry_equiv_pos_site_id
 _symmetry_equiv_pos_as_xyz
  1  'x, y, z'
loop_
 _atom_site_type_symbol
 _atom_site_label
 _atom_site_symmetry_multiplicity
 _atom_site_fract_x
 _atom_site_fract_y
 _atom_site_fract_z
 _atom_site_occupancy
  Tb  Tb0  1  0.332775  0.332775  0.167225  1
  Tb  Tb1  1  0.167229  0.167229  0.332771  1
  Tb  Tb2  1  0.917210  0.917210  0.082790  1
  Tb  Tb3  1  0.082791  0.082791  0.917209  1
  Tb  Tb4  1  0.999758  0.999758  0.500242  1
  Tb  Tb5  1  0.500248  0.500248  0.999752  1
  Tb  Tb6  1  0.250240  0.250240  0.749760  1
  Dy  Dy7  1  0.749784  0.749784  0.250216  1
  Te  Te8  1  0.998299  0.501696  0.501180  1
  Te  Te9  1  0.501696  0.998299  0.998825  1
  Te  Te10  1  0.251413  0.748589  0.748574  1
  Te  Te11  1  0.748589  0.251413  0.251424  1
  Te  Te12  1  0.665690  0.168749  0.833938  1
  Te  Te13  1  0.833952  0.331611  0.665729  1
  Te  Te14  1  0.331611  0.833952  0.168708  1
  Te  Te15  1  0.168749  0.665690  0.331623  1
  Te  Te16  1  0.584520  0.080833  0.415887  1
  Te  Te17  1  0.416438  0.918176  0.583912  1
  Te  Te18  1  0.918176  0.416438  0.081475  1
  Te  Te19  1  0.080833  0.584520  0.918761  1
