# generated using pymatgen
data_Yb3Dy(IrO4)4
_symmetry_space_group_name_H-M   'P 1'
_cell_length_a   5.33229206
_cell_length_b   7.39945517
_cell_length_c   7.62782246
_cell_angle_alpha   80.13902960
_cell_angle_beta   90.13704848
_cell_angle_gamma   89.99137477
_symmetry_Int_Tables_number   1
_chemical_formula_structural   Yb3Dy(IrO4)4
_chemical_formula_sum   'Yb3 Dy1 Ir4 O16'
_cell_volume   296.51651976
_cell_formula_units_Z   1
loop_
 _symmetry_equiv_pos_site_id
 _symmetry_equiv_pos_as_xyz
  1  'x, y, z'
loop_
 _atom_site_type_symbol
 _atom_site_label
 _atom_site_symmetry_multiplicity
 _atom_site_fract_x
 _atom_site_fract_y
 _atom_site_fract_z
 _atom_site_occupancy
  Yb  Yb0  1  0.715205  0.893051  0.348852  1
  Yb  Yb1  1  0.281773  0.110116  0.648417  1
  Yb  Yb2  1  0.783434  0.391937  0.347858  1
  Dy  Dy3  1  0.214775  0.608346  0.644195  1
  Ir  Ir4  1  0.770907  0.298870  0.835668  1
  Ir  Ir5  1  0.231270  0.699048  0.163779  1
  Ir  Ir6  1  0.270614  0.198574  0.167019  1
  Ir  Ir7  1  0.730294  0.801795  0.836376  1
  O  O8  1  0.907449  0.801712  0.059143  1
  O  O9  1  0.088832  0.196005  0.945855  1
  O  O10  1  0.371691  0.946468  0.162607  1
  O  O11  1  0.631165  0.054357  0.831116  1
  O  O12  1  0.130375  0.445536  0.167374  1
  O  O13  1  0.876952  0.554253  0.834816  1
  O  O14  1  0.590349  0.302321  0.056344  1
  O  O15  1  0.406637  0.694773  0.941144  1
  O  O16  1  0.974878  0.328253  0.618698  1
  O  O17  1  0.027614  0.679367  0.383160  1
  O  O18  1  0.472169  0.178510  0.380630  1
  O  O19  1  0.525922  0.817580  0.618924  1
  O  O20  1  0.504946  0.621871  0.314605  1
  O  O21  1  0.487292  0.380671  0.691587  1
  O  O22  1  0.992091  0.122132  0.311160  1
  O  O23  1  0.013367  0.874452  0.690670  1
