# generated using pymatgen
data_Lu2Zn11Co6
_symmetry_space_group_name_H-M   'P 1'
_cell_length_a   6.49993765
_cell_length_b   6.49993707
_cell_length_c   6.49993592
_cell_angle_alpha   83.32081107
_cell_angle_beta   83.32080812
_cell_angle_gamma   83.32082639
_symmetry_Int_Tables_number   1
_chemical_formula_structural   Lu2Zn11Co6
_chemical_formula_sum   'Lu2 Zn11 Co6'
_cell_volume   269.42753308
_cell_formula_units_Z   1
loop_
 _symmetry_equiv_pos_site_id
 _symmetry_equiv_pos_as_xyz
  1  'x, y, z'
loop_
 _atom_site_type_symbol
 _atom_site_label
 _atom_site_symmetry_multiplicity
 _atom_site_fract_x
 _atom_site_fract_y
 _atom_site_fract_z
 _atom_site_occupancy
  Lu  Lu0  1  0.632890  0.632890  0.632890  1
  Lu  Lu1  1  0.336207  0.336207  0.336207  1
  Zn  Zn2  1  0.164503  0.655099  0.655100  1
  Zn  Zn3  1  0.655099  0.655099  0.164503  1
  Zn  Zn4  1  0.655099  0.164503  0.655100  1
  Zn  Zn5  1  0.876988  0.876988  0.876988  1
  Zn  Zn6  1  0.106108  0.106108  0.106108  1
  Zn  Zn7  1  0.697384  0.005646  0.307106  1
  Zn  Zn8  1  0.005647  0.307106  0.697384  1
  Zn  Zn9  1  0.307105  0.697384  0.005646  1
  Zn  Zn10  1  0.307106  0.005647  0.697384  1
  Zn  Zn11  1  0.005646  0.697384  0.307106  1
  Zn  Zn12  1  0.697384  0.307105  0.005646  1
  Co  Co13  1  0.344130  0.854560  0.344130  1
  Co  Co14  1  0.344130  0.344130  0.854560  1
  Co  Co15  1  0.854560  0.344130  0.344130  1
  Co  Co16  1  0.008230  0.493552  0.008230  1
  Co  Co17  1  0.493552  0.008230  0.008230  1
  Co  Co18  1  0.008230  0.008230  0.493552  1
