# generated using pymatgen
data_Sc3SiSn2Os3
_symmetry_space_group_name_H-M   'P 1'
_cell_length_a   7.29592800
_cell_length_b   7.29592837
_cell_length_c   3.43512000
_cell_angle_alpha   90.00000000
_cell_angle_beta   90.00000000
_cell_angle_gamma   119.99998924
_symmetry_Int_Tables_number   1
_chemical_formula_structural   Sc3SiSn2Os3
_chemical_formula_sum   'Sc3 Si1 Sn2 Os3'
_cell_volume   158.35569729
_cell_formula_units_Z   1
loop_
 _symmetry_equiv_pos_site_id
 _symmetry_equiv_pos_as_xyz
  1  'x, y, z'
loop_
 _atom_site_type_symbol
 _atom_site_label
 _atom_site_symmetry_multiplicity
 _atom_site_fract_x
 _atom_site_fract_y
 _atom_site_fract_z
 _atom_site_occupancy
  Sc  Sc0  1  0.377412  0.377412  0.500000  1
  Sc  Sc1  1  0.622588  0.000000  0.500000  1
  Sc  Sc2  1  0.000000  0.622588  0.500000  1
  Si  Si3  1  0.000000  0.000000  0.500000  1
  Sn  Sn4  1  0.666667  0.333333  0.000000  1
  Sn  Sn5  1  0.333333  0.666667  0.000000  1
  Os  Os6  1  0.761014  0.761014  0.000000  1
  Os  Os7  1  0.238986  0.000000  0.000000  1
  Os  Os8  1  0.000000  0.238986  0.000000  1
