# generated using pymatgen
data_Sm7Er(PI6)2
_symmetry_space_group_name_H-M   'P 1'
_cell_length_a   4.21853700
_cell_length_b   13.78554637
_cell_length_c   14.55644900
_cell_angle_alpha   90.09354827
_cell_angle_beta   90.00000000
_cell_angle_gamma   90.00000000
_symmetry_Int_Tables_number   1
_chemical_formula_structural   Sm7Er(PI6)2
_chemical_formula_sum   'Sm7 Er1 P2 I12'
_cell_volume   846.52679707
_cell_formula_units_Z   1
loop_
 _symmetry_equiv_pos_site_id
 _symmetry_equiv_pos_as_xyz
  1  'x, y, z'
loop_
 _atom_site_type_symbol
 _atom_site_label
 _atom_site_symmetry_multiplicity
 _atom_site_fract_x
 _atom_site_fract_y
 _atom_site_fract_z
 _atom_site_occupancy
  Sm  Sm0  1  0.500000  0.115578  0.347614  1
  Sm  Sm1  1  0.500000  0.884581  0.652584  1
  Sm  Sm2  1  0.500000  0.614175  0.150961  1
  Sm  Sm3  1  0.000000  0.109867  0.573844  1
  Sm  Sm4  1  0.000000  0.890486  0.426730  1
  Sm  Sm5  1  0.000000  0.609666  0.927132  1
  Sm  Sm6  1  0.000000  0.391079  0.073812  1
  Er  Er7  1  0.500000  0.385342  0.848183  1
  P  P8  1  0.500000  0.000339  0.500247  1
  P  P9  1  0.500000  0.497634  0.996877  1
  I  I10  1  0.500000  0.242937  0.160092  1
  I  I11  1  0.500000  0.756234  0.838624  1
  I  I12  1  0.500000  0.743095  0.338572  1
  I  I13  1  0.500000  0.258402  0.664080  1
  I  I14  1  0.000000  0.265741  0.415794  1
  I  I15  1  0.000000  0.733994  0.584715  1
  I  I16  1  0.000000  0.765589  0.085021  1
  I  I17  1  0.000000  0.240283  0.910950  1
  I  I18  1  0.000000  0.998219  0.234991  1
  I  I19  1  0.000000  0.001975  0.765449  1
  I  I20  1  0.000000  0.498630  0.265351  1
  I  I21  1  0.000000  0.496157  0.738377  1
