# generated using pymatgen
data_Pr2Mn17Si8Tc
_symmetry_space_group_name_H-M   'P 1'
_cell_length_a   8.12697072
_cell_length_b   8.18411985
_cell_length_c   8.12017950
_cell_angle_alpha   121.77841384
_cell_angle_beta   121.55226777
_cell_angle_gamma   87.40022118
_symmetry_Int_Tables_number   1
_chemical_formula_structural   Pr2Mn17Si8Tc
_chemical_formula_sum   'Pr2 Mn17 Si8 Tc1'
_cell_volume   370.96742018
_cell_formula_units_Z   1
loop_
 _symmetry_equiv_pos_site_id
 _symmetry_equiv_pos_as_xyz
  1  'x, y, z'
loop_
 _atom_site_type_symbol
 _atom_site_label
 _atom_site_symmetry_multiplicity
 _atom_site_fract_x
 _atom_site_fract_y
 _atom_site_fract_z
 _atom_site_occupancy
  Pr  Pr0  1  0.750503  0.751196  0.001354  1
  Pr  Pr1  1  0.249149  0.249842  0.998646  1
  Mn  Mn2  1  0.442516  0.944026  0.739532  1
  Mn  Mn3  1  0.202986  0.704495  0.260468  1
  Mn  Mn4  1  0.555309  0.052607  0.259878  1
  Mn  Mn5  1  0.944905  0.202617  0.500000  1
  Mn  Mn6  1  0.196165  0.936503  0.133965  1
  Mn  Mn7  1  0.804723  0.063360  0.866651  1
  Mn  Mn8  1  0.438071  0.696709  0.133349  1
  Mn  Mn9  1  0.562199  0.302538  0.866035  1
  Mn  Mn10  1  0.689349  0.558262  0.242965  1
  Mn  Mn11  1  0.308611  0.442245  0.752224  1
  Mn  Mn12  1  0.946384  0.815297  0.757035  1
  Mn  Mn13  1  0.300028  0.557994  0.500000  1
  Mn  Mn14  1  0.795432  0.292729  0.740122  1
  Mn  Mn15  1  0.004769  0.500558  0.500000  1
  Mn  Mn16  1  0.499413  0.000400  0.500000  1
  Mn  Mn17  1  0.056388  0.190022  0.247776  1
  Mn  Mn18  1  0.057503  0.793404  0.500000  1
  Si  Si19  1  0.299052  0.797023  0.849292  1
  Si  Si20  1  0.053480  0.551132  0.850643  1
  Si  Si21  1  0.550599  0.710688  0.500000  1
  Si  Si22  1  0.797687  0.948144  0.500000  1
  Si  Si23  1  0.441247  0.292299  0.500000  1
  Si  Si24  1  0.949759  0.447732  0.150708  1
  Si  Si25  1  0.702837  0.200490  0.149357  1
  Si  Si26  1  0.202931  0.051050  0.500000  1
  Tc  Tc27  1  0.698007  0.446640  0.500000  1
