# generated using pymatgen
data_Y8NbSi16W11
_symmetry_space_group_name_H-M   'P 1'
_cell_length_a   6.78683889
_cell_length_b   6.96929804
_cell_length_c   12.96483700
_cell_angle_alpha   90.00000000
_cell_angle_beta   90.00000000
_cell_angle_gamma   90.15707325
_symmetry_Int_Tables_number   1
_chemical_formula_structural   Y8NbSi16W11
_chemical_formula_sum   'Y8 Nb1 Si16 W11'
_cell_volume   613.22804182
_cell_formula_units_Z   1
loop_
 _symmetry_equiv_pos_site_id
 _symmetry_equiv_pos_as_xyz
  1  'x, y, z'
loop_
 _atom_site_type_symbol
 _atom_site_label
 _atom_site_symmetry_multiplicity
 _atom_site_fract_x
 _atom_site_fract_y
 _atom_site_fract_z
 _atom_site_occupancy
  Y  Y0  1  0.496838  0.331512  0.093731  1
  Y  Y1  1  0.995418  0.168893  0.406214  1
  Y  Y2  1  0.504864  0.668133  0.594277  1
  Y  Y3  1  0.004707  0.832641  0.905899  1
  Y  Y4  1  0.504864  0.668133  0.905723  1
  Y  Y5  1  0.004707  0.832641  0.594101  1
  Y  Y6  1  0.496838  0.331512  0.406269  1
  Y  Y7  1  0.995418  0.168893  0.093786  1
  Nb  Nb8  1  0.835820  0.506483  0.250000  1
  Si  Si9  1  0.805118  0.632265  0.750000  1
  Si  Si10  1  0.304408  0.868556  0.750000  1
  Si  Si11  1  0.200451  0.367090  0.250000  1
  Si  Si12  1  0.695370  0.126800  0.250000  1
  Si  Si13  1  0.537057  0.370216  0.750000  1
  Si  Si14  1  0.038686  0.129733  0.750000  1
  Si  Si15  1  0.458722  0.629722  0.250000  1
  Si  Si16  1  0.962299  0.874251  0.250000  1
  Si  Si17  1  0.662130  0.042221  0.546939  1
  Si  Si18  1  0.162730  0.457015  0.953483  1
  Si  Si19  1  0.336645  0.957600  0.046079  1
  Si  Si20  1  0.837403  0.543557  0.457170  1
  Si  Si21  1  0.336645  0.957600  0.453921  1
  Si  Si22  1  0.837403  0.543557  0.042830  1
  Si  Si23  1  0.662130  0.042221  0.953061  1
  Si  Si24  1  0.162730  0.457015  0.546517  1
  W  W25  1  0.667519  0.001575  0.750000  1
  W  W26  1  0.165799  0.497356  0.750000  1
  W  W27  1  0.332415  0.995998  0.250000  1
  W  W28  1  0.833545  0.336881  0.626456  1
  W  W29  1  0.334371  0.164256  0.874245  1
  W  W30  1  0.165620  0.663654  0.124674  1
  W  W31  1  0.663896  0.833614  0.375444  1
  W  W32  1  0.165620  0.663654  0.375326  1
  W  W33  1  0.663896  0.833614  0.124556  1
  W  W34  1  0.833545  0.336881  0.873544  1
  W  W35  1  0.334371  0.164256  0.625755  1
