# generated using pymatgen
data_Tb6Zn7AsAu16
_symmetry_space_group_name_H-M   'P 1'
_cell_length_a   9.35826319
_cell_length_b   9.35826301
_cell_length_c   9.35826400
_cell_angle_alpha   60.00000357
_cell_angle_beta   60.00000420
_cell_angle_gamma   60.00000216
_symmetry_Int_Tables_number   1
_chemical_formula_structural   Tb6Zn7AsAu16
_chemical_formula_sum   'Tb6 Zn7 As1 Au16'
_cell_volume   579.52320306
_cell_formula_units_Z   1
loop_
 _symmetry_equiv_pos_site_id
 _symmetry_equiv_pos_as_xyz
  1  'x, y, z'
loop_
 _atom_site_type_symbol
 _atom_site_label
 _atom_site_symmetry_multiplicity
 _atom_site_fract_x
 _atom_site_fract_y
 _atom_site_fract_z
 _atom_site_occupancy
  Tb  Tb0  1  0.715206  0.284794  0.284794  1
  Tb  Tb1  1  0.284794  0.715206  0.715206  1
  Tb  Tb2  1  0.284794  0.715206  0.284794  1
  Tb  Tb3  1  0.715206  0.284794  0.715206  1
  Tb  Tb4  1  0.284794  0.284794  0.715206  1
  Tb  Tb5  1  0.715206  0.715206  0.284794  1
  Zn  Zn6  1  0.500000  0.000000  0.000000  1
  Zn  Zn7  1  0.000000  0.500000  0.500000  1
  Zn  Zn8  1  0.000000  0.500000  0.000000  1
  Zn  Zn9  1  0.500000  0.000000  0.500000  1
  Zn  Zn10  1  0.000000  0.000000  0.500000  1
  Zn  Zn11  1  0.500000  0.500000  0.000000  1
  Zn  Zn12  1  0.000000  0.000000  0.000000  1
  As  As13  1  0.500000  0.500000  0.500000  1
  Au  Au14  1  0.118784  0.118784  0.118784  1
  Au  Au15  1  0.881216  0.881216  0.881216  1
  Au  Au16  1  0.118784  0.118784  0.643649  1
  Au  Au17  1  0.118784  0.643649  0.118784  1
  Au  Au18  1  0.881216  0.881216  0.356351  1
  Au  Au19  1  0.881216  0.356351  0.881216  1
  Au  Au20  1  0.643649  0.118784  0.118784  1
  Au  Au21  1  0.356351  0.881216  0.881216  1
  Au  Au22  1  0.338610  0.338610  0.338610  1
  Au  Au23  1  0.661390  0.661390  0.661390  1
  Au  Au24  1  0.338610  0.338610  0.984172  1
  Au  Au25  1  0.338610  0.984172  0.338610  1
  Au  Au26  1  0.661390  0.661390  0.015828  1
  Au  Au27  1  0.661390  0.015828  0.661390  1
  Au  Au28  1  0.984172  0.338610  0.338610  1
  Au  Au29  1  0.015828  0.661390  0.661390  1
