# generated using pymatgen
data_Sr2Ni2P4Pd
_symmetry_space_group_name_H-M   'P 1'
_cell_length_a   8.15100710
_cell_length_b   8.15100590
_cell_length_c   8.15100645
_cell_angle_alpha   137.71788138
_cell_angle_beta   110.91198761
_cell_angle_gamma   84.44652684
_symmetry_Int_Tables_number   1
_chemical_formula_structural   Sr2Ni2P4Pd
_chemical_formula_sum   'Sr4 Ni4 P8 Pd2'
_cell_volume   328.06109495
_cell_formula_units_Z   2
loop_
 _symmetry_equiv_pos_site_id
 _symmetry_equiv_pos_as_xyz
  1  'x, y, z'
loop_
 _atom_site_type_symbol
 _atom_site_label
 _atom_site_symmetry_multiplicity
 _atom_site_fract_x
 _atom_site_fract_y
 _atom_site_fract_z
 _atom_site_occupancy
  Sr  Sr0  1  0.101092  0.892555  0.208537  1
  Sr  Sr1  1  0.898908  0.107445  0.791463  1
  Sr  Sr2  1  0.315982  0.607445  0.708537  1
  Sr  Sr3  1  0.684018  0.392555  0.291463  1
  Ni  Ni4  1  0.272486  0.022486  0.750000  1
  Ni  Ni5  1  0.727514  0.477514  0.750000  1
  Ni  Ni6  1  0.272486  0.522486  0.250000  1
  Ni  Ni7  1  0.727514  0.977514  0.250000  1
  P  P8  1  0.497319  0.134720  0.362598  1
  P  P9  1  0.502681  0.865280  0.637402  1
  P  P10  1  0.227877  0.365280  0.862598  1
  P  P11  1  0.772123  0.634720  0.137402  1
  P  P12  1  0.964742  0.341420  0.623322  1
  P  P13  1  0.035258  0.658580  0.376678  1
  P  P14  1  0.718098  0.841420  0.876678  1
  P  P15  1  0.281902  0.158580  0.123322  1
  Pd  Pd16  1  0.500000  0.750000  0.250000  1
  Pd  Pd17  1  0.500000  0.250000  0.750000  1
