# generated using pymatgen
data_Y3Er5Re2(B12Ru)2
_symmetry_space_group_name_H-M   'P 1'
_cell_length_a   3.65584200
_cell_length_b   9.13109759
_cell_length_c   11.52161107
_cell_angle_alpha   90.19548893
_cell_angle_beta   90.00000000
_cell_angle_gamma   90.00000000
_symmetry_Int_Tables_number   1
_chemical_formula_structural   Y3Er5Re2(B12Ru)2
_chemical_formula_sum   'Y3 Er5 Re2 B24 Ru2'
_cell_volume   384.61045441
_cell_formula_units_Z   1
loop_
 _symmetry_equiv_pos_site_id
 _symmetry_equiv_pos_as_xyz
  1  'x, y, z'
loop_
 _atom_site_type_symbol
 _atom_site_label
 _atom_site_symmetry_multiplicity
 _atom_site_fract_x
 _atom_site_fract_y
 _atom_site_fract_z
 _atom_site_occupancy
  Y  Y0  1  0.000000  0.320792  0.412542  1
  Y  Y1  1  0.000000  0.679191  0.587494  1
  Y  Y2  1  0.000000  0.824290  0.084540  1
  Er  Er3  1  0.000000  0.175373  0.915626  1
  Er  Er4  1  0.000000  0.942931  0.370467  1
  Er  Er5  1  0.000000  0.057216  0.629582  1
  Er  Er6  1  0.000000  0.442886  0.129038  1
  Er  Er7  1  0.000000  0.556875  0.870783  1
  Re  Re8  1  0.000000  0.138769  0.179653  1
  Re  Re9  1  0.000000  0.861749  0.820134  1
  B  B10  1  0.500000  0.554084  0.432784  1
  B  B11  1  0.500000  0.445785  0.567328  1
  B  B12  1  0.500000  0.053624  0.066600  1
  B  B13  1  0.500000  0.947295  0.932919  1
  B  B14  1  0.500000  0.749133  0.418599  1
  B  B15  1  0.500000  0.250869  0.581578  1
  B  B16  1  0.500000  0.249435  0.080609  1
  B  B17  1  0.500000  0.750625  0.918676  1
  B  B18  1  0.500000  0.790895  0.265948  1
  B  B19  1  0.500000  0.208886  0.734558  1
  B  B20  1  0.500000  0.292045  0.234460  1
  B  B21  1  0.500000  0.707996  0.765385  1
  B  B22  1  0.500000  0.630517  0.185835  1
  B  B23  1  0.500000  0.368926  0.814540  1
  B  B24  1  0.500000  0.130879  0.314945  1
  B  B25  1  0.500000  0.869334  0.685069  1
  B  B26  1  0.500000  0.982622  0.212631  1
  B  B27  1  0.500000  0.018157  0.787549  1
  B  B28  1  0.500000  0.483252  0.287723  1
  B  B29  1  0.500000  0.516524  0.712331  1
  B  B30  1  0.500000  0.602237  0.028395  1
  B  B31  1  0.500000  0.396981  0.971333  1
  B  B32  1  0.500000  0.102523  0.471842  1
  B  B33  1  0.500000  0.897543  0.528213  1
  Ru  Ru34  1  0.000000  0.638159  0.321088  1
  Ru  Ru35  1  0.000000  0.361601  0.679201  1
