# generated using pymatgen
data_Y6Mn5AsO18
_symmetry_space_group_name_H-M   'P 1'
_cell_length_a   6.25117688
_cell_length_b   6.25117514
_cell_length_c   11.72546200
_cell_angle_alpha   89.58848475
_cell_angle_beta   89.58848717
_cell_angle_gamma   119.92664899
_symmetry_Int_Tables_number   1
_chemical_formula_structural   Y6Mn5AsO18
_chemical_formula_sum   'Y6 Mn5 As1 O18'
_cell_volume   397.06340825
_cell_formula_units_Z   1
loop_
 _symmetry_equiv_pos_site_id
 _symmetry_equiv_pos_as_xyz
  1  'x, y, z'
loop_
 _atom_site_type_symbol
 _atom_site_label
 _atom_site_symmetry_multiplicity
 _atom_site_fract_x
 _atom_site_fract_y
 _atom_site_fract_z
 _atom_site_occupancy
  Y  Y0  1  0.663275  0.322430  0.725701  1
  Y  Y1  1  0.999532  0.999532  0.766429  1
  Y  Y2  1  0.333255  0.670133  0.235606  1
  Y  Y3  1  0.670133  0.333255  0.235606  1
  Y  Y4  1  0.009795  0.009795  0.272411  1
  Y  Y5  1  0.322430  0.663275  0.725701  1
  Mn  Mn6  1  0.001213  0.335805  0.995510  1
  Mn  Mn7  1  0.995411  0.667208  0.497312  1
  Mn  Mn8  1  0.335805  0.001213  0.995510  1
  Mn  Mn9  1  0.667208  0.995411  0.497312  1
  Mn  Mn10  1  0.336611  0.336611  0.497909  1
  As  As11  1  0.665846  0.665846  0.998388  1
  O  O12  1  0.667362  0.330424  0.516848  1
  O  O13  1  0.631240  0.631240  0.840684  1
  O  O14  1  0.349537  0.996445  0.824565  1
  O  O15  1  0.690267  0.991083  0.659742  1
  O  O16  1  0.996445  0.349537  0.824565  1
  O  O17  1  0.330424  0.667362  0.516848  1
  O  O18  1  0.002725  0.318349  0.167808  1
  O  O19  1  0.365012  0.365012  0.334995  1
  O  O20  1  0.996796  0.644206  0.335325  1
  O  O21  1  0.311330  0.311330  0.659798  1
  O  O22  1  0.701740  0.701740  0.158240  1
  O  O23  1  0.949984  0.949984  0.973434  1
  O  O24  1  0.318349  0.002725  0.167808  1
  O  O25  1  0.381913  0.667019  0.017013  1
  O  O26  1  0.991083  0.690267  0.659742  1
  O  O27  1  0.644206  0.996796  0.335325  1
  O  O28  1  0.004051  0.004051  0.472841  1
  O  O29  1  0.667019  0.381913  0.017013  1
