# generated using pymatgen
data_NdDy19(IrRh3)3
_symmetry_space_group_name_H-M   'P 1'
_cell_length_a   10.91046308
_cell_length_b   10.90868371
_cell_length_c   6.37484560
_cell_angle_alpha   89.97029645
_cell_angle_beta   90.03946986
_cell_angle_gamma   89.94576734
_symmetry_Int_Tables_number   1
_chemical_formula_structural   NdDy19(IrRh3)3
_chemical_formula_sum   'Nd1 Dy19 Ir3 Rh9'
_cell_volume   758.72579340
_cell_formula_units_Z   1
loop_
 _symmetry_equiv_pos_site_id
 _symmetry_equiv_pos_as_xyz
  1  'x, y, z'
loop_
 _atom_site_type_symbol
 _atom_site_label
 _atom_site_symmetry_multiplicity
 _atom_site_fract_x
 _atom_site_fract_y
 _atom_site_fract_z
 _atom_site_occupancy
  Nd  Nd0  1  0.288824  0.090071  0.377824  1
  Dy  Dy1  1  0.291836  0.908224  0.879368  1
  Dy  Dy2  1  0.708659  0.088596  0.879291  1
  Dy  Dy3  1  0.708299  0.909518  0.379112  1
  Dy  Dy4  1  0.588031  0.789821  0.880355  1
  Dy  Dy5  1  0.589079  0.209605  0.378964  1
  Dy  Dy6  1  0.412670  0.788982  0.380045  1
  Dy  Dy7  1  0.411588  0.209781  0.880621  1
  Dy  Dy8  1  0.210044  0.412833  0.619852  1
  Dy  Dy9  1  0.209965  0.587781  0.120033  1
  Dy  Dy10  1  0.790678  0.412847  0.120782  1
  Dy  Dy11  1  0.790851  0.589512  0.619035  1
  Dy  Dy12  1  0.909951  0.708592  0.120452  1
  Dy  Dy13  1  0.911302  0.291228  0.620597  1
  Dy  Dy14  1  0.090293  0.708333  0.620697  1
  Dy  Dy15  1  0.088824  0.292786  0.119597  1
  Dy  Dy16  1  0.998042  0.999228  0.500721  1
  Dy  Dy17  1  0.999748  0.000102  0.000310  1
  Dy  Dy18  1  0.500000  0.500118  0.999774  1
  Dy  Dy19  1  0.500564  0.500342  0.500686  1
  Ir  Ir20  1  0.654547  0.653978  0.250050  1
  Ir  Ir21  1  0.346578  0.348712  0.248527  1
  Ir  Ir22  1  0.345209  0.654690  0.749849  1
  Rh  Rh23  1  0.846068  0.154173  0.250114  1
  Rh  Rh24  1  0.846475  0.846906  0.750138  1
  Rh  Rh25  1  0.151462  0.154469  0.754018  1
  Rh  Rh26  1  0.152265  0.844532  0.248750  1
  Rh  Rh27  1  0.654945  0.345144  0.750151  1
  Rh  Rh28  1  0.502110  0.999656  0.122636  1
  Rh  Rh29  1  0.502604  0.999935  0.627147  1
  Rh  Rh30  1  0.999139  0.499578  0.874910  1
  Rh  Rh31  1  0.999351  0.499926  0.375593  1
