# generated using pymatgen
data_Y8PdAu7
_symmetry_space_group_name_H-M   'P 1'
_cell_length_a   6.03266709
_cell_length_b   6.03266798
_cell_length_c   10.93676000
_cell_angle_alpha   89.98996105
_cell_angle_beta   89.98995155
_cell_angle_gamma   103.26183529
_symmetry_Int_Tables_number   1
_chemical_formula_structural   Y8PdAu7
_chemical_formula_sum   'Y8 Pd1 Au7'
_cell_volume   387.40783715
_cell_formula_units_Z   1
loop_
 _symmetry_equiv_pos_site_id
 _symmetry_equiv_pos_as_xyz
  1  'x, y, z'
loop_
 _atom_site_type_symbol
 _atom_site_label
 _atom_site_symmetry_multiplicity
 _atom_site_fract_x
 _atom_site_fract_y
 _atom_site_fract_z
 _atom_site_occupancy
  Y  Y0  1  0.375775  0.872284  0.276695  1
  Y  Y1  1  0.122657  0.122657  0.002956  1
  Y  Y2  1  0.872284  0.375775  0.276695  1
  Y  Y3  1  0.128611  0.623413  0.777888  1
  Y  Y4  1  0.374593  0.374593  0.501299  1
  Y  Y5  1  0.627013  0.627013  0.003487  1
  Y  Y6  1  0.623413  0.128611  0.777888  1
  Y  Y7  1  0.875744  0.875744  0.494006  1
  Pd  Pd8  1  0.876442  0.876442  0.224350  1
  Au  Au9  1  0.120969  0.120969  0.726580  1
  Au  Au10  1  0.371233  0.371233  0.228027  1
  Au  Au11  1  0.124280  0.625343  0.052518  1
  Au  Au12  1  0.630917  0.630917  0.726942  1
  Au  Au13  1  0.375768  0.874959  0.551072  1
  Au  Au14  1  0.874959  0.375768  0.551072  1
  Au  Au15  1  0.625343  0.124280  0.052518  1
