# generated using pymatgen
data_Mg2Hg2OF6
_symmetry_space_group_name_H-M   'P 1'
_cell_length_a   7.41198945
_cell_length_b   7.41198954
_cell_length_c   7.41198900
_cell_angle_alpha   59.99999793
_cell_angle_beta   59.99999755
_cell_angle_gamma   59.99999875
_symmetry_Int_Tables_number   1
_chemical_formula_structural   Mg2Hg2OF6
_chemical_formula_sum   'Mg4 Hg4 O2 F12'
_cell_volume   287.93160595
_cell_formula_units_Z   2
loop_
 _symmetry_equiv_pos_site_id
 _symmetry_equiv_pos_as_xyz
  1  'x, y, z'
loop_
 _atom_site_type_symbol
 _atom_site_label
 _atom_site_symmetry_multiplicity
 _atom_site_fract_x
 _atom_site_fract_y
 _atom_site_fract_z
 _atom_site_occupancy
  Mg  Mg0  1  0.125000  0.125000  0.125000  1
  Mg  Mg1  1  0.625000  0.125000  0.125000  1
  Mg  Mg2  1  0.125000  0.125000  0.625000  1
  Mg  Mg3  1  0.125000  0.625000  0.125000  1
  Hg  Hg4  1  0.625000  0.625000  0.625000  1
  Hg  Hg5  1  0.125000  0.625000  0.625000  1
  Hg  Hg6  1  0.625000  0.625000  0.125000  1
  Hg  Hg7  1  0.625000  0.125000  0.625000  1
  O  O8  1  0.750000  0.750000  0.750000  1
  O  O9  1  0.500000  0.500000  0.500000  1
  F  F10  1  0.445695  0.445695  0.054305  1
  F  F11  1  0.445695  0.054305  0.445695  1
  F  F12  1  0.804305  0.804305  0.195695  1
  F  F13  1  0.054305  0.054305  0.445695  1
  F  F14  1  0.195695  0.804305  0.195695  1
  F  F15  1  0.195695  0.804305  0.804305  1
  F  F16  1  0.054305  0.445695  0.054305  1
  F  F17  1  0.804305  0.195695  0.804305  1
  F  F18  1  0.195695  0.195695  0.804305  1
  F  F19  1  0.445695  0.054305  0.054305  1
  F  F20  1  0.054305  0.445695  0.445695  1
  F  F21  1  0.804305  0.195695  0.195695  1
