# generated using pymatgen
data_AlV10Si3Tc2
_symmetry_space_group_name_H-M   'P 1'
_cell_length_a   4.70992300
_cell_length_b   4.73793161
_cell_length_c   9.50297623
_cell_angle_alpha   89.90555579
_cell_angle_beta   90.00000000
_cell_angle_gamma   90.00000000
_symmetry_Int_Tables_number   1
_chemical_formula_structural   AlV10Si3Tc2
_chemical_formula_sum   'Al1 V10 Si3 Tc2'
_cell_volume   212.06141135
_cell_formula_units_Z   1
loop_
 _symmetry_equiv_pos_site_id
 _symmetry_equiv_pos_as_xyz
  1  'x, y, z'
loop_
 _atom_site_type_symbol
 _atom_site_label
 _atom_site_symmetry_multiplicity
 _atom_site_fract_x
 _atom_site_fract_y
 _atom_site_fract_z
 _atom_site_occupancy
  Al  Al0  1  0.500000  0.501806  0.999512  1
  V  V1  1  0.000000  0.498531  0.626879  1
  V  V2  1  0.500000  0.246651  0.253944  1
  V  V3  1  0.754597  0.000500  0.001356  1
  V  V4  1  0.752035  0.999841  0.499216  1
  V  V5  1  0.000000  0.498591  0.869987  1
  V  V6  1  0.000000  0.500825  0.377427  1
  V  V7  1  0.500000  0.751014  0.745313  1
  V  V8  1  0.500000  0.756418  0.252917  1
  V  V9  1  0.245403  0.000500  0.001356  1
  V  V10  1  0.247965  0.999841  0.499216  1
  Si  Si11  1  0.500000  0.502904  0.497932  1
  Si  Si12  1  0.000000  0.994595  0.749703  1
  Si  Si13  1  0.000000  0.998683  0.252360  1
  Tc  Tc14  1  0.000000  0.500016  0.125514  1
  Tc  Tc15  1  0.500000  0.249284  0.747370  1
