# generated using pymatgen
data_TbSn6RuRh3
_symmetry_space_group_name_H-M   'P 1'
_cell_length_a   6.98022569
_cell_length_b   6.98022504
_cell_length_c   6.91395089
_cell_angle_alpha   119.71166952
_cell_angle_beta   119.71166390
_cell_angle_gamma   90.92546266
_symmetry_Int_Tables_number   1
_chemical_formula_structural   TbSn6RuRh3
_chemical_formula_sum   'Tb1 Sn6 Ru1 Rh3'
_cell_volume   238.32238446
_cell_formula_units_Z   1
loop_
 _symmetry_equiv_pos_site_id
 _symmetry_equiv_pos_as_xyz
  1  'x, y, z'
loop_
 _atom_site_type_symbol
 _atom_site_label
 _atom_site_symmetry_multiplicity
 _atom_site_fract_x
 _atom_site_fract_y
 _atom_site_fract_z
 _atom_site_occupancy
  Tb  Tb0  1  0.005266  0.005266  0.009072  1
  Sn  Sn1  1  0.868424  0.533552  0.995010  1
  Sn  Sn2  1  0.533552  0.868424  0.995010  1
  Sn  Sn3  1  0.463807  0.463807  0.336078  1
  Sn  Sn4  1  0.502076  0.003394  0.499618  1
  Sn  Sn5  1  0.003394  0.502076  0.499618  1
  Sn  Sn6  1  0.128029  0.128029  0.662780  1
  Ru  Ru7  1  0.395722  0.395722  0.640493  1
  Rh  Rh8  1  0.606262  0.237761  0.000934  1
  Rh  Rh9  1  0.237761  0.606262  0.000934  1
  Rh  Rh10  1  0.755708  0.755708  0.360458  1
