# generated using pymatgen
data_Ho16Cd4CoIr2Ru
_symmetry_space_group_name_H-M   'P 1'
_cell_length_a   9.60931380
_cell_length_b   9.59016186
_cell_length_c   9.55105956
_cell_angle_alpha   59.70056247
_cell_angle_beta   59.79803416
_cell_angle_gamma   59.93392239
_symmetry_Int_Tables_number   1
_chemical_formula_structural   Ho16Cd4CoIr2Ru
_chemical_formula_sum   'Ho16 Cd4 Co1 Ir2 Ru1'
_cell_volume   619.70131391
_cell_formula_units_Z   1
loop_
 _symmetry_equiv_pos_site_id
 _symmetry_equiv_pos_as_xyz
  1  'x, y, z'
loop_
 _atom_site_type_symbol
 _atom_site_label
 _atom_site_symmetry_multiplicity
 _atom_site_fract_x
 _atom_site_fract_y
 _atom_site_fract_z
 _atom_site_occupancy
  Ho  Ho0  1  0.936516  0.938070  0.560799  1
  Ho  Ho1  1  0.810363  0.190446  0.188829  1
  Ho  Ho2  1  0.937481  0.565357  0.559680  1
  Ho  Ho3  1  0.938655  0.562041  0.939333  1
  Ho  Ho4  1  0.812691  0.808761  0.187100  1
  Ho  Ho5  1  0.343036  0.345427  0.352934  1
  Ho  Ho6  1  0.561286  0.938575  0.938852  1
  Ho  Ho7  1  0.564616  0.938070  0.560799  1
  Ho  Ho8  1  0.188970  0.814620  0.807439  1
  Ho  Ho9  1  0.190220  0.188149  0.805403  1
  Ho  Ho10  1  0.347656  0.349480  0.955209  1
  Ho  Ho11  1  0.343659  0.957588  0.355095  1
  Ho  Ho12  1  0.816227  0.188149  0.805403  1
  Ho  Ho13  1  0.559971  0.562041  0.939333  1
  Ho  Ho14  1  0.191449  0.808761  0.187100  1
  Ho  Ho15  1  0.958603  0.345427  0.352934  1
  Cd  Cd16  1  0.581320  0.580735  0.256626  1
  Cd  Cd17  1  0.258035  0.580714  0.579776  1
  Cd  Cd18  1  0.581478  0.580714  0.579776  1
  Cd  Cd19  1  0.581375  0.257330  0.579922  1
  Co  Co20  1  0.139837  0.141185  0.579140  1
  Ir  Ir21  1  0.576329  0.140415  0.142960  1
  Ir  Ir22  1  0.140297  0.140415  0.142960  1
  Ru  Ru23  1  0.139933  0.577533  0.142602  1
