# generated using pymatgen
data_Tb3Pr3Nd2(CdPt)2
_symmetry_space_group_name_H-M   'P 1'
_cell_length_a   9.93630564
_cell_length_b   9.93630596
_cell_length_c   9.93630500
_cell_angle_alpha   59.99999988
_cell_angle_beta   59.99999880
_cell_angle_gamma   60.00000221
_symmetry_Int_Tables_number   1
_chemical_formula_structural   Tb3Pr3Nd2(CdPt)2
_chemical_formula_sum   'Tb6 Pr6 Nd4 Cd4 Pt4'
_cell_volume   693.68102833
_cell_formula_units_Z   2
loop_
 _symmetry_equiv_pos_site_id
 _symmetry_equiv_pos_as_xyz
  1  'x, y, z'
loop_
 _atom_site_type_symbol
 _atom_site_label
 _atom_site_symmetry_multiplicity
 _atom_site_fract_x
 _atom_site_fract_y
 _atom_site_fract_z
 _atom_site_occupancy
  Tb  Tb0  1  0.812870  0.187130  0.187130  1
  Tb  Tb1  1  0.187130  0.812870  0.812870  1
  Tb  Tb2  1  0.187130  0.812870  0.187130  1
  Tb  Tb3  1  0.812870  0.187130  0.812870  1
  Tb  Tb4  1  0.187130  0.187130  0.812870  1
  Tb  Tb5  1  0.812870  0.812870  0.187130  1
  Pr  Pr6  1  0.937044  0.562956  0.562956  1
  Pr  Pr7  1  0.562956  0.937044  0.937044  1
  Pr  Pr8  1  0.562956  0.937044  0.562956  1
  Pr  Pr9  1  0.937044  0.562956  0.937044  1
  Pr  Pr10  1  0.562956  0.562956  0.937044  1
  Pr  Pr11  1  0.937044  0.937044  0.562956  1
  Nd  Nd12  1  0.351585  0.351585  0.351585  1
  Nd  Nd13  1  0.351585  0.351585  0.945245  1
  Nd  Nd14  1  0.351585  0.945245  0.351585  1
  Nd  Nd15  1  0.945245  0.351585  0.351585  1
  Cd  Cd16  1  0.580044  0.580044  0.580044  1
  Cd  Cd17  1  0.580044  0.580044  0.259868  1
  Cd  Cd18  1  0.580044  0.259868  0.580044  1
  Cd  Cd19  1  0.259868  0.580044  0.580044  1
  Pt  Pt20  1  0.141101  0.141101  0.141101  1
  Pt  Pt21  1  0.141101  0.141101  0.576696  1
  Pt  Pt22  1  0.141101  0.576696  0.141101  1
  Pt  Pt23  1  0.576696  0.141101  0.141101  1
