# generated using pymatgen
data_LaPrAlCu9
_symmetry_space_group_name_H-M   'P 1'
_cell_length_a   4.10403500
_cell_length_b   5.24633100
_cell_length_c   8.93572600
_cell_angle_alpha   90.00000000
_cell_angle_beta   90.00000000
_cell_angle_gamma   90.00000000
_symmetry_Int_Tables_number   1
_chemical_formula_structural   LaPrAlCu9
_chemical_formula_sum   'La1 Pr1 Al1 Cu9'
_cell_volume   192.39624281
_cell_formula_units_Z   1
loop_
 _symmetry_equiv_pos_site_id
 _symmetry_equiv_pos_as_xyz
  1  'x, y, z'
loop_
 _atom_site_type_symbol
 _atom_site_label
 _atom_site_symmetry_multiplicity
 _atom_site_fract_x
 _atom_site_fract_y
 _atom_site_fract_z
 _atom_site_occupancy
  La  La0  1  0.000000  0.999977  0.000000  1
  Pr  Pr1  1  0.000000  0.499987  0.500000  1
  Al  Al2  1  0.500000  0.999986  0.500000  1
  Cu  Cu3  1  0.000000  0.999985  0.333609  1
  Cu  Cu4  1  0.000000  0.499980  0.833442  1
  Cu  Cu5  1  0.000000  0.499980  0.166558  1
  Cu  Cu6  1  0.000000  0.999985  0.666391  1
  Cu  Cu7  1  0.500000  0.499988  0.000000  1
  Cu  Cu8  1  0.500000  0.253715  0.251874  1
  Cu  Cu9  1  0.500000  0.746251  0.748127  1
  Cu  Cu10  1  0.500000  0.746251  0.251873  1
  Cu  Cu11  1  0.500000  0.253715  0.748126  1
