# generated using pymatgen
data_Er4TaB4Ir9
_symmetry_space_group_name_H-M   'P 1'
_cell_length_a   10.79746530
_cell_length_b   10.79746483
_cell_length_c   10.79746529
_cell_angle_alpha   29.76221472
_cell_angle_beta   29.76221783
_cell_angle_gamma   29.76221235
_symmetry_Int_Tables_number   1
_chemical_formula_structural   Er4TaB4Ir9
_chemical_formula_sum   'Er4 Ta1 B4 Ir9'
_cell_volume   274.66673518
_cell_formula_units_Z   1
loop_
 _symmetry_equiv_pos_site_id
 _symmetry_equiv_pos_as_xyz
  1  'x, y, z'
loop_
 _atom_site_type_symbol
 _atom_site_label
 _atom_site_symmetry_multiplicity
 _atom_site_fract_x
 _atom_site_fract_y
 _atom_site_fract_z
 _atom_site_occupancy
  Er  Er0  1  0.151025  0.151025  0.151025  1
  Er  Er1  1  0.949885  0.949885  0.949885  1
  Er  Er2  1  0.848975  0.848975  0.848975  1
  Er  Er3  1  0.050115  0.050115  0.050115  1
  Ta  Ta4  1  0.500000  0.500000  0.500000  1
  B  B5  1  0.615697  0.615697  0.615697  1
  B  B6  1  0.716216  0.716216  0.716216  1
  B  B7  1  0.384303  0.384303  0.384303  1
  B  B8  1  0.283784  0.283784  0.283784  1
  Ir  Ir9  1  0.400874  0.904498  0.400874  1
  Ir  Ir10  1  0.904498  0.400874  0.400874  1
  Ir  Ir11  1  0.500000  0.500000  0.000000  1
  Ir  Ir12  1  0.500000  0.000000  0.500000  1
  Ir  Ir13  1  0.000000  0.500000  0.500000  1
  Ir  Ir14  1  0.599126  0.095502  0.599126  1
  Ir  Ir15  1  0.599126  0.599126  0.095502  1
  Ir  Ir16  1  0.095502  0.599126  0.599126  1
  Ir  Ir17  1  0.400874  0.400874  0.904498  1
