# generated using pymatgen
data_Sm5Co14P12Ru5
_symmetry_space_group_name_H-M   'P 1'
_cell_length_a   12.17466104
_cell_length_b   12.17380916
_cell_length_c   3.75972800
_cell_angle_alpha   90.00000000
_cell_angle_beta   90.00000000
_cell_angle_gamma   119.84980164
_symmetry_Int_Tables_number   1
_chemical_formula_structural   Sm5Co14P12Ru5
_chemical_formula_sum   'Sm5 Co14 P12 Ru5'
_cell_volume   483.30995716
_cell_formula_units_Z   1
loop_
 _symmetry_equiv_pos_site_id
 _symmetry_equiv_pos_as_xyz
  1  'x, y, z'
loop_
 _atom_site_type_symbol
 _atom_site_label
 _atom_site_symmetry_multiplicity
 _atom_site_fract_x
 _atom_site_fract_y
 _atom_site_fract_z
 _atom_site_occupancy
  Sm  Sm0  1  0.662747  0.333935  0.000000  1
  Sm  Sm1  1  0.333148  0.666172  0.000000  1
  Sm  Sm2  1  0.186416  0.184944  0.500000  1
  Sm  Sm3  1  0.816828  0.000535  0.500000  1
  Sm  Sm4  1  0.000054  0.817779  0.500000  1
  Co  Co5  1  0.827587  0.200729  0.000000  1
  Co  Co6  1  0.799575  0.627002  0.000000  1
  Co  Co7  1  0.375783  0.178282  0.000000  1
  Co  Co8  1  0.195742  0.819382  0.000000  1
  Co  Co9  1  0.622679  0.802336  0.000000  1
  Co  Co10  1  0.181189  0.375788  0.000000  1
  Co  Co11  1  0.479936  0.359177  0.500000  1
  Co  Co12  1  0.130007  0.643353  0.500000  1
  Co  Co13  1  0.513693  0.870137  0.500000  1
  Co  Co14  1  0.357970  0.483575  0.500000  1
  Co  Co15  1  0.715101  0.717173  0.500000  1
  Co  Co16  1  0.282251  0.998233  0.500000  1
  Co  Co17  1  0.002518  0.283899  0.500000  1
  Co  Co18  1  0.999465  0.999295  0.000000  1
  P  P19  1  0.365133  0.364862  0.000000  1
  P  P20  1  0.631484  0.994890  0.000000  1
  P  P21  1  0.004898  0.637407  0.000000  1
  P  P22  1  0.838848  0.313161  0.500000  1
  P  P23  1  0.682524  0.523303  0.500000  1
  P  P24  1  0.472538  0.165711  0.500000  1
  P  P25  1  0.312071  0.835117  0.500000  1
  P  P26  1  0.521745  0.686356  0.500000  1
  P  P27  1  0.166415  0.476635  0.500000  1
  P  P28  1  0.817129  0.819135  0.000000  1
  P  P29  1  0.181885  0.999868  0.000000  1
  P  P30  1  0.002422  0.181932  0.000000  1
  Ru  Ru31  1  0.552043  0.554236  0.000000  1
  Ru  Ru32  1  0.440665  0.991817  0.000000  1
  Ru  Ru33  1  0.008761  0.449769  0.000000  1
  Ru  Ru34  1  0.641583  0.123087  0.500000  1
  Ru  Ru35  1  0.877166  0.520987  0.500000  1
