# generated using pymatgen
data_Dy3Er3CoTc
_symmetry_space_group_name_H-M   'P 1'
_cell_length_a   6.26379400
_cell_length_b   7.14704717
_cell_length_c   9.11995800
_cell_angle_alpha   90.00000000
_cell_angle_beta   90.00000000
_cell_angle_gamma   90.12186205
_symmetry_Int_Tables_number   1
_chemical_formula_structural   Dy3Er3CoTc
_chemical_formula_sum   'Dy6 Er6 Co2 Tc2'
_cell_volume   408.27799241
_cell_formula_units_Z   2
loop_
 _symmetry_equiv_pos_site_id
 _symmetry_equiv_pos_as_xyz
  1  'x, y, z'
loop_
 _atom_site_type_symbol
 _atom_site_label
 _atom_site_symmetry_multiplicity
 _atom_site_fract_x
 _atom_site_fract_y
 _atom_site_fract_z
 _atom_site_occupancy
  Dy  Dy0  1  0.127597  0.451889  0.750000  1
  Dy  Dy1  1  0.359225  0.960385  0.750000  1
  Dy  Dy2  1  0.857034  0.539415  0.250000  1
  Dy  Dy3  1  0.628138  0.048871  0.250000  1
  Dy  Dy4  1  0.332266  0.673466  0.063177  1
  Dy  Dy5  1  0.332266  0.673466  0.436823  1
  Er  Er6  1  0.677167  0.318026  0.932997  1
  Er  Er7  1  0.176134  0.181146  0.433223  1
  Er  Er8  1  0.832686  0.827352  0.564258  1
  Er  Er9  1  0.176134  0.181146  0.066777  1
  Er  Er10  1  0.832686  0.827352  0.935742  1
  Er  Er11  1  0.677167  0.318026  0.567003  1
  Co  Co12  1  0.957728  0.113605  0.750000  1
  Co  Co13  1  0.457697  0.385758  0.250000  1
  Tc  Tc14  1  0.540353  0.608317  0.750000  1
  Tc  Tc15  1  0.035719  0.891784  0.250000  1
