# generated using pymatgen
data_InBi7(Ru2O11)2
_symmetry_space_group_name_H-M   'P 1'
_cell_length_a   6.55654926
_cell_length_b   7.53670578
_cell_length_c   9.82358800
_cell_angle_alpha   100.89417259
_cell_angle_beta   91.83335329
_cell_angle_gamma   89.96679743
_symmetry_Int_Tables_number   1
_chemical_formula_structural   InBi7(Ru2O11)2
_chemical_formula_sum   'In1 Bi7 Ru4 O22'
_cell_volume   476.43060723
_cell_formula_units_Z   1
loop_
 _symmetry_equiv_pos_site_id
 _symmetry_equiv_pos_as_xyz
  1  'x, y, z'
loop_
 _atom_site_type_symbol
 _atom_site_label
 _atom_site_symmetry_multiplicity
 _atom_site_fract_x
 _atom_site_fract_y
 _atom_site_fract_z
 _atom_site_occupancy
  In  In0  1  0.747251  0.369417  0.479611  1
  Bi  Bi1  1  0.248749  0.624686  0.517352  1
  Bi  Bi2  1  0.759970  0.874194  0.492592  1
  Bi  Bi3  1  0.244155  0.131267  0.510010  1
  Bi  Bi4  1  0.471557  0.954691  0.821308  1
  Bi  Bi5  1  0.529052  0.048274  0.181153  1
  Bi  Bi6  1  0.404203  0.453938  0.826775  1
  Bi  Bi7  1  0.605549  0.543833  0.175161  1
  Ru  Ru8  1  0.931464  0.701790  0.809764  1
  Ru  Ru9  1  0.065544  0.295787  0.188063  1
  Ru  Ru10  1  0.930219  0.205162  0.810348  1
  Ru  Ru11  1  0.067931  0.796924  0.187429  1
  O  O12  1  0.225012  0.722936  0.763994  1
  O  O13  1  0.771071  0.278640  0.238205  1
  O  O14  1  0.634880  0.676896  0.835736  1
  O  O15  1  0.360906  0.326170  0.166379  1
  O  O16  1  0.635748  0.242985  0.847327  1
  O  O17  1  0.362000  0.755943  0.159100  1
  O  O18  1  0.883590  0.185057  0.602666  1
  O  O19  1  0.110499  0.828763  0.392610  1
  O  O20  1  0.222225  0.159349  0.760583  1
  O  O21  1  0.773080  0.841372  0.237869  1
  O  O22  1  0.898253  0.620549  0.601789  1
  O  O23  1  0.091587  0.363386  0.395625  1
  O  O24  1  0.005849  0.543278  0.174259  1
  O  O25  1  0.987438  0.457951  0.829719  1
  O  O26  1  0.995493  0.788207  0.999143  1
  O  O27  1  0.000603  0.211063  0.998521  1
  O  O28  1  0.587269  0.591970  0.397379  1
  O  O29  1  0.441221  0.392922  0.605266  1
  O  O30  1  0.156030  0.054782  0.219954  1
  O  O31  1  0.843846  0.943711  0.771539  1
  O  O32  1  0.551446  0.109479  0.402466  1
  O  O33  1  0.456305  0.904625  0.600308  1
