# generated using pymatgen
data_Pr20Si15Os
_symmetry_space_group_name_H-M   'P 1'
_cell_length_a   7.93000841
_cell_length_b   7.93580828
_cell_length_c   15.27886852
_cell_angle_alpha   90.19025883
_cell_angle_beta   89.90021286
_cell_angle_gamma   90.06552077
_symmetry_Int_Tables_number   1
_chemical_formula_structural   Pr20Si15Os
_chemical_formula_sum   'Pr20 Si15 Os1'
_cell_volume   961.50749687
_cell_formula_units_Z   1
loop_
 _symmetry_equiv_pos_site_id
 _symmetry_equiv_pos_as_xyz
  1  'x, y, z'
loop_
 _atom_site_type_symbol
 _atom_site_label
 _atom_site_symmetry_multiplicity
 _atom_site_fract_x
 _atom_site_fract_y
 _atom_site_fract_z
 _atom_site_occupancy
  Pr  Pr0  1  0.305942  0.306379  0.998449  1
  Pr  Pr1  1  0.191300  0.809198  0.249554  1
  Pr  Pr2  1  0.824068  0.188684  0.749595  1
  Pr  Pr3  1  0.694992  0.688757  0.501910  1
  Pr  Pr4  1  0.371859  0.011814  0.450263  1
  Pr  Pr5  1  0.484861  0.880785  0.696715  1
  Pr  Pr6  1  0.510962  0.123891  0.198465  1
  Pr  Pr7  1  0.876013  0.488339  0.300344  1
  Pr  Pr8  1  0.126629  0.504212  0.798879  1
  Pr  Pr9  1  0.625619  0.988064  0.948594  1
  Pr  Pr10  1  0.008648  0.374165  0.552408  1
  Pr  Pr11  1  0.988218  0.624842  0.050771  1
  Pr  Pr12  1  0.132914  0.984889  0.872640  1
  Pr  Pr13  1  0.516537  0.629997  0.126001  1
  Pr  Pr14  1  0.472533  0.359763  0.628414  1
  Pr  Pr15  1  0.626959  0.515404  0.873931  1
  Pr  Pr16  1  0.375050  0.483862  0.373631  1
  Pr  Pr17  1  0.872668  0.019888  0.376227  1
  Pr  Pr18  1  0.982638  0.127133  0.124358  1
  Pr  Pr19  1  0.026157  0.881902  0.626486  1
  Si  Si20  1  0.333724  0.695673  0.950725  1
  Si  Si21  1  0.665120  0.302535  0.451399  1
  Si  Si22  1  0.696814  0.334482  0.050011  1
  Si  Si23  1  0.303838  0.668066  0.547416  1
  Si  Si24  1  0.804718  0.832621  0.202646  1
  Si  Si25  1  0.167821  0.197926  0.298684  1
  Si  Si26  1  0.832039  0.801681  0.800106  1
  Si  Si27  1  0.288226  0.922093  0.058361  1
  Si  Si28  1  0.579550  0.787615  0.310363  1
  Si  Si29  1  0.423123  0.208880  0.811903  1
  Si  Si30  1  0.780199  0.583326  0.691066  1
  Si  Si31  1  0.211920  0.421672  0.190665  1
  Si  Si32  1  0.705078  0.074415  0.558129  1
  Si  Si33  1  0.919386  0.288190  0.941965  1
  Si  Si34  1  0.079363  0.714939  0.441021  1
  Os  Os35  1  0.194513  0.173919  0.697905  1
