# generated using pymatgen
data_Dy5Y3Re3B24Os
_symmetry_space_group_name_H-M   'P 1'
_cell_length_a   3.68022500
_cell_length_b   9.17857657
_cell_length_c   11.56534704
_cell_angle_alpha   90.06898235
_cell_angle_beta   90.00000000
_cell_angle_gamma   90.00000000
_symmetry_Int_Tables_number   1
_chemical_formula_structural   Dy5Y3Re3B24Os
_chemical_formula_sum   'Dy5 Y3 Re3 B24 Os1'
_cell_volume   390.66819925
_cell_formula_units_Z   1
loop_
 _symmetry_equiv_pos_site_id
 _symmetry_equiv_pos_as_xyz
  1  'x, y, z'
loop_
 _atom_site_type_symbol
 _atom_site_label
 _atom_site_symmetry_multiplicity
 _atom_site_fract_x
 _atom_site_fract_y
 _atom_site_fract_z
 _atom_site_occupancy
  Dy  Dy0  1  0.000000  0.176285  0.913548  1
  Dy  Dy1  1  0.000000  0.942677  0.369899  1
  Dy  Dy2  1  0.000000  0.056488  0.629502  1
  Dy  Dy3  1  0.000000  0.442756  0.129922  1
  Dy  Dy4  1  0.000000  0.556842  0.870742  1
  Y  Y5  1  0.000000  0.322116  0.414239  1
  Y  Y6  1  0.000000  0.677251  0.587580  1
  Y  Y7  1  0.000000  0.824695  0.084408  1
  Re  Re8  1  0.000000  0.362067  0.678171  1
  Re  Re9  1  0.000000  0.138459  0.179472  1
  Re  Re10  1  0.000000  0.861747  0.820972  1
  B  B11  1  0.500000  0.553950  0.432656  1
  B  B12  1  0.500000  0.446847  0.566994  1
  B  B13  1  0.500000  0.053406  0.066902  1
  B  B14  1  0.500000  0.946926  0.932804  1
  B  B15  1  0.500000  0.748414  0.418311  1
  B  B16  1  0.500000  0.250862  0.581384  1
  B  B17  1  0.500000  0.248924  0.081314  1
  B  B18  1  0.500000  0.751444  0.918641  1
  B  B19  1  0.500000  0.790859  0.265821  1
  B  B20  1  0.500000  0.208193  0.734144  1
  B  B21  1  0.500000  0.291604  0.234537  1
  B  B22  1  0.500000  0.708101  0.766079  1
  B  B23  1  0.500000  0.631505  0.186172  1
  B  B24  1  0.500000  0.369007  0.813806  1
  B  B25  1  0.500000  0.131272  0.314501  1
  B  B26  1  0.500000  0.868643  0.685970  1
  B  B27  1  0.500000  0.983039  0.211939  1
  B  B28  1  0.500000  0.017249  0.787795  1
  B  B29  1  0.500000  0.483785  0.288075  1
  B  B30  1  0.500000  0.517524  0.712086  1
  B  B31  1  0.500000  0.602095  0.028907  1
  B  B32  1  0.500000  0.398013  0.971812  1
  B  B33  1  0.500000  0.101238  0.471389  1
  B  B34  1  0.500000  0.897429  0.528287  1
  Os  Os35  1  0.000000  0.638287  0.321218  1
