# generated using pymatgen
data_Sc8Ta8Nb3Si16Ag
_symmetry_space_group_name_H-M   'P 1'
_cell_length_a   6.68433512
_cell_length_b   6.90515313
_cell_length_c   13.14535617
_cell_angle_alpha   89.99981902
_cell_angle_beta   89.98170951
_cell_angle_gamma   90.53528489
_symmetry_Int_Tables_number   1
_chemical_formula_structural   Sc8Ta8Nb3Si16Ag
_chemical_formula_sum   'Sc8 Ta8 Nb3 Si16 Ag1'
_cell_volume   606.71525019
_cell_formula_units_Z   1
loop_
 _symmetry_equiv_pos_site_id
 _symmetry_equiv_pos_as_xyz
  1  'x, y, z'
loop_
 _atom_site_type_symbol
 _atom_site_label
 _atom_site_symmetry_multiplicity
 _atom_site_fract_x
 _atom_site_fract_y
 _atom_site_fract_z
 _atom_site_occupancy
  Sc  Sc0  1  0.498798  0.675379  0.591874  1
  Sc  Sc1  1  0.003442  0.827787  0.907484  1
  Sc  Sc2  1  0.496326  0.327243  0.095979  1
  Sc  Sc3  1  0.000778  0.172191  0.401630  1
  Sc  Sc4  1  0.496654  0.327455  0.404133  1
  Sc  Sc5  1  0.000705  0.172244  0.098320  1
  Sc  Sc6  1  0.498589  0.675393  0.908086  1
  Sc  Sc7  1  0.003161  0.827655  0.592440  1
  Ta  Ta8  1  0.667102  0.172862  0.625783  1
  Ta  Ta9  1  0.157485  0.322382  0.874375  1
  Ta  Ta10  1  0.337908  0.826262  0.125056  1
  Ta  Ta11  1  0.836794  0.675406  0.375699  1
  Ta  Ta12  1  0.337697  0.826128  0.375026  1
  Ta  Ta13  1  0.337043  0.000008  0.749995  1
  Ta  Ta14  1  0.162449  0.506543  0.250039  1
  Ta  Ta15  1  0.662806  0.995511  0.250188  1
  Nb  Nb16  1  0.836692  0.675440  0.124140  1
  Nb  Nb17  1  0.667889  0.173336  0.874248  1
  Nb  Nb18  1  0.157139  0.322611  0.625531  1
  Si  Si19  1  0.670169  0.968552  0.460290  1
  Si  Si20  1  0.168747  0.532963  0.038775  1
  Si  Si21  1  0.333168  0.034343  0.960226  1
  Si  Si22  1  0.829977  0.458749  0.531700  1
  Si  Si23  1  0.333709  0.034128  0.539864  1
  Si  Si24  1  0.830863  0.458785  0.968141  1
  Si  Si25  1  0.669802  0.968600  0.039901  1
  Si  Si26  1  0.168477  0.532885  0.460951  1
  Si  Si27  1  0.458647  0.378614  0.750013  1
  Si  Si28  1  0.962743  0.105871  0.749872  1
  Si  Si29  1  0.539623  0.613784  0.250025  1
  Si  Si30  1  0.040895  0.886245  0.249921  1
  Si  Si31  1  0.701450  0.869899  0.749876  1
  Si  Si32  1  0.213964  0.632209  0.750146  1
  Si  Si33  1  0.296849  0.138244  0.250061  1
  Si  Si34  1  0.793245  0.363441  0.250111  1
  Ag  Ag35  1  0.828210  0.520856  0.750100  1
