# generated using pymatgen
data_TmPa3Co3CuGe4
_symmetry_space_group_name_H-M   'P 1'
_cell_length_a   4.27811400
_cell_length_b   7.07624091
_cell_length_c   7.10958751
_cell_angle_alpha   90.60586383
_cell_angle_beta   90.00000000
_cell_angle_gamma   90.00000000
_symmetry_Int_Tables_number   1
_chemical_formula_structural   TmPa3Co3CuGe4
_chemical_formula_sum   'Tm1 Pa3 Co3 Cu1 Ge4'
_cell_volume   215.21626323
_cell_formula_units_Z   1
loop_
 _symmetry_equiv_pos_site_id
 _symmetry_equiv_pos_as_xyz
  1  'x, y, z'
loop_
 _atom_site_type_symbol
 _atom_site_label
 _atom_site_symmetry_multiplicity
 _atom_site_fract_x
 _atom_site_fract_y
 _atom_site_fract_z
 _atom_site_occupancy
  Tm  Tm0  1  0.750000  0.499068  0.280367  1
  Pa  Pa1  1  0.250000  0.002602  0.796439  1
  Pa  Pa2  1  0.250000  0.527263  0.717451  1
  Pa  Pa3  1  0.750000  0.990095  0.208281  1
  Co  Co4  1  0.250000  0.759530  0.441172  1
  Co  Co5  1  0.250000  0.245173  0.056281  1
  Co  Co6  1  0.750000  0.720667  0.919460  1
  Cu  Cu7  1  0.750000  0.199933  0.580093  1
  Ge  Ge8  1  0.250000  0.220363  0.403089  1
  Ge  Ge9  1  0.250000  0.713457  0.099669  1
  Ge  Ge10  1  0.750000  0.807849  0.584562  1
  Ge  Ge11  1  0.750000  0.314001  0.913135  1
