# generated using pymatgen
data_SmEr19Rh12
_symmetry_space_group_name_H-M   'P 1'
_cell_length_a   10.91208640
_cell_length_b   10.90884262
_cell_length_c   6.35012600
_cell_angle_alpha   89.98273066
_cell_angle_beta   90.01559974
_cell_angle_gamma   90.00877068
_symmetry_Int_Tables_number   1
_chemical_formula_structural   SmEr19Rh12
_chemical_formula_sum   'Sm1 Er19 Rh12'
_cell_volume   755.90770892
_cell_formula_units_Z   1
loop_
 _symmetry_equiv_pos_site_id
 _symmetry_equiv_pos_as_xyz
  1  'x, y, z'
loop_
 _atom_site_type_symbol
 _atom_site_label
 _atom_site_symmetry_multiplicity
 _atom_site_fract_x
 _atom_site_fract_y
 _atom_site_fract_z
 _atom_site_occupancy
  Sm  Sm0  1  0.289188  0.089587  0.377505  1
  Er  Er1  1  0.291974  0.909927  0.879628  1
  Er  Er2  1  0.708602  0.088782  0.879686  1
  Er  Er3  1  0.708474  0.910879  0.379624  1
  Er  Er4  1  0.589243  0.791379  0.879443  1
  Er  Er5  1  0.590347  0.208649  0.379673  1
  Er  Er6  1  0.411613  0.790656  0.379886  1
  Er  Er7  1  0.412294  0.208823  0.879658  1
  Er  Er8  1  0.208495  0.411571  0.620661  1
  Er  Er9  1  0.208615  0.588774  0.120097  1
  Er  Er10  1  0.791253  0.411586  0.120123  1
  Er  Er11  1  0.791531  0.588633  0.619756  1
  Er  Er12  1  0.911375  0.708506  0.120114  1
  Er  Er13  1  0.911178  0.291479  0.619820  1
  Er  Er14  1  0.088619  0.708299  0.620289  1
  Er  Er15  1  0.087217  0.292641  0.119106  1
  Er  Er16  1  0.998445  0.999336  0.501112  1
  Er  Er17  1  0.999911  0.999923  0.000575  1
  Er  Er18  1  0.500178  0.500262  0.000172  1
  Er  Er19  1  0.500355  0.499860  0.500467  1
  Rh  Rh20  1  0.846279  0.153881  0.250346  1
  Rh  Rh21  1  0.846289  0.846134  0.750058  1
  Rh  Rh22  1  0.152712  0.154597  0.754097  1
  Rh  Rh23  1  0.152719  0.844121  0.248980  1
  Rh  Rh24  1  0.653862  0.346422  0.749993  1
  Rh  Rh25  1  0.653652  0.653797  0.250017  1
  Rh  Rh26  1  0.346538  0.348640  0.248855  1
  Rh  Rh27  1  0.346140  0.653882  0.749677  1
  Rh  Rh28  1  0.501712  0.999233  0.123586  1
  Rh  Rh29  1  0.501945  0.999331  0.626692  1
  Rh  Rh30  1  0.999651  0.500001  0.875050  1
  Rh  Rh31  1  0.999594  0.500411  0.375258  1
