# generated using pymatgen
data_Cs4V3WN8
_symmetry_space_group_name_H-M   'P 1'
_cell_length_a   6.01292700
_cell_length_b   8.51873300
_cell_length_c   12.02819400
_cell_angle_alpha   90.00000000
_cell_angle_beta   90.00000000
_cell_angle_gamma   90.00000000
_symmetry_Int_Tables_number   1
_chemical_formula_structural   Cs4V3WN8
_chemical_formula_sum   'Cs8 V6 W2 N16'
_cell_volume   616.11440366
_cell_formula_units_Z   2
loop_
 _symmetry_equiv_pos_site_id
 _symmetry_equiv_pos_as_xyz
  1  'x, y, z'
loop_
 _atom_site_type_symbol
 _atom_site_label
 _atom_site_symmetry_multiplicity
 _atom_site_fract_x
 _atom_site_fract_y
 _atom_site_fract_z
 _atom_site_occupancy
  Cs  Cs0  1  0.750000  0.129340  0.000000  1
  Cs  Cs1  1  0.250000  0.870660  0.500000  1
  Cs  Cs2  1  0.250000  0.887001  0.000000  1
  Cs  Cs3  1  0.750000  0.112999  0.500000  1
  Cs  Cs4  1  0.733627  0.371240  0.256363  1
  Cs  Cs5  1  0.233627  0.628760  0.243637  1
  Cs  Cs6  1  0.266373  0.628760  0.756363  1
  Cs  Cs7  1  0.766373  0.371240  0.743637  1
  V  V8  1  0.250000  0.364167  0.000000  1
  V  V9  1  0.750000  0.635833  0.500000  1
  V  V10  1  0.239413  0.120687  0.248180  1
  V  V11  1  0.739413  0.879313  0.251820  1
  V  V12  1  0.760587  0.879313  0.748180  1
  V  V13  1  0.260587  0.120687  0.751820  1
  W  W14  1  0.750000  0.622816  0.000000  1
  W  W15  1  0.250000  0.377184  0.500000  1
  N  N16  1  0.982144  0.007546  0.249782  1
  N  N17  1  0.482144  0.992454  0.250218  1
  N  N18  1  0.017856  0.992454  0.749782  1
  N  N19  1  0.517856  0.007546  0.750218  1
  N  N20  1  0.248051  0.249741  0.372325  1
  N  N21  1  0.748051  0.750259  0.127675  1
  N  N22  1  0.751949  0.750259  0.872325  1
  N  N23  1  0.251949  0.249741  0.627675  1
  N  N24  1  0.751879  0.757877  0.622756  1
  N  N25  1  0.251879  0.242123  0.877244  1
  N  N26  1  0.248121  0.242123  0.122756  1
  N  N27  1  0.748121  0.757877  0.377244  1
  N  N28  1  0.501953  0.506646  0.499859  1
  N  N29  1  0.001953  0.493354  0.000141  1
  N  N30  1  0.498047  0.493354  0.999859  1
  N  N31  1  0.998047  0.506646  0.500141  1
