# generated using pymatgen
data_Ho4ErBi2Sb
_symmetry_space_group_name_H-M   'P 1'
_cell_length_a   8.14999800
_cell_length_b   9.41325200
_cell_length_c   11.93918300
_cell_angle_alpha   90.00000000
_cell_angle_beta   90.00000000
_cell_angle_gamma   90.00000000
_symmetry_Int_Tables_number   1
_chemical_formula_structural   Ho4ErBi2Sb
_chemical_formula_sum   'Ho16 Er4 Bi8 Sb4'
_cell_volume   915.95006199
_cell_formula_units_Z   4
loop_
 _symmetry_equiv_pos_site_id
 _symmetry_equiv_pos_as_xyz
  1  'x, y, z'
loop_
 _atom_site_type_symbol
 _atom_site_label
 _atom_site_symmetry_multiplicity
 _atom_site_fract_x
 _atom_site_fract_y
 _atom_site_fract_z
 _atom_site_occupancy
  Ho  Ho0  1  0.353680  0.749880  0.214139  1
  Ho  Ho1  1  0.853680  0.750120  0.285861  1
  Ho  Ho2  1  0.646320  0.249880  0.785861  1
  Ho  Ho3  1  0.146320  0.250120  0.714139  1
  Ho  Ho4  1  0.310953  0.436775  0.941933  1
  Ho  Ho5  1  0.810953  0.063225  0.558067  1
  Ho  Ho6  1  0.689047  0.936775  0.058067  1
  Ho  Ho7  1  0.189047  0.563225  0.441933  1
  Ho  Ho8  1  0.473334  0.250032  0.488324  1
  Ho  Ho9  1  0.973334  0.249968  0.011676  1
  Ho  Ho10  1  0.526666  0.750032  0.511676  1
  Ho  Ho11  1  0.026666  0.749968  0.988324  1
  Ho  Ho12  1  0.316097  0.249861  0.217511  1
  Ho  Ho13  1  0.816097  0.250139  0.282489  1
  Ho  Ho14  1  0.683903  0.749861  0.782489  1
  Ho  Ho15  1  0.183903  0.750139  0.717511  1
  Er  Er16  1  0.688611  0.564257  0.058155  1
  Er  Er17  1  0.188611  0.935743  0.441845  1
  Er  Er18  1  0.311389  0.064257  0.941845  1
  Er  Er19  1  0.811389  0.435743  0.558155  1
  Bi  Bi20  1  0.566057  0.996058  0.325393  1
  Bi  Bi21  1  0.066057  0.503942  0.174607  1
  Bi  Bi22  1  0.433943  0.496058  0.674607  1
  Bi  Bi23  1  0.933943  0.003942  0.825393  1
  Bi  Bi24  1  0.433750  0.004075  0.674570  1
  Bi  Bi25  1  0.933750  0.495925  0.825430  1
  Bi  Bi26  1  0.566250  0.504075  0.325430  1
  Bi  Bi27  1  0.066250  0.995925  0.174570  1
  Sb  Sb28  1  0.406239  0.750809  0.958260  1
  Sb  Sb29  1  0.906239  0.749191  0.541740  1
  Sb  Sb30  1  0.593761  0.250809  0.041740  1
  Sb  Sb31  1  0.093761  0.249191  0.458260  1
