# generated using pymatgen
data_LiZr(NbPd6)2
_symmetry_space_group_name_H-M   'P 1'
_cell_length_a   5.64144200
_cell_length_b   5.64144193
_cell_length_c   9.10780500
_cell_angle_alpha   90.00000000
_cell_angle_beta   90.00000000
_cell_angle_gamma   120.00000044
_symmetry_Int_Tables_number   1
_chemical_formula_structural   LiZr(NbPd6)2
_chemical_formula_sum   'Li1 Zr1 Nb2 Pd12'
_cell_volume   251.02940849
_cell_formula_units_Z   1
loop_
 _symmetry_equiv_pos_site_id
 _symmetry_equiv_pos_as_xyz
  1  'x, y, z'
loop_
 _atom_site_type_symbol
 _atom_site_label
 _atom_site_symmetry_multiplicity
 _atom_site_fract_x
 _atom_site_fract_y
 _atom_site_fract_z
 _atom_site_occupancy
  Li  Li0  1  0.333333  0.666667  0.250000  1
  Zr  Zr1  1  0.666667  0.333333  0.750000  1
  Nb  Nb2  1  0.000000  0.000000  0.493521  1
  Nb  Nb3  1  0.000000  0.000000  0.006479  1
  Pd  Pd4  1  0.499678  0.500322  0.498703  1
  Pd  Pd5  1  0.499678  0.999354  0.498703  1
  Pd  Pd6  1  0.000646  0.500322  0.498703  1
  Pd  Pd7  1  0.499678  0.500322  0.001297  1
  Pd  Pd8  1  0.499678  0.999354  0.001297  1
  Pd  Pd9  1  0.000646  0.500322  0.001297  1
  Pd  Pd10  1  0.833179  0.166821  0.250000  1
  Pd  Pd11  1  0.833179  0.666357  0.250000  1
  Pd  Pd12  1  0.333643  0.166821  0.250000  1
  Pd  Pd13  1  0.167079  0.832921  0.750000  1
  Pd  Pd14  1  0.167079  0.334158  0.750000  1
  Pd  Pd15  1  0.665842  0.832921  0.750000  1
