# generated using pymatgen
data_KTcF7
_symmetry_space_group_name_H-M   'P 1'
_cell_length_a   7.04556700
_cell_length_b   7.97402739
_cell_length_c   10.64141900
_cell_angle_alpha   87.39878235
_cell_angle_beta   90.00000000
_cell_angle_gamma   90.00000000
_symmetry_Int_Tables_number   1
_chemical_formula_structural   KTcF7
_chemical_formula_sum   'K4 Tc4 F28'
_cell_volume   597.23532984
_cell_formula_units_Z   4
loop_
 _symmetry_equiv_pos_site_id
 _symmetry_equiv_pos_as_xyz
  1  'x, y, z'
loop_
 _atom_site_type_symbol
 _atom_site_label
 _atom_site_symmetry_multiplicity
 _atom_site_fract_x
 _atom_site_fract_y
 _atom_site_fract_z
 _atom_site_occupancy
  K  K0  1  0.266076  0.263144  0.997208  1
  K  K1  1  0.733924  0.736856  0.002792  1
  K  K2  1  0.766076  0.736856  0.502792  1
  K  K3  1  0.233924  0.263144  0.497208  1
  Tc  Tc4  1  0.215912  0.748342  0.264228  1
  Tc  Tc5  1  0.284088  0.748342  0.764228  1
  Tc  Tc6  1  0.784088  0.251658  0.735772  1
  Tc  Tc7  1  0.715912  0.251658  0.235772  1
  F  F8  1  0.220928  0.570782  0.153768  1
  F  F9  1  0.779072  0.429218  0.846232  1
  F  F10  1  0.279072  0.570782  0.653768  1
  F  F11  1  0.720928  0.429218  0.346232  1
  F  F12  1  0.940360  0.754330  0.247155  1
  F  F13  1  0.440360  0.245670  0.252845  1
  F  F14  1  0.450388  0.818742  0.184618  1
  F  F15  1  0.653472  0.085663  0.364761  1
  F  F16  1  0.559640  0.754330  0.747155  1
  F  F17  1  0.153472  0.914337  0.135239  1
  F  F18  1  0.346528  0.914337  0.635239  1
  F  F19  1  0.920287  0.340511  0.132939  1
  F  F20  1  0.203293  0.921325  0.379434  1
  F  F21  1  0.059640  0.245670  0.752845  1
  F  F22  1  0.892203  0.407943  0.609911  1
  F  F23  1  0.420287  0.659489  0.367061  1
  F  F24  1  0.549612  0.181258  0.815382  1
  F  F25  1  0.846528  0.085663  0.864761  1
  F  F26  1  0.579713  0.340511  0.632939  1
  F  F27  1  0.107797  0.592057  0.390089  1
  F  F28  1  0.703293  0.078675  0.120566  1
  F  F29  1  0.049612  0.818742  0.684618  1
  F  F30  1  0.796707  0.078675  0.620566  1
  F  F31  1  0.392203  0.592057  0.890089  1
  F  F32  1  0.296707  0.921325  0.879434  1
  F  F33  1  0.079713  0.659489  0.867061  1
  F  F34  1  0.607797  0.407943  0.109911  1
  F  F35  1  0.950388  0.181258  0.315382  1
