# generated using pymatgen
data_Ce2Sm6BePd24
_symmetry_space_group_name_H-M   'P 1'
_cell_length_a   8.32819910
_cell_length_b   8.32819905
_cell_length_c   8.32820100
_cell_angle_alpha   89.85115683
_cell_angle_beta   90.14883629
_cell_angle_gamma   90.14883030
_symmetry_Int_Tables_number   1
_chemical_formula_structural   Ce2Sm6BePd24
_chemical_formula_sum   'Ce2 Sm6 Be1 Pd24'
_cell_volume   577.62902241
_cell_formula_units_Z   1
loop_
 _symmetry_equiv_pos_site_id
 _symmetry_equiv_pos_as_xyz
  1  'x, y, z'
loop_
 _atom_site_type_symbol
 _atom_site_label
 _atom_site_symmetry_multiplicity
 _atom_site_fract_x
 _atom_site_fract_y
 _atom_site_fract_z
 _atom_site_occupancy
  Ce  Ce0  1  0.253777  0.746223  0.746223  1
  Ce  Ce1  1  0.746223  0.253777  0.253777  1
  Sm  Sm2  1  0.250371  0.251302  0.251302  1
  Sm  Sm3  1  0.749629  0.748698  0.748698  1
  Sm  Sm4  1  0.748698  0.749629  0.251302  1
  Sm  Sm5  1  0.748698  0.251302  0.749629  1
  Sm  Sm6  1  0.251302  0.250371  0.748698  1
  Sm  Sm7  1  0.251302  0.748698  0.250371  1
  Be  Be8  1  0.000000  0.000000  0.000000  1
  Pd  Pd9  1  0.254079  0.501719  0.996925  1
  Pd  Pd10  1  0.745921  0.498281  0.003075  1
  Pd  Pd11  1  0.996925  0.254079  0.498281  1
  Pd  Pd12  1  0.501719  0.254079  0.003075  1
  Pd  Pd13  1  0.003075  0.745921  0.501719  1
  Pd  Pd14  1  0.498281  0.745921  0.996925  1
  Pd  Pd15  1  0.501719  0.003075  0.254079  1
  Pd  Pd16  1  0.254079  0.996925  0.501719  1
  Pd  Pd17  1  0.498281  0.996925  0.745921  1
  Pd  Pd18  1  0.745921  0.003075  0.498281  1
  Pd  Pd19  1  0.996925  0.498281  0.254079  1
  Pd  Pd20  1  0.003075  0.501719  0.745921  1
  Pd  Pd21  1  0.251308  0.501672  0.501672  1
  Pd  Pd22  1  0.748692  0.498328  0.498328  1
  Pd  Pd23  1  0.501672  0.251308  0.498328  1
  Pd  Pd24  1  0.498328  0.748692  0.501672  1
  Pd  Pd25  1  0.501672  0.498328  0.251308  1
  Pd  Pd26  1  0.498328  0.501672  0.748692  1
  Pd  Pd27  1  0.268391  0.997491  0.997491  1
  Pd  Pd28  1  0.731609  0.002509  0.002509  1
  Pd  Pd29  1  0.997491  0.268391  0.002509  1
  Pd  Pd30  1  0.002509  0.731609  0.997491  1
  Pd  Pd31  1  0.997491  0.002509  0.268391  1
  Pd  Pd32  1  0.002509  0.997491  0.731609  1
