# generated using pymatgen
data_HfZr7(NiAs)12
_symmetry_space_group_name_H-M   'P 1'
_cell_length_a   3.77902800
_cell_length_b   10.44582618
_cell_length_c   12.69741322
_cell_angle_alpha   89.97878364
_cell_angle_beta   90.00000000
_cell_angle_gamma   90.00000000
_symmetry_Int_Tables_number   1
_chemical_formula_structural   HfZr7(NiAs)12
_chemical_formula_sum   'Hf1 Zr7 Ni12 As12'
_cell_volume   501.23123632
_cell_formula_units_Z   1
loop_
 _symmetry_equiv_pos_site_id
 _symmetry_equiv_pos_as_xyz
  1  'x, y, z'
loop_
 _atom_site_type_symbol
 _atom_site_label
 _atom_site_symmetry_multiplicity
 _atom_site_fract_x
 _atom_site_fract_y
 _atom_site_fract_z
 _atom_site_occupancy
  Hf  Hf0  1  0.250000  0.332467  0.993915  1
  Zr  Zr1  1  0.250000  0.167156  0.493698  1
  Zr  Zr2  1  0.750000  0.667454  0.006352  1
  Zr  Zr3  1  0.750000  0.832910  0.506214  1
  Zr  Zr4  1  0.250000  0.426453  0.710757  1
  Zr  Zr5  1  0.250000  0.073088  0.210145  1
  Zr  Zr6  1  0.750000  0.572996  0.289490  1
  Zr  Zr7  1  0.750000  0.927155  0.789886  1
  Ni  Ni8  1  0.250000  0.901496  0.985459  1
  Ni  Ni9  1  0.250000  0.598494  0.485450  1
  Ni  Ni10  1  0.750000  0.099188  0.014616  1
  Ni  Ni11  1  0.750000  0.401395  0.514464  1
  Ni  Ni12  1  0.250000  0.138388  0.717914  1
  Ni  Ni13  1  0.250000  0.361233  0.216828  1
  Ni  Ni14  1  0.750000  0.861627  0.282061  1
  Ni  Ni15  1  0.750000  0.637679  0.782622  1
  Ni  Ni16  1  0.250000  0.775700  0.165691  1
  Ni  Ni17  1  0.250000  0.723993  0.665816  1
  Ni  Ni18  1  0.750000  0.224403  0.834867  1
  Ni  Ni19  1  0.750000  0.275994  0.333740  1
  As  As20  1  0.250000  0.099928  0.898902  1
  As  As21  1  0.250000  0.400772  0.398099  1
  As  As22  1  0.750000  0.901081  0.101447  1
  As  As23  1  0.750000  0.598970  0.601758  1
  As  As24  1  0.250000  0.738519  0.855666  1
  As  As25  1  0.250000  0.761369  0.355622  1
  As  As26  1  0.750000  0.262426  0.142949  1
  As  As27  1  0.750000  0.238605  0.644456  1
  As  As28  1  0.250000  0.552461  0.125445  1
  As  As29  1  0.250000  0.946939  0.626224  1
  As  As30  1  0.750000  0.446488  0.875806  1
  As  As31  1  0.750000  0.053171  0.373641  1
