# generated using pymatgen
data_TbTmCdNi2
_symmetry_space_group_name_H-M   'P 1'
_cell_length_a   7.34386510
_cell_length_b   7.34386542
_cell_length_c   3.63356600
_cell_angle_alpha   90.00000000
_cell_angle_beta   90.00000000
_cell_angle_gamma   148.71989743
_symmetry_Int_Tables_number   1
_chemical_formula_structural   TbTmCdNi2
_chemical_formula_sum   'Tb1 Tm1 Cd1 Ni2'
_cell_volume   101.75033087
_cell_formula_units_Z   1
loop_
 _symmetry_equiv_pos_site_id
 _symmetry_equiv_pos_as_xyz
  1  'x, y, z'
loop_
 _atom_site_type_symbol
 _atom_site_label
 _atom_site_symmetry_multiplicity
 _atom_site_fract_x
 _atom_site_fract_y
 _atom_site_fract_z
 _atom_site_occupancy
  Tb  Tb0  1  0.361647  0.638353  0.500000  1
  Tm  Tm1  1  0.639964  0.360036  0.500000  1
  Cd  Cd2  1  0.001577  0.998423  0.000000  1
  Ni  Ni3  1  0.798958  0.201042  0.000000  1
  Ni  Ni4  1  0.197853  0.802147  0.000000  1
