# generated using pymatgen
data_ErInCo4Sn5
_symmetry_space_group_name_H-M   'P 1'
_cell_length_a   6.75153858
_cell_length_b   6.65746584
_cell_length_c   6.68058458
_cell_angle_alpha   120.11390881
_cell_angle_beta   120.57566233
_cell_angle_gamma   89.61361876
_symmetry_Int_Tables_number   1
_chemical_formula_structural   ErInCo4Sn5
_chemical_formula_sum   'Er1 In1 Co4 Sn5'
_cell_volume   210.82165772
_cell_formula_units_Z   1
loop_
 _symmetry_equiv_pos_site_id
 _symmetry_equiv_pos_as_xyz
  1  'x, y, z'
loop_
 _atom_site_type_symbol
 _atom_site_label
 _atom_site_symmetry_multiplicity
 _atom_site_fract_x
 _atom_site_fract_y
 _atom_site_fract_z
 _atom_site_occupancy
  Er  Er0  1  0.000558  0.000052  0.000052  1
  In  In1  1  0.887645  0.534898  0.000391  1
  Co  Co2  1  0.595638  0.253887  0.999887  1
  Co  Co3  1  0.262039  0.602678  0.999910  1
  Co  Co4  1  0.745610  0.749724  0.354351  1
  Co  Co5  1  0.391298  0.395366  0.645553  1
  Sn  Sn6  1  0.540389  0.879565  0.000258  1
  Sn  Sn7  1  0.463820  0.464618  0.347206  1
  Sn  Sn8  1  0.499358  0.001796  0.501742  1
  Sn  Sn9  1  0.997277  0.500201  0.497919  1
  Sn  Sn10  1  0.116370  0.117215  0.652730  1
