# generated using pymatgen
data_Ca4La4Al3GaO16
_symmetry_space_group_name_H-M   'P 1'
_cell_length_a   11.78144103
_cell_length_b   5.33103501
_cell_length_c   6.87577100
_cell_angle_alpha   90.00034480
_cell_angle_beta   89.99921229
_cell_angle_gamma   90.00830434
_symmetry_Int_Tables_number   1
_chemical_formula_structural   Ca4La4Al3GaO16
_chemical_formula_sum   'Ca4 La4 Al3 Ga1 O16'
_cell_volume   431.84843308
_cell_formula_units_Z   1
loop_
 _symmetry_equiv_pos_site_id
 _symmetry_equiv_pos_as_xyz
  1  'x, y, z'
loop_
 _atom_site_type_symbol
 _atom_site_label
 _atom_site_symmetry_multiplicity
 _atom_site_fract_x
 _atom_site_fract_y
 _atom_site_fract_z
 _atom_site_occupancy
  Ca  Ca0  1  0.499920  0.499867  0.487426  1
  Ca  Ca1  1  0.499993  0.499961  0.987016  1
  Ca  Ca2  1  0.000598  0.001376  0.985332  1
  Ca  Ca3  1  0.000535  0.001424  0.489032  1
  La  La4  1  0.220791  0.515869  0.237104  1
  La  La5  1  0.779800  0.487323  0.737102  1
  La  La6  1  0.280866  0.014219  0.737110  1
  La  La7  1  0.717589  0.986187  0.237113  1
  Al  Al8  1  0.409332  0.072830  0.237129  1
  Al  Al9  1  0.590354  0.927710  0.737129  1
  Al  Al10  1  0.090747  0.572645  0.737121  1
  Ga  Ga11  1  0.909737  0.431265  0.237104  1
  O  O12  1  0.408780  0.742204  0.237196  1
  O  O13  1  0.591090  0.258147  0.737198  1
  O  O14  1  0.092156  0.242190  0.737178  1
  O  O15  1  0.908340  0.773893  0.237194  1
  O  O16  1  0.160901  0.723557  0.534047  1
  O  O17  1  0.836302  0.267458  0.026077  1
  O  O18  1  0.339487  0.223640  0.033716  1
  O  O19  1  0.660159  0.776043  0.533639  1
  O  O20  1  0.339427  0.223633  0.440467  1
  O  O21  1  0.660218  0.776054  0.940543  1
  O  O22  1  0.160957  0.723555  0.940123  1
  O  O23  1  0.836237  0.267484  0.448138  1
  O  O24  1  0.547334  0.218937  0.237195  1
  O  O25  1  0.452207  0.782184  0.737203  1
  O  O26  1  0.952519  0.716819  0.737182  1
  O  O27  1  0.053624  0.273527  0.237192  1
