# generated using pymatgen
data_Tb8Nb11Si16Ru
_symmetry_space_group_name_H-M   'P 1'
_cell_length_a   7.07407438
_cell_length_b   7.07407518
_cell_length_c   13.06004994
_cell_angle_alpha   90.12063957
_cell_angle_beta   89.87935987
_cell_angle_gamma   89.69706163
_symmetry_Int_Tables_number   1
_chemical_formula_structural   Tb8Nb11Si16Ru
_chemical_formula_sum   'Tb8 Nb11 Si16 Ru1'
_cell_volume   653.54594455
_cell_formula_units_Z   1
loop_
 _symmetry_equiv_pos_site_id
 _symmetry_equiv_pos_as_xyz
  1  'x, y, z'
loop_
 _atom_site_type_symbol
 _atom_site_label
 _atom_site_symmetry_multiplicity
 _atom_site_fract_x
 _atom_site_fract_y
 _atom_site_fract_z
 _atom_site_occupancy
  Tb  Tb0  1  0.341334  0.003771  0.467730  1
  Tb  Tb1  1  0.495963  0.842046  0.718651  1
  Tb  Tb2  1  0.501007  0.158885  0.216318  1
  Tb  Tb3  1  0.842046  0.495963  0.281349  1
  Tb  Tb4  1  0.158885  0.501007  0.783682  1
  Tb  Tb5  1  0.657333  0.997691  0.968390  1
  Tb  Tb6  1  0.003771  0.341334  0.532270  1
  Tb  Tb7  1  0.997691  0.657333  0.031610  1
  Nb  Nb8  1  0.174344  0.829051  0.247433  1
  Nb  Nb9  1  0.829051  0.174344  0.752567  1
  Nb  Nb10  1  0.671417  0.671417  0.500000  1
  Nb  Nb11  1  0.149330  0.003128  0.874709  1
  Nb  Nb12  1  0.494115  0.658780  0.124597  1
  Nb  Nb13  1  0.505255  0.346880  0.625597  1
  Nb  Nb14  1  0.658780  0.494115  0.875403  1
  Nb  Nb15  1  0.346880  0.505255  0.374403  1
  Nb  Nb16  1  0.847175  0.993132  0.374380  1
  Nb  Nb17  1  0.003128  0.149330  0.125291  1
  Nb  Nb18  1  0.993132  0.847175  0.625620  1
  Si  Si19  1  0.202973  0.134369  0.684284  1
  Si  Si20  1  0.369277  0.698739  0.934403  1
  Si  Si21  1  0.633840  0.296293  0.433549  1
  Si  Si22  1  0.698739  0.369277  0.065597  1
  Si  Si23  1  0.296293  0.633840  0.566451  1
  Si  Si24  1  0.795229  0.867093  0.183339  1
  Si  Si25  1  0.134369  0.202973  0.315716  1
  Si  Si26  1  0.867093  0.795229  0.816661  1
  Si  Si27  1  0.290281  0.957938  0.060408  1
  Si  Si28  1  0.545916  0.793454  0.313458  1
  Si  Si29  1  0.448685  0.209875  0.818281  1
  Si  Si30  1  0.793454  0.545916  0.686542  1
  Si  Si31  1  0.209875  0.448685  0.181719  1
  Si  Si32  1  0.706986  0.046587  0.564525  1
  Si  Si33  1  0.957938  0.290281  0.939592  1
  Si  Si34  1  0.046587  0.706986  0.435475  1
  Ru  Ru35  1  0.331827  0.331827  0.000000  1
