# generated using pymatgen
data_Ti3AlPt12
_symmetry_space_group_name_H-M   'P 1'
_cell_length_a   5.56773829
_cell_length_b   5.56773829
_cell_length_c   7.90945000
_cell_angle_alpha   90.00000000
_cell_angle_beta   90.00000000
_cell_angle_gamma   89.87535933
_symmetry_Int_Tables_number   1
_chemical_formula_structural   Ti3AlPt12
_chemical_formula_sum   'Ti3 Al1 Pt12'
_cell_volume   245.19007377
_cell_formula_units_Z   1
loop_
 _symmetry_equiv_pos_site_id
 _symmetry_equiv_pos_as_xyz
  1  'x, y, z'
loop_
 _atom_site_type_symbol
 _atom_site_label
 _atom_site_symmetry_multiplicity
 _atom_site_fract_x
 _atom_site_fract_y
 _atom_site_fract_z
 _atom_site_occupancy
  Ti  Ti0  1  0.500000  0.000000  0.250252  1
  Ti  Ti1  1  0.000000  0.500000  0.250417  1
  Ti  Ti2  1  0.500000  0.000000  0.750226  1
  Al  Al3  1  0.000000  0.500000  0.749671  1
  Pt  Pt4  1  0.246778  0.253222  0.000851  1
  Pt  Pt5  1  0.744952  0.244952  0.001247  1
  Pt  Pt6  1  0.255048  0.755048  0.001247  1
  Pt  Pt7  1  0.753222  0.746778  0.000851  1
  Pt  Pt8  1  0.000000  0.000000  0.249888  1
  Pt  Pt9  1  0.500000  0.500000  0.249888  1
  Pt  Pt10  1  0.748587  0.248587  0.498778  1
  Pt  Pt11  1  0.250567  0.249433  0.498974  1
  Pt  Pt12  1  0.749433  0.750567  0.498974  1
  Pt  Pt13  1  0.251413  0.751413  0.498778  1
  Pt  Pt14  1  0.000000  0.000000  0.749979  1
  Pt  Pt15  1  0.500000  0.500000  0.749979  1
