# generated using pymatgen
data_Y3Ho2Tm3(CdPt)2
_symmetry_space_group_name_H-M   'P 1'
_cell_length_a   9.64464338
_cell_length_b   9.64464415
_cell_length_c   9.64464300
_cell_angle_alpha   60.00000051
_cell_angle_beta   59.99999788
_cell_angle_gamma   59.99999924
_symmetry_Int_Tables_number   1
_chemical_formula_structural   Y3Ho2Tm3(CdPt)2
_chemical_formula_sum   'Y6 Ho4 Tm6 Cd4 Pt4'
_cell_volume   634.37131008
_cell_formula_units_Z   2
loop_
 _symmetry_equiv_pos_site_id
 _symmetry_equiv_pos_as_xyz
  1  'x, y, z'
loop_
 _atom_site_type_symbol
 _atom_site_label
 _atom_site_symmetry_multiplicity
 _atom_site_fract_x
 _atom_site_fract_y
 _atom_site_fract_z
 _atom_site_occupancy
  Y  Y0  1  0.936790  0.563210  0.563210  1
  Y  Y1  1  0.563210  0.936790  0.936790  1
  Y  Y2  1  0.563210  0.936790  0.563210  1
  Y  Y3  1  0.936790  0.563210  0.936790  1
  Y  Y4  1  0.563210  0.563210  0.936790  1
  Y  Y5  1  0.936790  0.936790  0.563210  1
  Ho  Ho6  1  0.352369  0.352369  0.352369  1
  Ho  Ho7  1  0.352369  0.352369  0.942891  1
  Ho  Ho8  1  0.352369  0.942891  0.352369  1
  Ho  Ho9  1  0.942891  0.352369  0.352369  1
  Tm  Tm10  1  0.811661  0.188339  0.188339  1
  Tm  Tm11  1  0.188339  0.811661  0.811661  1
  Tm  Tm12  1  0.188339  0.811661  0.188339  1
  Tm  Tm13  1  0.811661  0.188339  0.811661  1
  Tm  Tm14  1  0.188339  0.188339  0.811661  1
  Tm  Tm15  1  0.811661  0.811661  0.188339  1
  Cd  Cd16  1  0.581531  0.581531  0.581531  1
  Cd  Cd17  1  0.581531  0.581531  0.255408  1
  Cd  Cd18  1  0.581531  0.255408  0.581531  1
  Cd  Cd19  1  0.255408  0.581531  0.581531  1
  Pt  Pt20  1  0.142903  0.142903  0.142903  1
  Pt  Pt21  1  0.142903  0.142903  0.571293  1
  Pt  Pt22  1  0.142903  0.571293  0.142903  1
  Pt  Pt23  1  0.571293  0.142903  0.142903  1
