# generated using pymatgen
data_La7Pr(ErIr3)2
_symmetry_space_group_name_H-M   'P 1'
_cell_length_a   11.34676081
_cell_length_b   11.37730800
_cell_length_c   6.52444204
_cell_angle_alpha   90.00000000
_cell_angle_beta   90.14259107
_cell_angle_gamma   90.00000000
_symmetry_Int_Tables_number   1
_chemical_formula_structural   La7Pr(ErIr3)2
_chemical_formula_sum   'La14 Pr2 Er4 Ir12'
_cell_volume   842.27410235
_cell_formula_units_Z   2
loop_
 _symmetry_equiv_pos_site_id
 _symmetry_equiv_pos_as_xyz
  1  'x, y, z'
loop_
 _atom_site_type_symbol
 _atom_site_label
 _atom_site_symmetry_multiplicity
 _atom_site_fract_x
 _atom_site_fract_y
 _atom_site_fract_z
 _atom_site_occupancy
  La  La0  1  0.287041  0.087572  0.382616  1
  La  La1  1  0.287041  0.912428  0.882616  1
  La  La2  1  0.712629  0.087794  0.883827  1
  La  La3  1  0.712629  0.912206  0.383827  1
  La  La4  1  0.587965  0.787328  0.883167  1
  La  La5  1  0.587965  0.212672  0.383167  1
  La  La6  1  0.411564  0.787165  0.383708  1
  La  La7  1  0.411564  0.212835  0.883708  1
  La  La8  1  0.211852  0.412850  0.616581  1
  La  La9  1  0.211852  0.587150  0.116581  1
  La  La10  1  0.788053  0.412098  0.116298  1
  La  La11  1  0.788053  0.587902  0.616298  1
  La  La12  1  0.913078  0.712645  0.116582  1
  La  La13  1  0.913078  0.287355  0.616582  1
  Pr  Pr14  1  0.087555  0.712993  0.617558  1
  Pr  Pr15  1  0.087555  0.287007  0.117558  1
  Er  Er16  1  0.000296  0.999452  0.499949  1
  Er  Er17  1  0.000296  0.000548  0.999949  1
  Er  Er18  1  0.500077  0.499816  0.000559  1
  Er  Er19  1  0.500077  0.500184  0.500559  1
  Ir  Ir20  1  0.852135  0.147541  0.250136  1
  Ir  Ir21  1  0.852135  0.852459  0.750136  1
  Ir  Ir22  1  0.148181  0.146597  0.747906  1
  Ir  Ir23  1  0.148181  0.853403  0.247906  1
  Ir  Ir24  1  0.647514  0.352032  0.749958  1
  Ir  Ir25  1  0.647514  0.647968  0.249958  1
  Ir  Ir26  1  0.352285  0.352379  0.250449  1
  Ir  Ir27  1  0.352285  0.647621  0.750449  1
  Ir  Ir28  1  0.500014  0.000240  0.117107  1
  Ir  Ir29  1  0.500014  0.999760  0.617107  1
  Ir  Ir30  1  0.999762  0.499265  0.883598  1
  Ir  Ir31  1  0.999762  0.500735  0.383598  1
