# generated using pymatgen
data_Ti3Mo4Ru
_symmetry_space_group_name_H-M   'P 1'
_cell_length_a   3.15061300
_cell_length_b   3.15061300
_cell_length_c   12.68360400
_cell_angle_alpha   90.00000000
_cell_angle_beta   90.00000000
_cell_angle_gamma   90.00000000
_symmetry_Int_Tables_number   1
_chemical_formula_structural   Ti3Mo4Ru
_chemical_formula_sum   'Ti3 Mo4 Ru1'
_cell_volume   125.90204827
_cell_formula_units_Z   1
loop_
 _symmetry_equiv_pos_site_id
 _symmetry_equiv_pos_as_xyz
  1  'x, y, z'
loop_
 _atom_site_type_symbol
 _atom_site_label
 _atom_site_symmetry_multiplicity
 _atom_site_fract_x
 _atom_site_fract_y
 _atom_site_fract_z
 _atom_site_occupancy
  Ti  Ti0  1  0.499999  0.499999  0.119896  1
  Ti  Ti1  1  0.000000  0.000000  0.500000  1
  Ti  Ti2  1  0.499999  0.499999  0.880105  1
  Mo  Mo3  1  0.000000  0.000000  0.251194  1
  Mo  Mo4  1  0.499999  0.499999  0.368893  1
  Mo  Mo5  1  0.499999  0.499999  0.631107  1
  Mo  Mo6  1  0.000000  0.000000  0.748806  1
  Ru  Ru7  1  0.000000  0.000000  0.000000  1
