# generated using pymatgen
data_Hf4Zr2CoBr15
_symmetry_space_group_name_H-M   'P 1'
_cell_length_a   9.38342615
_cell_length_b   9.38509962
_cell_length_c   9.38509934
_cell_angle_alpha   109.63284495
_cell_angle_beta   109.39406022
_cell_angle_gamma   109.39406298
_symmetry_Int_Tables_number   1
_chemical_formula_structural   Hf4Zr2CoBr15
_chemical_formula_sum   'Hf4 Zr2 Co1 Br15'
_cell_volume   636.17450010
_cell_formula_units_Z   1
loop_
 _symmetry_equiv_pos_site_id
 _symmetry_equiv_pos_as_xyz
  1  'x, y, z'
loop_
 _atom_site_type_symbol
 _atom_site_label
 _atom_site_symmetry_multiplicity
 _atom_site_fract_x
 _atom_site_fract_y
 _atom_site_fract_z
 _atom_site_occupancy
  Hf  Hf0  1  0.772396  0.000167  0.772229  1
  Hf  Hf1  1  0.000000  0.771458  0.771063  1
  Hf  Hf2  1  0.000000  0.228937  0.228542  1
  Hf  Hf3  1  0.227604  0.227771  0.999833  1
  Zr  Zr4  1  0.770977  0.771289  0.999688  1
  Zr  Zr5  1  0.229023  0.000312  0.228711  1
  Co  Co6  1  0.000000  0.998475  0.001525  1
  Br  Br7  1  0.508331  0.000823  0.507507  1
  Br  Br8  1  0.000000  0.500530  0.499470  1
  Br  Br9  1  0.491669  0.492493  0.999177  1
  Br  Br10  1  0.506071  0.755291  0.750780  1
  Br  Br11  1  0.754749  0.005104  0.249335  1
  Br  Br12  1  0.493929  0.249220  0.244709  1
  Br  Br13  1  0.245251  0.250355  0.494586  1
  Br  Br14  1  0.245251  0.750665  0.994896  1
  Br  Br15  1  0.000000  0.245977  0.754023  1
  Br  Br16  1  0.000000  0.752239  0.247761  1
  Br  Br17  1  0.245483  0.999386  0.752646  1
  Br  Br18  1  0.245483  0.492837  0.246098  1
  Br  Br19  1  0.754517  0.247354  0.000614  1
  Br  Br20  1  0.754749  0.505414  0.749645  1
  Br  Br21  1  0.754517  0.753902  0.507163  1
