# generated using pymatgen
data_LiHo3Ag2Ge3
_symmetry_space_group_name_H-M   'P 1'
_cell_length_a   7.09130728
_cell_length_b   7.06191580
_cell_length_c   4.24313900
_cell_angle_alpha   90.00000000
_cell_angle_beta   90.00000000
_cell_angle_gamma   119.86297555
_symmetry_Int_Tables_number   1
_chemical_formula_structural   LiHo3Ag2Ge3
_chemical_formula_sum   'Li1 Ho3 Ag2 Ge3'
_cell_volume   184.27428188
_cell_formula_units_Z   1
loop_
 _symmetry_equiv_pos_site_id
 _symmetry_equiv_pos_as_xyz
  1  'x, y, z'
loop_
 _atom_site_type_symbol
 _atom_site_label
 _atom_site_symmetry_multiplicity
 _atom_site_fract_x
 _atom_site_fract_y
 _atom_site_fract_z
 _atom_site_occupancy
  Li  Li0  1  0.000000  0.232255  0.500000  1
  Ho  Ho1  1  0.000000  0.582479  0.000000  1
  Ho  Ho2  1  0.575975  0.998109  0.000000  1
  Ho  Ho3  1  0.424025  0.422134  0.000000  1
  Ag  Ag4  1  0.246787  0.002773  0.500000  1
  Ag  Ag5  1  0.753213  0.755987  0.500000  1
  Ge  Ge6  1  0.326690  0.660449  0.500000  1
  Ge  Ge7  1  0.673310  0.333758  0.500000  1
  Ge  Ge8  1  0.000000  0.012056  0.000000  1
