# generated using pymatgen
data_La12Th2(RuRh)3
_symmetry_space_group_name_H-M   'P 1'
_cell_length_a   10.24385900
_cell_length_b   10.24386051
_cell_length_c   6.47422700
_cell_angle_alpha   90.00000000
_cell_angle_beta   90.00000000
_cell_angle_gamma   120.00000482
_symmetry_Int_Tables_number   1
_chemical_formula_structural   La12Th2(RuRh)3
_chemical_formula_sum   'La12 Th2 Ru3 Rh3'
_cell_volume   588.36357909
_cell_formula_units_Z   1
loop_
 _symmetry_equiv_pos_site_id
 _symmetry_equiv_pos_as_xyz
  1  'x, y, z'
loop_
 _atom_site_type_symbol
 _atom_site_label
 _atom_site_symmetry_multiplicity
 _atom_site_fract_x
 _atom_site_fract_y
 _atom_site_fract_z
 _atom_site_occupancy
  La  La0  1  0.874267  0.748532  0.769916  1
  La  La1  1  0.251468  0.125733  0.769916  1
  La  La2  1  0.874267  0.125733  0.769916  1
  La  La3  1  0.128740  0.257482  0.261180  1
  La  La4  1  0.742518  0.871260  0.261180  1
  La  La5  1  0.128740  0.871260  0.261180  1
  La  La6  1  0.458037  0.916075  0.596506  1
  La  La7  1  0.083925  0.541963  0.596506  1
  La  La8  1  0.458037  0.541963  0.596506  1
  La  La9  1  0.540304  0.080606  0.089570  1
  La  La10  1  0.919394  0.459696  0.089570  1
  La  La11  1  0.540304  0.459696  0.089570  1
  Th  Th12  1  0.666667  0.333333  0.560147  1
  Th  Th13  1  0.333333  0.666667  0.053273  1
  Ru  Ru14  1  0.191633  0.383264  0.860436  1
  Ru  Ru15  1  0.616736  0.808367  0.860436  1
  Ru  Ru16  1  0.191633  0.808367  0.860436  1
  Rh  Rh17  1  0.805914  0.611828  0.356268  1
  Rh  Rh18  1  0.388172  0.194086  0.356268  1
  Rh  Rh19  1  0.805914  0.194086  0.356268  1
