# generated using pymatgen
data_HoErTm2Si4(NiOs)2
_symmetry_space_group_name_H-M   'P 1'
_cell_length_a   4.20923500
_cell_length_b   6.83565753
_cell_length_c   7.19050681
_cell_angle_alpha   91.81174954
_cell_angle_beta   90.00000000
_cell_angle_gamma   90.00000000
_symmetry_Int_Tables_number   1
_chemical_formula_structural   HoErTm2Si4(NiOs)2
_chemical_formula_sum   'Ho1 Er1 Tm2 Si4 Ni2 Os2'
_cell_volume   206.78822801
_cell_formula_units_Z   1
loop_
 _symmetry_equiv_pos_site_id
 _symmetry_equiv_pos_as_xyz
  1  'x, y, z'
loop_
 _atom_site_type_symbol
 _atom_site_label
 _atom_site_symmetry_multiplicity
 _atom_site_fract_x
 _atom_site_fract_y
 _atom_site_fract_z
 _atom_site_occupancy
  Ho  Ho0  1  0.750000  0.007167  0.700845  1
  Er  Er1  1  0.250000  0.992967  0.298590  1
  Tm  Tm2  1  0.250000  0.490347  0.182952  1
  Tm  Tm3  1  0.750000  0.509700  0.816761  1
  Si  Si4  1  0.250000  0.801217  0.897557  1
  Si  Si5  1  0.750000  0.198253  0.103095  1
  Si  Si6  1  0.750000  0.701122  0.399238  1
  Si  Si7  1  0.250000  0.299568  0.599561  1
  Ni  Ni8  1  0.750000  0.834393  0.076772  1
  Ni  Ni9  1  0.250000  0.164237  0.925666  1
  Os  Os10  1  0.250000  0.658628  0.569667  1
  Os  Os11  1  0.750000  0.342402  0.429295  1
