# generated using pymatgen
data_Ba6Dy(IrO6)2
_symmetry_space_group_name_H-M   'P 1'
_cell_length_a   9.26973344
_cell_length_b   9.26973309
_cell_length_c   7.42485331
_cell_angle_alpha   68.01817678
_cell_angle_beta   68.01817901
_cell_angle_gamma   36.86115335
_symmetry_Int_Tables_number   1
_chemical_formula_structural   Ba6Dy(IrO6)2
_chemical_formula_sum   'Ba6 Dy1 Ir2 O12'
_cell_volume   351.67494143
_cell_formula_units_Z   1
loop_
 _symmetry_equiv_pos_site_id
 _symmetry_equiv_pos_as_xyz
  1  'x, y, z'
loop_
 _atom_site_type_symbol
 _atom_site_label
 _atom_site_symmetry_multiplicity
 _atom_site_fract_x
 _atom_site_fract_y
 _atom_site_fract_z
 _atom_site_occupancy
  Ba  Ba0  1  0.216045  0.216045  0.706975  1
  Ba  Ba1  1  0.880801  0.880801  0.710730  1
  Ba  Ba2  1  0.549005  0.549005  0.704928  1
  Ba  Ba3  1  0.783955  0.783955  0.293025  1
  Ba  Ba4  1  0.450995  0.450995  0.295072  1
  Ba  Ba5  1  0.119199  0.119199  0.289270  1
  Dy  Dy6  1  0.000000  0.000000  0.000000  1
  Ir  Ir7  1  0.670572  0.670572  0.999459  1
  Ir  Ir8  1  0.329428  0.329428  0.000541  1
  O  O9  1  0.281544  0.281544  0.305964  1
  O  O10  1  0.943225  0.943225  0.331402  1
  O  O11  1  0.617731  0.617731  0.304075  1
  O  O12  1  0.718456  0.718456  0.694036  1
  O  O13  1  0.382269  0.382269  0.695925  1
  O  O14  1  0.056775  0.056775  0.668598  1
  O  O15  1  0.000000  0.500000  0.000000  1
  O  O16  1  0.643633  0.176301  0.001408  1
  O  O17  1  0.356367  0.823699  0.998592  1
  O  O18  1  0.500000  0.000000  0.000000  1
  O  O19  1  0.176301  0.643633  0.001408  1
  O  O20  1  0.823699  0.356367  0.998592  1
