# generated using pymatgen
data_Ho2Fe3P7Ru9
_symmetry_space_group_name_H-M   'P 1'
_cell_length_a   3.85559000
_cell_length_b   9.29832479
_cell_length_c   9.29692700
_cell_angle_alpha   120.00858875
_cell_angle_beta   90.00000000
_cell_angle_gamma   90.00000000
_symmetry_Int_Tables_number   1
_chemical_formula_structural   Ho2Fe3P7Ru9
_chemical_formula_sum   'Ho2 Fe3 P7 Ru9'
_cell_volume   288.62105956
_cell_formula_units_Z   1
loop_
 _symmetry_equiv_pos_site_id
 _symmetry_equiv_pos_as_xyz
  1  'x, y, z'
loop_
 _atom_site_type_symbol
 _atom_site_label
 _atom_site_symmetry_multiplicity
 _atom_site_fract_x
 _atom_site_fract_y
 _atom_site_fract_z
 _atom_site_occupancy
  Ho  Ho0  1  0.000000  0.666653  0.333371  1
  Ho  Ho1  1  0.500000  0.333368  0.666700  1
  Fe  Fe2  1  0.000000  0.889794  0.732220  1
  Fe  Fe3  1  0.000000  0.267658  0.157618  1
  Fe  Fe4  1  0.000000  0.842422  0.110030  1
  P  P5  1  0.000000  0.108788  0.695848  1
  P  P6  1  0.000000  0.304217  0.412918  1
  P  P7  1  0.000000  0.586993  0.891307  1
  P  P8  1  0.500000  0.719358  0.603501  1
  P  P9  1  0.500000  0.396466  0.115890  1
  P  P10  1  0.500000  0.884107  0.280628  1
  P  P11  1  0.000000  0.000094  0.999902  1
  Ru  Ru12  1  0.000000  0.360828  0.939492  1
  Ru  Ru13  1  0.000000  0.060474  0.421332  1
  Ru  Ru14  1  0.000000  0.578584  0.639078  1
  Ru  Ru15  1  0.500000  0.947396  0.561736  1
  Ru  Ru16  1  0.500000  0.438366  0.385704  1
  Ru  Ru17  1  0.500000  0.614320  0.052644  1
  Ru  Ru18  1  0.500000  0.116609  0.912075  1
  Ru  Ru19  1  0.500000  0.088000  0.204561  1
  Ru  Ru20  1  0.500000  0.795507  0.883446  1
