# generated using pymatgen
data_TmSc3ReRu7
_symmetry_space_group_name_H-M   'P 1'
_cell_length_a   5.12155895
_cell_length_b   5.27903450
_cell_length_c   8.76285244
_cell_angle_alpha   90.00000252
_cell_angle_beta   90.11958273
_cell_angle_gamma   121.02244455
_symmetry_Int_Tables_number   1
_chemical_formula_structural   TmSc3ReRu7
_chemical_formula_sum   'Tm1 Sc3 Re1 Ru7'
_cell_volume   203.03186977
_cell_formula_units_Z   1
loop_
 _symmetry_equiv_pos_site_id
 _symmetry_equiv_pos_as_xyz
  1  'x, y, z'
loop_
 _atom_site_type_symbol
 _atom_site_label
 _atom_site_symmetry_multiplicity
 _atom_site_fract_x
 _atom_site_fract_y
 _atom_site_fract_z
 _atom_site_occupancy
  Tm  Tm0  1  0.326714  0.663358  0.066250  1
  Sc  Sc1  1  0.328208  0.664105  0.434811  1
  Sc  Sc2  1  0.655976  0.327987  0.566042  1
  Sc  Sc3  1  0.654800  0.327399  0.929807  1
  Re  Re4  1  0.677153  0.838577  0.748352  1
  Ru  Ru5  1  0.975877  0.987939  0.499610  1
  Ru  Ru6  1  0.979161  0.989581  0.000295  1
  Ru  Ru7  1  0.836558  0.169266  0.253038  1
  Ru  Ru8  1  0.836558  0.667291  0.253038  1
  Ru  Ru9  1  0.358406  0.179203  0.253328  1
  Ru  Ru10  1  0.185295  0.833333  0.747715  1
  Ru  Ru11  1  0.185295  0.351962  0.747715  1
