# generated using pymatgen
data_K4FeO4
_symmetry_space_group_name_H-M   'P 1'
_cell_length_a   6.37855378
_cell_length_b   6.37535680
_cell_length_c   9.50378700
_cell_angle_alpha   79.00702591
_cell_angle_beta   70.27266496
_cell_angle_gamma   67.50160953
_symmetry_Int_Tables_number   1
_chemical_formula_structural   K4FeO4
_chemical_formula_sum   'K8 Fe2 O8'
_cell_volume   335.26388997
_cell_formula_units_Z   2
loop_
 _symmetry_equiv_pos_site_id
 _symmetry_equiv_pos_as_xyz
  1  'x, y, z'
loop_
 _atom_site_type_symbol
 _atom_site_label
 _atom_site_symmetry_multiplicity
 _atom_site_fract_x
 _atom_site_fract_y
 _atom_site_fract_z
 _atom_site_occupancy
  K  K0  1  0.593023  0.257587  0.155685  1
  K  K1  1  0.404789  0.742832  0.844582  1
  K  K2  1  0.519445  0.777410  0.433898  1
  K  K3  1  0.481584  0.222270  0.564905  1
  K  K4  1  0.227629  0.245783  0.974844  1
  K  K5  1  0.772303  0.752582  0.025867  1
  K  K6  1  0.968615  0.714366  0.626467  1
  K  K7  1  0.033809  0.285900  0.373330  1
  Fe  Fe8  1  0.838447  0.230143  0.749623  1
  Fe  Fe9  1  0.160884  0.770224  0.250525  1
  O  O10  1  0.686025  0.461459  0.632126  1
  O  O11  1  0.313370  0.539457  0.368045  1
  O  O12  1  0.139989  0.033082  0.668611  1
  O  O13  1  0.859477  0.968089  0.330238  1
  O  O14  1  0.657012  0.047202  0.802187  1
  O  O15  1  0.342995  0.952511  0.198524  1
  O  O16  1  0.854851  0.394457  0.881897  1
  O  O17  1  0.145751  0.604645  0.118647  1
