# generated using pymatgen
data_Y12Co3Cu2Sn
_symmetry_space_group_name_H-M   'P 1'
_cell_length_a   8.39197605
_cell_length_b   8.39194516
_cell_length_c   8.39197416
_cell_angle_alpha   109.45320493
_cell_angle_beta   111.50350245
_cell_angle_gamma   107.48206640
_symmetry_Int_Tables_number   1
_chemical_formula_structural   Y12Co3Cu2Sn
_chemical_formula_sum   'Y12 Co3 Cu2 Sn1'
_cell_volume   454.39438914
_cell_formula_units_Z   1
loop_
 _symmetry_equiv_pos_site_id
 _symmetry_equiv_pos_as_xyz
  1  'x, y, z'
loop_
 _atom_site_type_symbol
 _atom_site_label
 _atom_site_symmetry_multiplicity
 _atom_site_fract_x
 _atom_site_fract_y
 _atom_site_fract_z
 _atom_site_occupancy
  Y  Y0  1  0.291127  0.179591  0.470714  1
  Y  Y1  1  0.713738  0.816620  0.530352  1
  Y  Y2  1  0.286268  0.816620  0.102883  1
  Y  Y3  1  0.708877  0.179591  0.888463  1
  Y  Y4  1  0.625314  0.321468  0.312186  1
  Y  Y5  1  0.374693  0.686872  0.696154  1
  Y  Y6  1  0.009282  0.321468  0.696154  1
  Y  Y7  1  0.990717  0.686872  0.312178  1
  Y  Y8  1  0.226583  0.421850  0.195267  1
  Y  Y9  1  0.783235  0.588412  0.805177  1
  Y  Y10  1  0.216763  0.021939  0.805176  1
  Y  Y11  1  0.773413  0.968682  0.195269  1
  Co  Co12  1  0.999999  0.635703  0.635703  1
  Co  Co13  1  0.387018  0.881824  0.494807  1
  Co  Co14  1  0.612974  0.107782  0.494808  1
  Cu  Cu15  1  0.999996  0.363036  0.363039  1
  Cu  Cu16  1  0.999997  0.004950  0.004954  1
  Sn  Sn17  1  0.500006  0.496722  0.996716  1
