# generated using pymatgen
data_Dy2YAl12Ir3Ru
_symmetry_space_group_name_H-M   'P 1'
_cell_length_a   8.83598700
_cell_length_b   8.83647540
_cell_length_c   9.50064000
_cell_angle_alpha   90.00000000
_cell_angle_beta   90.00000000
_cell_angle_gamma   120.00183085
_symmetry_Int_Tables_number   1
_chemical_formula_structural   Dy2YAl12Ir3Ru
_chemical_formula_sum   'Dy4 Y2 Al24 Ir6 Ru2'
_cell_volume   642.40604991
_cell_formula_units_Z   2
loop_
 _symmetry_equiv_pos_site_id
 _symmetry_equiv_pos_as_xyz
  1  'x, y, z'
loop_
 _atom_site_type_symbol
 _atom_site_label
 _atom_site_symmetry_multiplicity
 _atom_site_fract_x
 _atom_site_fract_y
 _atom_site_fract_z
 _atom_site_occupancy
  Dy  Dy0  1  0.614712  0.807355  0.250000  1
  Dy  Dy1  1  0.807291  0.192643  0.750000  1
  Dy  Dy2  1  0.807291  0.614648  0.750000  1
  Dy  Dy3  1  0.385312  0.192657  0.750000  1
  Y  Y4  1  0.192678  0.807318  0.250000  1
  Y  Y5  1  0.192678  0.385359  0.250000  1
  Al  Al6  1  0.562300  0.437905  0.250000  1
  Al  Al7  1  0.562300  0.124395  0.250000  1
  Al  Al8  1  0.875486  0.437743  0.250000  1
  Al  Al9  1  0.437738  0.562145  0.750000  1
  Al  Al10  1  0.437738  0.875593  0.750000  1
  Al  Al11  1  0.124518  0.562259  0.750000  1
  Al  Al12  1  0.326036  0.163019  0.424110  1
  Al  Al13  1  0.836949  0.162946  0.423996  1
  Al  Al14  1  0.836949  0.674004  0.423996  1
  Al  Al15  1  0.674027  0.837013  0.575960  1
  Al  Al16  1  0.162992  0.837025  0.576118  1
  Al  Al17  1  0.162992  0.325966  0.576118  1
  Al  Al18  1  0.674027  0.837013  0.924040  1
  Al  Al19  1  0.162992  0.837025  0.923882  1
  Al  Al20  1  0.162992  0.325966  0.923882  1
  Al  Al21  1  0.326036  0.163019  0.075890  1
  Al  Al22  1  0.836949  0.162946  0.076004  1
  Al  Al23  1  0.836949  0.674004  0.076004  1
  Al  Al24  1  0.666660  0.333330  0.528583  1
  Al  Al25  1  0.333375  0.666688  0.471462  1
  Al  Al26  1  0.333375  0.666688  0.028538  1
  Al  Al27  1  0.666660  0.333330  0.971417  1
  Al  Al28  1  0.999734  0.999867  0.250000  1
  Al  Al29  1  0.000108  0.000054  0.750000  1
  Ir  Ir30  1  0.500087  0.500007  0.500042  1
  Ir  Ir31  1  0.500087  0.000080  0.500042  1
  Ir  Ir32  1  0.999910  0.499955  0.500108  1
  Ir  Ir33  1  0.500087  0.500007  0.999958  1
  Ir  Ir34  1  0.500087  0.000080  0.999958  1
  Ir  Ir35  1  0.999910  0.499955  0.999892  1
  Ru  Ru36  1  0.999993  0.999997  0.499874  1
  Ru  Ru37  1  0.999993  0.999997  0.000126  1
