# generated using pymatgen
data_Hf4Ti2PtRh9
_symmetry_space_group_name_H-M   'P 1'
_cell_length_a   4.21247500
_cell_length_b   5.56519078
_cell_length_c   10.88688863
_cell_angle_alpha   89.39964074
_cell_angle_beta   90.00000000
_cell_angle_gamma   90.00000000
_symmetry_Int_Tables_number   1
_chemical_formula_structural   Hf4Ti2PtRh9
_chemical_formula_sum   'Hf4 Ti2 Pt1 Rh9'
_cell_volume   255.20979093
_cell_formula_units_Z   1
loop_
 _symmetry_equiv_pos_site_id
 _symmetry_equiv_pos_as_xyz
  1  'x, y, z'
loop_
 _atom_site_type_symbol
 _atom_site_label
 _atom_site_symmetry_multiplicity
 _atom_site_fract_x
 _atom_site_fract_y
 _atom_site_fract_z
 _atom_site_occupancy
  Hf  Hf0  1  0.500000  0.155689  0.641681  1
  Hf  Hf1  1  0.500000  0.836744  0.355809  1
  Hf  Hf2  1  0.500000  0.669211  0.859253  1
  Hf  Hf3  1  0.500000  0.338587  0.144451  1
  Ti  Ti4  1  0.000000  0.493998  0.495649  1
  Ti  Ti5  1  0.000000  0.002968  0.001028  1
  Pt  Pt6  1  0.000000  0.413398  0.742534  1
  Rh  Rh7  1  0.500000  0.180821  0.895479  1
  Rh  Rh8  1  0.500000  0.822310  0.104507  1
  Rh  Rh9  1  0.500000  0.673280  0.604376  1
  Rh  Rh10  1  0.500000  0.318737  0.396176  1
  Rh  Rh11  1  0.000000  0.592700  0.262026  1
  Rh  Rh12  1  0.000000  0.993940  0.497557  1
  Rh  Rh13  1  0.000000  0.502772  0.002632  1
  Rh  Rh14  1  0.000000  0.092601  0.237718  1
  Rh  Rh15  1  0.000000  0.912245  0.759122  1
