# generated using pymatgen
data_Nb12GaSi3(PtN)4
_symmetry_space_group_name_H-M   'P 1'
_cell_length_a   7.02272460
_cell_length_b   7.02272554
_cell_length_c   7.02272568
_cell_angle_alpha   90.08642112
_cell_angle_beta   90.08641880
_cell_angle_gamma   90.08642812
_symmetry_Int_Tables_number   1
_chemical_formula_structural   Nb12GaSi3(PtN)4
_chemical_formula_sum   'Nb12 Ga1 Si3 Pt4 N4'
_cell_volume   346.35028874
_cell_formula_units_Z   1
loop_
 _symmetry_equiv_pos_site_id
 _symmetry_equiv_pos_as_xyz
  1  'x, y, z'
loop_
 _atom_site_type_symbol
 _atom_site_label
 _atom_site_symmetry_multiplicity
 _atom_site_fract_x
 _atom_site_fract_y
 _atom_site_fract_z
 _atom_site_occupancy
  Nb  Nb0  1  0.786866  0.951651  0.381390  1
  Nb  Nb1  1  0.712202  0.047810  0.880314  1
  Nb  Nb2  1  0.214519  0.452701  0.118067  1
  Nb  Nb3  1  0.285939  0.548367  0.618939  1
  Nb  Nb4  1  0.951651  0.381390  0.786866  1
  Nb  Nb5  1  0.047810  0.880314  0.712202  1
  Nb  Nb6  1  0.452701  0.118067  0.214519  1
  Nb  Nb7  1  0.548367  0.618939  0.285939  1
  Nb  Nb8  1  0.381390  0.786866  0.951651  1
  Nb  Nb9  1  0.880314  0.712202  0.047810  1
  Nb  Nb10  1  0.118067  0.214519  0.452701  1
  Nb  Nb11  1  0.618939  0.285939  0.548367  1
  Ga  Ga12  1  0.071224  0.071224  0.071224  1
  Si  Si13  1  0.572243  0.427875  0.927710  1
  Si  Si14  1  0.427875  0.927710  0.572243  1
  Si  Si15  1  0.927710  0.572243  0.427875  1
  Pt  Pt16  1  0.180161  0.817192  0.326043  1
  Pt  Pt17  1  0.326043  0.180161  0.817192  1
  Pt  Pt18  1  0.817192  0.326043  0.180161  1
  Pt  Pt19  1  0.678003  0.678003  0.678003  1
  N  N20  1  0.874372  0.125495  0.626875  1
  N  N21  1  0.626875  0.874372  0.125495  1
  N  N22  1  0.125495  0.626875  0.874372  1
  N  N23  1  0.374040  0.374040  0.374040  1
