# generated using pymatgen
data_Tb3AgRh2Pb3
_symmetry_space_group_name_H-M   'P 1'
_cell_length_a   7.91651900
_cell_length_b   7.91651790
_cell_length_c   3.85348200
_cell_angle_alpha   90.00000000
_cell_angle_beta   90.00000000
_cell_angle_gamma   120.00000879
_symmetry_Int_Tables_number   1
_chemical_formula_structural   Tb3AgRh2Pb3
_chemical_formula_sum   'Tb3 Ag1 Rh2 Pb3'
_cell_volume   209.14735866
_cell_formula_units_Z   1
loop_
 _symmetry_equiv_pos_site_id
 _symmetry_equiv_pos_as_xyz
  1  'x, y, z'
loop_
 _atom_site_type_symbol
 _atom_site_label
 _atom_site_symmetry_multiplicity
 _atom_site_fract_x
 _atom_site_fract_y
 _atom_site_fract_z
 _atom_site_occupancy
  Tb  Tb0  1  0.974649  0.588515  0.500000  1
  Tb  Tb1  1  0.411485  0.386134  0.500000  1
  Tb  Tb2  1  0.613866  0.025351  0.500000  1
  Ag  Ag3  1  0.333333  0.666667  0.000000  1
  Rh  Rh4  1  0.000000  0.000000  0.500000  1
  Rh  Rh5  1  0.666667  0.333333  0.000000  1
  Pb  Pb6  1  0.735426  0.739490  0.000000  1
  Pb  Pb7  1  0.004064  0.264574  0.000000  1
  Pb  Pb8  1  0.260510  0.995936  0.000000  1
