# generated using pymatgen
data_Nd16Lu4Bi3Pb13
_symmetry_space_group_name_H-M   'P 1'
_cell_length_a   8.43067148
_cell_length_b   8.44948410
_cell_length_c   16.10356483
_cell_angle_alpha   90.06966888
_cell_angle_beta   89.69903825
_cell_angle_gamma   89.91116156
_symmetry_Int_Tables_number   1
_chemical_formula_structural   Nd16Lu4Bi3Pb13
_chemical_formula_sum   'Nd16 Lu4 Bi3 Pb13'
_cell_volume   1147.11655237
_cell_formula_units_Z   1
loop_
 _symmetry_equiv_pos_site_id
 _symmetry_equiv_pos_as_xyz
  1  'x, y, z'
loop_
 _atom_site_type_symbol
 _atom_site_label
 _atom_site_symmetry_multiplicity
 _atom_site_fract_x
 _atom_site_fract_y
 _atom_site_fract_z
 _atom_site_occupancy
  Nd  Nd0  1  0.620963  0.158618  0.619485  1
  Nd  Nd1  1  0.117112  0.343902  0.880483  1
  Nd  Nd2  1  0.382036  0.844323  0.119743  1
  Nd  Nd3  1  0.879802  0.654804  0.380424  1
  Nd  Nd4  1  0.375149  0.842306  0.380527  1
  Nd  Nd5  1  0.878106  0.657985  0.119329  1
  Nd  Nd6  1  0.621703  0.157560  0.881139  1
  Nd  Nd7  1  0.121504  0.342945  0.619843  1
  Nd  Nd8  1  0.455497  0.670681  0.603760  1
  Nd  Nd9  1  0.948668  0.828170  0.894463  1
  Nd  Nd10  1  0.551214  0.329033  0.105600  1
  Nd  Nd11  1  0.045196  0.175065  0.397234  1
  Nd  Nd12  1  0.539956  0.327419  0.397845  1
  Nd  Nd13  1  0.040140  0.172970  0.104024  1
  Nd  Nd14  1  0.460037  0.673080  0.896012  1
  Nd  Nd15  1  0.962851  0.822373  0.602427  1
  Lu  Lu16  1  0.785963  0.496937  0.749370  1
  Lu  Lu17  1  0.286448  0.002866  0.746265  1
  Lu  Lu18  1  0.214524  0.502340  0.253354  1
  Lu  Lu19  1  0.713942  0.997165  0.248411  1
  Bi  Bi20  1  0.723426  0.975143  0.450489  1
  Bi  Bi21  1  0.226469  0.522121  0.049880  1
  Bi  Bi22  1  0.273281  0.021429  0.950016  1
  Pb  Pb23  1  0.775942  0.474408  0.547373  1
  Pb  Pb24  1  0.277813  0.027058  0.547150  1
  Pb  Pb25  1  0.775167  0.474598  0.951966  1
  Pb  Pb26  1  0.724249  0.975383  0.048171  1
  Pb  Pb27  1  0.221621  0.527876  0.453347  1
  Pb  Pb28  1  0.426488  0.370883  0.751817  1
  Pb  Pb29  1  0.926001  0.128856  0.749634  1
  Pb  Pb30  1  0.573213  0.629848  0.250418  1
  Pb  Pb31  1  0.073714  0.871746  0.249298  1
  Pb  Pb32  1  0.649712  0.847151  0.748803  1
  Pb  Pb33  1  0.150528  0.653009  0.750973  1
  Pb  Pb34  1  0.350704  0.153495  0.249634  1
  Pb  Pb35  1  0.850860  0.346451  0.251293  1
