# generated using pymatgen
data_Cs12NpV3Se16
_symmetry_space_group_name_H-M   'P 1'
_cell_length_a   10.35030200
_cell_length_b   10.51979878
_cell_length_c   12.07572300
_cell_angle_alpha   90.00000000
_cell_angle_beta   90.00000000
_cell_angle_gamma   90.13167945
_symmetry_Int_Tables_number   1
_chemical_formula_structural   Cs12NpV3Se16
_chemical_formula_sum   'Cs12 Np1 V3 Se16'
_cell_volume   1314.83861463
_cell_formula_units_Z   1
loop_
 _symmetry_equiv_pos_site_id
 _symmetry_equiv_pos_as_xyz
  1  'x, y, z'
loop_
 _atom_site_type_symbol
 _atom_site_label
 _atom_site_symmetry_multiplicity
 _atom_site_fract_x
 _atom_site_fract_y
 _atom_site_fract_z
 _atom_site_occupancy
  Cs  Cs0  1  0.641324  0.918215  0.250000  1
  Cs  Cs1  1  0.143602  0.578183  0.250000  1
  Cs  Cs2  1  0.844188  0.411398  0.750000  1
  Cs  Cs3  1  0.367247  0.080278  0.750000  1
  Cs  Cs4  1  0.042918  0.805196  0.964500  1
  Cs  Cs5  1  0.550762  0.708267  0.540963  1
  Cs  Cs6  1  0.455595  0.286149  0.049402  1
  Cs  Cs7  1  0.949846  0.206975  0.454913  1
  Cs  Cs8  1  0.949846  0.206975  0.045087  1
  Cs  Cs9  1  0.455595  0.286149  0.450598  1
  Cs  Cs10  1  0.550762  0.708267  0.959037  1
  Cs  Cs11  1  0.042918  0.805196  0.535500  1
  Np  Np12  1  0.261455  0.508910  0.750000  1
  V  V13  1  0.781963  0.980830  0.750000  1
  V  V14  1  0.221395  0.015575  0.250000  1
  V  V15  1  0.722052  0.482523  0.250000  1
  Se  Se16  1  0.330127  0.954031  0.093280  1
  Se  Se17  1  0.828493  0.545495  0.407254  1
  Se  Se18  1  0.167022  0.463479  0.947710  1
  Se  Se19  1  0.672935  0.041083  0.593141  1
  Se  Se20  1  0.015780  0.930087  0.250000  1
  Se  Se21  1  0.517554  0.567689  0.250000  1
  Se  Se22  1  0.498107  0.417854  0.750000  1
  Se  Se23  1  0.984849  0.072976  0.750000  1
  Se  Se24  1  0.672935  0.041083  0.906859  1
  Se  Se25  1  0.330127  0.954031  0.406720  1
  Se  Se26  1  0.828493  0.545495  0.092746  1
  Se  Se27  1  0.167022  0.463479  0.552290  1
  Se  Se28  1  0.799845  0.762516  0.750000  1
  Se  Se29  1  0.291341  0.755394  0.750000  1
  Se  Se30  1  0.708315  0.263513  0.250000  1
  Se  Se31  1  0.205589  0.232710  0.250000  1
