# generated using pymatgen
data_CaErGa9Ru5
_symmetry_space_group_name_H-M   'P 1'
_cell_length_a   8.03393245
_cell_length_b   8.03393141
_cell_length_c   8.03393049
_cell_angle_alpha   134.71121862
_cell_angle_beta   134.78221456
_cell_angle_gamma   65.92402206
_symmetry_Int_Tables_number   1
_chemical_formula_structural   CaErGa9Ru5
_chemical_formula_sum   'Ca1 Er1 Ga9 Ru5'
_cell_volume   257.58594587
_cell_formula_units_Z   1
loop_
 _symmetry_equiv_pos_site_id
 _symmetry_equiv_pos_as_xyz
  1  'x, y, z'
loop_
 _atom_site_type_symbol
 _atom_site_label
 _atom_site_symmetry_multiplicity
 _atom_site_fract_x
 _atom_site_fract_y
 _atom_site_fract_z
 _atom_site_occupancy
  Ca  Ca0  1  0.000000  0.500000  0.500000  1
  Er  Er1  1  0.500000  0.000000  0.500000  1
  Ga  Ga2  1  0.436709  0.857956  0.999527  1
  Ga  Ga3  1  0.141571  0.142044  0.578753  1
  Ga  Ga4  1  0.858429  0.437182  0.000473  1
  Ga  Ga5  1  0.858429  0.857956  0.421247  1
  Ga  Ga6  1  0.563291  0.142044  0.000473  1
  Ga  Ga7  1  0.141571  0.562818  0.999527  1
  Ga  Ga8  1  0.563291  0.562818  0.421247  1
  Ga  Ga9  1  0.000000  0.000000  0.000000  1
  Ga  Ga10  1  0.436709  0.437182  0.578753  1
  Ru  Ru11  1  0.181658  0.181658  0.000000  1
  Ru  Ru12  1  0.818342  0.818342  0.000000  1
  Ru  Ru13  1  0.250306  0.750306  0.500000  1
  Ru  Ru14  1  0.749694  0.249694  0.500000  1
  Ru  Ru15  1  0.500000  0.500000  0.000000  1
