# generated using pymatgen
data_Ho2U2Ga12Rh
_symmetry_space_group_name_H-M   'P 1'
_cell_length_a   7.47821139
_cell_length_b   7.47821087
_cell_length_c   7.43269625
_cell_angle_alpha   109.42180357
_cell_angle_beta   109.42180719
_cell_angle_gamma   109.81641500
_symmetry_Int_Tables_number   1
_chemical_formula_structural   Ho2U2Ga12Rh
_chemical_formula_sum   'Ho2 U2 Ga12 Rh1'
_cell_volume   318.99749515
_cell_formula_units_Z   1
loop_
 _symmetry_equiv_pos_site_id
 _symmetry_equiv_pos_as_xyz
  1  'x, y, z'
loop_
 _atom_site_type_symbol
 _atom_site_label
 _atom_site_symmetry_multiplicity
 _atom_site_fract_x
 _atom_site_fract_y
 _atom_site_fract_z
 _atom_site_occupancy
  Ho  Ho0  1  0.000000  0.500000  0.000000  1
  Ho  Ho1  1  0.500000  0.000000  0.000000  1
  U  U2  1  0.500000  0.500000  0.500000  1
  U  U3  1  0.000000  0.000000  0.500000  1
  Ga  Ga4  1  0.750000  0.250000  0.500000  1
  Ga  Ga5  1  0.999465  0.708274  0.707739  1
  Ga  Ga6  1  0.291726  0.000535  0.292261  1
  Ga  Ga7  1  0.500067  0.250021  0.750088  1
  Ga  Ga8  1  0.749979  0.499933  0.249912  1
  Ga  Ga9  1  0.250000  0.750000  0.500000  1
  Ga  Ga10  1  0.250021  0.500067  0.750088  1
  Ga  Ga11  1  0.708274  0.999465  0.707739  1
  Ga  Ga12  1  0.499933  0.749979  0.249912  1
  Ga  Ga13  1  0.708064  0.708064  0.000000  1
  Ga  Ga14  1  0.291936  0.291936  0.000000  1
  Ga  Ga15  1  0.000535  0.291726  0.292261  1
  Rh  Rh16  1  0.000000  0.000000  0.000000  1
