# generated using pymatgen
data_La8Mn(Si4Ni)3
_symmetry_space_group_name_H-M   'P 1'
_cell_length_a   8.30234000
_cell_length_b   8.30234143
_cell_length_c   8.69132100
_cell_angle_alpha   90.00000000
_cell_angle_beta   90.00000000
_cell_angle_gamma   119.99999431
_symmetry_Int_Tables_number   1
_chemical_formula_structural   La8Mn(Si4Ni)3
_chemical_formula_sum   'La8 Mn1 Si12 Ni3'
_cell_volume   518.82100549
_cell_formula_units_Z   1
loop_
 _symmetry_equiv_pos_site_id
 _symmetry_equiv_pos_as_xyz
  1  'x, y, z'
loop_
 _atom_site_type_symbol
 _atom_site_label
 _atom_site_symmetry_multiplicity
 _atom_site_fract_x
 _atom_site_fract_y
 _atom_site_fract_z
 _atom_site_occupancy
  La  La0  1  0.499709  0.500291  0.749701  1
  La  La1  1  0.499734  0.500266  0.250284  1
  La  La2  1  0.000583  0.500291  0.749701  1
  La  La3  1  0.000532  0.500266  0.250284  1
  La  La4  1  0.499709  0.999417  0.749701  1
  La  La5  1  0.499734  0.999468  0.250284  1
  La  La6  1  0.000000  0.000000  0.750958  1
  La  La7  1  0.000000  0.000000  0.248989  1
  Mn  Mn8  1  0.666667  0.333333  0.499850  1
  Si  Si9  1  0.829923  0.170077  0.999884  1
  Si  Si10  1  0.169887  0.830113  0.000085  1
  Si  Si11  1  0.340154  0.170077  0.999884  1
  Si  Si12  1  0.171361  0.828639  0.499938  1
  Si  Si13  1  0.660225  0.830113  0.000085  1
  Si  Si14  1  0.833267  0.166733  0.500084  1
  Si  Si15  1  0.829923  0.659846  0.999884  1
  Si  Si16  1  0.657278  0.828639  0.499938  1
  Si  Si17  1  0.169887  0.339775  0.000085  1
  Si  Si18  1  0.333465  0.166733  0.500084  1
  Si  Si19  1  0.171361  0.342722  0.499938  1
  Si  Si20  1  0.833267  0.666535  0.500084  1
  Ni  Ni21  1  0.666667  0.333333  0.000310  1
  Ni  Ni22  1  0.333333  0.666667  0.999813  1
  Ni  Ni23  1  0.333333  0.666667  0.500153  1
