# generated using pymatgen
data_La2Al3Tc14C3
_symmetry_space_group_name_H-M   'P 1'
_cell_length_a   6.99443160
_cell_length_b   6.99443313
_cell_length_c   6.99443245
_cell_angle_alpha   82.70926619
_cell_angle_beta   82.70926941
_cell_angle_gamma   82.70926690
_symmetry_Int_Tables_number   1
_chemical_formula_structural   La2Al3Tc14C3
_chemical_formula_sum   'La2 Al3 Tc14 C3'
_cell_volume   334.52988492
_cell_formula_units_Z   1
loop_
 _symmetry_equiv_pos_site_id
 _symmetry_equiv_pos_as_xyz
  1  'x, y, z'
loop_
 _atom_site_type_symbol
 _atom_site_label
 _atom_site_symmetry_multiplicity
 _atom_site_fract_x
 _atom_site_fract_y
 _atom_site_fract_z
 _atom_site_occupancy
  La  La0  1  0.655793  0.655793  0.655793  1
  La  La1  1  0.344207  0.344207  0.344207  1
  Al  Al2  1  0.000000  0.000000  0.500000  1
  Al  Al3  1  0.500000  0.000000  0.000000  1
  Al  Al4  1  0.000000  0.500000  0.000000  1
  Tc  Tc5  1  0.723952  0.276048  0.000000  1
  Tc  Tc6  1  0.000000  0.723952  0.276048  1
  Tc  Tc7  1  0.276048  0.000000  0.723952  1
  Tc  Tc8  1  0.000000  0.276048  0.723952  1
  Tc  Tc9  1  0.723952  0.000000  0.276048  1
  Tc  Tc10  1  0.276048  0.723952  0.000000  1
  Tc  Tc11  1  0.349931  0.349931  0.852835  1
  Tc  Tc12  1  0.852835  0.349931  0.349931  1
  Tc  Tc13  1  0.349931  0.852835  0.349931  1
  Tc  Tc14  1  0.650069  0.650069  0.147165  1
  Tc  Tc15  1  0.147165  0.650069  0.650069  1
  Tc  Tc16  1  0.650069  0.147165  0.650069  1
  Tc  Tc17  1  0.905376  0.905376  0.905376  1
  Tc  Tc18  1  0.094624  0.094624  0.094624  1
  C  C19  1  0.500000  0.500000  0.000000  1
  C  C20  1  0.000000  0.500000  0.500000  1
  C  C21  1  0.500000  0.000000  0.500000  1
