# generated using pymatgen
data_AcFeRuO5
_symmetry_space_group_name_H-M   'P 1'
_cell_length_a   5.83426500
_cell_length_b   8.03958000
_cell_length_c   9.20030200
_cell_angle_alpha   90.00000000
_cell_angle_beta   90.00000000
_cell_angle_gamma   90.00000000
_symmetry_Int_Tables_number   1
_chemical_formula_structural   AcFeRuO5
_chemical_formula_sum   'Ac4 Fe4 Ru4 O20'
_cell_volume   431.54053524
_cell_formula_units_Z   4
loop_
 _symmetry_equiv_pos_site_id
 _symmetry_equiv_pos_as_xyz
  1  'x, y, z'
loop_
 _atom_site_type_symbol
 _atom_site_label
 _atom_site_symmetry_multiplicity
 _atom_site_fract_x
 _atom_site_fract_y
 _atom_site_fract_z
 _atom_site_occupancy
  Ac  Ac0  1  0.000000  0.350510  0.673097  1
  Ac  Ac1  1  0.000000  0.649490  0.326903  1
  Ac  Ac2  1  0.000000  0.850510  0.826903  1
  Ac  Ac3  1  0.000000  0.149490  0.173097  1
  Fe  Fe4  1  0.500000  0.098633  0.859355  1
  Fe  Fe5  1  0.500000  0.901367  0.140645  1
  Fe  Fe6  1  0.500000  0.598633  0.640645  1
  Fe  Fe7  1  0.500000  0.401367  0.359355  1
  Ru  Ru8  1  0.280583  0.500000  0.000000  1
  Ru  Ru9  1  0.719417  0.000000  0.500000  1
  Ru  Ru10  1  0.719417  0.500000  0.000000  1
  Ru  Ru11  1  0.280583  0.000000  0.500000  1
  O  O12  1  0.259874  0.912897  0.290781  1
  O  O13  1  0.259874  0.087103  0.709219  1
  O  O14  1  0.740126  0.412897  0.209219  1
  O  O15  1  0.740126  0.587103  0.790781  1
  O  O16  1  0.740126  0.087103  0.709219  1
  O  O17  1  0.740126  0.912897  0.290781  1
  O  O18  1  0.259874  0.587103  0.790781  1
  O  O19  1  0.259874  0.412897  0.209219  1
  O  O20  1  0.500000  0.327864  0.929540  1
  O  O21  1  0.500000  0.672136  0.070460  1
  O  O22  1  0.500000  0.827864  0.570460  1
  O  O23  1  0.500000  0.172136  0.429540  1
  O  O24  1  0.274020  0.000000  0.000000  1
  O  O25  1  0.725980  0.500000  0.500000  1
  O  O26  1  0.725980  0.000000  0.000000  1
  O  O27  1  0.274020  0.500000  0.500000  1
  O  O28  1  0.000000  0.147375  0.452095  1
  O  O29  1  0.000000  0.852625  0.547905  1
  O  O30  1  0.000000  0.647375  0.047905  1
  O  O31  1  0.000000  0.352625  0.952095  1
