# generated using pymatgen
data_Nd6HoCoCl12
_symmetry_space_group_name_H-M   'P 1'
_cell_length_a   9.19397490
_cell_length_b   9.19397407
_cell_length_c   9.19397482
_cell_angle_alpha   107.02169073
_cell_angle_beta   107.02169231
_cell_angle_gamma   107.02169917
_symmetry_Int_Tables_number   1
_chemical_formula_structural   Nd6HoCoCl12
_chemical_formula_sum   'Nd6 Ho1 Co1 Cl12'
_cell_volume   646.84207667
_cell_formula_units_Z   1
loop_
 _symmetry_equiv_pos_site_id
 _symmetry_equiv_pos_as_xyz
  1  'x, y, z'
loop_
 _atom_site_type_symbol
 _atom_site_label
 _atom_site_symmetry_multiplicity
 _atom_site_fract_x
 _atom_site_fract_y
 _atom_site_fract_z
 _atom_site_occupancy
  Nd  Nd0  1  0.979442  0.893625  0.685393  1
  Nd  Nd1  1  0.893625  0.685393  0.979442  1
  Nd  Nd2  1  0.685393  0.979442  0.893625  1
  Nd  Nd3  1  0.020558  0.106375  0.314607  1
  Nd  Nd4  1  0.106375  0.314607  0.020558  1
  Nd  Nd5  1  0.314607  0.020558  0.106375  1
  Ho  Ho6  1  0.500000  0.500000  0.500000  1
  Co  Co7  1  0.000000  0.000000  0.000000  1
  Cl  Cl8  1  0.814306  0.537092  0.613805  1
  Cl  Cl9  1  0.537092  0.613805  0.814306  1
  Cl  Cl10  1  0.613805  0.814306  0.537092  1
  Cl  Cl11  1  0.185694  0.462908  0.386195  1
  Cl  Cl12  1  0.462908  0.386195  0.185694  1
  Cl  Cl13  1  0.386195  0.185694  0.462908  1
  Cl  Cl14  1  0.070242  0.216435  0.683236  1
  Cl  Cl15  1  0.216435  0.683236  0.070242  1
  Cl  Cl16  1  0.683236  0.070242  0.216435  1
  Cl  Cl17  1  0.929758  0.783565  0.316764  1
  Cl  Cl18  1  0.783565  0.316764  0.929758  1
  Cl  Cl19  1  0.316764  0.929758  0.783565  1
