# generated using pymatgen
data_Sm3Gd2Mn2O12
_symmetry_space_group_name_H-M   'P 1'
_cell_length_a   6.91591734
_cell_length_b   6.91591797
_cell_length_c   7.38776961
_cell_angle_alpha   74.38961285
_cell_angle_beta   74.38960857
_cell_angle_gamma   49.89193465
_symmetry_Int_Tables_number   1
_chemical_formula_structural   Sm3Gd2Mn2O12
_chemical_formula_sum   'Sm3 Gd2 Mn2 O12'
_cell_volume   258.08139595
_cell_formula_units_Z   1
loop_
 _symmetry_equiv_pos_site_id
 _symmetry_equiv_pos_as_xyz
  1  'x, y, z'
loop_
 _atom_site_type_symbol
 _atom_site_label
 _atom_site_symmetry_multiplicity
 _atom_site_fract_x
 _atom_site_fract_y
 _atom_site_fract_z
 _atom_site_occupancy
  Sm  Sm0  1  0.693261  0.693261  0.163157  1
  Sm  Sm1  1  0.306739  0.306739  0.836843  1
  Sm  Sm2  1  0.000000  0.000000  0.500000  1
  Gd  Gd3  1  0.307297  0.307297  0.355025  1
  Gd  Gd4  1  0.692703  0.692703  0.644975  1
  Mn  Mn5  1  0.755501  0.244499  0.000000  1
  Mn  Mn6  1  0.244499  0.755501  0.000000  1
  O  O7  1  0.094911  0.596386  0.574748  1
  O  O8  1  0.999971  0.999971  0.172966  1
  O  O9  1  0.403614  0.905089  0.425252  1
  O  O10  1  0.499745  0.499745  0.174719  1
  O  O11  1  0.101579  0.581336  0.080179  1
  O  O12  1  0.905089  0.403614  0.425252  1
  O  O13  1  0.000029  0.000029  0.827034  1
  O  O14  1  0.596386  0.094910  0.574748  1
  O  O15  1  0.500255  0.500255  0.825281  1
  O  O16  1  0.581336  0.101579  0.080179  1
  O  O17  1  0.418664  0.898421  0.919821  1
  O  O18  1  0.898421  0.418664  0.919821  1
