# generated using pymatgen
data_Ho2LuSn3RuPt2
_symmetry_space_group_name_H-M   'P 1'
_cell_length_a   7.70659729
_cell_length_b   7.73229297
_cell_length_c   3.71138900
_cell_angle_alpha   90.00000000
_cell_angle_beta   90.00000000
_cell_angle_gamma   120.11033973
_symmetry_Int_Tables_number   1
_chemical_formula_structural   Ho2LuSn3RuPt2
_chemical_formula_sum   'Ho2 Lu1 Sn3 Ru1 Pt2'
_cell_volume   191.31724870
_cell_formula_units_Z   1
loop_
 _symmetry_equiv_pos_site_id
 _symmetry_equiv_pos_as_xyz
  1  'x, y, z'
loop_
 _atom_site_type_symbol
 _atom_site_label
 _atom_site_symmetry_multiplicity
 _atom_site_fract_x
 _atom_site_fract_y
 _atom_site_fract_z
 _atom_site_occupancy
  Ho  Ho0  1  0.399661  0.399340  0.500000  1
  Ho  Ho1  1  0.600339  0.999679  0.500000  1
  Lu  Lu2  1  0.000000  0.601378  0.500000  1
  Sn  Sn3  1  0.736847  0.735576  0.000000  1
  Sn  Sn4  1  0.263153  0.998729  0.000000  1
  Sn  Sn5  1  0.000000  0.264100  0.000000  1
  Ru  Ru6  1  0.000000  0.998915  0.500000  1
  Pt  Pt7  1  0.670648  0.336465  0.000000  1
  Pt  Pt8  1  0.329352  0.665817  0.000000  1
