# generated using pymatgen
data_Nd3Be(AsPd4)5
_symmetry_space_group_name_H-M   'P 1'
_cell_length_a   8.93903713
_cell_length_b   8.84649845
_cell_length_c   8.84649743
_cell_angle_alpha   60.69326815
_cell_angle_beta   59.65335705
_cell_angle_gamma   59.65336322
_symmetry_Int_Tables_number   1
_chemical_formula_structural   Nd3Be(AsPd4)5
_chemical_formula_sum   'Nd3 Be1 As5 Pd20'
_cell_volume   494.56389385
_cell_formula_units_Z   1
loop_
 _symmetry_equiv_pos_site_id
 _symmetry_equiv_pos_as_xyz
  1  'x, y, z'
loop_
 _atom_site_type_symbol
 _atom_site_label
 _atom_site_symmetry_multiplicity
 _atom_site_fract_x
 _atom_site_fract_y
 _atom_site_fract_z
 _atom_site_occupancy
  Nd  Nd0  1  0.248627  0.251373  0.251373  1
  Nd  Nd1  1  0.748627  0.751373  0.751373  1
  Nd  Nd2  1  0.995752  0.004248  0.004248  1
  Be  Be3  1  0.730731  0.269269  0.269269  1
  As  As4  1  0.264426  0.735574  0.735574  1
  As  As5  1  0.265080  0.734920  0.265100  1
  As  As6  1  0.734900  0.265100  0.734920  1
  As  As7  1  0.265080  0.265100  0.734920  1
  As  As8  1  0.734900  0.734920  0.265100  1
  Pd  Pd9  1  0.395004  0.379048  0.379048  1
  Pd  Pd10  1  0.617551  0.615477  0.615477  1
  Pd  Pd11  1  0.384523  0.382449  0.848506  1
  Pd  Pd12  1  0.384523  0.848506  0.382449  1
  Pd  Pd13  1  0.620952  0.604996  0.153098  1
  Pd  Pd14  1  0.620952  0.153098  0.604996  1
  Pd  Pd15  1  0.846902  0.379048  0.379048  1
  Pd  Pd16  1  0.151494  0.615477  0.615477  1
  Pd  Pd17  1  0.347075  0.001611  0.001611  1
  Pd  Pd18  1  0.649703  0.001611  0.001611  1
  Pd  Pd19  1  0.998389  0.350297  0.652925  1
  Pd  Pd20  1  0.998389  0.652925  0.350297  1
  Pd  Pd21  1  0.987440  0.343543  0.012560  1
  Pd  Pd22  1  0.656457  0.012560  0.343543  1
  Pd  Pd23  1  0.001828  0.647513  0.998172  1
  Pd  Pd24  1  0.352487  0.998172  0.647513  1
  Pd  Pd25  1  0.987440  0.012560  0.343543  1
  Pd  Pd26  1  0.001828  0.998172  0.647513  1
  Pd  Pd27  1  0.656457  0.343543  0.012560  1
  Pd  Pd28  1  0.352487  0.647513  0.998172  1
