# generated using pymatgen
data_VFe5P6(PbO12)2
_symmetry_space_group_name_H-M   'P 1'
_cell_length_a   9.26621713
_cell_length_b   9.26117731
_cell_length_c   9.26621752
_cell_angle_alpha   137.91799351
_cell_angle_beta   110.14495037
_cell_angle_gamma   85.05348114
_symmetry_Int_Tables_number   1
_chemical_formula_structural   VFe5P6(PbO12)2
_chemical_formula_sum   'V1 Fe5 P6 Pb2 O24'
_cell_volume   481.85879278
_cell_formula_units_Z   1
loop_
 _symmetry_equiv_pos_site_id
 _symmetry_equiv_pos_as_xyz
  1  'x, y, z'
loop_
 _atom_site_type_symbol
 _atom_site_label
 _atom_site_symmetry_multiplicity
 _atom_site_fract_x
 _atom_site_fract_y
 _atom_site_fract_z
 _atom_site_occupancy
  V  V0  1  0.000000  0.000000  0.000000  1
  Fe  Fe1  1  0.617485  0.617586  0.499605  1
  Fe  Fe2  1  0.382515  0.382414  0.500395  1
  Fe  Fe3  1  0.117981  0.617586  0.000102  1
  Fe  Fe4  1  0.882019  0.382414  0.999898  1
  Fe  Fe5  1  0.500000  0.500000  0.000000  1
  P  P6  1  0.323960  0.823214  0.999945  1
  P  P7  1  0.749907  0.653618  0.903711  1
  P  P8  1  0.176731  0.176786  0.500747  1
  P  P9  1  0.676040  0.176786  0.000055  1
  P  P10  1  0.250093  0.346382  0.096289  1
  P  P11  1  0.823269  0.823214  0.499253  1
  Pb  Pb12  1  0.750008  0.145760  0.395751  1
  Pb  Pb13  1  0.249992  0.854240  0.604249  1
  O  O14  1  0.575452  0.931522  0.778672  1
  O  O15  1  0.075339  0.296950  0.643857  1
  O  O16  1  0.842075  0.880903  0.038828  1
  O  O17  1  0.346907  0.703050  0.778389  1
  O  O18  1  0.140049  0.204513  0.342951  1
  O  O19  1  0.343179  0.305996  0.962817  1
  O  O20  1  0.638227  0.702737  0.341900  1
  O  O21  1  0.859951  0.795487  0.657049  1
  O  O22  1  0.366977  0.488868  0.355810  1
  O  O23  1  0.152850  0.931522  0.356071  1
  O  O24  1  0.639164  0.297263  0.935489  1
  O  O25  1  0.633023  0.511132  0.644190  1
  O  O26  1  0.861562  0.204513  0.064465  1
  O  O27  1  0.847150  0.068478  0.643929  1
  O  O28  1  0.360836  0.702737  0.064511  1
  O  O29  1  0.361773  0.297263  0.658100  1
  O  O30  1  0.656821  0.694004  0.037183  1
  O  O31  1  0.924661  0.703050  0.356143  1
  O  O32  1  0.157925  0.119096  0.961172  1
  O  O33  1  0.866942  0.511132  0.878109  1
  O  O34  1  0.133058  0.488868  0.121891  1
  O  O35  1  0.138438  0.795487  0.935535  1
  O  O36  1  0.653093  0.296950  0.221611  1
  O  O37  1  0.424548  0.068478  0.221328  1
