# generated using pymatgen
data_Zr6Al6IrPd5
_symmetry_space_group_name_H-M   'P 1'
_cell_length_a   7.29003900
_cell_length_b   7.29003878
_cell_length_c   7.01796700
_cell_angle_alpha   90.00000000
_cell_angle_beta   90.00000000
_cell_angle_gamma   119.99999647
_symmetry_Int_Tables_number   1
_chemical_formula_structural   Zr6Al6IrPd5
_chemical_formula_sum   'Zr6 Al6 Ir1 Pd5'
_cell_volume   322.99935790
_cell_formula_units_Z   1
loop_
 _symmetry_equiv_pos_site_id
 _symmetry_equiv_pos_as_xyz
  1  'x, y, z'
loop_
 _atom_site_type_symbol
 _atom_site_label
 _atom_site_symmetry_multiplicity
 _atom_site_fract_x
 _atom_site_fract_y
 _atom_site_fract_z
 _atom_site_occupancy
  Zr  Zr0  1  0.601256  0.593476  0.254081  1
  Zr  Zr1  1  0.017653  0.410066  0.746172  1
  Zr  Zr2  1  0.406524  0.007782  0.254081  1
  Zr  Zr3  1  0.992218  0.398744  0.254081  1
  Zr  Zr4  1  0.392413  0.982347  0.746172  1
  Zr  Zr5  1  0.589934  0.607587  0.746172  1
  Al  Al6  1  0.259907  0.258554  0.498794  1
  Al  Al7  1  0.741446  0.001352  0.498794  1
  Al  Al8  1  0.998648  0.740093  0.498794  1
  Al  Al9  1  0.740738  0.005123  0.999586  1
  Al  Al10  1  0.264385  0.259262  0.999586  1
  Al  Al11  1  0.994877  0.735615  0.999586  1
  Ir  Ir12  1  0.333333  0.666667  0.487202  1
  Pd  Pd13  1  0.000000  0.000000  0.750440  1
  Pd  Pd14  1  0.000000  0.000000  0.247232  1
  Pd  Pd15  1  0.333333  0.666667  0.019793  1
  Pd  Pd16  1  0.666667  0.333333  0.522049  1
  Pd  Pd17  1  0.666667  0.333333  0.977386  1
