# generated using pymatgen
data_LaNdUSe5
_symmetry_space_group_name_H-M   'P 1'
_cell_length_a   7.91296600
_cell_length_b   8.50129800
_cell_length_c   12.52966900
_cell_angle_alpha   90.00000000
_cell_angle_beta   90.00000000
_cell_angle_gamma   90.00000000
_symmetry_Int_Tables_number   1
_chemical_formula_structural   LaNdUSe5
_chemical_formula_sum   'La4 Nd4 U4 Se20'
_cell_volume   842.87687330
_cell_formula_units_Z   4
loop_
 _symmetry_equiv_pos_site_id
 _symmetry_equiv_pos_as_xyz
  1  'x, y, z'
loop_
 _atom_site_type_symbol
 _atom_site_label
 _atom_site_symmetry_multiplicity
 _atom_site_fract_x
 _atom_site_fract_y
 _atom_site_fract_z
 _atom_site_occupancy
  La  La0  1  0.527604  0.499673  0.322822  1
  La  La1  1  0.972396  0.000327  0.822822  1
  La  La2  1  0.472396  0.999673  0.677178  1
  La  La3  1  0.027604  0.500327  0.177178  1
  Nd  Nd4  1  0.473334  0.501900  0.678597  1
  Nd  Nd5  1  0.026666  0.998100  0.178597  1
  Nd  Nd6  1  0.526666  0.001900  0.321403  1
  Nd  Nd7  1  0.973334  0.498100  0.821403  1
  U  U8  1  0.072874  0.749802  0.491044  1
  U  U9  1  0.427126  0.750198  0.991044  1
  U  U10  1  0.927126  0.249802  0.508956  1
  U  U11  1  0.572874  0.250198  0.008956  1
  Se  Se12  1  0.835987  0.955641  0.592698  1
  Se  Se13  1  0.664013  0.544359  0.092698  1
  Se  Se14  1  0.164013  0.455641  0.407302  1
  Se  Se15  1  0.335987  0.044359  0.907302  1
  Se  Se16  1  0.165763  0.043375  0.406172  1
  Se  Se17  1  0.334237  0.456625  0.906172  1
  Se  Se18  1  0.834237  0.543375  0.593828  1
  Se  Se19  1  0.665763  0.956625  0.093828  1
  Se  Se20  1  0.832084  0.752535  0.314313  1
  Se  Se21  1  0.667916  0.747465  0.814313  1
  Se  Se22  1  0.167916  0.252535  0.685687  1
  Se  Se23  1  0.332084  0.247465  0.185687  1
  Se  Se24  1  0.455437  0.749940  0.499630  1
  Se  Se25  1  0.044563  0.750060  0.999630  1
  Se  Se26  1  0.544563  0.249940  0.500370  1
  Se  Se27  1  0.955437  0.250060  0.000370  1
  Se  Se28  1  0.193384  0.746890  0.714958  1
  Se  Se29  1  0.306616  0.753110  0.214958  1
  Se  Se30  1  0.806616  0.246890  0.285042  1
  Se  Se31  1  0.693384  0.253110  0.785042  1
