# generated using pymatgen
data_Ho3Sc2Tl2Bi
_symmetry_space_group_name_H-M   'P 1'
_cell_length_a   8.90505200
_cell_length_b   8.89397478
_cell_length_c   6.30127500
_cell_angle_alpha   90.00000000
_cell_angle_beta   90.00000000
_cell_angle_gamma   119.95886227
_symmetry_Int_Tables_number   1
_chemical_formula_structural   Ho3Sc2Tl2Bi
_chemical_formula_sum   'Ho6 Sc4 Tl4 Bi2'
_cell_volume   432.38567557
_cell_formula_units_Z   2
loop_
 _symmetry_equiv_pos_site_id
 _symmetry_equiv_pos_as_xyz
  1  'x, y, z'
loop_
 _atom_site_type_symbol
 _atom_site_label
 _atom_site_symmetry_multiplicity
 _atom_site_fract_x
 _atom_site_fract_y
 _atom_site_fract_z
 _atom_site_occupancy
  Ho  Ho0  1  0.233104  0.999376  0.250000  1
  Ho  Ho1  1  0.233104  0.233728  0.750000  1
  Ho  Ho2  1  0.006613  0.764985  0.750000  1
  Ho  Ho3  1  0.006613  0.241628  0.250000  1
  Ho  Ho4  1  0.765246  0.758252  0.250000  1
  Ho  Ho5  1  0.765246  0.006994  0.750000  1
  Sc  Sc6  1  0.326188  0.663095  0.000000  1
  Sc  Sc7  1  0.668786  0.334393  0.500000  1
  Sc  Sc8  1  0.668786  0.334393  0.000000  1
  Sc  Sc9  1  0.326188  0.663095  0.500000  1
  Tl  Tl10  1  0.998031  0.402522  0.750000  1
  Tl  Tl11  1  0.998031  0.595509  0.250000  1
  Tl  Tl12  1  0.401427  0.400456  0.250000  1
  Tl  Tl13  1  0.401427  0.000971  0.750000  1
  Bi  Bi14  1  0.600606  0.997636  0.250000  1
  Bi  Bi15  1  0.600606  0.602970  0.750000  1
