# generated using pymatgen
data_Lu3UAs6Ru7
_symmetry_space_group_name_H-M   'P 1'
_cell_length_a   7.22065423
_cell_length_b   7.16135983
_cell_length_c   7.16136071
_cell_angle_alpha   109.30289855
_cell_angle_beta   109.63902938
_cell_angle_gamma   109.63902259
_symmetry_Int_Tables_number   1
_chemical_formula_structural   Lu3UAs6Ru7
_chemical_formula_sum   'Lu3 U1 As6 Ru7'
_cell_volume   284.47368122
_cell_formula_units_Z   1
loop_
 _symmetry_equiv_pos_site_id
 _symmetry_equiv_pos_as_xyz
  1  'x, y, z'
loop_
 _atom_site_type_symbol
 _atom_site_label
 _atom_site_symmetry_multiplicity
 _atom_site_fract_x
 _atom_site_fract_y
 _atom_site_fract_z
 _atom_site_occupancy
  Lu  Lu0  1  0.000000  0.000000  0.500000  1
  Lu  Lu1  1  0.000000  0.500000  0.000000  1
  Lu  Lu2  1  0.500000  0.500000  0.500000  1
  U  U3  1  0.500000  0.000000  0.000000  1
  As  As4  1  0.312134  0.000000  0.315643  1
  As  As5  1  0.003509  0.315643  0.315643  1
  As  As6  1  0.996491  0.684357  0.684357  1
  As  As7  1  0.312134  0.315643  0.000000  1
  As  As8  1  0.687866  0.684357  0.000000  1
  As  As9  1  0.687866  0.000000  0.684357  1
  Ru  Ru10  1  0.747154  0.494307  0.247154  1
  Ru  Ru11  1  0.500000  0.752846  0.247154  1
  Ru  Ru12  1  0.500000  0.247154  0.752846  1
  Ru  Ru13  1  0.747154  0.247154  0.494307  1
  Ru  Ru14  1  0.252846  0.752846  0.505693  1
  Ru  Ru15  1  0.252846  0.505693  0.752846  1
  Ru  Ru16  1  0.000000  0.000000  0.000000  1
