# generated using pymatgen
data_Tb3Er9(Si3Au)4
_symmetry_space_group_name_H-M   'P 1'
_cell_length_a   4.22851500
_cell_length_b   10.57467422
_cell_length_c   12.22870500
_cell_angle_alpha   90.08345668
_cell_angle_beta   90.00000000
_cell_angle_gamma   90.00000000
_symmetry_Int_Tables_number   1
_chemical_formula_structural   Tb3Er9(Si3Au)4
_chemical_formula_sum   'Tb3 Er9 Si12 Au4'
_cell_volume   546.80802516
_cell_formula_units_Z   1
loop_
 _symmetry_equiv_pos_site_id
 _symmetry_equiv_pos_as_xyz
  1  'x, y, z'
loop_
 _atom_site_type_symbol
 _atom_site_label
 _atom_site_symmetry_multiplicity
 _atom_site_fract_x
 _atom_site_fract_y
 _atom_site_fract_z
 _atom_site_occupancy
  Tb  Tb0  1  0.250000  0.837570  0.303410  1
  Tb  Tb1  1  0.750000  0.337967  0.196547  1
  Tb  Tb2  1  0.750000  0.162161  0.696640  1
  Er  Er3  1  0.250000  0.875992  0.021420  1
  Er  Er4  1  0.250000  0.623731  0.522438  1
  Er  Er5  1  0.750000  0.123615  0.978130  1
  Er  Er6  1  0.750000  0.376583  0.478382  1
  Er  Er7  1  0.250000  0.921362  0.600902  1
  Er  Er8  1  0.250000  0.578458  0.099318  1
  Er  Er9  1  0.750000  0.078175  0.399705  1
  Er  Er10  1  0.750000  0.421999  0.899606  1
  Er  Er11  1  0.250000  0.662403  0.803243  1
  Si  Si12  1  0.250000  0.022799  0.825460  1
  Si  Si13  1  0.250000  0.477477  0.325307  1
  Si  Si14  1  0.750000  0.977128  0.174453  1
  Si  Si15  1  0.750000  0.523284  0.675442  1
  Si  Si16  1  0.250000  0.247179  0.847291  1
  Si  Si17  1  0.250000  0.252946  0.347218  1
  Si  Si18  1  0.750000  0.752581  0.151979  1
  Si  Si19  1  0.750000  0.746871  0.653531  1
  Si  Si20  1  0.250000  0.184806  0.535316  1
  Si  Si21  1  0.250000  0.315223  0.035270  1
  Si  Si22  1  0.750000  0.815166  0.464993  1
  Si  Si23  1  0.750000  0.684650  0.962841  1
  Au  Au24  1  0.250000  0.389719  0.680623  1
  Au  Au25  1  0.250000  0.111055  0.179820  1
  Au  Au26  1  0.750000  0.611287  0.320032  1
  Au  Au27  1  0.750000  0.887814  0.820680  1
