# generated using pymatgen
data_ZrTa2(Co3B2)3
_symmetry_space_group_name_H-M   'P 1'
_cell_length_a   5.66462920
_cell_length_b   5.66462965
_cell_length_c   5.66462998
_cell_angle_alpha   95.26538850
_cell_angle_beta   95.26538528
_cell_angle_gamma   95.26539211
_symmetry_Int_Tables_number   1
_chemical_formula_structural   ZrTa2(Co3B2)3
_chemical_formula_sum   'Zr1 Ta2 Co9 B6'
_cell_volume   179.31362550
_cell_formula_units_Z   1
loop_
 _symmetry_equiv_pos_site_id
 _symmetry_equiv_pos_as_xyz
  1  'x, y, z'
loop_
 _atom_site_type_symbol
 _atom_site_label
 _atom_site_symmetry_multiplicity
 _atom_site_fract_x
 _atom_site_fract_y
 _atom_site_fract_z
 _atom_site_occupancy
  Zr  Zr0  1  0.330185  0.330185  0.330185  1
  Ta  Ta1  1  0.993795  0.993795  0.993795  1
  Ta  Ta2  1  0.676589  0.676589  0.676589  1
  Co  Co3  1  0.996372  0.996372  0.503642  1
  Co  Co4  1  0.503642  0.996372  0.996372  1
  Co  Co5  1  0.996372  0.503642  0.996372  1
  Co  Co6  1  0.699110  0.203942  0.699110  1
  Co  Co7  1  0.699110  0.699110  0.203942  1
  Co  Co8  1  0.203942  0.699110  0.699110  1
  Co  Co9  1  0.297890  0.802676  0.297890  1
  Co  Co10  1  0.297890  0.297890  0.802676  1
  Co  Co11  1  0.802676  0.297890  0.297890  1
  B  B12  1  0.618392  0.385401  0.997421  1
  B  B13  1  0.997421  0.618392  0.385401  1
  B  B14  1  0.385401  0.997421  0.618392  1
  B  B15  1  0.997421  0.385401  0.618392  1
  B  B16  1  0.618392  0.997421  0.385401  1
  B  B17  1  0.385401  0.618392  0.997421  1
