# generated using pymatgen
data_Ta2Pd3S8
_symmetry_space_group_name_H-M   'P 1'
_cell_length_a   3.47526700
_cell_length_b   10.71172100
_cell_length_c   14.91472900
_cell_angle_alpha   90.00000000
_cell_angle_beta   90.00000000
_cell_angle_gamma   90.00000000
_symmetry_Int_Tables_number   1
_chemical_formula_structural   Ta2Pd3S8
_chemical_formula_sum   'Ta4 Pd6 S16'
_cell_volume   555.21705160
_cell_formula_units_Z   2
loop_
 _symmetry_equiv_pos_site_id
 _symmetry_equiv_pos_as_xyz
  1  'x, y, z'
loop_
 _atom_site_type_symbol
 _atom_site_label
 _atom_site_symmetry_multiplicity
 _atom_site_fract_x
 _atom_site_fract_y
 _atom_site_fract_z
 _atom_site_occupancy
  Ta  Ta0  1  0.500000  0.693308  0.376151  1
  Ta  Ta1  1  0.500000  0.306692  0.623849  1
  Ta  Ta2  1  0.500000  0.193308  0.123849  1
  Ta  Ta3  1  0.500000  0.806692  0.876151  1
  Pd  Pd4  1  0.000000  0.853578  0.273293  1
  Pd  Pd5  1  0.000000  0.146422  0.726707  1
  Pd  Pd6  1  0.000000  0.353578  0.226707  1
  Pd  Pd7  1  0.000000  0.646422  0.773293  1
  Pd  Pd8  1  0.000000  0.500000  0.500000  1
  Pd  Pd9  1  0.000000  0.000000  0.000000  1
  S  S10  1  0.500000  0.921043  0.370820  1
  S  S11  1  0.500000  0.078957  0.629180  1
  S  S12  1  0.500000  0.421043  0.129180  1
  S  S13  1  0.500000  0.578957  0.870820  1
  S  S14  1  0.500000  0.725855  0.214337  1
  S  S15  1  0.500000  0.274145  0.785663  1
  S  S16  1  0.500000  0.225855  0.285663  1
  S  S17  1  0.500000  0.774145  0.714337  1
  S  S18  1  0.000000  0.528383  0.343975  1
  S  S19  1  0.000000  0.471617  0.656025  1
  S  S20  1  0.000000  0.780385  0.995089  1
  S  S21  1  0.000000  0.219615  0.004911  1
  S  S22  1  0.000000  0.280385  0.504911  1
  S  S23  1  0.000000  0.719615  0.495089  1
  S  S24  1  0.000000  0.971617  0.843975  1
  S  S25  1  0.000000  0.028383  0.156025  1
