# generated using pymatgen
data_SmDy5Co16(ReP6)2
_symmetry_space_group_name_H-M   'P 1'
_cell_length_a   3.73587600
_cell_length_b   10.52818800
_cell_length_c   12.25626200
_cell_angle_alpha   90.00000000
_cell_angle_beta   90.00000000
_cell_angle_gamma   90.00000000
_symmetry_Int_Tables_number   1
_chemical_formula_structural   SmDy5Co16(ReP6)2
_chemical_formula_sum   'Sm1 Dy5 Co16 Re2 P12'
_cell_volume   482.06335670
_cell_formula_units_Z   1
loop_
 _symmetry_equiv_pos_site_id
 _symmetry_equiv_pos_as_xyz
  1  'x, y, z'
loop_
 _atom_site_type_symbol
 _atom_site_label
 _atom_site_symmetry_multiplicity
 _atom_site_fract_x
 _atom_site_fract_y
 _atom_site_fract_z
 _atom_site_occupancy
  Sm  Sm0  1  0.500000  0.000000  0.475843  1
  Dy  Dy1  1  0.000000  0.500000  0.523975  1
  Dy  Dy2  1  0.500000  0.817936  0.205254  1
  Dy  Dy3  1  0.500000  0.182064  0.205254  1
  Dy  Dy4  1  0.000000  0.681715  0.794321  1
  Dy  Dy5  1  0.000000  0.318285  0.794321  1
  Co  Co6  1  0.500000  0.500000  0.702431  1
  Co  Co7  1  0.000000  0.000000  0.296209  1
  Co  Co8  1  0.000000  0.500000  0.987961  1
  Co  Co9  1  0.500000  0.000000  0.011911  1
  Co  Co10  1  0.500000  0.332672  0.989833  1
  Co  Co11  1  0.500000  0.667328  0.989833  1
  Co  Co12  1  0.000000  0.167644  0.010185  1
  Co  Co13  1  0.000000  0.832356  0.010185  1
  Co  Co14  1  0.500000  0.297924  0.430665  1
  Co  Co15  1  0.500000  0.702076  0.430665  1
  Co  Co16  1  0.000000  0.205038  0.569624  1
  Co  Co17  1  0.000000  0.794962  0.569624  1
  Co  Co18  1  0.500000  0.878995  0.709846  1
  Co  Co19  1  0.500000  0.121005  0.709846  1
  Co  Co20  1  0.000000  0.620336  0.290693  1
  Co  Co21  1  0.000000  0.379664  0.290693  1
  Re  Re22  1  0.500000  0.500000  0.155865  1
  Re  Re23  1  0.000000  0.000000  0.844919  1
  P  P24  1  0.500000  0.500000  0.880396  1
  P  P25  1  0.000000  0.000000  0.119062  1
  P  P26  1  0.500000  0.500000  0.348500  1
  P  P27  1  0.000000  0.000000  0.653297  1
  P  P28  1  0.500000  0.311809  0.616073  1
  P  P29  1  0.500000  0.688191  0.616073  1
  P  P30  1  0.000000  0.190285  0.383167  1
  P  P31  1  0.000000  0.809715  0.383167  1
  P  P32  1  0.500000  0.845697  0.892945  1
  P  P33  1  0.500000  0.154303  0.892945  1
  P  P34  1  0.000000  0.653926  0.107210  1
  P  P35  1  0.000000  0.346074  0.107210  1
