# generated using pymatgen
data_K4MgCr2FeF14
_symmetry_space_group_name_H-M   'P 1'
_cell_length_a   7.69408400
_cell_length_b   7.69408279
_cell_length_c   7.74679779
_cell_angle_alpha   120.28124050
_cell_angle_beta   116.90792931
_cell_angle_gamma   92.09988682
_symmetry_Int_Tables_number   1
_chemical_formula_structural   K4MgCr2FeF14
_chemical_formula_sum   'K4 Mg1 Cr2 Fe1 F14'
_cell_volume   331.61156254
_cell_formula_units_Z   1
loop_
 _symmetry_equiv_pos_site_id
 _symmetry_equiv_pos_as_xyz
  1  'x, y, z'
loop_
 _atom_site_type_symbol
 _atom_site_label
 _atom_site_symmetry_multiplicity
 _atom_site_fract_x
 _atom_site_fract_y
 _atom_site_fract_z
 _atom_site_occupancy
  K  K0  1  0.500000  0.500000  0.500000  1
  K  K1  1  0.500000  0.000000  0.000000  1
  K  K2  1  0.500000  0.500000  0.000000  1
  K  K3  1  0.000000  0.000000  0.000000  1
  Mg  Mg4  1  0.000000  0.000000  0.500000  1
  Cr  Cr5  1  0.000000  0.500000  0.500000  1
  Cr  Cr6  1  0.500000  0.000000  0.500000  1
  Fe  Fe7  1  0.000000  0.500000  0.000000  1
  F  F8  1  0.097259  0.241307  0.838566  1
  F  F9  1  0.902741  0.758693  0.161434  1
  F  F10  1  0.702978  0.411602  0.289827  1
  F  F11  1  0.297022  0.588398  0.710173  1
  F  F12  1  0.378225  0.086849  0.289827  1
  F  F13  1  0.621775  0.913151  0.710173  1
  F  F14  1  0.956092  0.572512  0.757452  1
  F  F15  1  0.037032  0.798892  0.604786  1
  F  F16  1  0.684940  0.301360  0.757452  1
  F  F17  1  0.305894  0.067755  0.604786  1
  F  F18  1  0.315060  0.698640  0.242548  1
  F  F19  1  0.694106  0.932245  0.395214  1
  F  F20  1  0.043908  0.427488  0.242548  1
  F  F21  1  0.962968  0.201108  0.395214  1
