# generated using pymatgen
data_Lu8Mn2ReB24Ir
_symmetry_space_group_name_H-M   'P 1'
_cell_length_a   3.55210000
_cell_length_b   9.01992530
_cell_length_c   11.38039413
_cell_angle_alpha   90.04582977
_cell_angle_beta   90.00000000
_cell_angle_gamma   90.00000000
_symmetry_Int_Tables_number   1
_chemical_formula_structural   Lu8Mn2ReB24Ir
_chemical_formula_sum   'Lu8 Mn2 Re1 B24 Ir1'
_cell_volume   364.62403131
_cell_formula_units_Z   1
loop_
 _symmetry_equiv_pos_site_id
 _symmetry_equiv_pos_as_xyz
  1  'x, y, z'
loop_
 _atom_site_type_symbol
 _atom_site_label
 _atom_site_symmetry_multiplicity
 _atom_site_fract_x
 _atom_site_fract_y
 _atom_site_fract_z
 _atom_site_occupancy
  Lu  Lu0  1  0.000000  0.328719  0.420280  1
  Lu  Lu1  1  0.000000  0.675757  0.586557  1
  Lu  Lu2  1  0.000000  0.816634  0.084959  1
  Lu  Lu3  1  0.000000  0.180406  0.908087  1
  Lu  Lu4  1  0.000000  0.937943  0.371915  1
  Lu  Lu5  1  0.000000  0.060092  0.627933  1
  Lu  Lu6  1  0.000000  0.446371  0.131476  1
  Lu  Lu7  1  0.000000  0.553371  0.869382  1
  Mn  Mn8  1  0.000000  0.638242  0.319566  1
  Mn  Mn9  1  0.000000  0.361828  0.679088  1
  Re  Re10  1  0.000000  0.862476  0.821802  1
  B  B11  1  0.500000  0.554151  0.433335  1
  B  B12  1  0.500000  0.446895  0.567740  1
  B  B13  1  0.500000  0.053395  0.065768  1
  B  B14  1  0.500000  0.947436  0.934077  1
  B  B15  1  0.500000  0.746991  0.418226  1
  B  B16  1  0.500000  0.253587  0.581641  1
  B  B17  1  0.500000  0.250200  0.079356  1
  B  B18  1  0.500000  0.748896  0.919739  1
  B  B19  1  0.500000  0.789912  0.265205  1
  B  B20  1  0.500000  0.210048  0.733374  1
  B  B21  1  0.500000  0.293090  0.236800  1
  B  B22  1  0.500000  0.706285  0.763998  1
  B  B23  1  0.500000  0.630475  0.185984  1
  B  B24  1  0.500000  0.368910  0.813238  1
  B  B25  1  0.500000  0.131249  0.317423  1
  B  B26  1  0.500000  0.869629  0.683789  1
  B  B27  1  0.500000  0.980093  0.212675  1
  B  B28  1  0.500000  0.020692  0.786756  1
  B  B29  1  0.500000  0.484135  0.289498  1
  B  B30  1  0.500000  0.516123  0.711530  1
  B  B31  1  0.500000  0.600881  0.028752  1
  B  B32  1  0.500000  0.396343  0.971943  1
  B  B33  1  0.500000  0.103698  0.470929  1
  B  B34  1  0.500000  0.896967  0.527681  1
  Ir  Ir35  1  0.000000  0.138074  0.179496  1
