# generated using pymatgen
data_Dy16ErLu3Pt16
_symmetry_space_group_name_H-M   'P 1'
_cell_length_a   7.44835001
_cell_length_b   7.55377301
_cell_length_c   14.71705400
_cell_angle_alpha   90.00000000
_cell_angle_beta   90.00000000
_cell_angle_gamma   90.00576698
_symmetry_Int_Tables_number   1
_chemical_formula_structural   Dy16ErLu3Pt16
_chemical_formula_sum   'Dy16 Er1 Lu3 Pt16'
_cell_volume   828.02774291
_cell_formula_units_Z   1
loop_
 _symmetry_equiv_pos_site_id
 _symmetry_equiv_pos_as_xyz
  1  'x, y, z'
loop_
 _atom_site_type_symbol
 _atom_site_label
 _atom_site_symmetry_multiplicity
 _atom_site_fract_x
 _atom_site_fract_y
 _atom_site_fract_z
 _atom_site_occupancy
  Dy  Dy0  1  0.656776  0.168080  0.622750  1
  Dy  Dy1  1  0.156742  0.331878  0.877277  1
  Dy  Dy2  1  0.342960  0.831750  0.122592  1
  Dy  Dy3  1  0.843360  0.667810  0.377415  1
  Dy  Dy4  1  0.342960  0.831750  0.377408  1
  Dy  Dy5  1  0.843360  0.667810  0.122585  1
  Dy  Dy6  1  0.656776  0.168080  0.877250  1
  Dy  Dy7  1  0.156742  0.331878  0.622723  1
  Dy  Dy8  1  0.502013  0.679938  0.593433  1
  Dy  Dy9  1  0.001941  0.820115  0.906558  1
  Dy  Dy10  1  0.497883  0.320324  0.093271  1
  Dy  Dy11  1  0.998215  0.180018  0.406758  1
  Dy  Dy12  1  0.497883  0.320324  0.406729  1
  Dy  Dy13  1  0.998215  0.180018  0.093242  1
  Dy  Dy14  1  0.502013  0.679938  0.906567  1
  Dy  Dy15  1  0.001941  0.820115  0.593442  1
  Er  Er16  1  0.680965  0.012360  0.250000  1
  Lu  Lu17  1  0.818789  0.512721  0.750000  1
  Lu  Lu18  1  0.318745  0.987304  0.750000  1
  Lu  Lu19  1  0.181255  0.487205  0.250000  1
  Pt  Pt20  1  0.683570  0.968055  0.458062  1
  Pt  Pt21  1  0.183612  0.531995  0.042124  1
  Pt  Pt22  1  0.316440  0.031941  0.957865  1
  Pt  Pt23  1  0.816444  0.468057  0.542156  1
  Pt  Pt24  1  0.316440  0.031941  0.542135  1
  Pt  Pt25  1  0.816444  0.468057  0.957844  1
  Pt  Pt26  1  0.683570  0.968055  0.041938  1
  Pt  Pt27  1  0.183612  0.531995  0.457876  1
  Pt  Pt28  1  0.454965  0.388310  0.750000  1
  Pt  Pt29  1  0.954956  0.111616  0.750000  1
  Pt  Pt30  1  0.544867  0.611236  0.250000  1
  Pt  Pt31  1  0.045963  0.887998  0.250000  1
  Pt  Pt32  1  0.681772  0.855061  0.750000  1
  Pt  Pt33  1  0.181861  0.644877  0.750000  1
  Pt  Pt34  1  0.317352  0.145296  0.250000  1
  Pt  Pt35  1  0.818600  0.356093  0.250000  1
