# generated using pymatgen
data_HfNb(SiSb)2
_symmetry_space_group_name_H-M   'P 1'
_cell_length_a   3.69995900
_cell_length_b   3.69995900
_cell_length_c   8.47079200
_cell_angle_alpha   90.00000000
_cell_angle_beta   90.00000000
_cell_angle_gamma   90.00000000
_symmetry_Int_Tables_number   1
_chemical_formula_structural   HfNb(SiSb)2
_chemical_formula_sum   'Hf1 Nb1 Si2 Sb2'
_cell_volume   115.96257246
_cell_formula_units_Z   1
loop_
 _symmetry_equiv_pos_site_id
 _symmetry_equiv_pos_as_xyz
  1  'x, y, z'
loop_
 _atom_site_type_symbol
 _atom_site_label
 _atom_site_symmetry_multiplicity
 _atom_site_fract_x
 _atom_site_fract_y
 _atom_site_fract_z
 _atom_site_occupancy
  Hf  Hf0  1  0.000000  0.499999  0.240270  1
  Nb  Nb1  1  0.499999  0.000000  0.761172  1
  Si  Si2  1  0.000000  0.000000  0.994969  1
  Si  Si3  1  0.499999  0.499999  0.994969  1
  Sb  Sb4  1  0.499999  0.000000  0.391994  1
  Sb  Sb5  1  0.000000  0.499999  0.616627  1
