# generated using pymatgen
data_Li5Ta(Ru2W)6
_symmetry_space_group_name_H-M   'P 1'
_cell_length_a   4.31351500
_cell_length_b   6.12860400
_cell_length_c   12.93176900
_cell_angle_alpha   90.00000000
_cell_angle_beta   90.00030118
_cell_angle_gamma   90.00000000
_symmetry_Int_Tables_number   1
_chemical_formula_structural   Li5Ta(Ru2W)6
_chemical_formula_sum   'Li5 Ta1 Ru12 W6'
_cell_volume   341.86198588
_cell_formula_units_Z   1
loop_
 _symmetry_equiv_pos_site_id
 _symmetry_equiv_pos_as_xyz
  1  'x, y, z'
loop_
 _atom_site_type_symbol
 _atom_site_label
 _atom_site_symmetry_multiplicity
 _atom_site_fract_x
 _atom_site_fract_y
 _atom_site_fract_z
 _atom_site_occupancy
  Li  Li0  1  0.499717  0.500000  0.167842  1
  Li  Li1  1  0.999733  0.000000  0.334335  1
  Li  Li2  1  0.500000  0.500000  0.499999  1
  Li  Li3  1  0.000264  0.000000  0.665664  1
  Li  Li4  1  0.500280  0.500000  0.832159  1
  Ta  Ta5  1  0.000000  0.000000  0.999999  1
  Ru  Ru6  1  0.500000  0.252741  0.000000  1
  Ru  Ru7  1  0.500000  0.747258  0.000000  1
  Ru  Ru8  1  0.999815  0.252793  0.167471  1
  Ru  Ru9  1  0.999815  0.747208  0.167471  1
  Ru  Ru10  1  0.499838  0.251443  0.333823  1
  Ru  Ru11  1  0.499838  0.748557  0.333823  1
  Ru  Ru12  1  0.000001  0.249828  0.500000  1
  Ru  Ru13  1  0.000001  0.750171  0.500000  1
  Ru  Ru14  1  0.500162  0.251442  0.666177  1
  Ru  Ru15  1  0.500162  0.748558  0.666177  1
  Ru  Ru16  1  0.000188  0.252793  0.832529  1
  Ru  Ru17  1  0.000188  0.747208  0.832529  1
  W  W18  1  0.000000  0.500000  0.999999  1
  W  W19  1  0.499843  0.000000  0.178399  1
  W  W20  1  0.999818  0.500000  0.338622  1
  W  W21  1  0.500000  0.000000  0.500001  1
  W  W22  1  0.000183  0.500000  0.661379  1
  W  W23  1  0.500158  0.000000  0.821600  1
