# generated using pymatgen
data_Ba(TiSe2)8
_symmetry_space_group_name_H-M   'P 1'
_cell_length_a   7.09195500
_cell_length_b   7.09195408
_cell_length_c   15.66556500
_cell_angle_alpha   90.00000000
_cell_angle_beta   90.00000000
_cell_angle_gamma   119.99999028
_symmetry_Int_Tables_number   1
_chemical_formula_structural   Ba(TiSe2)8
_chemical_formula_sum   'Ba1 Ti8 Se16'
_cell_volume   682.35224302
_cell_formula_units_Z   1
loop_
 _symmetry_equiv_pos_site_id
 _symmetry_equiv_pos_as_xyz
  1  'x, y, z'
loop_
 _atom_site_type_symbol
 _atom_site_label
 _atom_site_symmetry_multiplicity
 _atom_site_fract_x
 _atom_site_fract_y
 _atom_site_fract_z
 _atom_site_occupancy
  Ba  Ba0  1  0.000000  0.000000  0.000000  1
  Ti  Ti1  1  0.502176  0.497824  0.737368  1
  Ti  Ti2  1  0.497824  0.502176  0.262632  1
  Ti  Ti3  1  0.502176  0.004351  0.737368  1
  Ti  Ti4  1  0.497824  0.995649  0.262632  1
  Ti  Ti5  1  0.995649  0.497824  0.737368  1
  Ti  Ti6  1  0.004351  0.502176  0.262632  1
  Ti  Ti7  1  0.000000  0.000000  0.737804  1
  Ti  Ti8  1  0.000000  0.000000  0.262196  1
  Se  Se9  1  0.831200  0.662402  0.161514  1
  Se  Se10  1  0.833731  0.667462  0.638995  1
  Se  Se11  1  0.831200  0.168800  0.161514  1
  Se  Se12  1  0.833731  0.166269  0.638995  1
  Se  Se13  1  0.333333  0.666667  0.160377  1
  Se  Se14  1  0.333333  0.666667  0.640841  1
  Se  Se15  1  0.337598  0.168800  0.161514  1
  Se  Se16  1  0.332538  0.166269  0.638995  1
  Se  Se17  1  0.662402  0.831200  0.838486  1
  Se  Se18  1  0.667462  0.833731  0.361005  1
  Se  Se19  1  0.666667  0.333333  0.839623  1
  Se  Se20  1  0.666667  0.333333  0.359159  1
  Se  Se21  1  0.168800  0.831200  0.838486  1
  Se  Se22  1  0.166269  0.833731  0.361005  1
  Se  Se23  1  0.168800  0.337598  0.838486  1
  Se  Se24  1  0.166269  0.332538  0.361005  1
