# generated using pymatgen
data_Nd8Zn8Ir5Pd2Rh
_symmetry_space_group_name_H-M   'P 1'
_cell_length_a   4.04407000
_cell_length_b   7.37528529
_cell_length_c   16.70058696
_cell_angle_alpha   89.93152554
_cell_angle_beta   90.00000000
_cell_angle_gamma   90.00000000
_symmetry_Int_Tables_number   1
_chemical_formula_structural   Nd8Zn8Ir5Pd2Rh
_chemical_formula_sum   'Nd8 Zn8 Ir5 Pd2 Rh1'
_cell_volume   498.11419003
_cell_formula_units_Z   1
loop_
 _symmetry_equiv_pos_site_id
 _symmetry_equiv_pos_as_xyz
  1  'x, y, z'
loop_
 _atom_site_type_symbol
 _atom_site_label
 _atom_site_symmetry_multiplicity
 _atom_site_fract_x
 _atom_site_fract_y
 _atom_site_fract_z
 _atom_site_occupancy
  Nd  Nd0  1  0.250000  0.170025  0.938791  1
  Nd  Nd1  1  0.250000  0.667056  0.566592  1
  Nd  Nd2  1  0.750000  0.329625  0.444655  1
  Nd  Nd3  1  0.750000  0.945018  0.278909  1
  Nd  Nd4  1  0.750000  0.832256  0.059494  1
  Nd  Nd5  1  0.750000  0.453586  0.212438  1
  Nd  Nd6  1  0.250000  0.050112  0.716533  1
  Nd  Nd7  1  0.250000  0.547578  0.785640  1
  Zn  Zn8  1  0.750000  0.003992  0.564182  1
  Zn  Zn9  1  0.250000  0.624239  0.345687  1
  Zn  Zn10  1  0.750000  0.380304  0.652208  1
  Zn  Zn11  1  0.250000  0.498062  0.058768  1
  Zn  Zn12  1  0.750000  0.500535  0.940011  1
  Zn  Zn13  1  0.250000  0.999293  0.440574  1
  Zn  Zn14  1  0.250000  0.119551  0.147958  1
  Zn  Zn15  1  0.750000  0.878592  0.848844  1
  Ir  Ir16  1  0.750000  0.253107  0.813491  1
  Ir  Ir17  1  0.750000  0.755031  0.686250  1
  Ir  Ir18  1  0.250000  0.245576  0.563672  1
  Ir  Ir19  1  0.250000  0.744665  0.187210  1
  Ir  Ir20  1  0.750000  0.256180  0.065502  1
  Pd  Pd21  1  0.750000  0.757028  0.434105  1
  Pd  Pd22  1  0.250000  0.245167  0.313776  1
  Rh  Rh23  1  0.250000  0.743421  0.934711  1
