# generated using pymatgen
data_Pa(MnGe)6
_symmetry_space_group_name_H-M   'P 1'
_cell_length_a   5.19255800
_cell_length_b   5.19283893
_cell_length_c   8.16834600
_cell_angle_alpha   89.99995808
_cell_angle_beta   89.99997896
_cell_angle_gamma   120.00363961
_symmetry_Int_Tables_number   1
_chemical_formula_structural   Pa(MnGe)6
_chemical_formula_sum   'Pa1 Mn6 Ge6'
_cell_volume   190.73703910
_cell_formula_units_Z   1
loop_
 _symmetry_equiv_pos_site_id
 _symmetry_equiv_pos_as_xyz
  1  'x, y, z'
loop_
 _atom_site_type_symbol
 _atom_site_label
 _atom_site_symmetry_multiplicity
 _atom_site_fract_x
 _atom_site_fract_y
 _atom_site_fract_z
 _atom_site_occupancy
  Pa  Pa0  1  0.999696  0.999696  0.000023  1
  Mn  Mn1  1  0.500088  0.500088  0.250122  1
  Mn  Mn2  1  0.500017  0.999972  0.250179  1
  Mn  Mn3  1  0.999972  0.500017  0.250176  1
  Mn  Mn4  1  0.500017  0.999972  0.749830  1
  Mn  Mn5  1  0.999972  0.500017  0.749821  1
  Mn  Mn6  1  0.500087  0.500088  0.749877  1
  Ge  Ge7  1  0.333067  0.666412  0.000032  1
  Ge  Ge8  1  0.666435  0.333091  0.000032  1
  Ge  Ge9  1  0.000350  0.000350  0.347216  1
  Ge  Ge10  1  0.333472  0.666654  0.499959  1
  Ge  Ge11  1  0.666672  0.333491  0.499959  1
  Ge  Ge12  1  0.000349  0.000349  0.652777  1
