# generated using pymatgen
data_DyLuZn14Cu3
_symmetry_space_group_name_H-M   'P 1'
_cell_length_a   8.89303400
_cell_length_b   8.89303469
_cell_length_c   8.63687500
_cell_angle_alpha   90.00000000
_cell_angle_beta   90.00000000
_cell_angle_gamma   120.00001232
_symmetry_Int_Tables_number   1
_chemical_formula_structural   DyLuZn14Cu3
_chemical_formula_sum   'Dy2 Lu2 Zn28 Cu6'
_cell_volume   591.54413250
_cell_formula_units_Z   2
loop_
 _symmetry_equiv_pos_site_id
 _symmetry_equiv_pos_as_xyz
  1  'x, y, z'
loop_
 _atom_site_type_symbol
 _atom_site_label
 _atom_site_symmetry_multiplicity
 _atom_site_fract_x
 _atom_site_fract_y
 _atom_site_fract_z
 _atom_site_occupancy
  Dy  Dy0  1  0.000000  0.000000  0.250000  1
  Dy  Dy1  1  0.000000  0.000000  0.750000  1
  Lu  Lu2  1  0.333333  0.666667  0.750000  1
  Lu  Lu3  1  0.666667  0.333333  0.250000  1
  Zn  Zn4  1  0.333333  0.666667  0.405298  1
  Zn  Zn5  1  0.666667  0.333333  0.594702  1
  Zn  Zn6  1  0.666667  0.333333  0.905298  1
  Zn  Zn7  1  0.333333  0.666667  0.094702  1
  Zn  Zn8  1  0.333912  0.368793  0.250000  1
  Zn  Zn9  1  0.631207  0.965120  0.250000  1
  Zn  Zn10  1  0.034880  0.666088  0.250000  1
  Zn  Zn11  1  0.631207  0.666088  0.250000  1
  Zn  Zn12  1  0.034880  0.368793  0.250000  1
  Zn  Zn13  1  0.333912  0.965120  0.250000  1
  Zn  Zn14  1  0.666088  0.631207  0.750000  1
  Zn  Zn15  1  0.368793  0.034880  0.750000  1
  Zn  Zn16  1  0.965120  0.333912  0.750000  1
  Zn  Zn17  1  0.368793  0.333912  0.750000  1
  Zn  Zn18  1  0.965120  0.631207  0.750000  1
  Zn  Zn19  1  0.666088  0.034880  0.750000  1
  Zn  Zn20  1  0.164497  0.835503  0.520730  1
  Zn  Zn21  1  0.164497  0.328996  0.520730  1
  Zn  Zn22  1  0.671004  0.835503  0.520730  1
  Zn  Zn23  1  0.835503  0.164497  0.479270  1
  Zn  Zn24  1  0.835503  0.671004  0.479270  1
  Zn  Zn25  1  0.328996  0.164497  0.479270  1
  Zn  Zn26  1  0.835503  0.164497  0.020730  1
  Zn  Zn27  1  0.835503  0.671004  0.020730  1
  Zn  Zn28  1  0.328996  0.164497  0.020730  1
  Zn  Zn29  1  0.164497  0.835503  0.979270  1
  Zn  Zn30  1  0.164497  0.328996  0.979270  1
  Zn  Zn31  1  0.671004  0.835503  0.979270  1
  Cu  Cu32  1  0.500000  0.500000  0.500000  1
  Cu  Cu33  1  0.500000  0.000000  0.500000  1
  Cu  Cu34  1  0.000000  0.500000  0.500000  1
  Cu  Cu35  1  0.500000  0.500000  0.000000  1
  Cu  Cu36  1  0.500000  0.000000  0.000000  1
  Cu  Cu37  1  0.000000  0.500000  0.000000  1
