# generated using pymatgen
data_Rb4Na2TiMnAs4
_symmetry_space_group_name_H-M   'P 1'
_cell_length_a   9.30128407
_cell_length_b   9.30128425
_cell_length_c   9.30128433
_cell_angle_alpha   138.64669007
_cell_angle_beta   136.22363322
_cell_angle_gamma   61.79059988
_symmetry_Int_Tables_number   1
_chemical_formula_structural   Rb4Na2TiMnAs4
_chemical_formula_sum   'Rb4 Na2 Ti1 Mn1 As4'
_cell_volume   363.57319813
_cell_formula_units_Z   1
loop_
 _symmetry_equiv_pos_site_id
 _symmetry_equiv_pos_as_xyz
  1  'x, y, z'
loop_
 _atom_site_type_symbol
 _atom_site_label
 _atom_site_symmetry_multiplicity
 _atom_site_fract_x
 _atom_site_fract_y
 _atom_site_fract_z
 _atom_site_occupancy
  Rb  Rb0  1  0.090089  0.316653  0.757267  1
  Rb  Rb1  1  0.440613  0.183347  0.273436  1
  Rb  Rb2  1  0.909911  0.667177  0.226564  1
  Rb  Rb3  1  0.559387  0.832823  0.742733  1
  Na  Na4  1  0.500000  0.750000  0.250000  1
  Na  Na5  1  0.500000  0.250000  0.750000  1
  Ti  Ti6  1  0.000000  0.750000  0.750000  1
  Mn  Mn7  1  0.000000  0.250000  0.250000  1
  As  As8  1  0.112526  0.901745  0.192163  1
  As  As9  1  0.887474  0.079637  0.789219  1
  As  As10  1  0.290418  0.598255  0.710781  1
  As  As11  1  0.709582  0.420363  0.307837  1
