# generated using pymatgen
data_Er3Tm13Cd3AgIr4
_symmetry_space_group_name_H-M   'P 1'
_cell_length_a   9.53126497
_cell_length_b   9.53144967
_cell_length_c   9.52870428
_cell_angle_alpha   59.62171851
_cell_angle_beta   59.60916462
_cell_angle_gamma   59.60220905
_symmetry_Int_Tables_number   1
_chemical_formula_structural   Er3Tm13Cd3AgIr4
_chemical_formula_sum   'Er3 Tm13 Cd3 Ag1 Ir4'
_cell_volume   606.69720804
_cell_formula_units_Z   1
loop_
 _symmetry_equiv_pos_site_id
 _symmetry_equiv_pos_as_xyz
  1  'x, y, z'
loop_
 _atom_site_type_symbol
 _atom_site_label
 _atom_site_symmetry_multiplicity
 _atom_site_fract_x
 _atom_site_fract_y
 _atom_site_fract_z
 _atom_site_occupancy
  Er  Er0  1  0.186368  0.811792  0.186328  1
  Er  Er1  1  0.811547  0.811785  0.185569  1
  Er  Er2  1  0.186096  0.186297  0.811880  1
  Tm  Tm3  1  0.600118  0.600093  0.600210  1
  Tm  Tm4  1  0.600027  0.599778  0.202536  1
  Tm  Tm5  1  0.599950  0.202473  0.599938  1
  Tm  Tm6  1  0.202513  0.599824  0.600108  1
  Tm  Tm7  1  0.060452  0.438815  0.439070  1
  Tm  Tm8  1  0.437440  0.060229  0.060112  1
  Tm  Tm9  1  0.438984  0.060561  0.438925  1
  Tm  Tm10  1  0.060172  0.437301  0.060164  1
  Tm  Tm11  1  0.439120  0.438826  0.060472  1
  Tm  Tm12  1  0.060075  0.060200  0.437513  1
  Tm  Tm13  1  0.185969  0.811442  0.811247  1
  Tm  Tm14  1  0.811705  0.186532  0.186298  1
  Tm  Tm15  1  0.811454  0.185969  0.811515  1
  Cd  Cd16  1  0.831008  0.831238  0.509197  1
  Cd  Cd17  1  0.830970  0.509145  0.831214  1
  Cd  Cd18  1  0.509207  0.831035  0.831051  1
  Ag  Ag19  1  0.833414  0.833382  0.832972  1
  Ir  Ir20  1  0.392555  0.392328  0.392379  1
  Ir  Ir21  1  0.393231  0.393232  0.824680  1
  Ir  Ir22  1  0.393013  0.824702  0.393332  1
  Ir  Ir23  1  0.824609  0.393017  0.393284  1
