# generated using pymatgen
data_Ca7TaCr2N9
_symmetry_space_group_name_H-M   'P 1'
_cell_length_a   6.08735473
_cell_length_b   10.00135500
_cell_length_c   9.04397664
_cell_angle_alpha   90.00000000
_cell_angle_beta   91.95593356
_cell_angle_gamma   90.00000000
_symmetry_Int_Tables_number   1
_chemical_formula_structural   Ca7TaCr2N9
_chemical_formula_sum   'Ca14 Ta2 Cr4 N18'
_cell_volume   550.29273530
_cell_formula_units_Z   2
loop_
 _symmetry_equiv_pos_site_id
 _symmetry_equiv_pos_as_xyz
  1  'x, y, z'
loop_
 _atom_site_type_symbol
 _atom_site_label
 _atom_site_symmetry_multiplicity
 _atom_site_fract_x
 _atom_site_fract_y
 _atom_site_fract_z
 _atom_site_occupancy
  Ca  Ca0  1  0.067699  0.419153  0.172315  1
  Ca  Ca1  1  0.932301  0.919152  0.827685  1
  Ca  Ca2  1  0.932301  0.580848  0.827685  1
  Ca  Ca3  1  0.067699  0.080848  0.172315  1
  Ca  Ca4  1  0.247043  0.919643  0.507704  1
  Ca  Ca5  1  0.752957  0.419643  0.492296  1
  Ca  Ca6  1  0.752957  0.080357  0.492296  1
  Ca  Ca7  1  0.247043  0.580357  0.507704  1
  Ca  Ca8  1  0.574862  0.931404  0.162068  1
  Ca  Ca9  1  0.425138  0.431404  0.837932  1
  Ca  Ca10  1  0.425138  0.068596  0.837932  1
  Ca  Ca11  1  0.574862  0.568596  0.162068  1
  Ca  Ca12  1  0.909915  0.250000  0.797091  1
  Ca  Ca13  1  0.090085  0.750000  0.202909  1
  Ta  Ta14  1  0.280557  0.250000  0.558475  1
  Ta  Ta15  1  0.719443  0.750000  0.441525  1
  Cr  Cr16  1  0.460757  0.250000  0.276271  1
  Cr  Cr17  1  0.539243  0.750000  0.723729  1
  Cr  Cr18  1  0.674180  0.250000  0.066085  1
  Cr  Cr19  1  0.325820  0.750000  0.933915  1
  N  N20  1  0.115476  0.401353  0.657636  1
  N  N21  1  0.884524  0.901353  0.342364  1
  N  N22  1  0.884524  0.598647  0.342364  1
  N  N23  1  0.115476  0.098647  0.657636  1
  N  N24  1  0.232029  0.902047  0.018661  1
  N  N25  1  0.767971  0.402047  0.981339  1
  N  N26  1  0.767971  0.097953  0.981339  1
  N  N27  1  0.232029  0.597953  0.018661  1
  N  N28  1  0.363019  0.392433  0.373580  1
  N  N29  1  0.636981  0.892433  0.626420  1
  N  N30  1  0.636981  0.607567  0.626420  1
  N  N31  1  0.363019  0.107567  0.373580  1
  N  N32  1  0.365655  0.250000  0.072497  1
  N  N33  1  0.634345  0.750000  0.927503  1
  N  N34  1  0.554093  0.250000  0.668002  1
  N  N35  1  0.445907  0.750000  0.331998  1
  N  N36  1  0.769424  0.250000  0.267953  1
  N  N37  1  0.230576  0.750000  0.732047  1
