# generated using pymatgen
data_Ho2Zr3Sn4
_symmetry_space_group_name_H-M   'P 1'
_cell_length_a   7.76012400
_cell_length_b   7.82211800
_cell_length_c   14.72785600
_cell_angle_alpha   90.00000000
_cell_angle_beta   90.00000000
_cell_angle_gamma   90.00000000
_symmetry_Int_Tables_number   1
_chemical_formula_structural   Ho2Zr3Sn4
_chemical_formula_sum   'Ho8 Zr12 Sn16'
_cell_volume   893.98977872
_cell_formula_units_Z   4
loop_
 _symmetry_equiv_pos_site_id
 _symmetry_equiv_pos_as_xyz
  1  'x, y, z'
loop_
 _atom_site_type_symbol
 _atom_site_label
 _atom_site_symmetry_multiplicity
 _atom_site_fract_x
 _atom_site_fract_y
 _atom_site_fract_z
 _atom_site_occupancy
  Ho  Ho0  1  0.509115  0.324557  0.907004  1
  Ho  Ho1  1  0.009115  0.175443  0.592996  1
  Ho  Ho2  1  0.490885  0.675443  0.407004  1
  Ho  Ho3  1  0.990885  0.824557  0.092996  1
  Ho  Ho4  1  0.490885  0.675443  0.092996  1
  Ho  Ho5  1  0.990885  0.824557  0.407004  1
  Ho  Ho6  1  0.509115  0.324557  0.592996  1
  Ho  Ho7  1  0.009115  0.175443  0.907004  1
  Zr  Zr8  1  0.344011  0.836780  0.871988  1
  Zr  Zr9  1  0.844011  0.663220  0.628012  1
  Zr  Zr10  1  0.655989  0.163220  0.371988  1
  Zr  Zr11  1  0.155989  0.336780  0.128012  1
  Zr  Zr12  1  0.655989  0.163220  0.128012  1
  Zr  Zr13  1  0.155989  0.336780  0.371988  1
  Zr  Zr14  1  0.344011  0.836780  0.628012  1
  Zr  Zr15  1  0.844011  0.663220  0.871988  1
  Zr  Zr16  1  0.168312  0.508025  0.750000  1
  Zr  Zr17  1  0.668312  0.991975  0.750000  1
  Zr  Zr18  1  0.831688  0.491975  0.250000  1
  Zr  Zr19  1  0.331688  0.008025  0.250000  1
  Sn  Sn20  1  0.316016  0.039833  0.042506  1
  Sn  Sn21  1  0.816016  0.460167  0.457494  1
  Sn  Sn22  1  0.683984  0.960167  0.542506  1
  Sn  Sn23  1  0.183984  0.539833  0.957494  1
  Sn  Sn24  1  0.683984  0.960167  0.957494  1
  Sn  Sn25  1  0.183984  0.539833  0.542506  1
  Sn  Sn26  1  0.316016  0.039833  0.457494  1
  Sn  Sn27  1  0.816016  0.460167  0.042506  1
  Sn  Sn28  1  0.539544  0.617835  0.750000  1
  Sn  Sn29  1  0.039544  0.882165  0.750000  1
  Sn  Sn30  1  0.460456  0.382165  0.250000  1
  Sn  Sn31  1  0.960456  0.117835  0.250000  1
  Sn  Sn32  1  0.313595  0.153347  0.750000  1
  Sn  Sn33  1  0.813595  0.346653  0.750000  1
  Sn  Sn34  1  0.686405  0.846653  0.250000  1
  Sn  Sn35  1  0.186405  0.653347  0.250000  1
