# generated using pymatgen
data_U4Ga3Fe5
_symmetry_space_group_name_H-M   'P 1'
_cell_length_a   5.08884960
_cell_length_b   5.08884972
_cell_length_c   7.99001800
_cell_angle_alpha   90.00000000
_cell_angle_beta   90.00000000
_cell_angle_gamma   115.99286140
_symmetry_Int_Tables_number   1
_chemical_formula_structural   U4Ga3Fe5
_chemical_formula_sum   'U4 Ga3 Fe5'
_cell_volume   185.98313855
_cell_formula_units_Z   1
loop_
 _symmetry_equiv_pos_site_id
 _symmetry_equiv_pos_as_xyz
  1  'x, y, z'
loop_
 _atom_site_type_symbol
 _atom_site_label
 _atom_site_symmetry_multiplicity
 _atom_site_fract_x
 _atom_site_fract_y
 _atom_site_fract_z
 _atom_site_occupancy
  U  U0  1  0.347904  0.652096  0.422810  1
  U  U1  1  0.646891  0.353109  0.578070  1
  U  U2  1  0.646891  0.353109  0.921930  1
  U  U3  1  0.347904  0.652096  0.077190  1
  Ga  Ga4  1  0.003589  0.996411  0.503814  1
  Ga  Ga5  1  0.003589  0.996411  0.996186  1
  Ga  Ga6  1  0.826347  0.173653  0.250000  1
  Fe  Fe7  1  0.841014  0.661690  0.250000  1
  Fe  Fe8  1  0.338310  0.158986  0.250000  1
  Fe  Fe9  1  0.176587  0.823413  0.750000  1
  Fe  Fe10  1  0.160375  0.339401  0.750000  1
  Fe  Fe11  1  0.660599  0.839625  0.750000  1
