# generated using pymatgen
data_SmGaTeO6
_symmetry_space_group_name_H-M   'P 1'
_cell_length_a   5.18584119
_cell_length_b   5.18583339
_cell_length_c   10.11309900
_cell_angle_alpha   90.00314148
_cell_angle_beta   90.00333904
_cell_angle_gamma   120.00206009
_symmetry_Int_Tables_number   1
_chemical_formula_structural   SmGaTeO6
_chemical_formula_sum   'Sm2 Ga2 Te2 O12'
_cell_volume   235.52859691
_cell_formula_units_Z   2
loop_
 _symmetry_equiv_pos_site_id
 _symmetry_equiv_pos_as_xyz
  1  'x, y, z'
loop_
 _atom_site_type_symbol
 _atom_site_label
 _atom_site_symmetry_multiplicity
 _atom_site_fract_x
 _atom_site_fract_y
 _atom_site_fract_z
 _atom_site_occupancy
  Sm  Sm0  1  0.999999  0.000000  0.000000  1
  Sm  Sm1  1  0.000000  0.000000  0.500000  1
  Ga  Ga2  1  0.666608  0.333391  0.749997  1
  Ga  Ga3  1  0.333392  0.666609  0.250003  1
  Te  Te4  1  0.666629  0.333367  0.250002  1
  Te  Te5  1  0.333368  0.666632  0.749998  1
  O  O6  1  0.628896  0.991640  0.858651  1
  O  O7  1  0.362724  0.371200  0.858651  1
  O  O8  1  0.008448  0.637343  0.858660  1
  O  O9  1  0.371105  0.008360  0.141349  1
  O  O10  1  0.637276  0.628798  0.141349  1
  O  O11  1  0.991553  0.362657  0.141340  1
  O  O12  1  0.362656  0.991551  0.641341  1
  O  O13  1  0.628797  0.637275  0.641349  1
  O  O14  1  0.008359  0.371105  0.641350  1
  O  O15  1  0.637342  0.008448  0.358659  1
  O  O16  1  0.371203  0.362723  0.358651  1
  O  O17  1  0.991641  0.628895  0.358650  1
