# generated using pymatgen
data_PrSmFe3Co9P7
_symmetry_space_group_name_H-M   'P 1'
_cell_length_a   9.06472600
_cell_length_b   9.06472687
_cell_length_c   3.65055900
_cell_angle_alpha   90.00000000
_cell_angle_beta   90.00000000
_cell_angle_gamma   119.99999682
_symmetry_Int_Tables_number   1
_chemical_formula_structural   PrSmFe3Co9P7
_chemical_formula_sum   'Pr1 Sm1 Fe3 Co9 P7'
_cell_volume   259.77623703
_cell_formula_units_Z   1
loop_
 _symmetry_equiv_pos_site_id
 _symmetry_equiv_pos_as_xyz
  1  'x, y, z'
loop_
 _atom_site_type_symbol
 _atom_site_label
 _atom_site_symmetry_multiplicity
 _atom_site_fract_x
 _atom_site_fract_y
 _atom_site_fract_z
 _atom_site_occupancy
  Pr  Pr0  1  0.333333  0.666667  0.000000  1
  Sm  Sm1  1  0.666667  0.333333  0.500000  1
  Fe  Fe2  1  0.214667  0.120076  0.500000  1
  Fe  Fe3  1  0.879924  0.094593  0.500000  1
  Fe  Fe4  1  0.905407  0.785333  0.500000  1
  Co  Co5  1  0.429763  0.369289  0.000000  1
  Co  Co6  1  0.630711  0.060474  0.000000  1
  Co  Co7  1  0.939526  0.570237  0.000000  1
  Co  Co8  1  0.154556  0.882782  0.000000  1
  Co  Co9  1  0.117218  0.271775  0.000000  1
  Co  Co10  1  0.728225  0.845444  0.000000  1
  Co  Co11  1  0.383850  0.953551  0.500000  1
  Co  Co12  1  0.046449  0.430301  0.500000  1
  Co  Co13  1  0.569699  0.616150  0.500000  1
  P  P14  1  0.407475  0.109534  0.000000  1
  P  P15  1  0.890466  0.297941  0.000000  1
  P  P16  1  0.702059  0.592525  0.000000  1
  P  P17  1  0.105411  0.709664  0.500000  1
  P  P18  1  0.290336  0.395747  0.500000  1
  P  P19  1  0.604253  0.894589  0.500000  1
  P  P20  1  0.000000  0.000000  0.000000  1
