# generated using pymatgen
data_Pu4CoNiB20
_symmetry_space_group_name_H-M   'P 1'
_cell_length_a   4.14329600
_cell_length_b   5.56649038
_cell_length_c   11.08234293
_cell_angle_alpha   89.84624961
_cell_angle_beta   90.00000000
_cell_angle_gamma   90.00000000
_symmetry_Int_Tables_number   1
_chemical_formula_structural   Pu4CoNiB20
_chemical_formula_sum   'Pu4 Co1 Ni1 B20'
_cell_volume   255.59799624
_cell_formula_units_Z   1
loop_
 _symmetry_equiv_pos_site_id
 _symmetry_equiv_pos_as_xyz
  1  'x, y, z'
loop_
 _atom_site_type_symbol
 _atom_site_label
 _atom_site_symmetry_multiplicity
 _atom_site_fract_x
 _atom_site_fract_y
 _atom_site_fract_z
 _atom_site_occupancy
  Pu  Pu0  1  0.500000  0.186240  0.361108  1
  Pu  Pu1  1  0.500000  0.813760  0.638892  1
  Pu  Pu2  1  0.500000  0.307715  0.863914  1
  Pu  Pu3  1  0.500000  0.692285  0.136086  1
  Co  Co4  1  0.000000  0.000000  0.000000  1
  Ni  Ni5  1  0.000000  0.500000  0.500000  1
  B  B6  1  0.000000  0.371422  0.038770  1
  B  B7  1  0.000000  0.628578  0.961230  1
  B  B8  1  0.000000  0.125763  0.540197  1
  B  B9  1  0.000000  0.874237  0.459803  1
  B  B10  1  0.000000  0.342192  0.197529  1
  B  B11  1  0.000000  0.657808  0.802471  1
  B  B12  1  0.000000  0.156683  0.698064  1
  B  B13  1  0.000000  0.843317  0.301936  1
  B  B14  1  0.000000  0.029268  0.185606  1
  B  B15  1  0.000000  0.970732  0.814394  1
  B  B16  1  0.000000  0.469835  0.687340  1
  B  B17  1  0.000000  0.530165  0.312660  1
  B  B18  1  0.300995  0.199785  0.111890  1
  B  B19  1  0.699005  0.800215  0.888110  1
  B  B20  1  0.300995  0.800215  0.888110  1
  B  B21  1  0.698010  0.297879  0.614656  1
  B  B22  1  0.699005  0.199785  0.111890  1
  B  B23  1  0.301990  0.702121  0.385344  1
  B  B24  1  0.698010  0.702121  0.385344  1
  B  B25  1  0.301990  0.297879  0.614656  1
