# generated using pymatgen
data_YbCeNbIr3
_symmetry_space_group_name_H-M   'P 1'
_cell_length_a   5.67306729
_cell_length_b   5.67306755
_cell_length_c   5.24820535
_cell_angle_alpha   57.28389173
_cell_angle_beta   57.28390219
_cell_angle_gamma   60.00000241
_symmetry_Int_Tables_number   1
_chemical_formula_structural   YbCeNbIr3
_chemical_formula_sum   'Yb1 Ce1 Nb1 Ir3'
_cell_volume   114.29437040
_cell_formula_units_Z   1
loop_
 _symmetry_equiv_pos_site_id
 _symmetry_equiv_pos_as_xyz
  1  'x, y, z'
loop_
 _atom_site_type_symbol
 _atom_site_label
 _atom_site_symmetry_multiplicity
 _atom_site_fract_x
 _atom_site_fract_y
 _atom_site_fract_z
 _atom_site_occupancy
  Yb  Yb0  1  0.750147  0.750147  0.749557  1
  Ce  Ce1  1  0.501351  0.501351  0.495948  1
  Nb  Nb2  1  0.125188  0.125188  0.624436  1
  Ir  Ir3  1  0.625897  0.123708  0.126686  1
  Ir  Ir4  1  0.123708  0.123708  0.126686  1
  Ir  Ir5  1  0.123708  0.625897  0.126686  1
