# generated using pymatgen
data_Y3ErNiAu3O14
_symmetry_space_group_name_H-M   'P 1'
_cell_length_a   7.33188229
_cell_length_b   7.33292161
_cell_length_c   7.33292200
_cell_angle_alpha   59.99998922
_cell_angle_beta   59.99529995
_cell_angle_gamma   59.99530274
_symmetry_Int_Tables_number   1
_chemical_formula_structural   Y3ErNiAu3O14
_chemical_formula_sum   'Y3 Er1 Ni1 Au3 O14'
_cell_volume   278.75567097
_cell_formula_units_Z   1
loop_
 _symmetry_equiv_pos_site_id
 _symmetry_equiv_pos_as_xyz
  1  'x, y, z'
loop_
 _atom_site_type_symbol
 _atom_site_label
 _atom_site_symmetry_multiplicity
 _atom_site_fract_x
 _atom_site_fract_y
 _atom_site_fract_z
 _atom_site_occupancy
  Y  Y0  1  0.125000  0.125000  0.125000  1
  Y  Y1  1  0.125000  0.125000  0.625000  1
  Y  Y2  1  0.125000  0.625000  0.125000  1
  Er  Er3  1  0.625000  0.125000  0.125000  1
  Ni  Ni4  1  0.125000  0.625000  0.625000  1
  Au  Au5  1  0.625000  0.625000  0.625000  1
  Au  Au6  1  0.625000  0.625000  0.125000  1
  Au  Au7  1  0.625000  0.125000  0.625000  1
  O  O8  1  0.991298  0.002901  0.002901  1
  O  O9  1  0.258702  0.247099  0.247099  1
  O  O10  1  0.284547  0.277904  0.718775  1
  O  O11  1  0.540403  0.525743  0.966927  1
  O  O12  1  0.709597  0.283073  0.724257  1
  O  O13  1  0.709597  0.283073  0.283073  1
  O  O14  1  0.284547  0.718775  0.718775  1
  O  O15  1  0.284547  0.718775  0.277904  1
  O  O16  1  0.709597  0.724257  0.283073  1
  O  O17  1  0.965453  0.531225  0.531225  1
  O  O18  1  0.540403  0.966927  0.966927  1
  O  O19  1  0.965453  0.972096  0.531225  1
  O  O20  1  0.965453  0.531225  0.972096  1
  O  O21  1  0.540403  0.966927  0.525743  1
