# generated using pymatgen
data_HoTm7In3Ir
_symmetry_space_group_name_H-M   'P 1'
_cell_length_a   10.30078402
_cell_length_b   10.30078397
_cell_length_c   6.99802709
_cell_angle_alpha   90.00652599
_cell_angle_beta   89.99347453
_cell_angle_gamma   119.97889855
_symmetry_Int_Tables_number   1
_chemical_formula_structural   HoTm7In3Ir
_chemical_formula_sum   'Ho2 Tm14 In6 Ir2'
_cell_volume   643.18974790
_cell_formula_units_Z   2
loop_
 _symmetry_equiv_pos_site_id
 _symmetry_equiv_pos_as_xyz
  1  'x, y, z'
loop_
 _atom_site_type_symbol
 _atom_site_label
 _atom_site_symmetry_multiplicity
 _atom_site_fract_x
 _atom_site_fract_y
 _atom_site_fract_z
 _atom_site_occupancy
  Ho  Ho0  1  0.532686  0.065377  0.514695  1
  Ho  Ho1  1  0.934623  0.467314  0.514695  1
  Tm  Tm2  1  0.533094  0.466906  0.514922  1
  Tm  Tm3  1  0.466515  0.933076  0.014864  1
  Tm  Tm4  1  0.066924  0.533485  0.014864  1
  Tm  Tm5  1  0.466704  0.533296  0.014978  1
  Tm  Tm6  1  0.177151  0.353504  0.721079  1
  Tm  Tm7  1  0.646496  0.822849  0.721079  1
  Tm  Tm8  1  0.176588  0.823412  0.721406  1
  Tm  Tm9  1  0.822987  0.646560  0.220188  1
  Tm  Tm10  1  0.353440  0.177013  0.220188  1
  Tm  Tm11  1  0.823286  0.176714  0.219807  1
  Tm  Tm12  1  0.666440  0.333560  0.896388  1
  Tm  Tm13  1  0.333548  0.666452  0.396133  1
  Tm  Tm14  1  0.999978  0.000022  0.500223  1
  Tm  Tm15  1  0.999971  0.000029  0.000472  1
  In  In16  1  0.837089  0.674429  0.761911  1
  In  In17  1  0.325571  0.162911  0.761911  1
  In  In18  1  0.837456  0.162544  0.762260  1
  In  In19  1  0.162773  0.325716  0.261910  1
  In  In20  1  0.674284  0.837227  0.261910  1
  In  In21  1  0.162853  0.837147  0.261740  1
  Ir  Ir22  1  0.666228  0.333772  0.289857  1
  Ir  Ir23  1  0.333318  0.666682  0.790522  1
