# generated using pymatgen
data_Nd4Zn(FeO4)3
_symmetry_space_group_name_H-M   'P 1'
_cell_length_a   5.48689844
_cell_length_b   5.69647214
_cell_length_c   7.84661163
_cell_angle_alpha   90.08976455
_cell_angle_beta   89.97298619
_cell_angle_gamma   90.12534953
_symmetry_Int_Tables_number   1
_chemical_formula_structural   Nd4Zn(FeO4)3
_chemical_formula_sum   'Nd4 Zn1 Fe3 O12'
_cell_volume   245.25249680
_cell_formula_units_Z   1
loop_
 _symmetry_equiv_pos_site_id
 _symmetry_equiv_pos_as_xyz
  1  'x, y, z'
loop_
 _atom_site_type_symbol
 _atom_site_label
 _atom_site_symmetry_multiplicity
 _atom_site_fract_x
 _atom_site_fract_y
 _atom_site_fract_z
 _atom_site_occupancy
  Nd  Nd0  1  0.014734  0.940191  0.747904  1
  Nd  Nd1  1  0.513784  0.556356  0.252129  1
  Nd  Nd2  1  0.486216  0.443644  0.747871  1
  Nd  Nd3  1  0.985266  0.059809  0.252096  1
  Zn  Zn4  1  0.000000  0.500000  0.500000  1
  Fe  Fe5  1  0.500000  0.000000  0.500000  1
  Fe  Fe6  1  0.500000  0.000000  0.000000  1
  Fe  Fe7  1  0.000000  0.500000  0.000000  1
  O  O8  1  0.696398  0.289500  0.451284  1
  O  O9  1  0.211808  0.195849  0.547818  1
  O  O10  1  0.795414  0.797610  0.050778  1
  O  O11  1  0.297258  0.704473  0.949987  1
  O  O12  1  0.303602  0.710500  0.548716  1
  O  O13  1  0.788192  0.804151  0.452182  1
  O  O14  1  0.204586  0.202390  0.949222  1
  O  O15  1  0.702742  0.295527  0.050013  1
  O  O16  1  0.092705  0.472726  0.243155  1
  O  O17  1  0.593876  0.027606  0.752289  1
  O  O18  1  0.406124  0.972394  0.247711  1
  O  O19  1  0.907295  0.527274  0.756845  1
