# generated using pymatgen
data_HoEr(SbO3)6
_symmetry_space_group_name_H-M   'P 1'
_cell_length_a   7.48377300
_cell_length_b   5.35561112
_cell_length_c   8.18293705
_cell_angle_alpha   86.06695308
_cell_angle_beta   90.00000000
_cell_angle_gamma   90.00000000
_symmetry_Int_Tables_number   1
_chemical_formula_structural   HoEr(SbO3)6
_chemical_formula_sum   'Ho1 Er1 Sb6 O18'
_cell_volume   327.20115655
_cell_formula_units_Z   1
loop_
 _symmetry_equiv_pos_site_id
 _symmetry_equiv_pos_as_xyz
  1  'x, y, z'
loop_
 _atom_site_type_symbol
 _atom_site_label
 _atom_site_symmetry_multiplicity
 _atom_site_fract_x
 _atom_site_fract_y
 _atom_site_fract_z
 _atom_site_occupancy
  Ho  Ho0  1  0.250000  0.965938  0.434068  1
  Er  Er1  1  0.750000  0.034624  0.566291  1
  Sb  Sb2  1  0.999940  0.000124  0.999907  1
  Sb  Sb3  1  0.500060  0.000124  0.999907  1
  Sb  Sb4  1  0.004838  0.530243  0.697256  1
  Sb  Sb5  1  0.495162  0.530243  0.697256  1
  Sb  Sb6  1  0.994723  0.469749  0.302778  1
  Sb  Sb7  1  0.505277  0.469749  0.302778  1
  O  O8  1  0.250000  0.878722  0.983839  1
  O  O9  1  0.936315  0.858397  0.777899  1
  O  O10  1  0.563685  0.858397  0.777899  1
  O  O11  1  0.957993  0.739764  0.472458  1
  O  O12  1  0.542007  0.739764  0.472458  1
  O  O13  1  0.250000  0.667334  0.653912  1
  O  O14  1  0.930829  0.674247  0.112054  1
  O  O15  1  0.569171  0.674247  0.112054  1
  O  O16  1  0.250000  0.596671  0.309732  1
  O  O17  1  0.750000  0.401847  0.690335  1
  O  O18  1  0.069139  0.325939  0.887869  1
  O  O19  1  0.430861  0.325939  0.887869  1
  O  O20  1  0.750000  0.331502  0.346545  1
  O  O21  1  0.040989  0.260434  0.527736  1
  O  O22  1  0.459011  0.260434  0.527736  1
  O  O23  1  0.063260  0.142117  0.221605  1
  O  O24  1  0.436740  0.142117  0.221605  1
  O  O25  1  0.750000  0.121331  0.016154  1
