# generated using pymatgen
data_TbSmNi12P5
_symmetry_space_group_name_H-M   'P 1'
_cell_length_a   3.65549100
_cell_length_b   10.74562569
_cell_length_c   13.13849653
_cell_angle_alpha   71.77894979
_cell_angle_beta   90.00000000
_cell_angle_gamma   90.00000000
_symmetry_Int_Tables_number   1
_chemical_formula_structural   TbSmNi12P5
_chemical_formula_sum   'Tb2 Sm2 Ni24 P10'
_cell_volume   490.20917328
_cell_formula_units_Z   2
loop_
 _symmetry_equiv_pos_site_id
 _symmetry_equiv_pos_as_xyz
  1  'x, y, z'
loop_
 _atom_site_type_symbol
 _atom_site_label
 _atom_site_symmetry_multiplicity
 _atom_site_fract_x
 _atom_site_fract_y
 _atom_site_fract_z
 _atom_site_occupancy
  Tb  Tb0  1  0.250000  0.280535  0.682083  1
  Tb  Tb1  1  0.750000  0.719465  0.317917  1
  Sm  Sm2  1  0.250000  0.245094  0.187776  1
  Sm  Sm3  1  0.750000  0.754906  0.812224  1
  Ni  Ni4  1  0.250000  0.837295  0.139411  1
  Ni  Ni5  1  0.750000  0.162705  0.860589  1
  Ni  Ni6  1  0.250000  0.288200  0.438880  1
  Ni  Ni7  1  0.750000  0.711800  0.561120  1
  Ni  Ni8  1  0.250000  0.070076  0.015805  1
  Ni  Ni9  1  0.750000  0.929924  0.984195  1
  Ni  Ni10  1  0.250000  0.064239  0.446820  1
  Ni  Ni11  1  0.750000  0.935761  0.553180  1
  Ni  Ni12  1  0.250000  0.596015  0.696363  1
  Ni  Ni13  1  0.750000  0.403985  0.303637  1
  Ni  Ni14  1  0.250000  0.583004  0.008049  1
  Ni  Ni15  1  0.750000  0.416996  0.991951  1
  Ni  Ni16  1  0.250000  0.579824  0.508821  1
  Ni  Ni17  1  0.750000  0.420176  0.491179  1
  Ni  Ni18  1  0.250000  0.298349  0.916682  1
  Ni  Ni19  1  0.750000  0.701651  0.083318  1
  Ni  Ni20  1  0.250000  0.994263  0.660021  1
  Ni  Ni21  1  0.750000  0.005737  0.339979  1
  Ni  Ni22  1  0.250000  0.837801  0.437031  1
  Ni  Ni23  1  0.750000  0.162199  0.562969  1
  Ni  Ni24  1  0.250000  0.990889  0.848203  1
  Ni  Ni25  1  0.750000  0.009111  0.151797  1
  Ni  Ni26  1  0.250000  0.565950  0.204375  1
  Ni  Ni27  1  0.750000  0.434050  0.795625  1
  P  P28  1  0.250000  0.509686  0.870789  1
  P  P29  1  0.750000  0.490314  0.129211  1
  P  P30  1  0.250000  0.800703  0.983358  1
  P  P31  1  0.750000  0.199297  0.016642  1
  P  P32  1  0.250000  0.497460  0.377712  1
  P  P33  1  0.750000  0.502540  0.622288  1
  P  P34  1  0.250000  0.811586  0.611350  1
  P  P35  1  0.750000  0.188414  0.388650  1
  P  P36  1  0.250000  0.946085  0.260665  1
  P  P37  1  0.750000  0.053915  0.739335  1
