# generated using pymatgen
data_La3PrTeWO12
_symmetry_space_group_name_H-M   'P 1'
_cell_length_a   5.53054547
_cell_length_b   9.52782785
_cell_length_c   10.44037000
_cell_angle_alpha   90.00000000
_cell_angle_beta   90.00000000
_cell_angle_gamma   90.28600803
_symmetry_Int_Tables_number   1
_chemical_formula_structural   La3PrTeWO12
_chemical_formula_sum   'La6 Pr2 Te2 W2 O24'
_cell_volume   550.13889169
_cell_formula_units_Z   2
loop_
 _symmetry_equiv_pos_site_id
 _symmetry_equiv_pos_as_xyz
  1  'x, y, z'
loop_
 _atom_site_type_symbol
 _atom_site_label
 _atom_site_symmetry_multiplicity
 _atom_site_fract_x
 _atom_site_fract_y
 _atom_site_fract_z
 _atom_site_occupancy
  La  La0  1  0.028979  0.217423  0.137778  1
  La  La1  1  0.471021  0.782577  0.637778  1
  La  La2  1  0.967511  0.719093  0.360709  1
  La  La3  1  0.532489  0.280907  0.860709  1
  La  La4  1  0.026196  0.103480  0.541571  1
  La  La5  1  0.473804  0.896520  0.041571  1
  Pr  Pr6  1  0.978325  0.603513  0.958909  1
  Pr  Pr7  1  0.521675  0.396487  0.458909  1
  Te  Te8  1  0.461271  0.504205  0.142917  1
  Te  Te9  1  0.038729  0.495795  0.642917  1
  W  W10  1  0.540096  0.003319  0.355786  1
  W  W11  1  0.959904  0.996681  0.855786  1
  O  O12  1  0.424222  0.151685  0.471728  1
  O  O13  1  0.075778  0.848315  0.971728  1
  O  O14  1  0.576218  0.649018  0.025072  1
  O  O15  1  0.923782  0.350982  0.525072  1
  O  O16  1  0.724427  0.390640  0.066959  1
  O  O17  1  0.775573  0.609360  0.566959  1
  O  O18  1  0.281728  0.887584  0.437036  1
  O  O19  1  0.218272  0.112416  0.937036  1
  O  O20  1  0.256838  0.415783  0.008295  1
  O  O21  1  0.243162  0.584217  0.508295  1
  O  O22  1  0.747009  0.912717  0.490946  1
  O  O23  1  0.752991  0.087283  0.990946  1
  O  O24  1  0.195317  0.635099  0.175743  1
  O  O25  1  0.304683  0.364901  0.675743  1
  O  O26  1  0.804537  0.135608  0.325476  1
  O  O27  1  0.695463  0.864392  0.825476  1
  O  O28  1  0.328779  0.047338  0.217097  1
  O  O29  1  0.171221  0.952662  0.717097  1
  O  O30  1  0.662335  0.555315  0.287351  1
  O  O31  1  0.837665  0.444685  0.787351  1
  O  O32  1  0.326718  0.361207  0.254211  1
  O  O33  1  0.173282  0.638793  0.754211  1
  O  O34  1  0.685042  0.867488  0.242415  1
  O  O35  1  0.814958  0.132512  0.742415  1
