# generated using pymatgen
data_Y4HoIr3
_symmetry_space_group_name_H-M   'P 1'
_cell_length_a   10.91586200
_cell_length_b   10.91586200
_cell_length_c   6.38028700
_cell_angle_alpha   90.00000000
_cell_angle_beta   90.00000000
_cell_angle_gamma   90.00000000
_symmetry_Int_Tables_number   1
_chemical_formula_structural   Y4HoIr3
_chemical_formula_sum   'Y16 Ho4 Ir12'
_cell_volume   760.24975342
_cell_formula_units_Z   4
loop_
 _symmetry_equiv_pos_site_id
 _symmetry_equiv_pos_as_xyz
  1  'x, y, z'
loop_
 _atom_site_type_symbol
 _atom_site_label
 _atom_site_symmetry_multiplicity
 _atom_site_fract_x
 _atom_site_fract_y
 _atom_site_fract_z
 _atom_site_occupancy
  Y  Y0  1  0.290968  0.087896  0.377894  1
  Y  Y1  1  0.290968  0.912104  0.877894  1
  Y  Y2  1  0.709032  0.087896  0.877894  1
  Y  Y3  1  0.709032  0.912104  0.377894  1
  Y  Y4  1  0.587896  0.790968  0.877894  1
  Y  Y5  1  0.587896  0.209032  0.377894  1
  Y  Y6  1  0.412104  0.790968  0.377894  1
  Y  Y7  1  0.412104  0.209032  0.877894  1
  Y  Y8  1  0.209032  0.412104  0.622106  1
  Y  Y9  1  0.209032  0.587896  0.122106  1
  Y  Y10  1  0.790968  0.412104  0.122106  1
  Y  Y11  1  0.790968  0.587896  0.622106  1
  Y  Y12  1  0.912104  0.709032  0.122106  1
  Y  Y13  1  0.912104  0.290968  0.622106  1
  Y  Y14  1  0.087896  0.709032  0.622106  1
  Y  Y15  1  0.087896  0.290968  0.122106  1
  Ho  Ho16  1  0.000000  0.000000  0.500000  1
  Ho  Ho17  1  0.000000  0.000000  0.000000  1
  Ho  Ho18  1  0.500000  0.500000  0.000000  1
  Ho  Ho19  1  0.500000  0.500000  0.500000  1
  Ir  Ir20  1  0.847278  0.152722  0.250000  1
  Ir  Ir21  1  0.847278  0.847278  0.750000  1
  Ir  Ir22  1  0.152722  0.152722  0.750000  1
  Ir  Ir23  1  0.152722  0.847278  0.250000  1
  Ir  Ir24  1  0.652722  0.347278  0.750000  1
  Ir  Ir25  1  0.652722  0.652722  0.250000  1
  Ir  Ir26  1  0.347278  0.347278  0.250000  1
  Ir  Ir27  1  0.347278  0.652722  0.750000  1
  Ir  Ir28  1  0.500000  0.000000  0.121374  1
  Ir  Ir29  1  0.500000  0.000000  0.621374  1
  Ir  Ir30  1  0.000000  0.500000  0.878626  1
  Ir  Ir31  1  0.000000  0.500000  0.378626  1
