# generated using pymatgen
data_Tb3ThPt4
_symmetry_space_group_name_H-M   'P 1'
_cell_length_a   4.60153100
_cell_length_b   5.63858886
_cell_length_c   7.10350255
_cell_angle_alpha   90.40953313
_cell_angle_beta   90.00000000
_cell_angle_gamma   90.00000000
_symmetry_Int_Tables_number   1
_chemical_formula_structural   Tb3ThPt4
_chemical_formula_sum   'Tb3 Th1 Pt4'
_cell_volume   184.30377381
_cell_formula_units_Z   1
loop_
 _symmetry_equiv_pos_site_id
 _symmetry_equiv_pos_as_xyz
  1  'x, y, z'
loop_
 _atom_site_type_symbol
 _atom_site_label
 _atom_site_symmetry_multiplicity
 _atom_site_fract_x
 _atom_site_fract_y
 _atom_site_fract_z
 _atom_site_occupancy
  Tb  Tb0  1  0.250000  0.141043  0.183735  1
  Tb  Tb1  1  0.750000  0.642626  0.314442  1
  Tb  Tb2  1  0.750000  0.857363  0.819157  1
  Th  Th3  1  0.250000  0.359378  0.683522  1
  Pt  Pt4  1  0.250000  0.842165  0.542922  1
  Pt  Pt5  1  0.250000  0.656827  0.042329  1
  Pt  Pt6  1  0.750000  0.157577  0.456702  1
  Pt  Pt7  1  0.750000  0.343020  0.957192  1
