# generated using pymatgen
data_Tm9Th(SiPb3)2
_symmetry_space_group_name_H-M   'P 1'
_cell_length_a   9.27756185
_cell_length_b   9.27756188
_cell_length_c   6.44024300
_cell_angle_alpha   90.00000000
_cell_angle_beta   90.00000000
_cell_angle_gamma   119.92765953
_symmetry_Int_Tables_number   1
_chemical_formula_structural   Tm9Th(SiPb3)2
_chemical_formula_sum   'Tm9 Th1 Si2 Pb6'
_cell_volume   480.41518010
_cell_formula_units_Z   1
loop_
 _symmetry_equiv_pos_site_id
 _symmetry_equiv_pos_as_xyz
  1  'x, y, z'
loop_
 _atom_site_type_symbol
 _atom_site_label
 _atom_site_symmetry_multiplicity
 _atom_site_fract_x
 _atom_site_fract_y
 _atom_site_fract_z
 _atom_site_occupancy
  Tm  Tm0  1  0.666291  0.333472  0.500329  1
  Tm  Tm1  1  0.333472  0.666291  0.500329  1
  Tm  Tm2  1  0.333472  0.666291  0.999671  1
  Tm  Tm3  1  0.666291  0.333472  0.999671  1
  Tm  Tm4  1  0.243743  0.998719  0.250000  1
  Tm  Tm5  1  0.998719  0.243743  0.250000  1
  Tm  Tm6  1  0.256005  0.256005  0.750000  1
  Tm  Tm7  1  0.747171  0.001028  0.750000  1
  Tm  Tm8  1  0.001028  0.747171  0.750000  1
  Th  Th9  1  0.752343  0.752343  0.250000  1
  Si  Si10  1  0.003615  0.003615  0.518129  1
  Si  Si11  1  0.003615  0.003615  0.981871  1
  Pb  Pb12  1  0.387585  0.387585  0.250000  1
  Pb  Pb13  1  0.602030  0.003954  0.250000  1
  Pb  Pb14  1  0.003954  0.602030  0.250000  1
  Pb  Pb15  1  0.608469  0.608469  0.750000  1
  Pb  Pb16  1  0.392379  0.999815  0.750000  1
  Pb  Pb17  1  0.999815  0.392379  0.750000  1
