# generated using pymatgen
data_DyHo5Al24(RuRh)4
_symmetry_space_group_name_H-M   'P 1'
_cell_length_a   8.82089600
_cell_length_b   8.76610492
_cell_length_c   9.54113600
_cell_angle_alpha   90.00000000
_cell_angle_beta   90.00000000
_cell_angle_gamma   119.79473993
_symmetry_Int_Tables_number   1
_chemical_formula_structural   DyHo5Al24(RuRh)4
_chemical_formula_sum   'Dy1 Ho5 Al24 Ru4 Rh4'
_cell_volume   640.24270729
_cell_formula_units_Z   1
loop_
 _symmetry_equiv_pos_site_id
 _symmetry_equiv_pos_as_xyz
  1  'x, y, z'
loop_
 _atom_site_type_symbol
 _atom_site_label
 _atom_site_symmetry_multiplicity
 _atom_site_fract_x
 _atom_site_fract_y
 _atom_site_fract_z
 _atom_site_occupancy
  Dy  Dy0  1  0.384402  0.192201  0.750000  1
  Ho  Ho1  1  0.190270  0.803508  0.250000  1
  Ho  Ho2  1  0.190270  0.386762  0.250000  1
  Ho  Ho3  1  0.615058  0.807529  0.250000  1
  Ho  Ho4  1  0.809839  0.196549  0.750000  1
  Ho  Ho5  1  0.809839  0.613290  0.750000  1
  Al  Al6  1  0.560615  0.437916  0.250000  1
  Al  Al7  1  0.560615  0.122700  0.250000  1
  Al  Al8  1  0.876408  0.438204  0.250000  1
  Al  Al9  1  0.439446  0.562354  0.750000  1
  Al  Al10  1  0.439446  0.877091  0.750000  1
  Al  Al11  1  0.123569  0.561785  0.750000  1
  Al  Al12  1  0.324458  0.162230  0.422078  1
  Al  Al13  1  0.837979  0.164092  0.422287  1
  Al  Al14  1  0.837979  0.673887  0.422287  1
  Al  Al15  1  0.675544  0.837772  0.577744  1
  Al  Al16  1  0.161947  0.835764  0.577613  1
  Al  Al17  1  0.161947  0.326182  0.577613  1
  Al  Al18  1  0.675544  0.837772  0.922256  1
  Al  Al19  1  0.161947  0.835764  0.922387  1
  Al  Al20  1  0.161947  0.326182  0.922387  1
  Al  Al21  1  0.324458  0.162230  0.077922  1
  Al  Al22  1  0.837979  0.164092  0.077713  1
  Al  Al23  1  0.837979  0.673887  0.077713  1
  Al  Al24  1  0.669048  0.334523  0.523124  1
  Al  Al25  1  0.331145  0.665573  0.476750  1
  Al  Al26  1  0.331145  0.665573  0.023250  1
  Al  Al27  1  0.669048  0.334523  0.976876  1
  Al  Al28  1  0.997996  0.998999  0.250000  1
  Al  Al29  1  0.001743  0.000871  0.750000  1
  Ru  Ru30  1  0.999985  0.999993  0.500018  1
  Ru  Ru31  1  0.999985  0.999993  0.999982  1
  Ru  Ru32  1  0.000095  0.500048  0.499969  1
  Ru  Ru33  1  0.000095  0.500048  0.000031  1
  Rh  Rh34  1  0.500057  0.500139  0.499902  1
  Rh  Rh35  1  0.500057  0.999918  0.499902  1
  Rh  Rh36  1  0.500057  0.500139  0.000098  1
  Rh  Rh37  1  0.500057  0.999918  0.000098  1
