# generated using pymatgen
data_Tm2Lu2Ga18PtRh5
_symmetry_space_group_name_H-M   'P 1'
_cell_length_a   7.56759260
_cell_length_b   7.56636024
_cell_length_c   9.46231764
_cell_angle_alpha   90.03746570
_cell_angle_beta   90.04771867
_cell_angle_gamma   119.96629027
_symmetry_Int_Tables_number   1
_chemical_formula_structural   Tm2Lu2Ga18PtRh5
_chemical_formula_sum   'Tm2 Lu2 Ga18 Pt1 Rh5'
_cell_volume   469.37488944
_cell_formula_units_Z   1
loop_
 _symmetry_equiv_pos_site_id
 _symmetry_equiv_pos_as_xyz
  1  'x, y, z'
loop_
 _atom_site_type_symbol
 _atom_site_label
 _atom_site_symmetry_multiplicity
 _atom_site_fract_x
 _atom_site_fract_y
 _atom_site_fract_z
 _atom_site_occupancy
  Tm  Tm0  1  0.996986  0.669627  0.250397  1
  Tm  Tm1  1  0.003014  0.330373  0.749603  1
  Lu  Lu2  1  0.669668  0.997147  0.250460  1
  Lu  Lu3  1  0.330332  0.002853  0.749540  1
  Ga  Ga4  1  0.338547  0.549024  0.250340  1
  Ga  Ga5  1  0.661453  0.450976  0.749660  1
  Ga  Ga6  1  0.548742  0.338304  0.250329  1
  Ga  Ga7  1  0.451258  0.661696  0.749671  1
  Ga  Ga8  1  0.998544  0.337687  0.082112  1
  Ga  Ga9  1  0.001456  0.662313  0.917888  1
  Ga  Ga10  1  0.001448  0.665559  0.580179  1
  Ga  Ga11  1  0.335220  0.998983  0.420085  1
  Ga  Ga12  1  0.998552  0.334441  0.419821  1
  Ga  Ga13  1  0.664780  0.001017  0.579915  1
  Ga  Ga14  1  0.661533  0.001055  0.918147  1
  Ga  Ga15  1  0.338467  0.998945  0.081853  1
  Ga  Ga16  1  0.332259  0.331904  0.567205  1
  Ga  Ga17  1  0.667741  0.668096  0.432795  1
  Ga  Ga18  1  0.663677  0.664043  0.068701  1
  Ga  Ga19  1  0.336323  0.335957  0.931299  1
  Ga  Ga20  1  0.129289  0.129326  0.252819  1
  Ga  Ga21  1  0.870711  0.870674  0.747181  1
  Pt  Pt22  1  0.000000  0.000000  0.000000  1
  Rh  Rh23  1  0.671632  0.328458  0.999980  1
  Rh  Rh24  1  0.328368  0.671542  0.000020  1
  Rh  Rh25  1  0.328151  0.671756  0.499987  1
  Rh  Rh26  1  0.671849  0.328244  0.500013  1
  Rh  Rh27  1  0.000000  0.000000  0.500000  1
