# generated using pymatgen
data_Rb3AsO3
_symmetry_space_group_name_H-M   'P 1'
_cell_length_a   8.74926800
_cell_length_b   8.74926800
_cell_length_c   8.74926800
_cell_angle_alpha   90.00000000
_cell_angle_beta   90.00000000
_cell_angle_gamma   90.00000000
_symmetry_Int_Tables_number   1
_chemical_formula_structural   Rb3AsO3
_chemical_formula_sum   'Rb12 As4 O12'
_cell_volume   669.75375781
_cell_formula_units_Z   4
loop_
 _symmetry_equiv_pos_site_id
 _symmetry_equiv_pos_as_xyz
  1  'x, y, z'
loop_
 _atom_site_type_symbol
 _atom_site_label
 _atom_site_symmetry_multiplicity
 _atom_site_fract_x
 _atom_site_fract_y
 _atom_site_fract_z
 _atom_site_occupancy
  Rb  Rb0  1  0.277473  0.722527  0.222527  1
  Rb  Rb1  1  0.483594  0.983594  0.516406  1
  Rb  Rb2  1  0.222527  0.277473  0.722527  1
  Rb  Rb3  1  0.016406  0.016406  0.016406  1
  Rb  Rb4  1  0.773479  0.226521  0.726521  1
  Rb  Rb5  1  0.726521  0.773479  0.226521  1
  Rb  Rb6  1  0.516406  0.483594  0.983594  1
  Rb  Rb7  1  0.983594  0.516406  0.483594  1
  Rb  Rb8  1  0.226521  0.726521  0.773479  1
  Rb  Rb9  1  0.722527  0.222527  0.277473  1
  Rb  Rb10  1  0.777473  0.777473  0.777473  1
  Rb  Rb11  1  0.273479  0.273479  0.273479  1
  As  As12  1  0.499485  0.499485  0.499485  1
  As  As13  1  0.000515  0.500515  0.999485  1
  As  As14  1  0.500515  0.999485  0.000515  1
  As  As15  1  0.999485  0.000515  0.500515  1
  O  O16  1  0.459570  0.004853  0.201826  1
  O  O17  1  0.701826  0.040430  0.995147  1
  O  O18  1  0.004853  0.201826  0.459570  1
  O  O19  1  0.959570  0.495147  0.798174  1
  O  O20  1  0.040430  0.995147  0.701826  1
  O  O21  1  0.495147  0.798174  0.959570  1
  O  O22  1  0.798174  0.959570  0.495147  1
  O  O23  1  0.201826  0.459570  0.004853  1
  O  O24  1  0.995147  0.701826  0.040430  1
  O  O25  1  0.540430  0.504853  0.298174  1
  O  O26  1  0.298174  0.540430  0.504853  1
  O  O27  1  0.504853  0.298174  0.540430  1
