# generated using pymatgen
data_Y2ScGa5
_symmetry_space_group_name_H-M   'P 1'
_cell_length_a   6.00693600
_cell_length_b   9.49895500
_cell_length_c   11.43095900
_cell_angle_alpha   90.00000000
_cell_angle_beta   90.00000000
_cell_angle_gamma   90.00000000
_symmetry_Int_Tables_number   1
_chemical_formula_structural   Y2ScGa5
_chemical_formula_sum   'Y8 Sc4 Ga20'
_cell_volume   652.24611678
_cell_formula_units_Z   4
loop_
 _symmetry_equiv_pos_site_id
 _symmetry_equiv_pos_as_xyz
  1  'x, y, z'
loop_
 _atom_site_type_symbol
 _atom_site_label
 _atom_site_symmetry_multiplicity
 _atom_site_fract_x
 _atom_site_fract_y
 _atom_site_fract_z
 _atom_site_occupancy
  Y  Y0  1  0.891753  0.508674  0.351876  1
  Y  Y1  1  0.608247  0.991326  0.851876  1
  Y  Y2  1  0.108247  0.008674  0.648124  1
  Y  Y3  1  0.391753  0.491326  0.148124  1
  Y  Y4  1  0.108247  0.491326  0.648124  1
  Y  Y5  1  0.391753  0.008674  0.148124  1
  Y  Y6  1  0.891753  0.991326  0.351876  1
  Y  Y7  1  0.608247  0.508674  0.851876  1
  Sc  Sc8  1  0.850304  0.750000  0.073828  1
  Sc  Sc9  1  0.649696  0.750000  0.573828  1
  Sc  Sc10  1  0.149696  0.250000  0.926172  1
  Sc  Sc11  1  0.350304  0.250000  0.426172  1
  Ga  Ga12  1  0.879447  0.051364  0.089302  1
  Ga  Ga13  1  0.620553  0.448636  0.589302  1
  Ga  Ga14  1  0.120553  0.551364  0.910698  1
  Ga  Ga15  1  0.379447  0.948636  0.410698  1
  Ga  Ga16  1  0.120553  0.948636  0.910698  1
  Ga  Ga17  1  0.379447  0.551364  0.410698  1
  Ga  Ga18  1  0.879447  0.448636  0.089302  1
  Ga  Ga19  1  0.620553  0.051364  0.589302  1
  Ga  Ga20  1  0.162343  0.750000  0.248891  1
  Ga  Ga21  1  0.337657  0.750000  0.748891  1
  Ga  Ga22  1  0.837657  0.250000  0.751109  1
  Ga  Ga23  1  0.662343  0.250000  0.251109  1
  Ga  Ga24  1  0.378973  0.750000  0.001635  1
  Ga  Ga25  1  0.121027  0.750000  0.501635  1
  Ga  Ga26  1  0.621027  0.250000  0.998365  1
  Ga  Ga27  1  0.878973  0.250000  0.498365  1
  Ga  Ga28  1  0.602722  0.750000  0.294517  1
  Ga  Ga29  1  0.897278  0.750000  0.794517  1
  Ga  Ga30  1  0.397278  0.250000  0.705483  1
  Ga  Ga31  1  0.102722  0.250000  0.205483  1
