# generated using pymatgen
data_DyHo3Al12(GaIr)6
_symmetry_space_group_name_H-M   'P 1'
_cell_length_a   7.52264500
_cell_length_b   7.52296331
_cell_length_c   9.56080100
_cell_angle_alpha   90.00000000
_cell_angle_beta   90.00000000
_cell_angle_gamma   119.66597474
_symmetry_Int_Tables_number   1
_chemical_formula_structural   DyHo3Al12(GaIr)6
_chemical_formula_sum   'Dy1 Ho3 Al12 Ga6 Ir6'
_cell_volume   470.14993270
_cell_formula_units_Z   1
loop_
 _symmetry_equiv_pos_site_id
 _symmetry_equiv_pos_as_xyz
  1  'x, y, z'
loop_
 _atom_site_type_symbol
 _atom_site_label
 _atom_site_symmetry_multiplicity
 _atom_site_fract_x
 _atom_site_fract_y
 _atom_site_fract_z
 _atom_site_occupancy
  Dy  Dy0  1  0.996022  0.669194  0.250000  1
  Ho  Ho1  1  0.003975  0.330798  0.750000  1
  Ho  Ho2  1  0.669192  0.996025  0.250000  1
  Ho  Ho3  1  0.330808  0.003988  0.750000  1
  Al  Al4  1  0.001397  0.334251  0.072993  1
  Al  Al5  1  0.998597  0.665651  0.926871  1
  Al  Al6  1  0.998597  0.665651  0.573129  1
  Al  Al7  1  0.334452  0.001497  0.427003  1
  Al  Al8  1  0.001397  0.334251  0.427007  1
  Al  Al9  1  0.665651  0.998602  0.573047  1
  Al  Al10  1  0.665651  0.998602  0.926953  1
  Al  Al11  1  0.334452  0.001497  0.072997  1
  Al  Al12  1  0.333912  0.333912  0.555453  1
  Al  Al13  1  0.665999  0.666090  0.444608  1
  Al  Al14  1  0.665999  0.666090  0.055392  1
  Al  Al15  1  0.333912  0.333912  0.944547  1
  Ga  Ga16  1  0.127253  0.127315  0.250000  1
  Ga  Ga17  1  0.872804  0.872808  0.750000  1
  Ga  Ga18  1  0.338127  0.546463  0.250000  1
  Ga  Ga19  1  0.661926  0.453488  0.750000  1
  Ga  Ga20  1  0.546370  0.337972  0.250000  1
  Ga  Ga21  1  0.453502  0.661940  0.750000  1
  Ir  Ir22  1  0.671835  0.328073  0.999958  1
  Ir  Ir23  1  0.328155  0.671869  0.999957  1
  Ir  Ir24  1  0.328155  0.671869  0.500043  1
  Ir  Ir25  1  0.671835  0.328073  0.500042  1
  Ir  Ir26  1  0.000012  0.000059  0.999954  1
  Ir  Ir27  1  0.000012  0.000059  0.500046  1
