# generated using pymatgen
data_Tb5Er(Tm2Sn3)2
_symmetry_space_group_name_H-M   'P 1'
_cell_length_a   6.51619700
_cell_length_b   8.93510452
_cell_length_c   8.94451700
_cell_angle_alpha   120.03056029
_cell_angle_beta   89.99969818
_cell_angle_gamma   90.00016028
_symmetry_Int_Tables_number   1
_chemical_formula_structural   Tb5Er(Tm2Sn3)2
_chemical_formula_sum   'Tb5 Er1 Tm4 Sn6'
_cell_volume   450.86606294
_cell_formula_units_Z   1
loop_
 _symmetry_equiv_pos_site_id
 _symmetry_equiv_pos_as_xyz
  1  'x, y, z'
loop_
 _atom_site_type_symbol
 _atom_site_label
 _atom_site_symmetry_multiplicity
 _atom_site_fract_x
 _atom_site_fract_y
 _atom_site_fract_z
 _atom_site_occupancy
  Tb  Tb0  1  0.750003  0.239152  0.999899  1
  Tb  Tb1  1  0.750000  0.760767  0.760708  1
  Tb  Tb2  1  0.750000  0.999954  0.239789  1
  Tb  Tb3  1  0.249999  0.760636  0.999644  1
  Tb  Tb4  1  0.249998  0.239434  0.239043  1
  Er  Er5  1  0.250005  0.000089  0.760528  1
  Tm  Tm6  1  0.499914  0.333191  0.666713  1
  Tm  Tm7  1  0.499916  0.666785  0.333467  1
  Tm  Tm8  1  0.000081  0.666797  0.333467  1
  Tm  Tm9  1  0.000083  0.333206  0.666715  1
  Sn  Sn10  1  0.749995  0.604107  0.999981  1
  Sn  Sn11  1  0.749997  0.395828  0.395821  1
  Sn  Sn12  1  0.750005  0.999985  0.603785  1
  Sn  Sn13  1  0.250000  0.394630  0.999135  1
  Sn  Sn14  1  0.250006  0.605442  0.604558  1
  Sn  Sn15  1  0.250000  0.000000  0.396745  1
