# generated using pymatgen
data_Tb4Ho3Lu3(In2Pt)4
_symmetry_space_group_name_H-M   'P 1'
_cell_length_a   3.62340100
_cell_length_b   8.14242459
_cell_length_c   18.14381196
_cell_angle_alpha   89.81134393
_cell_angle_beta   90.00000000
_cell_angle_gamma   90.00000000
_symmetry_Int_Tables_number   1
_chemical_formula_structural   Tb4Ho3Lu3(In2Pt)4
_chemical_formula_sum   'Tb4 Ho3 Lu3 In8 Pt4'
_cell_volume   535.29887033
_cell_formula_units_Z   1
loop_
 _symmetry_equiv_pos_site_id
 _symmetry_equiv_pos_as_xyz
  1  'x, y, z'
loop_
 _atom_site_type_symbol
 _atom_site_label
 _atom_site_symmetry_multiplicity
 _atom_site_fract_x
 _atom_site_fract_y
 _atom_site_fract_z
 _atom_site_occupancy
  Tb  Tb0  1  0.000000  0.258972  0.717627  1
  Tb  Tb1  1  0.000000  0.740929  0.282435  1
  Tb  Tb2  1  0.000000  0.999397  0.999284  1
  Tb  Tb3  1  0.000000  0.499792  0.500494  1
  Ho  Ho4  1  0.000000  0.617374  0.085108  1
  Ho  Ho5  1  0.000000  0.242653  0.219623  1
  Ho  Ho6  1  0.000000  0.759060  0.780911  1
  Lu  Lu7  1  0.000000  0.116178  0.414086  1
  Lu  Lu8  1  0.000000  0.883200  0.586132  1
  Lu  Lu9  1  0.000000  0.383135  0.913120  1
  In  In10  1  0.500000  0.417714  0.351445  1
  In  In11  1  0.500000  0.582470  0.649695  1
  In  In12  1  0.500000  0.080694  0.849753  1
  In  In13  1  0.500000  0.922721  0.150343  1
  In  In14  1  0.500000  0.294960  0.064655  1
  In  In15  1  0.500000  0.702999  0.933707  1
  In  In16  1  0.500000  0.201215  0.563547  1
  In  In17  1  0.500000  0.797811  0.436733  1
  Pt  Pt18  1  0.500000  0.027044  0.305636  1
  Pt  Pt19  1  0.500000  0.973054  0.694540  1
  Pt  Pt20  1  0.500000  0.474537  0.804683  1
  Pt  Pt21  1  0.500000  0.524089  0.196440  1
