# generated using pymatgen
data_Dy6Ho2Re(B8Os)3
_symmetry_space_group_name_H-M   'P 1'
_cell_length_a   3.66428700
_cell_length_b   9.15447079
_cell_length_c   11.53915105
_cell_angle_alpha   90.09749162
_cell_angle_beta   90.00000000
_cell_angle_gamma   90.00000000
_symmetry_Int_Tables_number   1
_chemical_formula_structural   Dy6Ho2Re(B8Os)3
_chemical_formula_sum   'Dy6 Ho2 Re1 B24 Os3'
_cell_volume   387.07574201
_cell_formula_units_Z   1
loop_
 _symmetry_equiv_pos_site_id
 _symmetry_equiv_pos_as_xyz
  1  'x, y, z'
loop_
 _atom_site_type_symbol
 _atom_site_label
 _atom_site_symmetry_multiplicity
 _atom_site_fract_x
 _atom_site_fract_y
 _atom_site_fract_z
 _atom_site_occupancy
  Dy  Dy0  1  0.000000  0.322532  0.414870  1
  Dy  Dy1  1  0.000000  0.679834  0.588113  1
  Dy  Dy2  1  0.000000  0.822626  0.083692  1
  Dy  Dy3  1  0.000000  0.176418  0.913251  1
  Dy  Dy4  1  0.000000  0.943315  0.371789  1
  Dy  Dy5  1  0.000000  0.055902  0.627772  1
  Ho  Ho6  1  0.000000  0.443031  0.127809  1
  Ho  Ho7  1  0.000000  0.556475  0.872752  1
  Re  Re8  1  0.000000  0.862215  0.821509  1
  B  B9  1  0.500000  0.553828  0.433074  1
  B  B10  1  0.500000  0.446258  0.567221  1
  B  B11  1  0.500000  0.053735  0.067401  1
  B  B12  1  0.500000  0.947025  0.933049  1
  B  B13  1  0.500000  0.748063  0.419328  1
  B  B14  1  0.500000  0.252020  0.580533  1
  B  B15  1  0.500000  0.248088  0.080809  1
  B  B16  1  0.500000  0.751584  0.919194  1
  B  B17  1  0.500000  0.790137  0.266128  1
  B  B18  1  0.500000  0.209415  0.733155  1
  B  B19  1  0.500000  0.290909  0.233789  1
  B  B20  1  0.500000  0.708465  0.766208  1
  B  B21  1  0.500000  0.630970  0.185497  1
  B  B22  1  0.500000  0.368578  0.814121  1
  B  B23  1  0.500000  0.131858  0.314515  1
  B  B24  1  0.500000  0.868487  0.685795  1
  B  B25  1  0.500000  0.983646  0.212539  1
  B  B26  1  0.500000  0.017422  0.787382  1
  B  B27  1  0.500000  0.483177  0.287683  1
  B  B28  1  0.500000  0.516820  0.712809  1
  B  B29  1  0.500000  0.605611  0.029954  1
  B  B30  1  0.500000  0.392906  0.970684  1
  B  B31  1  0.500000  0.107437  0.469893  1
  B  B32  1  0.500000  0.893115  0.529085  1
  Os  Os33  1  0.000000  0.637100  0.321342  1
  Os  Os34  1  0.000000  0.362905  0.678194  1
  Os  Os35  1  0.000000  0.138097  0.179060  1
