# generated using pymatgen
data_Ba2TbHo3(Si3O10)2
_symmetry_space_group_name_H-M   'P 1'
_cell_length_a   12.34244823
_cell_length_b   5.45691568
_cell_length_c   6.91788180
_cell_angle_alpha   73.54343552
_cell_angle_beta   89.94746369
_cell_angle_gamma   89.94224411
_symmetry_Int_Tables_number   1
_chemical_formula_structural   Ba2TbHo3(Si3O10)2
_chemical_formula_sum   'Ba2 Tb1 Ho3 Si6 O20'
_cell_volume   446.84379546
_cell_formula_units_Z   1
loop_
 _symmetry_equiv_pos_site_id
 _symmetry_equiv_pos_as_xyz
  1  'x, y, z'
loop_
 _atom_site_type_symbol
 _atom_site_label
 _atom_site_symmetry_multiplicity
 _atom_site_fract_x
 _atom_site_fract_y
 _atom_site_fract_z
 _atom_site_occupancy
  Ba  Ba0  1  0.750577  0.761458  0.984577  1
  Ba  Ba1  1  0.249676  0.238505  0.015354  1
  Tb  Tb2  1  0.598859  0.156204  0.316502  1
  Ho  Ho3  1  0.901216  0.157226  0.316530  1
  Ho  Ho4  1  0.099286  0.842589  0.683538  1
  Ho  Ho5  1  0.400075  0.842511  0.684077  1
  Si  Si6  1  0.060738  0.695355  0.213713  1
  Si  Si7  1  0.250082  0.419326  0.487504  1
  Si  Si8  1  0.750690  0.580211  0.512778  1
  Si  Si9  1  0.438580  0.695754  0.213466  1
  Si  Si10  1  0.560484  0.305327  0.785535  1
  Si  Si11  1  0.939644  0.304170  0.786751  1
  O  O12  1  0.448987  0.895338  0.353592  1
  O  O13  1  0.143696  0.454505  0.337002  1
  O  O14  1  0.856613  0.545146  0.664395  1
  O  O15  1  0.356701  0.452907  0.336863  1
  O  O16  1  0.378324  0.838412  0.001824  1
  O  O17  1  0.879690  0.161210  0.998731  1
  O  O18  1  0.054455  0.438935  0.807111  1
  O  O19  1  0.951572  0.103777  0.647187  1
  O  O20  1  0.547457  0.102812  0.648545  1
  O  O21  1  0.249915  0.629145  0.615254  1
  O  O22  1  0.120568  0.838278  0.001654  1
  O  O23  1  0.554527  0.565751  0.191809  1
  O  O24  1  0.249768  0.124473  0.633086  1
  O  O25  1  0.643068  0.546192  0.660897  1
  O  O26  1  0.751548  0.874746  0.366975  1
  O  O27  1  0.945903  0.560944  0.192741  1
  O  O28  1  0.751069  0.370649  0.385220  1
  O  O29  1  0.445683  0.439543  0.808050  1
  O  O30  1  0.621720  0.162543  0.995721  1
  O  O31  1  0.048831  0.896058  0.353016  1
