# generated using pymatgen
data_Th3Al2PdPt2Au
_symmetry_space_group_name_H-M   'P 1'
_cell_length_a   7.37850366
_cell_length_b   7.37850245
_cell_length_c   4.07083100
_cell_angle_alpha   90.00000000
_cell_angle_beta   90.00000000
_cell_angle_gamma   117.70958549
_symmetry_Int_Tables_number   1
_chemical_formula_structural   Th3Al2PdPt2Au
_chemical_formula_sum   'Th3 Al2 Pd1 Pt2 Au1'
_cell_volume   196.20850709
_cell_formula_units_Z   1
loop_
 _symmetry_equiv_pos_site_id
 _symmetry_equiv_pos_as_xyz
  1  'x, y, z'
loop_
 _atom_site_type_symbol
 _atom_site_label
 _atom_site_symmetry_multiplicity
 _atom_site_fract_x
 _atom_site_fract_y
 _atom_site_fract_z
 _atom_site_occupancy
  Th  Th0  1  0.421795  0.421795  0.500000  1
  Th  Th1  1  0.588002  0.990546  0.500000  1
  Th  Th2  1  0.990546  0.588002  0.500000  1
  Al  Al3  1  0.239420  0.003485  0.000000  1
  Al  Al4  1  0.003485  0.239420  0.000000  1
  Pd  Pd5  1  0.032617  0.032617  0.500000  1
  Pt  Pt6  1  0.662955  0.307007  0.000000  1
  Pt  Pt7  1  0.307007  0.662955  0.000000  1
  Au  Au8  1  0.754174  0.754174  0.000000  1
