# generated using pymatgen
data_LaYb2Cu7(Ni3B)2
_symmetry_space_group_name_H-M   'P 1'
_cell_length_a   5.05414921
_cell_length_b   5.05152843
_cell_length_c   10.89074719
_cell_angle_alpha   89.99715352
_cell_angle_beta   90.00570133
_cell_angle_gamma   120.01714389
_symmetry_Int_Tables_number   1
_chemical_formula_structural   LaYb2Cu7(Ni3B)2
_chemical_formula_sum   'La1 Yb2 Cu7 Ni6 B2'
_cell_volume   240.75987821
_cell_formula_units_Z   1
loop_
 _symmetry_equiv_pos_site_id
 _symmetry_equiv_pos_as_xyz
  1  'x, y, z'
loop_
 _atom_site_type_symbol
 _atom_site_label
 _atom_site_symmetry_multiplicity
 _atom_site_fract_x
 _atom_site_fract_y
 _atom_site_fract_z
 _atom_site_occupancy
  La  La0  1  0.999776  0.000000  0.689375  1
  Yb  Yb1  1  0.000100  0.000000  0.006776  1
  Yb  Yb2  1  0.000071  0.000000  0.310692  1
  Cu  Cu3  1  0.499866  0.000000  0.496137  1
  Cu  Cu4  1  0.499894  0.499966  0.496150  1
  Cu  Cu5  1  0.999928  0.500034  0.496150  1
  Cu  Cu6  1  0.333382  0.666613  0.311722  1
  Cu  Cu7  1  0.666769  0.333387  0.311722  1
  Cu  Cu8  1  0.666491  0.333339  0.685697  1
  Cu  Cu9  1  0.333152  0.666661  0.685697  1
  Ni  Ni10  1  0.500150  0.000000  0.127139  1
  Ni  Ni11  1  0.500147  0.500024  0.127181  1
  Ni  Ni12  1  0.000123  0.499976  0.127181  1
  Ni  Ni13  1  0.499964  0.000000  0.875060  1
  Ni  Ni14  1  0.499975  0.499987  0.875159  1
  Ni  Ni15  1  0.999988  0.500013  0.875159  1
  B  B16  1  0.333376  0.666628  0.001500  1
  B  B17  1  0.666748  0.333372  0.001500  1
