# generated using pymatgen
data_Er9Th3Tc3Pt
_symmetry_space_group_name_H-M   'P 1'
_cell_length_a   6.36956789
_cell_length_b   7.27357674
_cell_length_c   9.40814000
_cell_angle_alpha   90.00000000
_cell_angle_beta   90.00000000
_cell_angle_gamma   90.28512830
_symmetry_Int_Tables_number   1
_chemical_formula_structural   Er9Th3Tc3Pt
_chemical_formula_sum   'Er9 Th3 Tc3 Pt1'
_cell_volume   435.86940932
_cell_formula_units_Z   1
loop_
 _symmetry_equiv_pos_site_id
 _symmetry_equiv_pos_as_xyz
  1  'x, y, z'
loop_
 _atom_site_type_symbol
 _atom_site_label
 _atom_site_symmetry_multiplicity
 _atom_site_fract_x
 _atom_site_fract_y
 _atom_site_fract_z
 _atom_site_occupancy
  Er  Er0  1  0.327867  0.676903  0.065140  1
  Er  Er1  1  0.165476  0.175179  0.436088  1
  Er  Er2  1  0.664486  0.320740  0.562886  1
  Er  Er3  1  0.835154  0.825603  0.934114  1
  Er  Er4  1  0.664486  0.320740  0.937114  1
  Er  Er5  1  0.835154  0.825603  0.565886  1
  Er  Er6  1  0.327867  0.676903  0.434860  1
  Er  Er7  1  0.165476  0.175179  0.063912  1
  Er  Er8  1  0.371460  0.968656  0.750000  1
  Th  Th9  1  0.859379  0.549785  0.250000  1
  Th  Th10  1  0.634895  0.047423  0.250000  1
  Th  Th11  1  0.135579  0.445950  0.750000  1
  Tc  Tc12  1  0.019881  0.870467  0.250000  1
  Tc  Tc13  1  0.478966  0.371571  0.250000  1
  Tc  Tc14  1  0.962561  0.130266  0.750000  1
  Pt  Pt15  1  0.551313  0.619035  0.750000  1
