# generated using pymatgen
data_Sc20Si9As2Pd
_symmetry_space_group_name_H-M   'P 1'
_cell_length_a   5.82734900
_cell_length_b   7.93809321
_cell_length_c   13.76867100
_cell_angle_alpha   90.11217953
_cell_angle_beta   90.00000000
_cell_angle_gamma   90.00000000
_symmetry_Int_Tables_number   1
_chemical_formula_structural   Sc20Si9As2Pd
_chemical_formula_sum   'Sc20 Si9 As2 Pd1'
_cell_volume   636.91050701
_cell_formula_units_Z   1
loop_
 _symmetry_equiv_pos_site_id
 _symmetry_equiv_pos_as_xyz
  1  'x, y, z'
loop_
 _atom_site_type_symbol
 _atom_site_label
 _atom_site_symmetry_multiplicity
 _atom_site_fract_x
 _atom_site_fract_y
 _atom_site_fract_z
 _atom_site_occupancy
  Sc  Sc0  1  0.753162  0.008552  0.665905  1
  Sc  Sc1  1  0.751761  0.500085  0.168020  1
  Sc  Sc2  1  0.753591  0.498254  0.834910  1
  Sc  Sc3  1  0.751501  0.001294  0.332224  1
  Sc  Sc4  1  0.246409  0.498254  0.834910  1
  Sc  Sc5  1  0.248499  0.001294  0.332224  1
  Sc  Sc6  1  0.246838  0.008552  0.665905  1
  Sc  Sc7  1  0.248239  0.500085  0.168020  1
  Sc  Sc8  1  0.500000  0.259067  0.499781  1
  Sc  Sc9  1  0.500000  0.755663  0.000654  1
  Sc  Sc10  1  0.500000  0.618991  0.622398  1
  Sc  Sc11  1  0.500000  0.118261  0.123105  1
  Sc  Sc12  1  0.500000  0.118478  0.875569  1
  Sc  Sc13  1  0.500000  0.619468  0.377037  1
  Sc  Sc14  1  0.000000  0.744412  0.499508  1
  Sc  Sc15  1  0.000000  0.242264  0.000022  1
  Sc  Sc16  1  0.000000  0.875262  0.875958  1
  Sc  Sc17  1  0.000000  0.379817  0.378264  1
  Sc  Sc18  1  0.000000  0.379687  0.621394  1
  Sc  Sc19  1  0.000000  0.877721  0.121927  1
  Si  Si20  1  0.500000  0.303377  0.302978  1
  Si  Si21  1  0.500000  0.305948  0.697639  1
  Si  Si22  1  0.500000  0.801545  0.197656  1
  Si  Si23  1  0.000000  0.607539  0.002445  1
  Si  Si24  1  0.000000  0.110431  0.498702  1
  Si  Si25  1  0.000000  0.701239  0.698896  1
  Si  Si26  1  0.000000  0.195970  0.196576  1
  Si  Si27  1  0.000000  0.198030  0.804122  1
  Si  Si28  1  0.000000  0.697941  0.303633  1
  As  As29  1  0.500000  0.386105  0.001182  1
  As  As30  1  0.500000  0.890794  0.499752  1
  Pd  Pd31  1  0.500000  0.795610  0.798677  1
