# generated using pymatgen
data_Er5Tm3(B6Ru)4
_symmetry_space_group_name_H-M   'P 1'
_cell_length_a   3.62691300
_cell_length_b   9.08552102
_cell_length_c   11.46087502
_cell_angle_alpha   90.00733470
_cell_angle_beta   90.00000000
_cell_angle_gamma   90.00000000
_symmetry_Int_Tables_number   1
_chemical_formula_structural   Er5Tm3(B6Ru)4
_chemical_formula_sum   'Er5 Tm3 B24 Ru4'
_cell_volume   377.66326964
_cell_formula_units_Z   1
loop_
 _symmetry_equiv_pos_site_id
 _symmetry_equiv_pos_as_xyz
  1  'x, y, z'
loop_
 _atom_site_type_symbol
 _atom_site_label
 _atom_site_symmetry_multiplicity
 _atom_site_fract_x
 _atom_site_fract_y
 _atom_site_fract_z
 _atom_site_occupancy
  Er  Er0  1  0.000000  0.322301  0.414226  1
  Er  Er1  1  0.000000  0.677691  0.585948  1
  Er  Er2  1  0.000000  0.822140  0.085731  1
  Er  Er3  1  0.000000  0.177896  0.914132  1
  Er  Er4  1  0.000000  0.943817  0.372526  1
  Tm  Tm5  1  0.000000  0.056264  0.627702  1
  Tm  Tm6  1  0.000000  0.443800  0.127402  1
  Tm  Tm7  1  0.000000  0.556225  0.872492  1
  B  B8  1  0.500000  0.553761  0.433431  1
  B  B9  1  0.500000  0.445974  0.566679  1
  B  B10  1  0.500000  0.054070  0.066474  1
  B  B11  1  0.500000  0.946018  0.933371  1
  B  B12  1  0.500000  0.748335  0.420049  1
  B  B13  1  0.500000  0.251294  0.580091  1
  B  B14  1  0.500000  0.248923  0.079926  1
  B  B15  1  0.500000  0.751192  0.920001  1
  B  B16  1  0.500000  0.791464  0.265692  1
  B  B17  1  0.500000  0.208169  0.734218  1
  B  B18  1  0.500000  0.292063  0.234080  1
  B  B19  1  0.500000  0.708112  0.765875  1
  B  B20  1  0.500000  0.631507  0.184489  1
  B  B21  1  0.500000  0.368384  0.815444  1
  B  B22  1  0.500000  0.132040  0.315258  1
  B  B23  1  0.500000  0.868300  0.684693  1
  B  B24  1  0.500000  0.983070  0.212739  1
  B  B25  1  0.500000  0.017163  0.786979  1
  B  B26  1  0.500000  0.482686  0.286879  1
  B  B27  1  0.500000  0.517193  0.713087  1
  B  B28  1  0.500000  0.606343  0.029297  1
  B  B29  1  0.500000  0.393662  0.970630  1
  B  B30  1  0.500000  0.107056  0.470803  1
  B  B31  1  0.500000  0.893207  0.529768  1
  Ru  Ru32  1  0.000000  0.637555  0.320880  1
  Ru  Ru33  1  0.000000  0.362055  0.679202  1
  Ru  Ru34  1  0.000000  0.138270  0.178870  1
  Ru  Ru35  1  0.000000  0.862001  0.820935  1
