# generated using pymatgen
data_Er2Tm3Nb3(Co4P3)4
_symmetry_space_group_name_H-M   'P 1'
_cell_length_a   12.14617700
_cell_length_b   12.14617689
_cell_length_c   3.68035700
_cell_angle_alpha   90.00000000
_cell_angle_beta   90.00000000
_cell_angle_gamma   119.99999758
_symmetry_Int_Tables_number   1
_chemical_formula_structural   Er2Tm3Nb3(Co4P3)4
_chemical_formula_sum   'Er2 Tm3 Nb3 Co16 P12'
_cell_volume   470.21859268
_cell_formula_units_Z   1
loop_
 _symmetry_equiv_pos_site_id
 _symmetry_equiv_pos_as_xyz
  1  'x, y, z'
loop_
 _atom_site_type_symbol
 _atom_site_label
 _atom_site_symmetry_multiplicity
 _atom_site_fract_x
 _atom_site_fract_y
 _atom_site_fract_z
 _atom_site_occupancy
  Er  Er0  1  0.333333  0.666667  0.000000  1
  Er  Er1  1  0.666667  0.333333  0.000000  1
  Tm  Tm2  1  0.816748  0.000000  0.500000  1
  Tm  Tm3  1  0.000000  0.816748  0.500000  1
  Tm  Tm4  1  0.183252  0.183252  0.500000  1
  Nb  Nb5  1  0.444962  0.000000  0.000000  1
  Nb  Nb6  1  0.000000  0.444962  0.000000  1
  Nb  Nb7  1  0.555038  0.555038  0.000000  1
  Co  Co8  1  0.278392  0.000000  0.500000  1
  Co  Co9  1  0.000000  0.278392  0.500000  1
  Co  Co10  1  0.721608  0.721608  0.500000  1
  Co  Co11  1  0.627034  0.803819  0.000000  1
  Co  Co12  1  0.196181  0.823215  0.000000  1
  Co  Co13  1  0.176785  0.372966  0.000000  1
  Co  Co14  1  0.372966  0.176785  0.000000  1
  Co  Co15  1  0.803819  0.627034  0.000000  1
  Co  Co16  1  0.823215  0.196181  0.000000  1
  Co  Co17  1  0.519616  0.872794  0.500000  1
  Co  Co18  1  0.127206  0.646822  0.500000  1
  Co  Co19  1  0.353178  0.480384  0.500000  1
  Co  Co20  1  0.480384  0.353178  0.500000  1
  Co  Co21  1  0.872794  0.519616  0.500000  1
  Co  Co22  1  0.646822  0.127206  0.500000  1
  Co  Co23  1  0.000000  0.000000  0.000000  1
  P  P24  1  0.177614  0.000000  0.000000  1
  P  P25  1  0.000000  0.177614  0.000000  1
  P  P26  1  0.822386  0.822386  0.000000  1
  P  P27  1  0.520073  0.688209  0.500000  1
  P  P28  1  0.311791  0.831864  0.500000  1
  P  P29  1  0.168136  0.479927  0.500000  1
  P  P30  1  0.479927  0.168136  0.500000  1
  P  P31  1  0.688209  0.520073  0.500000  1
  P  P32  1  0.831864  0.311791  0.500000  1
  P  P33  1  0.645313  0.000000  0.000000  1
  P  P34  1  0.000000  0.645313  0.000000  1
  P  P35  1  0.354687  0.354687  0.000000  1
