# generated using pymatgen
data_Tb2Pa3O10
_symmetry_space_group_name_H-M   'P 1'
_cell_length_a   6.64806111
_cell_length_b   6.64806111
_cell_length_c   8.54993283
_cell_angle_alpha   49.76156049
_cell_angle_beta   49.76156360
_cell_angle_gamma   48.10000716
_symmetry_Int_Tables_number   1
_chemical_formula_structural   Tb2Pa3O10
_chemical_formula_sum   'Tb2 Pa3 O10'
_cell_volume   198.80453584
_cell_formula_units_Z   1
loop_
 _symmetry_equiv_pos_site_id
 _symmetry_equiv_pos_as_xyz
  1  'x, y, z'
loop_
 _atom_site_type_symbol
 _atom_site_label
 _atom_site_symmetry_multiplicity
 _atom_site_fract_x
 _atom_site_fract_y
 _atom_site_fract_z
 _atom_site_occupancy
  Tb  Tb0  1  0.301285  0.301285  0.096870  1
  Tb  Tb1  1  0.698715  0.698715  0.903130  1
  Pa  Pa2  1  0.096554  0.096554  0.703967  1
  Pa  Pa3  1  0.500000  0.500000  0.500000  1
  Pa  Pa4  1  0.903446  0.903446  0.296033  1
  O  O5  1  0.656592  0.156381  0.789390  1
  O  O6  1  0.156381  0.656592  0.789390  1
  O  O7  1  0.454451  0.945517  0.404124  1
  O  O8  1  0.945517  0.454451  0.404124  1
  O  O9  1  0.843619  0.343408  0.210610  1
  O  O10  1  0.240531  0.759469  0.000000  1
  O  O11  1  0.343408  0.843619  0.210610  1
  O  O12  1  0.759469  0.240531  0.000000  1
  O  O13  1  0.054483  0.545549  0.595876  1
  O  O14  1  0.545549  0.054483  0.595876  1
