# generated using pymatgen
data_Sm4Nb(ReN4)3
_symmetry_space_group_name_H-M   'P 1'
_cell_length_a   7.35273197
_cell_length_b   7.53290222
_cell_length_c   6.39563857
_cell_angle_alpha   72.89455223
_cell_angle_beta   74.75930713
_cell_angle_gamma   82.83517683
_symmetry_Int_Tables_number   1
_chemical_formula_structural   Sm4Nb(ReN4)3
_chemical_formula_sum   'Sm4 Nb1 Re3 N12'
_cell_volume   326.22883283
_cell_formula_units_Z   1
loop_
 _symmetry_equiv_pos_site_id
 _symmetry_equiv_pos_as_xyz
  1  'x, y, z'
loop_
 _atom_site_type_symbol
 _atom_site_label
 _atom_site_symmetry_multiplicity
 _atom_site_fract_x
 _atom_site_fract_y
 _atom_site_fract_z
 _atom_site_occupancy
  Sm  Sm0  1  0.916616  0.096546  0.743840  1
  Sm  Sm1  1  0.091361  0.902529  0.256753  1
  Sm  Sm2  1  0.682436  0.276032  0.247506  1
  Sm  Sm3  1  0.312923  0.709683  0.760324  1
  Nb  Nb4  1  0.621419  0.794570  0.261914  1
  Re  Re5  1  0.195705  0.378268  0.225568  1
  Re  Re6  1  0.377934  0.209808  0.733636  1
  Re  Re7  1  0.799556  0.618138  0.775886  1
  N  N8  1  0.636660  0.631357  0.046509  1
  N  N9  1  0.376038  0.881340  0.361654  1
  N  N10  1  0.335905  0.333740  0.447007  1
  N  N11  1  0.123305  0.622578  0.157119  1
  N  N12  1  0.998145  0.226032  0.325594  1
  N  N13  1  0.786632  0.999505  0.139422  1
  N  N14  1  0.235126  0.005967  0.850842  1
  N  N15  1  0.628393  0.144654  0.649622  1
  N  N16  1  0.346355  0.355342  0.940373  1
  N  N17  1  0.888295  0.383914  0.836937  1
  N  N18  1  0.653543  0.651574  0.567560  1
  N  N19  1  0.993651  0.778424  0.671933  1
