# generated using pymatgen
data_Zr2Nb3AlSi3
_symmetry_space_group_name_H-M   'P 1'
_cell_length_a   6.94811901
_cell_length_b   6.94812064
_cell_length_c   12.86233754
_cell_angle_alpha   90.13217141
_cell_angle_beta   90.00372023
_cell_angle_gamma   89.99425854
_symmetry_Int_Tables_number   1
_chemical_formula_structural   Zr2Nb3AlSi3
_chemical_formula_sum   'Zr8 Nb12 Al4 Si12'
_cell_volume   620.94529847
_cell_formula_units_Z   4
loop_
 _symmetry_equiv_pos_site_id
 _symmetry_equiv_pos_as_xyz
  1  'x, y, z'
loop_
 _atom_site_type_symbol
 _atom_site_label
 _atom_site_symmetry_multiplicity
 _atom_site_fract_x
 _atom_site_fract_y
 _atom_site_fract_z
 _atom_site_occupancy
  Zr  Zr0  1  0.998740  0.665559  0.029761  1
  Zr  Zr1  1  0.001442  0.341799  0.532728  1
  Zr  Zr2  1  0.654137  0.998218  0.968576  1
  Zr  Zr3  1  0.159986  0.501622  0.780162  1
  Zr  Zr4  1  0.834923  0.498531  0.280527  1
  Zr  Zr5  1  0.501736  0.153682  0.217879  1
  Zr  Zr6  1  0.498576  0.839472  0.720753  1
  Zr  Zr7  1  0.341179  0.001624  0.468102  1
  Nb  Nb8  1  0.353610  0.502707  0.378253  1
  Nb  Nb9  1  0.844394  0.000105  0.369080  1
  Nb  Nb10  1  0.002305  0.146927  0.127918  1
  Nb  Nb11  1  0.999911  0.843683  0.631869  1
  Nb  Nb12  1  0.648085  0.497735  0.875427  1
  Nb  Nb13  1  0.502491  0.352367  0.625445  1
  Nb  Nb14  1  0.499456  0.656124  0.121769  1
  Nb  Nb15  1  0.156636  0.000195  0.872231  1
  Nb  Nb16  1  0.665080  0.664574  0.500179  1
  Nb  Nb17  1  0.830616  0.169966  0.750179  1
  Nb  Nb18  1  0.171236  0.836834  0.248407  1
  Nb  Nb19  1  0.336419  0.328623  0.998399  1
  Al  Al20  1  0.042256  0.703795  0.435760  1
  Al  Al21  1  0.957838  0.299319  0.937322  1
  Al  Al22  1  0.703855  0.041204  0.563331  1
  Al  Al23  1  0.200135  0.457342  0.185830  1
  Si  Si24  1  0.798377  0.544219  0.686651  1
  Si  Si25  1  0.456784  0.201359  0.812474  1
  Si  Si26  1  0.543925  0.796314  0.313797  1
  Si  Si27  1  0.295910  0.956781  0.062526  1
  Si  Si28  1  0.863225  0.793349  0.823773  1
  Si  Si29  1  0.136224  0.210522  0.323201  1
  Si  Si30  1  0.793046  0.861229  0.178273  1
  Si  Si31  1  0.292526  0.637913  0.571463  1
  Si  Si32  1  0.708074  0.364088  0.073006  1
  Si  Si33  1  0.637363  0.291455  0.429127  1
  Si  Si34  1  0.361930  0.704626  0.928680  1
  Si  Si35  1  0.207573  0.136136  0.677142  1
