# generated using pymatgen
data_Tm12Al2TcNi3
_symmetry_space_group_name_H-M   'P 1'
_cell_length_a   8.23254587
_cell_length_b   8.23229171
_cell_length_c   8.23254612
_cell_angle_alpha   112.83504415
_cell_angle_beta   110.20982663
_cell_angle_gamma   105.45500809
_symmetry_Int_Tables_number   1
_chemical_formula_structural   Tm12Al2TcNi3
_chemical_formula_sum   'Tm12 Al2 Tc1 Ni3'
_cell_volume   427.68647469
_cell_formula_units_Z   1
loop_
 _symmetry_equiv_pos_site_id
 _symmetry_equiv_pos_as_xyz
  1  'x, y, z'
loop_
 _atom_site_type_symbol
 _atom_site_label
 _atom_site_symmetry_multiplicity
 _atom_site_fract_x
 _atom_site_fract_y
 _atom_site_fract_z
 _atom_site_occupancy
  Tm  Tm0  1  0.444086  0.248369  0.195740  1
  Tm  Tm1  1  0.569788  0.766675  0.803102  1
  Tm  Tm2  1  0.036426  0.233325  0.803114  1
  Tm  Tm3  1  0.947372  0.751631  0.195717  1
  Tm  Tm4  1  0.187553  0.282487  0.470037  1
  Tm  Tm5  1  0.822506  0.719984  0.542497  1
  Tm  Tm6  1  0.187551  0.717513  0.905066  1
  Tm  Tm7  1  0.822512  0.280016  0.102522  1
  Tm  Tm8  1  0.323208  0.635198  0.306257  1
  Tm  Tm9  1  0.671058  0.364802  0.688009  1
  Tm  Tm10  1  0.323192  0.016957  0.688027  1
  Tm  Tm11  1  0.671070  0.983043  0.306235  1
  Al  Al12  1  0.494163  0.500000  0.994163  1
  Al  Al13  1  0.016629  0.000000  0.016629  1
  Tc  Tc14  1  0.323588  0.000000  0.323588  1
  Ni  Ni15  1  0.658137  0.000000  0.658137  1
  Ni  Ni16  1  0.118944  0.618366  0.500582  1
  Ni  Ni17  1  0.882215  0.381634  0.500578  1
