# generated using pymatgen
data_Dy10NiRhPb6
_symmetry_space_group_name_H-M   'P 1'
_cell_length_a   9.21219100
_cell_length_b   9.21219088
_cell_length_c   6.77631100
_cell_angle_alpha   90.00000000
_cell_angle_beta   90.00000000
_cell_angle_gamma   120.00000403
_symmetry_Int_Tables_number   1
_chemical_formula_structural   Dy10NiRhPb6
_chemical_formula_sum   'Dy10 Ni1 Rh1 Pb6'
_cell_volume   498.02346507
_cell_formula_units_Z   1
loop_
 _symmetry_equiv_pos_site_id
 _symmetry_equiv_pos_as_xyz
  1  'x, y, z'
loop_
 _atom_site_type_symbol
 _atom_site_label
 _atom_site_symmetry_multiplicity
 _atom_site_fract_x
 _atom_site_fract_y
 _atom_site_fract_z
 _atom_site_occupancy
  Dy  Dy0  1  0.237973  0.000000  0.249983  1
  Dy  Dy1  1  0.000000  0.762027  0.750017  1
  Dy  Dy2  1  0.000000  0.237973  0.249983  1
  Dy  Dy3  1  0.333333  0.666667  0.500000  1
  Dy  Dy4  1  0.762027  0.000000  0.750017  1
  Dy  Dy5  1  0.666667  0.333333  0.500000  1
  Dy  Dy6  1  0.237973  0.237973  0.750017  1
  Dy  Dy7  1  0.333333  0.666667  0.000000  1
  Dy  Dy8  1  0.666667  0.333333  0.000000  1
  Dy  Dy9  1  0.762027  0.762027  0.249983  1
  Ni  Ni10  1  0.000000  0.000000  0.500000  1
  Rh  Rh11  1  0.000000  0.000000  0.000000  1
  Pb  Pb12  1  0.599191  0.000000  0.250313  1
  Pb  Pb13  1  0.400809  0.000000  0.749687  1
  Pb  Pb14  1  0.000000  0.599191  0.250313  1
  Pb  Pb15  1  0.599191  0.599191  0.749687  1
  Pb  Pb16  1  0.400809  0.400809  0.250313  1
  Pb  Pb17  1  0.000000  0.400809  0.749687  1
