# generated using pymatgen
data_TbGd4PPb3
_symmetry_space_group_name_H-M   'P 1'
_cell_length_a   9.17261200
_cell_length_b   9.17008707
_cell_length_c   6.79312700
_cell_angle_alpha   90.00000000
_cell_angle_beta   90.00000000
_cell_angle_gamma   119.99090601
_symmetry_Int_Tables_number   1
_chemical_formula_structural   TbGd4PPb3
_chemical_formula_sum   'Tb2 Gd8 P2 Pb6'
_cell_volume   494.88767579
_cell_formula_units_Z   2
loop_
 _symmetry_equiv_pos_site_id
 _symmetry_equiv_pos_as_xyz
  1  'x, y, z'
loop_
 _atom_site_type_symbol
 _atom_site_label
 _atom_site_symmetry_multiplicity
 _atom_site_fract_x
 _atom_site_fract_y
 _atom_site_fract_z
 _atom_site_occupancy
  Tb  Tb0  1  0.761674  0.761566  0.750000  1
  Tb  Tb1  1  0.238326  0.999891  0.750000  1
  Gd  Gd2  1  0.000000  0.238312  0.750000  1
  Gd  Gd3  1  0.239141  0.239085  0.250000  1
  Gd  Gd4  1  0.760859  0.999944  0.250000  1
  Gd  Gd5  1  0.000000  0.761930  0.250000  1
  Gd  Gd6  1  0.666338  0.333012  0.000157  1
  Gd  Gd7  1  0.333662  0.666677  0.000157  1
  Gd  Gd8  1  0.333662  0.666677  0.499843  1
  Gd  Gd9  1  0.666338  0.333012  0.499843  1
  P  P10  1  0.000000  0.000191  0.999567  1
  P  P11  1  0.000000  0.000191  0.500433  1
  Pb  Pb12  1  0.400451  0.399954  0.750000  1
  Pb  Pb13  1  0.599549  0.999503  0.750000  1
  Pb  Pb14  1  0.000000  0.600262  0.750000  1
  Pb  Pb15  1  0.599772  0.599747  0.250000  1
  Pb  Pb16  1  0.400228  0.999975  0.250000  1
  Pb  Pb17  1  0.000000  0.400071  0.250000  1
