# generated using pymatgen
data_CeDy11Tc4
_symmetry_space_group_name_H-M   'P 1'
_cell_length_a   6.31329766
_cell_length_b   7.38865712
_cell_length_c   9.29064200
_cell_angle_alpha   90.00000000
_cell_angle_beta   90.00000000
_cell_angle_gamma   91.23314770
_symmetry_Int_Tables_number   1
_chemical_formula_structural   CeDy11Tc4
_chemical_formula_sum   'Ce1 Dy11 Tc4'
_cell_volume   433.27827212
_cell_formula_units_Z   1
loop_
 _symmetry_equiv_pos_site_id
 _symmetry_equiv_pos_as_xyz
  1  'x, y, z'
loop_
 _atom_site_type_symbol
 _atom_site_label
 _atom_site_symmetry_multiplicity
 _atom_site_fract_x
 _atom_site_fract_y
 _atom_site_fract_z
 _atom_site_occupancy
  Ce  Ce0  1  0.357382  0.561217  0.250000  1
  Dy  Dy1  1  0.662696  0.177473  0.061664  1
  Dy  Dy2  1  0.123454  0.041593  0.250000  1
  Dy  Dy3  1  0.835796  0.674558  0.439409  1
  Dy  Dy4  1  0.333411  0.824490  0.932941  1
  Dy  Dy5  1  0.167004  0.323579  0.565781  1
  Dy  Dy6  1  0.662696  0.177473  0.438336  1
  Dy  Dy7  1  0.167004  0.323579  0.934219  1
  Dy  Dy8  1  0.333411  0.824490  0.567059  1
  Dy  Dy9  1  0.872968  0.958314  0.750000  1
  Dy  Dy10  1  0.626600  0.459561  0.750000  1
  Dy  Dy11  1  0.835796  0.674558  0.060591  1
  Tc  Tc12  1  0.005248  0.392181  0.250000  1
  Tc  Tc13  1  0.465948  0.113875  0.750000  1
  Tc  Tc14  1  0.516899  0.860527  0.250000  1
  Tc  Tc15  1  0.033683  0.612532  0.750000  1
