# generated using pymatgen
data_Ho3Lu(Ni5Sn)4
_symmetry_space_group_name_H-M   'P 1'
_cell_length_a   4.83771700
_cell_length_b   4.83771654
_cell_length_c   19.51261400
_cell_angle_alpha   90.00000000
_cell_angle_beta   90.00000000
_cell_angle_gamma   120.00000997
_symmetry_Int_Tables_number   1
_chemical_formula_structural   Ho3Lu(Ni5Sn)4
_chemical_formula_sum   'Ho3 Lu1 Ni20 Sn4'
_cell_volume   395.48217915
_cell_formula_units_Z   1
loop_
 _symmetry_equiv_pos_site_id
 _symmetry_equiv_pos_as_xyz
  1  'x, y, z'
loop_
 _atom_site_type_symbol
 _atom_site_label
 _atom_site_symmetry_multiplicity
 _atom_site_fract_x
 _atom_site_fract_y
 _atom_site_fract_z
 _atom_site_occupancy
  Ho  Ho0  1  0.333333  0.666667  0.249667  1
  Ho  Ho1  1  0.666667  0.333333  0.750333  1
  Ho  Ho2  1  0.000000  0.000000  0.500000  1
  Lu  Lu3  1  0.000000  0.000000  0.000000  1
  Ni  Ni4  1  0.000000  0.000000  0.249372  1
  Ni  Ni5  1  0.000000  0.000000  0.750628  1
  Ni  Ni6  1  0.333333  0.666667  0.750274  1
  Ni  Ni7  1  0.666667  0.333333  0.249726  1
  Ni  Ni8  1  0.333333  0.666667  0.958379  1
  Ni  Ni9  1  0.666667  0.333333  0.041621  1
  Ni  Ni10  1  0.666667  0.333333  0.457647  1
  Ni  Ni11  1  0.333333  0.666667  0.542353  1
  Ni  Ni12  1  0.833652  0.166348  0.353387  1
  Ni  Ni13  1  0.833652  0.667303  0.353387  1
  Ni  Ni14  1  0.332697  0.166348  0.353387  1
  Ni  Ni15  1  0.166348  0.833652  0.646613  1
  Ni  Ni16  1  0.166348  0.332697  0.646613  1
  Ni  Ni17  1  0.667303  0.833652  0.646613  1
  Ni  Ni18  1  0.166275  0.833725  0.854291  1
  Ni  Ni19  1  0.166275  0.332551  0.854291  1
  Ni  Ni20  1  0.667449  0.833725  0.854291  1
  Ni  Ni21  1  0.833725  0.166275  0.145709  1
  Ni  Ni22  1  0.833725  0.667449  0.145709  1
  Ni  Ni23  1  0.332551  0.166275  0.145709  1
  Sn  Sn24  1  0.333333  0.666667  0.412633  1
  Sn  Sn25  1  0.666667  0.333333  0.587367  1
  Sn  Sn26  1  0.666667  0.333333  0.912986  1
  Sn  Sn27  1  0.333333  0.666667  0.087014  1
