# generated using pymatgen
data_Tb3DyAl24Pt8Au
_symmetry_space_group_name_H-M   'P 1'
_cell_length_a   7.56290312
_cell_length_b   7.58173818
_cell_length_c   13.18731806
_cell_angle_alpha   84.54678742
_cell_angle_beta   79.01361423
_cell_angle_gamma   59.89159664
_symmetry_Int_Tables_number   1
_chemical_formula_structural   Tb3DyAl24Pt8Au
_chemical_formula_sum   'Tb3 Dy1 Al24 Pt8 Au1'
_cell_volume   642.14857416
_cell_formula_units_Z   1
loop_
 _symmetry_equiv_pos_site_id
 _symmetry_equiv_pos_as_xyz
  1  'x, y, z'
loop_
 _atom_site_type_symbol
 _atom_site_label
 _atom_site_symmetry_multiplicity
 _atom_site_fract_x
 _atom_site_fract_y
 _atom_site_fract_z
 _atom_site_occupancy
  Tb  Tb0  1  0.392655  0.169226  0.808919  1
  Tb  Tb1  1  0.606091  0.831829  0.192146  1
  Tb  Tb2  1  0.734112  0.498923  0.808802  1
  Dy  Dy3  1  0.266734  0.501135  0.191677  1
  Al  Al4  1  0.683408  0.834130  0.945536  1
  Al  Al5  1  0.315359  0.166338  0.056067  1
  Al  Al6  1  0.146865  0.839023  0.559855  1
  Al  Al7  1  0.854276  0.167228  0.436481  1
  Al  Al8  1  0.488357  0.159627  0.557428  1
  Al  Al9  1  0.520030  0.833553  0.439806  1
  Al  Al10  1  0.217544  0.165415  0.329182  1
  Al  Al11  1  0.777827  0.838963  0.672691  1
  Al  Al12  1  0.440451  0.507085  0.672908  1
  Al  Al13  1  0.562784  0.493404  0.328872  1
  Al  Al14  1  0.108977  0.154452  0.671631  1
  Al  Al15  1  0.890459  0.839769  0.330227  1
  Al  Al16  1  0.352874  0.499309  0.945516  1
  Al  Al17  1  0.647219  0.500399  0.056059  1
  Al  Al18  1  0.015037  0.167437  0.954374  1
  Al  Al19  1  0.984466  0.832445  0.047287  1
  Al  Al20  1  0.188075  0.499611  0.436464  1
  Al  Al21  1  0.806929  0.499994  0.557364  1
  Al  Al22  1  0.734152  0.164141  0.183633  1
  Al  Al23  1  0.266500  0.835466  0.816610  1
  Al  Al24  1  0.060558  0.633741  0.817903  1
  Al  Al25  1  0.938687  0.368655  0.184968  1
  Al  Al26  1  0.854530  0.041886  0.816126  1
  Al  Al27  1  0.144351  0.958232  0.184008  1
  Pt  Pt28  1  0.879548  0.508143  0.361523  1
  Pt  Pt29  1  0.657419  0.171311  0.999574  1
  Pt  Pt30  1  0.342750  0.828512  0.999798  1
  Pt  Pt31  1  0.537576  0.166837  0.361603  1
  Pt  Pt32  1  0.462362  0.833284  0.637668  1
  Pt  Pt33  1  0.779604  0.174837  0.636403  1
  Pt  Pt34  1  0.220863  0.824913  0.362707  1
  Pt  Pt35  1  0.999978  0.499978  0.000281  1
  Au  Au36  1  0.120593  0.490773  0.637908  1
