# generated using pymatgen
data_Ba8ErLu2Sc(CoO5)4
_symmetry_space_group_name_H-M   'P 1'
_cell_length_a   6.06542208
_cell_length_b   7.88595636
_cell_length_c   12.34493729
_cell_angle_alpha   91.40656122
_cell_angle_beta   90.01463154
_cell_angle_gamma   90.01688241
_symmetry_Int_Tables_number   1
_chemical_formula_structural   Ba8ErLu2Sc(CoO5)4
_chemical_formula_sum   'Ba8 Er1 Lu2 Sc1 Co4 O20'
_cell_volume   590.30080076
_cell_formula_units_Z   1
loop_
 _symmetry_equiv_pos_site_id
 _symmetry_equiv_pos_as_xyz
  1  'x, y, z'
loop_
 _atom_site_type_symbol
 _atom_site_label
 _atom_site_symmetry_multiplicity
 _atom_site_fract_x
 _atom_site_fract_y
 _atom_site_fract_z
 _atom_site_occupancy
  Ba  Ba0  1  0.752145  0.494580  0.368927  1
  Ba  Ba1  1  0.745626  0.997325  0.861839  1
  Ba  Ba2  1  0.245632  0.500788  0.634466  1
  Ba  Ba3  1  0.254748  0.005723  0.135616  1
  Ba  Ba4  1  0.751129  0.995473  0.386371  1
  Ba  Ba5  1  0.747421  0.491630  0.879250  1
  Ba  Ba6  1  0.247476  0.008282  0.617234  1
  Ba  Ba7  1  0.252729  0.506475  0.117421  1
  Er  Er8  1  0.751434  0.760490  0.130245  1
  Lu  Lu9  1  0.251238  0.740448  0.370672  1
  Lu  Lu10  1  0.249576  0.240395  0.867611  1
  Sc  Sc11  1  0.748579  0.257199  0.632479  1
  Co  Co12  1  0.743457  0.746503  0.593811  1
  Co  Co13  1  0.755938  0.246604  0.091222  1
  Co  Co14  1  0.254404  0.253836  0.411516  1
  Co  Co15  1  0.243178  0.753550  0.905593  1
  O  O16  1  0.752941  0.974391  0.634942  1
  O  O17  1  0.746533  0.469831  0.136220  1
  O  O18  1  0.247275  0.029238  0.366400  1
  O  O19  1  0.254419  0.526682  0.862750  1
  O  O20  1  0.742070  0.051783  0.167221  1
  O  O21  1  0.757778  0.545433  0.663988  1
  O  O22  1  0.258424  0.953195  0.832880  1
  O  O23  1  0.242901  0.450664  0.336739  1
  O  O24  1  0.528657  0.747491  0.266474  1
  O  O25  1  0.974636  0.248387  0.756854  1
  O  O26  1  0.485791  0.252038  0.736355  1
  O  O27  1  0.035041  0.752377  0.235210  1
  O  O28  1  0.518702  0.233506  0.987717  1
  O  O29  1  0.978689  0.734636  0.489569  1
  O  O30  1  0.475418  0.766607  0.009629  1
  O  O31  1  0.010175  0.265040  0.512408  1
  O  O32  1  0.021851  0.234857  0.007121  1
  O  O33  1  0.476230  0.735567  0.512085  1
  O  O34  1  0.975956  0.764373  0.985212  1
  O  O35  1  0.521801  0.264603  0.495953  1
