# generated using pymatgen
data_V12Ga2Si3Tc6Ge
_symmetry_space_group_name_H-M   'P 1'
_cell_length_a   4.78216607
_cell_length_b   4.75214301
_cell_length_c   14.18825840
_cell_angle_alpha   89.97298285
_cell_angle_beta   89.91584364
_cell_angle_gamma   90.07732160
_symmetry_Int_Tables_number   1
_chemical_formula_structural   V12Ga2Si3Tc6Ge
_chemical_formula_sum   'V12 Ga2 Si3 Tc6 Ge1'
_cell_volume   322.43511434
_cell_formula_units_Z   1
loop_
 _symmetry_equiv_pos_site_id
 _symmetry_equiv_pos_as_xyz
  1  'x, y, z'
loop_
 _atom_site_type_symbol
 _atom_site_label
 _atom_site_symmetry_multiplicity
 _atom_site_fract_x
 _atom_site_fract_y
 _atom_site_fract_z
 _atom_site_occupancy
  V  V0  1  0.998573  0.498567  0.584397  1
  V  V1  1  0.500015  0.243901  0.999402  1
  V  V2  1  0.502652  0.249970  0.335699  1
  V  V3  1  0.999502  0.498504  0.745201  1
  V  V4  1  0.997884  0.500465  0.082011  1
  V  V5  1  0.999667  0.501329  0.422102  1
  V  V6  1  0.497756  0.749332  0.663957  1
  V  V7  1  0.500136  0.757570  0.999497  1
  V  V8  1  0.502346  0.751772  0.335566  1
  V  V9  1  0.250870  0.000162  0.832515  1
  V  V10  1  0.250323  0.999680  0.164785  1
  V  V11  1  0.250438  0.999261  0.502825  1
  Ga  Ga12  1  0.496357  0.502202  0.832253  1
  Ga  Ga13  1  0.494875  0.500064  0.165417  1
  Si  Si14  1  0.492475  0.501937  0.498180  1
  Si  Si15  1  0.002100  0.994258  0.667028  1
  Si  Si16  1  0.006178  0.000538  0.000383  1
  Tc  Tc17  1  0.999653  0.501156  0.917323  1
  Tc  Tc18  1  0.999703  0.500295  0.252235  1
  Tc  Tc19  1  0.497395  0.248899  0.664456  1
  Tc  Tc20  1  0.751526  0.999942  0.832700  1
  Tc  Tc21  1  0.750332  0.000400  0.164801  1
  Tc  Tc22  1  0.750651  0.999133  0.501722  1
  Ge  Ge23  1  0.008594  0.000664  0.335548  1
