# generated using pymatgen
data_Tb4Ga4IrPt3
_symmetry_space_group_name_H-M   'P 1'
_cell_length_a   4.44813300
_cell_length_b   6.91026718
_cell_length_c   7.71287078
_cell_angle_alpha   89.85971568
_cell_angle_beta   90.00000000
_cell_angle_gamma   90.00000000
_symmetry_Int_Tables_number   1
_chemical_formula_structural   Tb4Ga4IrPt3
_chemical_formula_sum   'Tb4 Ga4 Ir1 Pt3'
_cell_volume   237.07587223
_cell_formula_units_Z   1
loop_
 _symmetry_equiv_pos_site_id
 _symmetry_equiv_pos_as_xyz
  1  'x, y, z'
loop_
 _atom_site_type_symbol
 _atom_site_label
 _atom_site_symmetry_multiplicity
 _atom_site_fract_x
 _atom_site_fract_y
 _atom_site_fract_z
 _atom_site_occupancy
  Tb  Tb0  1  0.750000  0.519112  0.800588  1
  Tb  Tb1  1  0.250000  0.977413  0.307390  1
  Tb  Tb2  1  0.250000  0.481795  0.196040  1
  Tb  Tb3  1  0.750000  0.013798  0.695990  1
  Ga  Ga4  1  0.750000  0.672644  0.428031  1
  Ga  Ga5  1  0.250000  0.334920  0.573935  1
  Ga  Ga6  1  0.750000  0.171431  0.073383  1
  Ga  Ga7  1  0.250000  0.826924  0.923374  1
  Ir  Ir8  1  0.250000  0.724751  0.600396  1
  Pt  Pt9  1  0.250000  0.222023  0.900646  1
  Pt  Pt10  1  0.750000  0.778109  0.100216  1
  Pt  Pt11  1  0.750000  0.277082  0.400009  1
