# generated using pymatgen
data_Ho4Sn6Ir7
_symmetry_space_group_name_H-M   'P 1'
_cell_length_a   7.59059749
_cell_length_b   7.59059672
_cell_length_c   7.59059700
_cell_angle_alpha   109.47122139
_cell_angle_beta   109.47121933
_cell_angle_gamma   109.47122400
_symmetry_Int_Tables_number   1
_chemical_formula_structural   Ho4Sn6Ir7
_chemical_formula_sum   'Ho4 Sn6 Ir7'
_cell_volume   336.67115523
_cell_formula_units_Z   1
loop_
 _symmetry_equiv_pos_site_id
 _symmetry_equiv_pos_as_xyz
  1  'x, y, z'
loop_
 _atom_site_type_symbol
 _atom_site_label
 _atom_site_symmetry_multiplicity
 _atom_site_fract_x
 _atom_site_fract_y
 _atom_site_fract_z
 _atom_site_occupancy
  Ho  Ho0  1  0.000000  0.000000  0.500000  1
  Ho  Ho1  1  0.000000  0.500000  0.000000  1
  Ho  Ho2  1  0.500000  0.000000  0.000000  1
  Ho  Ho3  1  0.500000  0.500000  0.500000  1
  Sn  Sn4  1  0.686416  0.686416  0.000000  1
  Sn  Sn5  1  0.313584  0.000000  0.313584  1
  Sn  Sn6  1  0.000000  0.313584  0.313584  1
  Sn  Sn7  1  0.313584  0.313584  0.000000  1
  Sn  Sn8  1  0.686416  0.000000  0.686416  1
  Sn  Sn9  1  0.000000  0.686416  0.686416  1
  Ir  Ir10  1  0.750000  0.250000  0.500000  1
  Ir  Ir11  1  0.750000  0.500000  0.250000  1
  Ir  Ir12  1  0.500000  0.250000  0.750000  1
  Ir  Ir13  1  0.250000  0.500000  0.750000  1
  Ir  Ir14  1  0.250000  0.750000  0.500000  1
  Ir  Ir15  1  0.500000  0.750000  0.250000  1
  Ir  Ir16  1  0.000000  0.000000  0.000000  1
