# generated using pymatgen
data_Dy2Ho8Ga3NiBi2
_symmetry_space_group_name_H-M   'P 1'
_cell_length_a   8.54492705
_cell_length_b   8.54492757
_cell_length_c   8.72951822
_cell_angle_alpha   124.33250208
_cell_angle_beta   124.33249964
_cell_angle_gamma   81.23649684
_symmetry_Int_Tables_number   1
_chemical_formula_structural   Dy2Ho8Ga3NiBi2
_chemical_formula_sum   'Dy2 Ho8 Ga3 Ni1 Bi2'
_cell_volume   421.61187769
_cell_formula_units_Z   1
loop_
 _symmetry_equiv_pos_site_id
 _symmetry_equiv_pos_as_xyz
  1  'x, y, z'
loop_
 _atom_site_type_symbol
 _atom_site_label
 _atom_site_symmetry_multiplicity
 _atom_site_fract_x
 _atom_site_fract_y
 _atom_site_fract_z
 _atom_site_occupancy
  Dy  Dy0  1  0.704556  0.515563  0.500000  1
  Dy  Dy1  1  0.984437  0.795444  0.500000  1
  Ho  Ho2  1  0.995273  0.997620  0.992893  1
  Ho  Ho3  1  0.502380  0.504727  0.007107  1
  Ho  Ho4  1  0.779391  0.295860  0.794989  1
  Ho  Ho5  1  0.204140  0.720609  0.205011  1
  Ho  Ho6  1  0.484401  0.000869  0.205011  1
  Ho  Ho7  1  0.303257  0.459409  0.500000  1
  Ho  Ho8  1  0.040591  0.196743  0.500000  1
  Ho  Ho9  1  0.499131  0.015599  0.794989  1
  Ga  Ga10  1  0.147035  0.644396  0.791431  1
  Ga  Ga11  1  0.855604  0.352965  0.208569  1
  Ga  Ga12  1  0.633939  0.866061  0.500000  1
  Ni  Ni13  1  0.376997  0.123003  0.500000  1
  Bi  Bi14  1  0.244434  0.255566  0.000000  1
  Bi  Bi15  1  0.744434  0.755566  0.000000  1
