# generated using pymatgen
data_Er6MnAl24Os7
_symmetry_space_group_name_H-M   'P 1'
_cell_length_a   8.79869300
_cell_length_b   8.79869391
_cell_length_c   9.51191600
_cell_angle_alpha   90.00000000
_cell_angle_beta   90.00000000
_cell_angle_gamma   119.99999281
_symmetry_Int_Tables_number   1
_chemical_formula_structural   Er6MnAl24Os7
_chemical_formula_sum   'Er6 Mn1 Al24 Os7'
_cell_volume   637.72735180
_cell_formula_units_Z   1
loop_
 _symmetry_equiv_pos_site_id
 _symmetry_equiv_pos_as_xyz
  1  'x, y, z'
loop_
 _atom_site_type_symbol
 _atom_site_label
 _atom_site_symmetry_multiplicity
 _atom_site_fract_x
 _atom_site_fract_y
 _atom_site_fract_z
 _atom_site_occupancy
  Er  Er0  1  0.193332  0.386664  0.250393  1
  Er  Er1  1  0.806668  0.613336  0.749607  1
  Er  Er2  1  0.613336  0.806668  0.250393  1
  Er  Er3  1  0.386664  0.193332  0.749607  1
  Er  Er4  1  0.193332  0.806668  0.250393  1
  Er  Er5  1  0.806668  0.193332  0.749607  1
  Mn  Mn6  1  0.000000  0.000000  0.000000  1
  Al  Al7  1  0.333333  0.666667  0.013981  1
  Al  Al8  1  0.666667  0.333333  0.986019  1
  Al  Al9  1  0.666667  0.333333  0.515674  1
  Al  Al10  1  0.333333  0.666667  0.484326  1
  Al  Al11  1  0.162420  0.324840  0.576680  1
  Al  Al12  1  0.837580  0.675160  0.423320  1
  Al  Al13  1  0.675160  0.837580  0.576680  1
  Al  Al14  1  0.840392  0.680786  0.075940  1
  Al  Al15  1  0.324840  0.162420  0.423320  1
  Al  Al16  1  0.159608  0.319214  0.924060  1
  Al  Al17  1  0.162420  0.837580  0.576680  1
  Al  Al18  1  0.319214  0.159608  0.075940  1
  Al  Al19  1  0.837580  0.162420  0.423320  1
  Al  Al20  1  0.680786  0.840392  0.924060  1
  Al  Al21  1  0.840392  0.159608  0.075940  1
  Al  Al22  1  0.159608  0.840392  0.924060  1
  Al  Al23  1  0.560663  0.121327  0.249864  1
  Al  Al24  1  0.439337  0.878673  0.750136  1
  Al  Al25  1  0.878673  0.439337  0.249864  1
  Al  Al26  1  0.121327  0.560663  0.750136  1
  Al  Al27  1  0.560663  0.439337  0.249864  1
  Al  Al28  1  0.439337  0.560663  0.750136  1
  Al  Al29  1  0.000000  0.000000  0.243696  1
  Al  Al30  1  0.000000  0.000000  0.756304  1
  Os  Os31  1  0.500000  0.000000  0.000000  1
  Os  Os32  1  0.000000  0.500000  0.000000  1
  Os  Os33  1  0.500000  0.000000  0.500000  1
  Os  Os34  1  0.500000  0.500000  0.000000  1
  Os  Os35  1  0.000000  0.500000  0.500000  1
  Os  Os36  1  0.500000  0.500000  0.500000  1
  Os  Os37  1  0.000000  0.000000  0.500000  1
