# generated using pymatgen
data_PdPb(SeO3)2
_symmetry_space_group_name_H-M   'P 1'
_cell_length_a   4.85793883
_cell_length_b   4.85793861
_cell_length_c   15.62691948
_cell_angle_alpha   87.51021251
_cell_angle_beta   87.51021425
_cell_angle_gamma   66.07091088
_symmetry_Int_Tables_number   1
_chemical_formula_structural   PdPb(SeO3)2
_chemical_formula_sum   'Pd2 Pb2 Se4 O12'
_cell_volume   336.63762114
_cell_formula_units_Z   2
loop_
 _symmetry_equiv_pos_site_id
 _symmetry_equiv_pos_as_xyz
  1  'x, y, z'
loop_
 _atom_site_type_symbol
 _atom_site_label
 _atom_site_symmetry_multiplicity
 _atom_site_fract_x
 _atom_site_fract_y
 _atom_site_fract_z
 _atom_site_occupancy
  Pd  Pd0  1  0.500000  0.500000  0.500000  1
  Pd  Pd1  1  0.500000  0.500000  0.000000  1
  Pb  Pb2  1  0.451313  0.548687  0.750000  1
  Pb  Pb3  1  0.548687  0.451313  0.250000  1
  Se  Se4  1  0.872929  0.860769  0.596626  1
  Se  Se5  1  0.139231  0.127071  0.903374  1
  Se  Se6  1  0.127071  0.139231  0.403374  1
  Se  Se7  1  0.860769  0.872929  0.096626  1
  O  O8  1  0.879268  0.747418  0.701469  1
  O  O9  1  0.252582  0.120732  0.798531  1
  O  O10  1  0.120732  0.252582  0.298531  1
  O  O11  1  0.747418  0.879268  0.201469  1
  O  O12  1  0.248686  0.832050  0.582267  1
  O  O13  1  0.167950  0.751314  0.917733  1
  O  O14  1  0.751314  0.167950  0.417733  1
  O  O15  1  0.832050  0.248686  0.082267  1
  O  O16  1  0.686489  0.254407  0.607646  1
  O  O17  1  0.745593  0.313511  0.892354  1
  O  O18  1  0.313511  0.745593  0.392354  1
  O  O19  1  0.254407  0.686489  0.107646  1
