# generated using pymatgen
data_Ho8Ta9Ti2Si16Ir
_symmetry_space_group_name_H-M   'P 1'
_cell_length_a   7.01901116
_cell_length_b   7.01380840
_cell_length_c   12.90467437
_cell_angle_alpha   90.19624952
_cell_angle_beta   89.82792097
_cell_angle_gamma   89.66479531
_symmetry_Int_Tables_number   1
_chemical_formula_structural   Ho8Ta9Ti2Si16Ir
_chemical_formula_sum   'Ho8 Ta9 Ti2 Si16 Ir1'
_cell_volume   635.27960948
_cell_formula_units_Z   1
loop_
 _symmetry_equiv_pos_site_id
 _symmetry_equiv_pos_as_xyz
  1  'x, y, z'
loop_
 _atom_site_type_symbol
 _atom_site_label
 _atom_site_symmetry_multiplicity
 _atom_site_fract_x
 _atom_site_fract_y
 _atom_site_fract_z
 _atom_site_occupancy
  Ho  Ho0  1  0.341642  0.002757  0.468237  1
  Ho  Ho1  1  0.496296  0.842286  0.719676  1
  Ho  Ho2  1  0.501295  0.157721  0.216652  1
  Ho  Ho3  1  0.841962  0.496225  0.280797  1
  Ho  Ho4  1  0.158427  0.501647  0.783820  1
  Ho  Ho5  1  0.657142  0.998015  0.968952  1
  Ho  Ho6  1  0.003761  0.340857  0.531477  1
  Ho  Ho7  1  0.997750  0.659802  0.031168  1
  Ta  Ta8  1  0.174401  0.827400  0.247571  1
  Ta  Ta9  1  0.827885  0.175391  0.752528  1
  Ta  Ta10  1  0.670333  0.670025  0.499322  1
  Ta  Ta11  1  0.147745  0.001973  0.874617  1
  Ta  Ta12  1  0.495666  0.656924  0.123695  1
  Ta  Ta13  1  0.503814  0.348489  0.625751  1
  Ta  Ta14  1  0.658020  0.494950  0.876554  1
  Ta  Ta15  1  0.348478  0.505816  0.374770  1
  Ta  Ta16  1  0.849158  0.992147  0.375052  1
  Ti  Ti17  1  0.003616  0.147857  0.125201  1
  Ti  Ti18  1  0.992155  0.848411  0.625447  1
  Si  Si19  1  0.202386  0.133464  0.683121  1
  Si  Si20  1  0.368880  0.703382  0.932436  1
  Si  Si21  1  0.634907  0.294514  0.431989  1
  Si  Si22  1  0.704506  0.366900  0.068022  1
  Si  Si23  1  0.295341  0.636630  0.568286  1
  Si  Si24  1  0.797001  0.868252  0.182047  1
  Si  Si25  1  0.135346  0.202287  0.315506  1
  Si  Si26  1  0.864928  0.796880  0.816803  1
  Si  Si27  1  0.288874  0.955255  0.061996  1
  Si  Si28  1  0.545670  0.794894  0.313358  1
  Si  Si29  1  0.448902  0.208786  0.817537  1
  Si  Si30  1  0.796128  0.546626  0.685472  1
  Si  Si31  1  0.207543  0.448016  0.181526  1
  Si  Si32  1  0.707040  0.045695  0.565588  1
  Si  Si33  1  0.956131  0.290868  0.939777  1
  Si  Si34  1  0.046323  0.705327  0.435862  1
  Ir  Ir35  1  0.330546  0.333530  0.999393  1
