# generated using pymatgen
data_Dy2U(AlIr)3
_symmetry_space_group_name_H-M   'P 1'
_cell_length_a   7.04850376
_cell_length_b   7.22640498
_cell_length_c   3.95922500
_cell_angle_alpha   90.00000000
_cell_angle_beta   90.00000000
_cell_angle_gamma   120.83849448
_symmetry_Int_Tables_number   1
_chemical_formula_structural   Dy2U(AlIr)3
_chemical_formula_sum   'Dy2 U1 Al3 Ir3'
_cell_volume   173.15228739
_cell_formula_units_Z   1
loop_
 _symmetry_equiv_pos_site_id
 _symmetry_equiv_pos_as_xyz
  1  'x, y, z'
loop_
 _atom_site_type_symbol
 _atom_site_label
 _atom_site_symmetry_multiplicity
 _atom_site_fract_x
 _atom_site_fract_y
 _atom_site_fract_z
 _atom_site_occupancy
  Dy  Dy0  1  0.413092  0.415987  0.500000  1
  Dy  Dy1  1  0.586908  0.002895  0.500000  1
  U  U2  1  0.000000  0.579644  0.500000  1
  Al  Al3  1  0.751885  0.757394  0.000000  1
  Al  Al4  1  0.248115  0.005509  0.000000  1
  Al  Al5  1  0.000000  0.228186  0.000000  1
  Ir  Ir6  1  0.700312  0.362964  0.000000  1
  Ir  Ir7  1  0.299688  0.662653  0.000000  1
  Ir  Ir8  1  0.000000  0.984768  0.500000  1
