# generated using pymatgen
data_Tb7Yb(B6Os)4
_symmetry_space_group_name_H-M   'P 1'
_cell_length_a   3.67144000
_cell_length_b   9.17715646
_cell_length_c   11.55144159
_cell_angle_alpha   90.03651321
_cell_angle_beta   90.00000000
_cell_angle_gamma   90.00000000
_symmetry_Int_Tables_number   1
_chemical_formula_structural   Tb7Yb(B6Os)4
_chemical_formula_sum   'Tb7 Yb1 B24 Os4'
_cell_volume   389.20702421
_cell_formula_units_Z   1
loop_
 _symmetry_equiv_pos_site_id
 _symmetry_equiv_pos_as_xyz
  1  'x, y, z'
loop_
 _atom_site_type_symbol
 _atom_site_label
 _atom_site_symmetry_multiplicity
 _atom_site_fract_x
 _atom_site_fract_y
 _atom_site_fract_z
 _atom_site_occupancy
  Tb  Tb0  1  0.000000  0.323402  0.415424  1
  Tb  Tb1  1  0.000000  0.676213  0.588129  1
  Tb  Tb2  1  0.000000  0.822026  0.083925  1
  Tb  Tb3  1  0.000000  0.178020  0.912804  1
  Tb  Tb4  1  0.000000  0.943646  0.372549  1
  Tb  Tb5  1  0.000000  0.056153  0.628108  1
  Tb  Tb6  1  0.000000  0.444371  0.125945  1
  Yb  Yb7  1  0.000000  0.556380  0.871719  1
  B  B8  1  0.500000  0.553817  0.432714  1
  B  B9  1  0.500000  0.446283  0.568455  1
  B  B10  1  0.500000  0.054211  0.067044  1
  B  B11  1  0.500000  0.945185  0.932169  1
  B  B12  1  0.500000  0.747331  0.419537  1
  B  B13  1  0.500000  0.252888  0.581119  1
  B  B14  1  0.500000  0.248312  0.079902  1
  B  B15  1  0.500000  0.750643  0.918785  1
  B  B16  1  0.500000  0.790400  0.266541  1
  B  B17  1  0.500000  0.210474  0.733405  1
  B  B18  1  0.500000  0.291146  0.232784  1
  B  B19  1  0.500000  0.707906  0.767648  1
  B  B20  1  0.500000  0.632249  0.184987  1
  B  B21  1  0.500000  0.369736  0.814522  1
  B  B22  1  0.500000  0.132567  0.314007  1
  B  B23  1  0.500000  0.867093  0.686867  1
  B  B24  1  0.500000  0.984438  0.212518  1
  B  B25  1  0.500000  0.015382  0.787723  1
  B  B26  1  0.500000  0.484255  0.286920  1
  B  B27  1  0.500000  0.516265  0.714017  1
  B  B28  1  0.500000  0.607149  0.028958  1
  B  B29  1  0.500000  0.393468  0.969671  1
  B  B30  1  0.500000  0.110249  0.469649  1
  B  B31  1  0.500000  0.889400  0.530724  1
  Os  Os32  1  0.000000  0.637259  0.321899  1
  Os  Os33  1  0.000000  0.362459  0.678793  1
  Os  Os34  1  0.000000  0.137842  0.178617  1
  Os  Os35  1  0.000000  0.861382  0.821424  1
