# generated using pymatgen
data_Ce3ThRe5Tc3
_symmetry_space_group_name_H-M   'P 1'
_cell_length_a   5.28773800
_cell_length_b   5.23067120
_cell_length_c   9.60688254
_cell_angle_alpha   89.99999867
_cell_angle_beta   90.03133840
_cell_angle_gamma   119.64363767
_symmetry_Int_Tables_number   1
_chemical_formula_structural   Ce3ThRe5Tc3
_chemical_formula_sum   'Ce3 Th1 Re5 Tc3'
_cell_volume   230.93445253
_cell_formula_units_Z   1
loop_
 _symmetry_equiv_pos_site_id
 _symmetry_equiv_pos_as_xyz
  1  'x, y, z'
loop_
 _atom_site_type_symbol
 _atom_site_label
 _atom_site_symmetry_multiplicity
 _atom_site_fract_x
 _atom_site_fract_y
 _atom_site_fract_z
 _atom_site_occupancy
  Ce  Ce0  1  0.334138  0.667070  0.442818  1
  Ce  Ce1  1  0.666514  0.333256  0.559580  1
  Ce  Ce2  1  0.666378  0.333188  0.936955  1
  Th  Th3  1  0.334942  0.667472  0.059406  1
  Re  Re4  1  0.835278  0.170450  0.251540  1
  Re  Re5  1  0.835278  0.664828  0.251540  1
  Re  Re6  1  0.343545  0.171773  0.251673  1
  Re  Re7  1  0.160742  0.827990  0.748841  1
  Re  Re8  1  0.160742  0.332752  0.748841  1
  Tc  Tc9  1  0.006164  0.003082  0.501064  1
  Tc  Tc10  1  0.004108  0.002053  0.998793  1
  Tc  Tc11  1  0.652172  0.826086  0.748949  1
