# generated using pymatgen
data_Y9Ho3InCo4Rh
_symmetry_space_group_name_H-M   'P 1'
_cell_length_a   8.33439754
_cell_length_b   8.33636716
_cell_length_c   8.33636709
_cell_angle_alpha   110.75013110
_cell_angle_beta   110.68091616
_cell_angle_gamma   107.01944237
_symmetry_Int_Tables_number   1
_chemical_formula_structural   Y9Ho3InCo4Rh
_chemical_formula_sum   'Y9 Ho3 In1 Co4 Rh1'
_cell_volume   445.20588242
_cell_formula_units_Z   1
loop_
 _symmetry_equiv_pos_site_id
 _symmetry_equiv_pos_as_xyz
  1  'x, y, z'
loop_
 _atom_site_type_symbol
 _atom_site_label
 _atom_site_symmetry_multiplicity
 _atom_site_fract_x
 _atom_site_fract_y
 _atom_site_fract_z
 _atom_site_occupancy
  Y  Y0  1  0.983282  0.788627  0.194656  1
  Y  Y1  1  0.187621  0.293223  0.480438  1
  Y  Y2  1  0.812513  0.707213  0.520232  1
  Y  Y3  1  0.187621  0.707182  0.894399  1
  Y  Y4  1  0.812513  0.292281  0.105299  1
  Y  Y5  1  0.314024  0.617626  0.304145  1
  Y  Y6  1  0.685963  0.381894  0.695508  1
  Y  Y7  1  0.314024  0.009879  0.696397  1
  Y  Y8  1  0.685963  0.990455  0.304071  1
  Ho  Ho9  1  0.404778  0.210150  0.194628  1
  Ho  Ho10  1  0.594955  0.789888  0.805067  1
  Ho  Ho11  1  0.015485  0.210219  0.805265  1
  In  In12  1  0.499963  0.500002  0.999961  1
  Co  Co13  1  0.381953  0.000631  0.381322  1
  Co  Co14  1  0.619401  0.999925  0.619476  1
  Co  Co15  1  0.111131  0.611053  0.500078  1
  Co  Co16  1  0.888856  0.388871  0.499985  1
  Rh  Rh17  1  0.999954  0.000884  0.999070  1
