# generated using pymatgen
data_Li4Nd4Sn3Sb
_symmetry_space_group_name_H-M   'P 1'
_cell_length_a   9.54030134
_cell_length_b   9.54256104
_cell_length_c   7.60071150
_cell_angle_alpha   90.00000196
_cell_angle_beta   90.09493523
_cell_angle_gamma   120.00784144
_symmetry_Int_Tables_number   1
_chemical_formula_structural   Li4Nd4Sn3Sb
_chemical_formula_sum   'Li8 Nd8 Sn6 Sb2'
_cell_volume   599.20689610
_cell_formula_units_Z   2
loop_
 _symmetry_equiv_pos_site_id
 _symmetry_equiv_pos_as_xyz
  1  'x, y, z'
loop_
 _atom_site_type_symbol
 _atom_site_label
 _atom_site_symmetry_multiplicity
 _atom_site_fract_x
 _atom_site_fract_y
 _atom_site_fract_z
 _atom_site_occupancy
  Li  Li0  1  0.167250  0.334100  0.284652  1
  Li  Li1  1  0.167250  0.833150  0.284652  1
  Li  Li2  1  0.666282  0.833141  0.286268  1
  Li  Li3  1  0.832981  0.666204  0.786147  1
  Li  Li4  1  0.832981  0.166777  0.786147  1
  Li  Li5  1  0.333154  0.166577  0.787224  1
  Li  Li6  1  0.332769  0.666385  0.669549  1
  Li  Li7  1  0.667291  0.333645  0.171568  1
  Nd  Nd8  1  0.513786  0.023737  0.493106  1
  Nd  Nd9  1  0.513786  0.490049  0.493106  1
  Nd  Nd10  1  0.974521  0.487261  0.491765  1
  Nd  Nd11  1  0.490224  0.978426  0.995730  1
  Nd  Nd12  1  0.490224  0.511797  0.995730  1
  Nd  Nd13  1  0.021515  0.510757  0.996581  1
  Nd  Nd14  1  0.998810  0.999405  0.496913  1
  Nd  Nd15  1  0.997567  0.998783  0.001796  1
  Sn  Sn16  1  0.666479  0.833240  0.730787  1
  Sn  Sn17  1  0.833487  0.666587  0.231736  1
  Sn  Sn18  1  0.833487  0.166899  0.231736  1
  Sn  Sn19  1  0.333585  0.166792  0.230916  1
  Sn  Sn20  1  0.332851  0.666426  0.264684  1
  Sn  Sn21  1  0.666946  0.333473  0.765178  1
  Sb  Sb22  1  0.166388  0.333473  0.733002  1
  Sb  Sb23  1  0.166388  0.832916  0.733002  1
