# generated using pymatgen
data_Tm11Pa(TcOs)2
_symmetry_space_group_name_H-M   'P 1'
_cell_length_a   6.21674300
_cell_length_b   7.35770559
_cell_length_c   8.93952600
_cell_angle_alpha   90.00000000
_cell_angle_beta   90.00000000
_cell_angle_gamma   90.03764323
_symmetry_Int_Tables_number   1
_chemical_formula_structural   Tm11Pa(TcOs)2
_chemical_formula_sum   'Tm11 Pa1 Tc2 Os2'
_cell_volume   408.90245504
_cell_formula_units_Z   1
loop_
 _symmetry_equiv_pos_site_id
 _symmetry_equiv_pos_as_xyz
  1  'x, y, z'
loop_
 _atom_site_type_symbol
 _atom_site_label
 _atom_site_symmetry_multiplicity
 _atom_site_fract_x
 _atom_site_fract_y
 _atom_site_fract_z
 _atom_site_occupancy
  Tm  Tm0  1  0.340084  0.678320  0.059879  1
  Tm  Tm1  1  0.163588  0.173705  0.441253  1
  Tm  Tm2  1  0.668716  0.326062  0.566222  1
  Tm  Tm3  1  0.831229  0.823740  0.934246  1
  Tm  Tm4  1  0.668716  0.326062  0.933778  1
  Tm  Tm5  1  0.831229  0.823740  0.565754  1
  Tm  Tm6  1  0.340084  0.678320  0.440121  1
  Tm  Tm7  1  0.163588  0.173705  0.058747  1
  Tm  Tm8  1  0.879677  0.534263  0.250000  1
  Tm  Tm9  1  0.128994  0.463135  0.750000  1
  Tm  Tm10  1  0.371101  0.960957  0.750000  1
  Pa  Pa11  1  0.645986  0.057449  0.250000  1
  Tc  Tc12  1  0.987221  0.889668  0.250000  1
  Tc  Tc13  1  0.480631  0.354338  0.250000  1
  Os  Os14  1  0.964216  0.118736  0.750000  1
  Os  Os15  1  0.534940  0.617800  0.750000  1
