# generated using pymatgen
data_TmScTa4(B2Ru5)2
_symmetry_space_group_name_H-M   'P 1'
_cell_length_a   9.48812682
_cell_length_b   9.48812815
_cell_length_c   3.08095300
_cell_angle_alpha   90.00000000
_cell_angle_beta   90.00000000
_cell_angle_gamma   90.23104193
_symmetry_Int_Tables_number   1
_chemical_formula_structural   TmScTa4(B2Ru5)2
_chemical_formula_sum   'Tm1 Sc1 Ta4 B4 Ru10'
_cell_volume   277.35919295
_cell_formula_units_Z   1
loop_
 _symmetry_equiv_pos_site_id
 _symmetry_equiv_pos_as_xyz
  1  'x, y, z'
loop_
 _atom_site_type_symbol
 _atom_site_label
 _atom_site_symmetry_multiplicity
 _atom_site_fract_x
 _atom_site_fract_y
 _atom_site_fract_z
 _atom_site_occupancy
  Tm  Tm0  1  0.174797  0.325203  0.000000  1
  Sc  Sc1  1  0.823672  0.676328  0.000000  1
  Ta  Ta2  1  0.323464  0.823358  0.000000  1
  Ta  Ta3  1  0.676642  0.176536  0.000000  1
  Ta  Ta4  1  0.501363  0.500577  0.000000  1
  Ta  Ta5  1  0.999423  0.998637  0.000000  1
  B  B6  1  0.623251  0.876749  0.000000  1
  B  B7  1  0.379396  0.120604  0.000000  1
  B  B8  1  0.119178  0.621029  0.000000  1
  B  B9  1  0.878971  0.380822  0.000000  1
  Ru  Ru10  1  0.564107  0.720726  0.500000  1
  Ru  Ru11  1  0.439853  0.277504  0.500000  1
  Ru  Ru12  1  0.078036  0.784797  0.500000  1
  Ru  Ru13  1  0.919276  0.215139  0.500000  1
  Ru  Ru14  1  0.284861  0.580724  0.500000  1
  Ru  Ru15  1  0.715203  0.421964  0.500000  1
  Ru  Ru16  1  0.222496  0.060147  0.500000  1
  Ru  Ru17  1  0.779274  0.935893  0.500000  1
  Ru  Ru18  1  0.501074  0.998926  0.500000  1
  Ru  Ru19  1  0.995662  0.504338  0.500000  1
