# generated using pymatgen
data_DyTl2Bi3(SbO7)2
_symmetry_space_group_name_H-M   'P 1'
_cell_length_a   6.61869089
_cell_length_b   6.53882450
_cell_length_c   7.73436501
_cell_angle_alpha   107.33651016
_cell_angle_beta   89.51948507
_cell_angle_gamma   98.52584771
_symmetry_Int_Tables_number   1
_chemical_formula_structural   DyTl2Bi3(SbO7)2
_chemical_formula_sum   'Dy1 Tl2 Bi3 Sb2 O14'
_cell_volume   315.76668197
_cell_formula_units_Z   1
loop_
 _symmetry_equiv_pos_site_id
 _symmetry_equiv_pos_as_xyz
  1  'x, y, z'
loop_
 _atom_site_type_symbol
 _atom_site_label
 _atom_site_symmetry_multiplicity
 _atom_site_fract_x
 _atom_site_fract_y
 _atom_site_fract_z
 _atom_site_occupancy
  Dy  Dy0  1  0.254469  0.537264  0.884676  1
  Tl  Tl1  1  0.533693  0.998483  0.750356  1
  Tl  Tl2  1  0.466554  0.000019  0.252007  1
  Bi  Bi3  1  0.746725  0.470777  0.113446  1
  Bi  Bi4  1  0.736057  0.469787  0.614457  1
  Bi  Bi5  1  0.255749  0.526736  0.386551  1
  Sb  Sb6  1  0.002436  0.005146  0.502013  1
  Sb  Sb7  1  0.003302  0.001229  0.999368  1
  O  O8  1  0.440028  0.649564  0.166509  1
  O  O9  1  0.545148  0.348036  0.824346  1
  O  O10  1  0.286207  0.925136  0.954812  1
  O  O11  1  0.714760  0.057154  0.043069  1
  O  O12  1  0.282962  0.920071  0.505304  1
  O  O13  1  0.718954  0.082541  0.496182  1
  O  O14  1  0.532311  0.349296  0.348087  1
  O  O15  1  0.457979  0.648288  0.660794  1
  O  O16  1  0.933823  0.675922  0.953618  1
  O  O17  1  0.082881  0.320457  0.038319  1
  O  O18  1  0.097288  0.322133  0.623467  1
  O  O19  1  0.906153  0.686081  0.381625  1
  O  O20  1  0.917681  0.934840  0.733510  1
  O  O21  1  0.084839  0.071042  0.267483  1
