# generated using pymatgen
data_Cs2ReP2
_symmetry_space_group_name_H-M   'P 1'
_cell_length_a   8.77479826
_cell_length_b   8.77479834
_cell_length_c   8.77479765
_cell_angle_alpha   139.41295216
_cell_angle_beta   124.80727870
_cell_angle_gamma   70.71688106
_symmetry_Int_Tables_number   1
_chemical_formula_structural   Cs2ReP2
_chemical_formula_sum   'Cs4 Re2 P4'
_cell_volume   354.11376295
_cell_formula_units_Z   2
loop_
 _symmetry_equiv_pos_site_id
 _symmetry_equiv_pos_as_xyz
  1  'x, y, z'
loop_
 _atom_site_type_symbol
 _atom_site_label
 _atom_site_symmetry_multiplicity
 _atom_site_fract_x
 _atom_site_fract_y
 _atom_site_fract_z
 _atom_site_occupancy
  Cs  Cs0  1  0.985012  0.150772  0.834238  1
  Cs  Cs1  1  0.014988  0.849228  0.165762  1
  Cs  Cs2  1  0.683466  0.349228  0.334238  1
  Cs  Cs3  1  0.316534  0.650772  0.665762  1
  Re  Re4  1  0.500000  0.750000  0.250000  1
  Re  Re5  1  0.500000  0.250000  0.750000  1
  P  P6  1  0.739046  0.586594  0.152452  1
  P  P7  1  0.565858  0.913406  0.652452  1
  P  P8  1  0.434142  0.086594  0.347548  1
  P  P9  1  0.260954  0.413406  0.847548  1
