# generated using pymatgen
data_Y7Tm9Cd4(NiOs)2
_symmetry_space_group_name_H-M   'P 1'
_cell_length_a   9.52973906
_cell_length_b   9.52973948
_cell_length_c   9.63920600
_cell_angle_alpha   59.61927862
_cell_angle_beta   59.61927713
_cell_angle_gamma   59.57914628
_symmetry_Int_Tables_number   1
_chemical_formula_structural   Y7Tm9Cd4(NiOs)2
_chemical_formula_sum   'Y7 Tm9 Cd4 Ni2 Os2'
_cell_volume   613.45203849
_cell_formula_units_Z   1
loop_
 _symmetry_equiv_pos_site_id
 _symmetry_equiv_pos_as_xyz
  1  'x, y, z'
loop_
 _atom_site_type_symbol
 _atom_site_label
 _atom_site_symmetry_multiplicity
 _atom_site_fract_x
 _atom_site_fract_y
 _atom_site_fract_z
 _atom_site_occupancy
  Y  Y0  1  0.060527  0.060527  0.439473  1
  Y  Y1  1  0.190844  0.803941  0.815878  1
  Y  Y2  1  0.803941  0.190844  0.189337  1
  Y  Y3  1  0.803941  0.190844  0.815878  1
  Y  Y4  1  0.190844  0.803941  0.189337  1
  Y  Y5  1  0.813406  0.813406  0.186594  1
  Y  Y6  1  0.192822  0.192822  0.807178  1
  Tm  Tm7  1  0.599904  0.599904  0.591970  1
  Tm  Tm8  1  0.599904  0.599904  0.208221  1
  Tm  Tm9  1  0.600393  0.208706  0.595450  1
  Tm  Tm10  1  0.208706  0.600393  0.595450  1
  Tm  Tm11  1  0.062158  0.435753  0.439125  1
  Tm  Tm12  1  0.435753  0.062158  0.062964  1
  Tm  Tm13  1  0.435753  0.062158  0.439125  1
  Tm  Tm14  1  0.062158  0.435753  0.062964  1
  Tm  Tm15  1  0.436786  0.436786  0.063214  1
  Cd  Cd16  1  0.828662  0.828662  0.832485  1
  Cd  Cd17  1  0.828662  0.828662  0.510190  1
  Cd  Cd18  1  0.829596  0.507428  0.831487  1
  Cd  Cd19  1  0.507428  0.829596  0.831487  1
  Ni  Ni20  1  0.395424  0.825300  0.389639  1
  Ni  Ni21  1  0.825300  0.395424  0.389639  1
  Os  Os22  1  0.393545  0.393545  0.388823  1
  Os  Os23  1  0.393545  0.393545  0.824090  1
