# generated using pymatgen
data_TbDy3Zr4F28
_symmetry_space_group_name_H-M   'P 1'
_cell_length_a   5.75768223
_cell_length_b   9.11455011
_cell_length_c   12.25509925
_cell_angle_alpha   62.37202929
_cell_angle_beta   89.99765223
_cell_angle_gamma   90.01162029
_symmetry_Int_Tables_number   1
_chemical_formula_structural   TbDy3Zr4F28
_chemical_formula_sum   'Tb1 Dy3 Zr4 F28'
_cell_volume   569.79986710
_cell_formula_units_Z   1
loop_
 _symmetry_equiv_pos_site_id
 _symmetry_equiv_pos_as_xyz
  1  'x, y, z'
loop_
 _atom_site_type_symbol
 _atom_site_label
 _atom_site_symmetry_multiplicity
 _atom_site_fract_x
 _atom_site_fract_y
 _atom_site_fract_z
 _atom_site_occupancy
  Tb  Tb0  1  0.756630  0.815750  0.766148  1
  Dy  Dy1  1  0.743399  0.816046  0.266187  1
  Dy  Dy2  1  0.243470  0.184689  0.233810  1
  Dy  Dy3  1  0.257071  0.184977  0.733768  1
  Zr  Zr4  1  0.744354  0.275007  0.454523  1
  Zr  Zr5  1  0.244371  0.725729  0.045934  1
  Zr  Zr6  1  0.254986  0.725855  0.544038  1
  Zr  Zr7  1  0.755311  0.273350  0.955480  1
  F  F8  1  0.466278  0.711290  0.921910  1
  F  F9  1  0.967064  0.288839  0.578512  1
  F  F10  1  0.532544  0.287879  0.079156  1
  F  F11  1  0.033177  0.711078  0.420243  1
  F  F12  1  0.453687  0.281389  0.549529  1
  F  F13  1  0.953383  0.718514  0.951613  1
  F  F14  1  0.546256  0.718900  0.449785  1
  F  F15  1  0.045861  0.280175  0.050351  1
  F  F16  1  0.767879  0.524838  0.858380  1
  F  F17  1  0.267437  0.474139  0.641190  1
  F  F18  1  0.233595  0.474059  0.142897  1
  F  F19  1  0.732792  0.526397  0.357276  1
  F  F20  1  0.759806  0.022439  0.058506  1
  F  F21  1  0.259758  0.976823  0.440961  1
  F  F22  1  0.239893  0.976528  0.941886  1
  F  F23  1  0.739711  0.023966  0.557684  1
  F  F24  1  0.983346  0.733430  0.648279  1
  F  F25  1  0.484074  0.266061  0.850751  1
  F  F26  1  0.014274  0.266090  0.349756  1
  F  F27  1  0.514739  0.734010  0.150652  1
  F  F28  1  0.033874  0.746364  0.173694  1
  F  F29  1  0.532500  0.254080  0.327150  1
  F  F30  1  0.967142  0.252676  0.827947  1
  F  F31  1  0.465632  0.745832  0.672068  1
  F  F32  1  0.429213  0.973591  0.235151  1
  F  F33  1  0.929451  0.026998  0.264919  1
  F  F34  1  0.572960  0.028974  0.765342  1
  F  F35  1  0.074083  0.973240  0.734521  1
