# generated using pymatgen
data_Th3CoSn2Rh2Pb
_symmetry_space_group_name_H-M   'P 1'
_cell_length_a   7.57951337
_cell_length_b   7.57951333
_cell_length_c   4.07915100
_cell_angle_alpha   90.00000000
_cell_angle_beta   90.00000000
_cell_angle_gamma   119.60352638
_symmetry_Int_Tables_number   1
_chemical_formula_structural   Th3CoSn2Rh2Pb
_chemical_formula_sum   'Th3 Co1 Sn2 Rh2 Pb1'
_cell_volume   203.75313273
_cell_formula_units_Z   1
loop_
 _symmetry_equiv_pos_site_id
 _symmetry_equiv_pos_as_xyz
  1  'x, y, z'
loop_
 _atom_site_type_symbol
 _atom_site_label
 _atom_site_symmetry_multiplicity
 _atom_site_fract_x
 _atom_site_fract_y
 _atom_site_fract_z
 _atom_site_occupancy
  Th  Th0  1  0.405217  0.405217  0.500000  1
  Th  Th1  1  0.592177  0.006386  0.500000  1
  Th  Th2  1  0.006386  0.592177  0.500000  1
  Co  Co3  1  0.015466  0.015466  0.500000  1
  Sn  Sn4  1  0.244862  0.000475  0.000000  1
  Sn  Sn5  1  0.000475  0.244862  0.000000  1
  Rh  Rh6  1  0.661388  0.320787  0.000000  1
  Rh  Rh7  1  0.320787  0.661388  0.000000  1
  Pb  Pb8  1  0.753242  0.753242  0.000000  1
