# generated using pymatgen
data_Dy6Zn18PIr5
_symmetry_space_group_name_H-M   'P 1'
_cell_length_a   8.95619141
_cell_length_b   8.96620830
_cell_length_c   8.95632000
_cell_angle_alpha   59.96073834
_cell_angle_beta   60.03589218
_cell_angle_gamma   59.96321715
_symmetry_Int_Tables_number   1
_chemical_formula_structural   Dy6Zn18PIr5
_chemical_formula_sum   'Dy6 Zn18 P1 Ir5'
_cell_volume   508.41047936
_cell_formula_units_Z   1
loop_
 _symmetry_equiv_pos_site_id
 _symmetry_equiv_pos_as_xyz
  1  'x, y, z'
loop_
 _atom_site_type_symbol
 _atom_site_label
 _atom_site_symmetry_multiplicity
 _atom_site_fract_x
 _atom_site_fract_y
 _atom_site_fract_z
 _atom_site_occupancy
  Dy  Dy0  1  0.714081  0.277648  0.285929  1
  Dy  Dy1  1  0.715750  0.284269  0.715727  1
  Dy  Dy2  1  0.714077  0.722348  0.285929  1
  Dy  Dy3  1  0.285919  0.722352  0.714071  1
  Dy  Dy4  1  0.284250  0.715731  0.284273  1
  Dy  Dy5  1  0.285923  0.277652  0.714071  1
  Zn  Zn6  1  0.623252  0.126091  0.124573  1
  Zn  Zn7  1  0.125750  0.626631  0.125740  1
  Zn  Zn8  1  0.124584  0.126087  0.623243  1
  Zn  Zn9  1  0.125752  0.121872  0.125742  1
  Zn  Zn10  1  0.376748  0.873909  0.875427  1
  Zn  Zn11  1  0.874250  0.373369  0.874260  1
  Zn  Zn12  1  0.875416  0.873913  0.376757  1
  Zn  Zn13  1  0.874248  0.878128  0.874258  1
  Zn  Zn14  1  0.000000  0.500000  0.000000  1
  Zn  Zn15  1  0.000000  0.000000  0.000000  1
  Zn  Zn16  1  0.999048  0.333638  0.333681  1
  Zn  Zn17  1  0.330579  0.005697  0.330572  1
  Zn  Zn18  1  0.333693  0.333634  0.999034  1
  Zn  Zn19  1  0.330579  0.333152  0.330573  1
  Zn  Zn20  1  0.000952  0.666362  0.666319  1
  Zn  Zn21  1  0.669421  0.994303  0.669428  1
  Zn  Zn22  1  0.666307  0.666366  0.000966  1
  Zn  Zn23  1  0.669421  0.666848  0.669427  1
  P  P24  1  0.500000  0.500000  0.500000  1
  Ir  Ir25  1  0.500000  0.000000  0.000000  1
  Ir  Ir26  1  0.500000  0.000000  0.500000  1
  Ir  Ir27  1  0.500000  0.500000  0.000000  1
  Ir  Ir28  1  0.000000  0.500000  0.500000  1
  Ir  Ir29  1  0.000000  0.000000  0.500000  1
