# generated using pymatgen
data_Ba8Sr4VRe3N16
_symmetry_space_group_name_H-M   'P 1'
_cell_length_a   11.12135304
_cell_length_b   10.77464503
_cell_length_c   8.19041233
_cell_angle_alpha   70.30178449
_cell_angle_beta   65.61968010
_cell_angle_gamma   43.89679142
_symmetry_Int_Tables_number   1
_chemical_formula_structural   Ba8Sr4VRe3N16
_chemical_formula_sum   'Ba8 Sr4 V1 Re3 N16'
_cell_volume   618.59333161
_cell_formula_units_Z   1
loop_
 _symmetry_equiv_pos_site_id
 _symmetry_equiv_pos_as_xyz
  1  'x, y, z'
loop_
 _atom_site_type_symbol
 _atom_site_label
 _atom_site_symmetry_multiplicity
 _atom_site_fract_x
 _atom_site_fract_y
 _atom_site_fract_z
 _atom_site_occupancy
  Ba  Ba0  1  0.567302  0.933200  0.931176  1
  Ba  Ba1  1  0.931176  0.568322  0.567302  1
  Ba  Ba2  1  0.317473  0.683530  0.684240  1
  Ba  Ba3  1  0.122965  0.108919  0.877204  1
  Ba  Ba4  1  0.145614  0.132864  0.367114  1
  Ba  Ba5  1  0.367114  0.354409  0.145614  1
  Ba  Ba6  1  0.684240  0.314758  0.317473  1
  Ba  Ba7  1  0.877204  0.890912  0.122965  1
  Sr  Sr8  1  0.346393  0.333916  0.651982  1
  Sr  Sr9  1  0.904227  0.910167  0.589756  1
  Sr  Sr10  1  0.651982  0.667709  0.346393  1
  Sr  Sr11  1  0.589756  0.595849  0.904227  1
  V  V12  1  0.486464  0.013536  0.486464  1
  Re  Re13  1  0.012605  0.487395  0.012605  1
  Re  Re14  1  0.762456  0.237544  0.762456  1
  Re  Re15  1  0.237971  0.762029  0.237971  1
  N  N16  1  0.014838  0.646044  0.833961  1
  N  N17  1  0.707768  0.274117  0.999040  1
  N  N18  1  0.644464  0.017011  0.502905  1
  N  N19  1  0.502905  0.835620  0.644464  1
  N  N20  1  0.233023  0.604193  0.416134  1
  N  N21  1  0.748141  0.414393  0.603385  1
  N  N22  1  0.999040  0.019076  0.707768  1
  N  N23  1  0.542834  0.975883  0.251698  1
  N  N24  1  0.416134  0.746650  0.233023  1
  N  N25  1  0.974508  0.544112  0.229025  1
  N  N26  1  0.273383  0.707867  0.019949  1
  N  N27  1  0.833961  0.505157  0.014838  1
  N  N28  1  0.229025  0.252353  0.974508  1
  N  N29  1  0.603385  0.234081  0.748141  1
  N  N30  1  0.251698  0.229584  0.542834  1
  N  N31  1  0.019949  0.998801  0.273383  1
