# generated using pymatgen
data_Rb4Tb4BiSb7Se20
_symmetry_space_group_name_H-M   'P 1'
_cell_length_a   4.12315800
_cell_length_b   12.39187595
_cell_length_c   22.15869582
_cell_angle_alpha   90.21647484
_cell_angle_beta   90.00000000
_cell_angle_gamma   90.00000000
_symmetry_Int_Tables_number   1
_chemical_formula_structural   Rb4Tb4BiSb7Se20
_chemical_formula_sum   'Rb4 Tb4 Bi1 Sb7 Se20'
_cell_volume   1132.16084445
_cell_formula_units_Z   1
loop_
 _symmetry_equiv_pos_site_id
 _symmetry_equiv_pos_as_xyz
  1  'x, y, z'
loop_
 _atom_site_type_symbol
 _atom_site_label
 _atom_site_symmetry_multiplicity
 _atom_site_fract_x
 _atom_site_fract_y
 _atom_site_fract_z
 _atom_site_occupancy
  Rb  Rb0  1  0.250000  0.489765  0.211306  1
  Rb  Rb1  1  0.750000  0.510707  0.789203  1
  Rb  Rb2  1  0.750000  0.990304  0.289149  1
  Rb  Rb3  1  0.250000  0.010261  0.710396  1
  Tb  Tb4  1  0.250000  0.363617  0.023750  1
  Tb  Tb5  1  0.750000  0.635982  0.975992  1
  Tb  Tb6  1  0.750000  0.863126  0.476633  1
  Tb  Tb7  1  0.250000  0.136952  0.523296  1
  Bi  Bi8  1  0.250000  0.904831  0.925303  1
  Sb  Sb9  1  0.250000  0.807220  0.125384  1
  Sb  Sb10  1  0.750000  0.193702  0.874627  1
  Sb  Sb11  1  0.750000  0.308312  0.375464  1
  Sb  Sb12  1  0.250000  0.691732  0.624552  1
  Sb  Sb13  1  0.250000  0.597079  0.425725  1
  Sb  Sb14  1  0.750000  0.403026  0.574264  1
  Sb  Sb15  1  0.750000  0.097120  0.075122  1
  Se  Se16  1  0.250000  0.803426  0.388643  1
  Se  Se17  1  0.750000  0.196701  0.611292  1
  Se  Se18  1  0.750000  0.304126  0.111585  1
  Se  Se19  1  0.250000  0.689019  0.888316  1
  Se  Se20  1  0.250000  0.252504  0.299528  1
  Se  Se21  1  0.750000  0.747478  0.700388  1
  Se  Se22  1  0.750000  0.752467  0.201052  1
  Se  Se23  1  0.250000  0.248929  0.799110  1
  Se  Se24  1  0.250000  0.357494  0.482048  1
  Se  Se25  1  0.750000  0.642518  0.517770  1
  Se  Se26  1  0.750000  0.856424  0.020113  1
  Se  Se27  1  0.250000  0.142175  0.982217  1
  Se  Se28  1  0.250000  0.024546  0.157394  1
  Se  Se29  1  0.750000  0.979721  0.839790  1
  Se  Se30  1  0.750000  0.523678  0.342753  1
  Se  Se31  1  0.250000  0.476262  0.657117  1
  Se  Se32  1  0.250000  0.583019  0.061907  1
  Se  Se33  1  0.750000  0.415718  0.938894  1
  Se  Se34  1  0.750000  0.082593  0.438275  1
  Se  Se35  1  0.250000  0.917466  0.561639  1
