# generated using pymatgen
data_TbHo15(ErPt4)4
_symmetry_space_group_name_H-M   'P 1'
_cell_length_a   7.44462515
_cell_length_b   7.53265501
_cell_length_c   14.72202412
_cell_angle_alpha   90.05819594
_cell_angle_beta   90.02036574
_cell_angle_gamma   89.99002532
_symmetry_Int_Tables_number   1
_chemical_formula_structural   TbHo15(ErPt4)4
_chemical_formula_sum   'Tb1 Ho15 Er4 Pt16'
_cell_volume   825.57812872
_cell_formula_units_Z   1
loop_
 _symmetry_equiv_pos_site_id
 _symmetry_equiv_pos_as_xyz
  1  'x, y, z'
loop_
 _atom_site_type_symbol
 _atom_site_label
 _atom_site_symmetry_multiplicity
 _atom_site_fract_x
 _atom_site_fract_y
 _atom_site_fract_z
 _atom_site_occupancy
  Tb  Tb0  1  0.000038  0.821461  0.593170  1
  Ho  Ho1  1  0.653854  0.168755  0.622469  1
  Ho  Ho2  1  0.154705  0.331647  0.878103  1
  Ho  Ho3  1  0.345311  0.831710  0.122271  1
  Ho  Ho4  1  0.844817  0.668131  0.377483  1
  Ho  Ho5  1  0.345720  0.831343  0.377797  1
  Ho  Ho6  1  0.845492  0.668594  0.122167  1
  Ho  Ho7  1  0.654485  0.168667  0.878057  1
  Ho  Ho8  1  0.154444  0.331517  0.622211  1
  Ho  Ho9  1  0.500472  0.678525  0.593591  1
  Ho  Ho10  1  0.000423  0.821350  0.906632  1
  Ho  Ho11  1  0.499655  0.320866  0.093508  1
  Ho  Ho12  1  0.999531  0.179856  0.406143  1
  Ho  Ho13  1  0.499645  0.320966  0.406681  1
  Ho  Ho14  1  0.999562  0.178989  0.093494  1
  Ho  Ho15  1  0.500623  0.679055  0.906772  1
  Er  Er16  1  0.817676  0.511528  0.750350  1
  Er  Er17  1  0.317503  0.988125  0.750336  1
  Er  Er18  1  0.182570  0.488216  0.249897  1
  Er  Er19  1  0.682600  0.011700  0.249927  1
  Pt  Pt20  1  0.684815  0.969794  0.457321  1
  Pt  Pt21  1  0.184534  0.531062  0.042204  1
  Pt  Pt22  1  0.315530  0.031089  0.958097  1
  Pt  Pt23  1  0.814673  0.467169  0.541094  1
  Pt  Pt24  1  0.317224  0.032068  0.541757  1
  Pt  Pt25  1  0.815632  0.468990  0.958017  1
  Pt  Pt26  1  0.684702  0.968739  0.041956  1
  Pt  Pt27  1  0.184687  0.530641  0.457749  1
  Pt  Pt28  1  0.451404  0.388151  0.750283  1
  Pt  Pt29  1  0.950950  0.112410  0.750488  1
  Pt  Pt30  1  0.548375  0.611826  0.249498  1
  Pt  Pt31  1  0.048215  0.887489  0.249952  1
  Pt  Pt32  1  0.679015  0.855656  0.750531  1
  Pt  Pt33  1  0.180129  0.643671  0.750859  1
  Pt  Pt34  1  0.320679  0.144527  0.249711  1
  Pt  Pt35  1  0.820310  0.355717  0.249425  1
