# generated using pymatgen
data_Cs6LuBiBr12
_symmetry_space_group_name_H-M   'P 1'
_cell_length_a   10.03118600
_cell_length_b   10.01278752
_cell_length_c   8.31285300
_cell_angle_alpha   90.00000000
_cell_angle_beta   90.00000000
_cell_angle_gamma   90.15684736
_symmetry_Int_Tables_number   1
_chemical_formula_structural   Cs6LuBiBr12
_chemical_formula_sum   'Cs6 Lu1 Bi1 Br12'
_cell_volume   834.94094046
_cell_formula_units_Z   1
loop_
 _symmetry_equiv_pos_site_id
 _symmetry_equiv_pos_as_xyz
  1  'x, y, z'
loop_
 _atom_site_type_symbol
 _atom_site_label
 _atom_site_symmetry_multiplicity
 _atom_site_fract_x
 _atom_site_fract_y
 _atom_site_fract_z
 _atom_site_occupancy
  Cs  Cs0  1  0.000000  0.000000  0.500000  1
  Cs  Cs1  1  0.000000  0.000000  0.000000  1
  Cs  Cs2  1  0.238084  0.584190  0.500000  1
  Cs  Cs3  1  0.761916  0.415810  0.500000  1
  Cs  Cs4  1  0.417299  0.232021  0.000000  1
  Cs  Cs5  1  0.582701  0.767979  0.000000  1
  Lu  Lu6  1  0.500000  0.000000  0.500000  1
  Bi  Bi7  1  0.000000  0.500000  0.000000  1
  Br  Br8  1  0.688240  0.056145  0.735940  1
  Br  Br9  1  0.311760  0.943855  0.735940  1
  Br  Br10  1  0.941109  0.697318  0.246536  1
  Br  Br11  1  0.058891  0.302682  0.246536  1
  Br  Br12  1  0.311760  0.943855  0.264060  1
  Br  Br13  1  0.688240  0.056145  0.264060  1
  Br  Br14  1  0.058891  0.302682  0.753464  1
  Br  Br15  1  0.941109  0.697318  0.753464  1
  Br  Br16  1  0.569035  0.733990  0.500000  1
  Br  Br17  1  0.430965  0.266010  0.500000  1
  Br  Br18  1  0.278871  0.570877  0.000000  1
  Br  Br19  1  0.721129  0.429123  0.000000  1
