# generated using pymatgen
data_Y4Ga5Ir8Pd
_symmetry_space_group_name_H-M   'P 1'
_cell_length_a   5.58918800
_cell_length_b   5.57366884
_cell_length_c   23.78874991
_cell_angle_alpha   90.15724683
_cell_angle_beta   90.00000000
_cell_angle_gamma   120.09213718
_symmetry_Int_Tables_number   1
_chemical_formula_structural   Y4Ga5Ir8Pd
_chemical_formula_sum   'Y8 Ga10 Ir16 Pd2'
_cell_volume   641.18888214
_cell_formula_units_Z   2
loop_
 _symmetry_equiv_pos_site_id
 _symmetry_equiv_pos_as_xyz
  1  'x, y, z'
loop_
 _atom_site_type_symbol
 _atom_site_label
 _atom_site_symmetry_multiplicity
 _atom_site_fract_x
 _atom_site_fract_y
 _atom_site_fract_z
 _atom_site_occupancy
  Y  Y0  1  0.332926  0.665854  0.529695  1
  Y  Y1  1  0.667074  0.334146  0.470305  1
  Y  Y2  1  0.664437  0.328873  0.030343  1
  Y  Y3  1  0.335563  0.671127  0.969657  1
  Y  Y4  1  0.332916  0.665833  0.676500  1
  Y  Y5  1  0.667084  0.334167  0.323500  1
  Y  Y6  1  0.666630  0.333259  0.181635  1
  Y  Y7  1  0.333370  0.666741  0.818365  1
  Ga  Ga8  1  0.000000  0.000000  0.000000  1
  Ga  Ga9  1  0.000000  0.000000  0.500000  1
  Ga  Ga10  1  0.338235  0.676470  0.167902  1
  Ga  Ga11  1  0.661765  0.323530  0.832098  1
  Ga  Ga12  1  0.668681  0.337360  0.668261  1
  Ga  Ga13  1  0.331319  0.662640  0.331739  1
  Ga  Ga14  1  0.992668  0.985336  0.165123  1
  Ga  Ga15  1  0.007332  0.014664  0.834877  1
  Ga  Ga16  1  0.998613  0.997227  0.665169  1
  Ga  Ga17  1  0.001387  0.002773  0.334831  1
  Ir  Ir18  1  0.659456  0.831681  0.082384  1
  Ir  Ir19  1  0.829529  0.659059  0.583349  1
  Ir  Ir20  1  0.340544  0.168319  0.917616  1
  Ir  Ir21  1  0.170471  0.340941  0.416651  1
  Ir  Ir22  1  0.172225  0.831681  0.082384  1
  Ir  Ir23  1  0.340791  0.169738  0.583781  1
  Ir  Ir24  1  0.827775  0.168319  0.917616  1
  Ir  Ir25  1  0.659209  0.830262  0.416219  1
  Ir  Ir26  1  0.828946  0.169738  0.583781  1
  Ir  Ir27  1  0.171054  0.830262  0.416219  1
  Ir  Ir28  1  0.164260  0.328518  0.247998  1
  Ir  Ir29  1  0.835740  0.671482  0.752002  1
  Ir  Ir30  1  0.669906  0.835163  0.250735  1
  Ir  Ir31  1  0.330094  0.164837  0.749265  1
  Ir  Ir32  1  0.165258  0.835163  0.250735  1
  Ir  Ir33  1  0.834742  0.164837  0.749265  1
  Pd  Pd34  1  0.169192  0.338382  0.084467  1
  Pd  Pd35  1  0.830808  0.661618  0.915533  1
