# generated using pymatgen
data_Tm3Lu(Tc3Ru)2
_symmetry_space_group_name_H-M   'P 1'
_cell_length_a   5.23566600
_cell_length_b   5.23566657
_cell_length_c   9.09492200
_cell_angle_alpha   90.00000000
_cell_angle_beta   90.00000000
_cell_angle_gamma   119.99998375
_symmetry_Int_Tables_number   1
_chemical_formula_structural   Tm3Lu(Tc3Ru)2
_chemical_formula_sum   'Tm3 Lu1 Tc6 Ru2'
_cell_volume   215.91041718
_cell_formula_units_Z   1
loop_
 _symmetry_equiv_pos_site_id
 _symmetry_equiv_pos_as_xyz
  1  'x, y, z'
loop_
 _atom_site_type_symbol
 _atom_site_label
 _atom_site_symmetry_multiplicity
 _atom_site_fract_x
 _atom_site_fract_y
 _atom_site_fract_z
 _atom_site_occupancy
  Tm  Tm0  1  0.333333  0.666667  0.437149  1
  Tm  Tm1  1  0.666667  0.333333  0.562701  1
  Tm  Tm2  1  0.666667  0.333333  0.937448  1
  Lu  Lu3  1  0.333333  0.666667  0.062873  1
  Tc  Tc4  1  0.171377  0.342756  0.750227  1
  Tc  Tc5  1  0.171377  0.828623  0.750227  1
  Tc  Tc6  1  0.342603  0.171301  0.249693  1
  Tc  Tc7  1  0.828699  0.657397  0.249693  1
  Tc  Tc8  1  0.657244  0.828623  0.750227  1
  Tc  Tc9  1  0.828699  0.171301  0.249693  1
  Ru  Ru10  1  0.000000  0.000000  0.000067  1
  Ru  Ru11  1  0.000000  0.000000  0.500003  1
