# generated using pymatgen
data_Tb4Ga4Ir3Pd
_symmetry_space_group_name_H-M   'P 1'
_cell_length_a   4.37143800
_cell_length_b   6.87494112
_cell_length_c   7.81017118
_cell_angle_alpha   90.02280803
_cell_angle_beta   90.00000000
_cell_angle_gamma   90.00000000
_symmetry_Int_Tables_number   1
_chemical_formula_structural   Tb4Ga4Ir3Pd
_chemical_formula_sum   'Tb4 Ga4 Ir3 Pd1'
_cell_volume   234.72201467
_cell_formula_units_Z   1
loop_
 _symmetry_equiv_pos_site_id
 _symmetry_equiv_pos_as_xyz
  1  'x, y, z'
loop_
 _atom_site_type_symbol
 _atom_site_label
 _atom_site_symmetry_multiplicity
 _atom_site_fract_x
 _atom_site_fract_y
 _atom_site_fract_z
 _atom_site_occupancy
  Tb  Tb0  1  0.250000  0.476719  0.189380  1
  Tb  Tb1  1  0.750000  0.522489  0.815796  1
  Tb  Tb2  1  0.250000  0.979565  0.305221  1
  Tb  Tb3  1  0.750000  0.031557  0.689327  1
  Ga  Ga4  1  0.250000  0.847187  0.932082  1
  Ga  Ga5  1  0.750000  0.155074  0.069784  1
  Ga  Ga6  1  0.250000  0.339625  0.569890  1
  Ga  Ga7  1  0.750000  0.651787  0.429728  1
  Ir  Ir8  1  0.750000  0.768182  0.110597  1
  Ir  Ir9  1  0.250000  0.231637  0.889561  1
  Ir  Ir10  1  0.750000  0.267656  0.390374  1
  Pd  Pd11  1  0.250000  0.728522  0.608261  1
