# generated using pymatgen
data_Tm10Al3Cu
_symmetry_space_group_name_H-M   'P 1'
_cell_length_a   9.41257900
_cell_length_b   9.41260525
_cell_length_c   9.42678200
_cell_angle_alpha   90.00000000
_cell_angle_beta   90.00000000
_cell_angle_gamma   120.00005185
_symmetry_Int_Tables_number   1
_chemical_formula_structural   Tm10Al3Cu
_chemical_formula_sum   'Tm20 Al6 Cu2'
_cell_volume   723.28981261
_cell_formula_units_Z   2
loop_
 _symmetry_equiv_pos_site_id
 _symmetry_equiv_pos_as_xyz
  1  'x, y, z'
loop_
 _atom_site_type_symbol
 _atom_site_label
 _atom_site_symmetry_multiplicity
 _atom_site_fract_x
 _atom_site_fract_y
 _atom_site_fract_z
 _atom_site_occupancy
  Tm  Tm0  1  0.000000  0.000000  0.500000  1
  Tm  Tm1  1  0.000000  0.000000  0.000000  1
  Tm  Tm2  1  0.205925  0.794075  0.442169  1
  Tm  Tm3  1  0.205925  0.411850  0.442169  1
  Tm  Tm4  1  0.588150  0.794075  0.442169  1
  Tm  Tm5  1  0.794075  0.205925  0.557831  1
  Tm  Tm6  1  0.794075  0.588150  0.557831  1
  Tm  Tm7  1  0.411850  0.205925  0.557831  1
  Tm  Tm8  1  0.794075  0.205925  0.942169  1
  Tm  Tm9  1  0.794075  0.588150  0.942169  1
  Tm  Tm10  1  0.411850  0.205925  0.942169  1
  Tm  Tm11  1  0.205925  0.794075  0.057831  1
  Tm  Tm12  1  0.205925  0.411850  0.057831  1
  Tm  Tm13  1  0.588150  0.794075  0.057831  1
  Tm  Tm14  1  0.544671  0.455329  0.250000  1
  Tm  Tm15  1  0.544671  0.089340  0.250000  1
  Tm  Tm16  1  0.910660  0.455329  0.250000  1
  Tm  Tm17  1  0.455329  0.544671  0.750000  1
  Tm  Tm18  1  0.455329  0.910660  0.750000  1
  Tm  Tm19  1  0.089340  0.544671  0.750000  1
  Al  Al20  1  0.888174  0.111826  0.250000  1
  Al  Al21  1  0.888174  0.776349  0.250000  1
  Al  Al22  1  0.223651  0.111826  0.250000  1
  Al  Al23  1  0.111826  0.888174  0.750000  1
  Al  Al24  1  0.111826  0.223651  0.750000  1
  Al  Al25  1  0.776349  0.888174  0.750000  1
  Cu  Cu26  1  0.333334  0.666668  0.250000  1
  Cu  Cu27  1  0.666666  0.333332  0.750000  1
