# generated using pymatgen
data_GdDyHoTaO7
_symmetry_space_group_name_H-M   'P 1'
_cell_length_a   6.50154154
_cell_length_b   6.50154099
_cell_length_c   7.51362200
_cell_angle_alpha   89.98044874
_cell_angle_beta   89.98045392
_cell_angle_gamma   108.67659775
_symmetry_Int_Tables_number   1
_chemical_formula_structural   GdDyHoTaO7
_chemical_formula_sum   'Gd2 Dy2 Ho2 Ta2 O14'
_cell_volume   300.87653418
_cell_formula_units_Z   2
loop_
 _symmetry_equiv_pos_site_id
 _symmetry_equiv_pos_as_xyz
  1  'x, y, z'
loop_
 _atom_site_type_symbol
 _atom_site_label
 _atom_site_symmetry_multiplicity
 _atom_site_fract_x
 _atom_site_fract_y
 _atom_site_fract_z
 _atom_site_occupancy
  Gd  Gd0  1  0.469824  0.469239  0.000380  1
  Gd  Gd1  1  0.530761  0.530176  0.499620  1
  Dy  Dy2  1  0.999834  0.464756  0.741750  1
  Dy  Dy3  1  0.535244  0.000166  0.758250  1
  Ho  Ho4  1  0.000509  0.535267  0.241592  1
  Ho  Ho5  1  0.464733  0.999491  0.258408  1
  Ta  Ta6  1  0.001945  0.002076  0.499465  1
  Ta  Ta7  1  0.997924  0.998055  0.000535  1
  O  O8  1  0.932668  0.067332  0.750000  1
  O  O9  1  0.640645  0.359355  0.750000  1
  O  O10  1  0.308853  0.052600  0.543041  1
  O  O11  1  0.947400  0.691147  0.956959  1
  O  O12  1  0.631915  0.368085  0.250000  1
  O  O13  1  0.920088  0.672561  0.523984  1
  O  O14  1  0.327439  0.079912  0.976016  1
  O  O15  1  0.079687  0.327335  0.025587  1
  O  O16  1  0.672665  0.920313  0.474413  1
  O  O17  1  0.368793  0.631207  0.750000  1
  O  O18  1  0.691858  0.949301  0.045124  1
  O  O19  1  0.050699  0.308142  0.454876  1
  O  O20  1  0.358178  0.641822  0.250000  1
  O  O21  1  0.068342  0.931658  0.250000  1
