# generated using pymatgen
data_Ca5Tb5(Pb3Cl)2
_symmetry_space_group_name_H-M   'P 1'
_cell_length_a   9.27475540
_cell_length_b   9.27475658
_cell_length_c   6.94159000
_cell_angle_alpha   90.00000000
_cell_angle_beta   90.00000000
_cell_angle_gamma   119.82031112
_symmetry_Int_Tables_number   1
_chemical_formula_structural   Ca5Tb5(Pb3Cl)2
_chemical_formula_sum   'Ca5 Tb5 Pb6 Cl2'
_cell_volume   518.05765204
_cell_formula_units_Z   1
loop_
 _symmetry_equiv_pos_site_id
 _symmetry_equiv_pos_as_xyz
  1  'x, y, z'
loop_
 _atom_site_type_symbol
 _atom_site_label
 _atom_site_symmetry_multiplicity
 _atom_site_fract_x
 _atom_site_fract_y
 _atom_site_fract_z
 _atom_site_occupancy
  Ca  Ca0  1  0.253162  0.001119  0.250000  1
  Ca  Ca1  1  0.745676  0.999131  0.750000  1
  Ca  Ca2  1  0.001119  0.253162  0.250000  1
  Ca  Ca3  1  0.999131  0.745676  0.750000  1
  Ca  Ca4  1  0.745940  0.745940  0.250000  1
  Tb  Tb5  1  0.256433  0.256433  0.750000  1
  Tb  Tb6  1  0.333670  0.667854  0.001050  1
  Tb  Tb7  1  0.667854  0.333670  0.001050  1
  Tb  Tb8  1  0.667854  0.333670  0.498950  1
  Tb  Tb9  1  0.333670  0.667854  0.498950  1
  Pb  Pb10  1  0.599884  0.000142  0.250000  1
  Pb  Pb11  1  0.396975  0.001915  0.750000  1
  Pb  Pb12  1  0.000142  0.599884  0.250000  1
  Pb  Pb13  1  0.001915  0.396975  0.750000  1
  Pb  Pb14  1  0.397891  0.397891  0.250000  1
  Pb  Pb15  1  0.596598  0.596598  0.750000  1
  Cl  Cl16  1  0.001043  0.001043  0.996719  1
  Cl  Cl17  1  0.001043  0.001043  0.503281  1
