# generated using pymatgen
data_YTm5TiNb(Co4P3)4
_symmetry_space_group_name_H-M   'P 1'
_cell_length_a   3.69282700
_cell_length_b   10.59589500
_cell_length_c   12.28580300
_cell_angle_alpha   90.00000000
_cell_angle_beta   90.00000000
_cell_angle_gamma   90.00000000
_symmetry_Int_Tables_number   1
_chemical_formula_structural   YTm5TiNb(Co4P3)4
_chemical_formula_sum   'Y1 Tm5 Ti1 Nb1 Co16 P12'
_cell_volume   480.72881621
_cell_formula_units_Z   1
loop_
 _symmetry_equiv_pos_site_id
 _symmetry_equiv_pos_as_xyz
  1  'x, y, z'
loop_
 _atom_site_type_symbol
 _atom_site_label
 _atom_site_symmetry_multiplicity
 _atom_site_fract_x
 _atom_site_fract_y
 _atom_site_fract_z
 _atom_site_occupancy
  Y  Y0  1  0.000000  0.500000  0.525808  1
  Tm  Tm1  1  0.500000  0.000000  0.472864  1
  Tm  Tm2  1  0.500000  0.819922  0.204766  1
  Tm  Tm3  1  0.500000  0.180078  0.204766  1
  Tm  Tm4  1  0.000000  0.679528  0.795411  1
  Tm  Tm5  1  0.000000  0.320472  0.795411  1
  Ti  Ti6  1  0.500000  0.500000  0.154457  1
  Nb  Nb7  1  0.000000  0.000000  0.842807  1
  Co  Co8  1  0.500000  0.500000  0.703909  1
  Co  Co9  1  0.000000  0.000000  0.297944  1
  Co  Co10  1  0.000000  0.500000  0.986747  1
  Co  Co11  1  0.500000  0.000000  0.014296  1
  Co  Co12  1  0.500000  0.332693  0.994013  1
  Co  Co13  1  0.500000  0.667307  0.994013  1
  Co  Co14  1  0.000000  0.168304  0.008381  1
  Co  Co15  1  0.000000  0.831696  0.008381  1
  Co  Co16  1  0.500000  0.294639  0.432131  1
  Co  Co17  1  0.500000  0.705361  0.432131  1
  Co  Co18  1  0.000000  0.203694  0.567625  1
  Co  Co19  1  0.000000  0.796306  0.567625  1
  Co  Co20  1  0.500000  0.877097  0.704258  1
  Co  Co21  1  0.500000  0.122903  0.704258  1
  Co  Co22  1  0.000000  0.622524  0.293831  1
  Co  Co23  1  0.000000  0.377476  0.293831  1
  P  P24  1  0.500000  0.500000  0.882601  1
  P  P25  1  0.000000  0.000000  0.118756  1
  P  P26  1  0.500000  0.500000  0.353682  1
  P  P27  1  0.000000  0.000000  0.641962  1
  P  P28  1  0.500000  0.311202  0.616590  1
  P  P29  1  0.500000  0.688798  0.616590  1
  P  P30  1  0.000000  0.188288  0.383490  1
  P  P31  1  0.000000  0.811712  0.383490  1
  P  P32  1  0.500000  0.839837  0.892721  1
  P  P33  1  0.500000  0.160163  0.892721  1
  P  P34  1  0.000000  0.657275  0.108863  1
  P  P35  1  0.000000  0.342725  0.108863  1
