# generated using pymatgen
data_Nd16Cd4CuIr2Ru
_symmetry_space_group_name_H-M   'P 1'
_cell_length_a   9.92644617
_cell_length_b   9.92644579
_cell_length_c   9.92818371
_cell_angle_alpha   60.45610355
_cell_angle_beta   60.45610441
_cell_angle_gamma   60.41163536
_symmetry_Int_Tables_number   1
_chemical_formula_structural   Nd16Cd4CuIr2Ru
_chemical_formula_sum   'Nd16 Cd4 Cu1 Ir2 Ru1'
_cell_volume   698.64019134
_cell_formula_units_Z   1
loop_
 _symmetry_equiv_pos_site_id
 _symmetry_equiv_pos_as_xyz
  1  'x, y, z'
loop_
 _atom_site_type_symbol
 _atom_site_label
 _atom_site_symmetry_multiplicity
 _atom_site_fract_x
 _atom_site_fract_y
 _atom_site_fract_z
 _atom_site_occupancy
  Nd  Nd0  1  0.345586  0.345586  0.347716  1
  Nd  Nd1  1  0.353074  0.353074  0.946502  1
  Nd  Nd2  1  0.350510  0.949304  0.353891  1
  Nd  Nd3  1  0.949304  0.350510  0.353891  1
  Nd  Nd4  1  0.803752  0.191421  0.191342  1
  Nd  Nd5  1  0.190261  0.811522  0.807784  1
  Nd  Nd6  1  0.191421  0.803752  0.191342  1
  Nd  Nd7  1  0.811522  0.190261  0.807784  1
  Nd  Nd8  1  0.191023  0.191023  0.802290  1
  Nd  Nd9  1  0.808912  0.808912  0.191191  1
  Nd  Nd10  1  0.941334  0.561111  0.562224  1
  Nd  Nd11  1  0.563174  0.939291  0.940352  1
  Nd  Nd12  1  0.561111  0.941334  0.562224  1
  Nd  Nd13  1  0.939291  0.563174  0.940352  1
  Nd  Nd14  1  0.561205  0.561205  0.941612  1
  Nd  Nd15  1  0.939310  0.939310  0.564270  1
  Cd  Cd16  1  0.580367  0.580367  0.580442  1
  Cd  Cd17  1  0.580079  0.580079  0.260072  1
  Cd  Cd18  1  0.580616  0.259224  0.579971  1
  Cd  Cd19  1  0.259224  0.580616  0.579971  1
  Cu  Cu20  1  0.143339  0.143339  0.141664  1
  Ir  Ir21  1  0.141506  0.573285  0.139191  1
  Ir  Ir22  1  0.573285  0.141506  0.139191  1
  Ru  Ru23  1  0.140793  0.140793  0.574728  1
