# generated using pymatgen
data_CaPr3Al18(IrPd2)2
_symmetry_space_group_name_H-M   'P 1'
_cell_length_a   7.68250503
_cell_length_b   7.67375256
_cell_length_c   9.61579608
_cell_angle_alpha   89.94321102
_cell_angle_beta   90.00237752
_cell_angle_gamma   119.51363624
_symmetry_Int_Tables_number   1
_chemical_formula_structural   CaPr3Al18(IrPd2)2
_chemical_formula_sum   'Ca1 Pr3 Al18 Ir2 Pd4'
_cell_volume   493.32587965
_cell_formula_units_Z   1
loop_
 _symmetry_equiv_pos_site_id
 _symmetry_equiv_pos_as_xyz
  1  'x, y, z'
loop_
 _atom_site_type_symbol
 _atom_site_label
 _atom_site_symmetry_multiplicity
 _atom_site_fract_x
 _atom_site_fract_y
 _atom_site_fract_z
 _atom_site_occupancy
  Ca  Ca0  1  0.994706  0.671302  0.250991  1
  Pr  Pr1  1  0.004920  0.331136  0.750076  1
  Pr  Pr2  1  0.670858  0.995500  0.249852  1
  Pr  Pr3  1  0.328655  0.003367  0.750109  1
  Al  Al4  1  0.133154  0.133743  0.251698  1
  Al  Al5  1  0.867561  0.866330  0.748121  1
  Al  Al6  1  0.005129  0.337774  0.078116  1
  Al  Al7  1  0.994754  0.664877  0.927886  1
  Al  Al8  1  0.998224  0.661396  0.567945  1
  Al  Al9  1  0.336579  0.998802  0.426055  1
  Al  Al10  1  0.001251  0.342237  0.425398  1
  Al  Al11  1  0.661220  0.998246  0.571668  1
  Al  Al12  1  0.665003  0.994427  0.924139  1
  Al  Al13  1  0.332117  0.002110  0.078015  1
  Al  Al14  1  0.336038  0.335840  0.545154  1
  Al  Al15  1  0.664778  0.663165  0.451722  1
  Al  Al16  1  0.664650  0.662784  0.058234  1
  Al  Al17  1  0.336861  0.336609  0.945296  1
  Al  Al18  1  0.340915  0.547099  0.253895  1
  Al  Al19  1  0.661337  0.454835  0.745890  1
  Al  Al20  1  0.546965  0.339898  0.254075  1
  Al  Al21  1  0.455810  0.660142  0.745801  1
  Ir  Ir22  1  0.329126  0.670591  0.500082  1
  Ir  Ir23  1  0.670247  0.328202  0.499904  1
  Pd  Pd24  1  0.670910  0.327722  0.000130  1
  Pd  Pd25  1  0.328556  0.671187  0.999742  1
  Pd  Pd26  1  0.999764  0.000091  0.000208  1
  Pd  Pd27  1  0.999912  0.000586  0.499800  1
