# generated using pymatgen
data_Ta3Nb(SiIr)4
_symmetry_space_group_name_H-M   'P 1'
_cell_length_a   3.81299000
_cell_length_b   6.44105195
_cell_length_c   7.32436223
_cell_angle_alpha   89.91068887
_cell_angle_beta   90.00000000
_cell_angle_gamma   90.00000000
_symmetry_Int_Tables_number   1
_chemical_formula_structural   Ta3Nb(SiIr)4
_chemical_formula_sum   'Ta3 Nb1 Si4 Ir4'
_cell_volume   179.88367648
_cell_formula_units_Z   1
loop_
 _symmetry_equiv_pos_site_id
 _symmetry_equiv_pos_as_xyz
  1  'x, y, z'
loop_
 _atom_site_type_symbol
 _atom_site_label
 _atom_site_symmetry_multiplicity
 _atom_site_fract_x
 _atom_site_fract_y
 _atom_site_fract_z
 _atom_site_occupancy
  Ta  Ta0  1  0.250000  0.975947  0.328812  1
  Ta  Ta1  1  0.750000  0.023527  0.672184  1
  Ta  Ta2  1  0.250000  0.475932  0.172004  1
  Nb  Nb3  1  0.750000  0.524129  0.828233  1
  Si  Si4  1  0.250000  0.232195  0.875200  1
  Si  Si5  1  0.250000  0.731160  0.625161  1
  Si  Si6  1  0.750000  0.768001  0.123458  1
  Si  Si7  1  0.750000  0.268060  0.376182  1
  Ir  Ir8  1  0.250000  0.856153  0.936172  1
  Ir  Ir9  1  0.250000  0.353214  0.562400  1
  Ir  Ir10  1  0.750000  0.646113  0.434307  1
  Ir  Ir11  1  0.750000  0.145570  0.065886  1
