# generated using pymatgen
data_RbAs(HO2)2
_symmetry_space_group_name_H-M   'P 1'
_cell_length_a   6.78103440
_cell_length_b   6.78103487
_cell_length_c   6.78103498
_cell_angle_alpha   108.21584696
_cell_angle_beta   108.21584521
_cell_angle_gamma   112.01224769
_symmetry_Int_Tables_number   1
_chemical_formula_structural   RbAs(HO2)2
_chemical_formula_sum   'Rb2 As2 H4 O8'
_cell_volume   239.67445714
_cell_formula_units_Z   2
loop_
 _symmetry_equiv_pos_site_id
 _symmetry_equiv_pos_as_xyz
  1  'x, y, z'
loop_
 _atom_site_type_symbol
 _atom_site_label
 _atom_site_symmetry_multiplicity
 _atom_site_fract_x
 _atom_site_fract_y
 _atom_site_fract_z
 _atom_site_occupancy
  Rb  Rb0  1  0.750000  0.250000  0.500000  1
  Rb  Rb1  1  0.500000  0.500000  0.000000  1
  As  As2  1  0.250000  0.750000  0.500000  1
  As  As3  1  0.000000  0.000000  0.000000  1
  H  H4  1  0.265152  0.875000  0.890152  1
  H  H5  1  0.984848  0.375000  0.109848  1
  H  H6  1  0.625000  0.734848  0.609848  1
  H  H7  1  0.125000  0.015152  0.390152  1
  O  O8  1  0.264992  0.714931  0.745111  1
  O  O9  1  0.280180  0.035069  0.050061  1
  O  O10  1  0.969820  0.519882  0.254889  1
  O  O11  1  0.985008  0.230118  0.949939  1
  O  O12  1  0.480118  0.735008  0.449939  1
  O  O13  1  0.964931  0.014992  0.245111  1
  O  O14  1  0.285069  0.030180  0.550061  1
  O  O15  1  0.769882  0.719820  0.754889  1
