# generated using pymatgen
data_K4YPaTe6
_symmetry_space_group_name_H-M   'P 1'
_cell_length_a   8.06548021
_cell_length_b   8.06547991
_cell_length_c   8.63959000
_cell_angle_alpha   80.90927856
_cell_angle_beta   80.90927891
_cell_angle_gamma   120.06300391
_symmetry_Int_Tables_number   1
_chemical_formula_structural   K4YPaTe6
_chemical_formula_sum   'K4 Y1 Pa1 Te6'
_cell_volume   461.44371855
_cell_formula_units_Z   1
loop_
 _symmetry_equiv_pos_site_id
 _symmetry_equiv_pos_as_xyz
  1  'x, y, z'
loop_
 _atom_site_type_symbol
 _atom_site_label
 _atom_site_symmetry_multiplicity
 _atom_site_fract_x
 _atom_site_fract_y
 _atom_site_fract_z
 _atom_site_occupancy
  K  K0  1  0.345171  0.654829  0.500000  1
  K  K1  1  0.654474  0.345526  0.500000  1
  K  K2  1  0.000274  0.999726  0.500000  1
  K  K3  1  0.499961  0.500039  0.000000  1
  Y  Y4  1  0.168043  0.831957  0.000000  1
  Pa  Pa5  1  0.831879  0.168121  0.000000  1
  Te  Te6  1  0.794384  0.801965  0.209486  1
  Te  Te7  1  0.435439  0.061050  0.213331  1
  Te  Te8  1  0.052820  0.419429  0.212766  1
  Te  Te9  1  0.580571  0.947180  0.787234  1
  Te  Te10  1  0.938950  0.564561  0.786669  1
  Te  Te11  1  0.198035  0.205616  0.790514  1
