# generated using pymatgen
data_Nd2DyCoSn6
_symmetry_space_group_name_H-M   'P 1'
_cell_length_a   8.56247681
_cell_length_b   8.56247716
_cell_length_c   13.34887600
_cell_angle_alpha   90.00000000
_cell_angle_beta   90.00000000
_cell_angle_gamma   148.76921745
_symmetry_Int_Tables_number   1
_chemical_formula_structural   Nd2DyCoSn6
_chemical_formula_sum   'Nd4 Dy2 Co2 Sn12'
_cell_volume   507.43564807
_cell_formula_units_Z   2
loop_
 _symmetry_equiv_pos_site_id
 _symmetry_equiv_pos_as_xyz
  1  'x, y, z'
loop_
 _atom_site_type_symbol
 _atom_site_label
 _atom_site_symmetry_multiplicity
 _atom_site_fract_x
 _atom_site_fract_y
 _atom_site_fract_z
 _atom_site_occupancy
  Nd  Nd0  1  0.900239  0.099761  0.091729  1
  Nd  Nd1  1  0.099761  0.900239  0.591729  1
  Nd  Nd2  1  0.099761  0.900239  0.908271  1
  Nd  Nd3  1  0.900239  0.099761  0.408271  1
  Dy  Dy4  1  0.898052  0.101948  0.750000  1
  Dy  Dy5  1  0.101948  0.898052  0.250000  1
  Co  Co6  1  0.298470  0.701530  0.250000  1
  Co  Co7  1  0.701530  0.298470  0.750000  1
  Sn  Sn8  1  0.754271  0.245729  0.572143  1
  Sn  Sn9  1  0.428702  0.571298  0.579664  1
  Sn  Sn10  1  0.571298  0.428702  0.420336  1
  Sn  Sn11  1  0.734549  0.265451  0.250000  1
  Sn  Sn12  1  0.265451  0.734549  0.750000  1
  Sn  Sn13  1  0.245729  0.754271  0.072143  1
  Sn  Sn14  1  0.245729  0.754271  0.427857  1
  Sn  Sn15  1  0.571298  0.428702  0.079664  1
  Sn  Sn16  1  0.453763  0.546237  0.250000  1
  Sn  Sn17  1  0.546237  0.453763  0.750000  1
  Sn  Sn18  1  0.754271  0.245729  0.927857  1
  Sn  Sn19  1  0.428702  0.571298  0.920336  1
