# generated using pymatgen
data_La3Lu(PPt)4
_symmetry_space_group_name_H-M   'P 1'
_cell_length_a   4.18547800
_cell_length_b   4.18547813
_cell_length_c   16.25803500
_cell_angle_alpha   90.00000000
_cell_angle_beta   90.00000000
_cell_angle_gamma   119.99998318
_symmetry_Int_Tables_number   1
_chemical_formula_structural   La3Lu(PPt)4
_chemical_formula_sum   'La3 Lu1 P4 Pt4'
_cell_volume   246.65441851
_cell_formula_units_Z   1
loop_
 _symmetry_equiv_pos_site_id
 _symmetry_equiv_pos_as_xyz
  1  'x, y, z'
loop_
 _atom_site_type_symbol
 _atom_site_label
 _atom_site_symmetry_multiplicity
 _atom_site_fract_x
 _atom_site_fract_y
 _atom_site_fract_z
 _atom_site_occupancy
  La  La0  1  0.000000  0.000000  0.510513  1
  La  La1  1  0.000000  0.000000  0.989487  1
  La  La2  1  0.000000  0.000000  0.250000  1
  Lu  Lu3  1  0.000000  0.000000  0.750000  1
  P  P4  1  0.333333  0.666667  0.871064  1
  P  P5  1  0.666667  0.333333  0.123294  1
  P  P6  1  0.666667  0.333333  0.376706  1
  P  P7  1  0.333333  0.666667  0.628936  1
  Pt  Pt8  1  0.333333  0.666667  0.381375  1
  Pt  Pt9  1  0.666667  0.333333  0.647830  1
  Pt  Pt10  1  0.666667  0.333333  0.852170  1
  Pt  Pt11  1  0.333333  0.666667  0.118625  1
