# generated using pymatgen
data_LiY16Ni4Ag3
_symmetry_space_group_name_H-M   'P 1'
_cell_length_a   9.54185680
_cell_length_b   9.53662788
_cell_length_c   9.53662700
_cell_angle_alpha   59.99999958
_cell_angle_beta   60.01812557
_cell_angle_gamma   60.01813565
_symmetry_Int_Tables_number   1
_chemical_formula_structural   LiY16Ni4Ag3
_chemical_formula_sum   'Li1 Y16 Ni4 Ag3'
_cell_volume   613.79944363
_cell_formula_units_Z   1
loop_
 _symmetry_equiv_pos_site_id
 _symmetry_equiv_pos_as_xyz
  1  'x, y, z'
loop_
 _atom_site_type_symbol
 _atom_site_label
 _atom_site_symmetry_multiplicity
 _atom_site_fract_x
 _atom_site_fract_y
 _atom_site_fract_z
 _atom_site_occupancy
  Li  Li0  1  0.545613  0.818129  0.818129  1
  Y  Y1  1  0.059363  0.439195  0.439195  1
  Y  Y2  1  0.435741  0.064247  0.064247  1
  Y  Y3  1  0.435741  0.064247  0.435765  1
  Y  Y4  1  0.059363  0.439195  0.062247  1
  Y  Y5  1  0.435741  0.435765  0.064247  1
  Y  Y6  1  0.059363  0.062247  0.439195  1
  Y  Y7  1  0.182573  0.815332  0.815332  1
  Y  Y8  1  0.813557  0.185302  0.185302  1
  Y  Y9  1  0.813557  0.185302  0.815840  1
  Y  Y10  1  0.182573  0.815332  0.186764  1
  Y  Y11  1  0.813557  0.815840  0.185302  1
  Y  Y12  1  0.182573  0.186764  0.815332  1
  Y  Y13  1  0.600444  0.599521  0.599521  1
  Y  Y14  1  0.600444  0.599521  0.200514  1
  Y  Y15  1  0.600444  0.200514  0.599521  1
  Y  Y16  1  0.189935  0.603355  0.603355  1
  Ni  Ni17  1  0.390529  0.394182  0.394182  1
  Ni  Ni18  1  0.390529  0.394182  0.821105  1
  Ni  Ni19  1  0.390529  0.821105  0.394182  1
  Ni  Ni20  1  0.820010  0.393330  0.393330  1
  Ag  Ag21  1  0.832607  0.833278  0.833278  1
  Ag  Ag22  1  0.832607  0.833278  0.500837  1
  Ag  Ag23  1  0.832607  0.500837  0.833278  1
