# generated using pymatgen
data_Hf6Al16Ni6Rh
_symmetry_space_group_name_H-M   'P 1'
_cell_length_a   8.53947962
_cell_length_b   8.53273007
_cell_length_c   8.53200248
_cell_angle_alpha   60.05504601
_cell_angle_beta   59.98037288
_cell_angle_gamma   59.96995035
_symmetry_Int_Tables_number   1
_chemical_formula_structural   Hf6Al16Ni6Rh
_chemical_formula_sum   'Hf6 Al16 Ni6 Rh1'
_cell_volume   439.61493745
_cell_formula_units_Z   1
loop_
 _symmetry_equiv_pos_site_id
 _symmetry_equiv_pos_as_xyz
  1  'x, y, z'
loop_
 _atom_site_type_symbol
 _atom_site_label
 _atom_site_symmetry_multiplicity
 _atom_site_fract_x
 _atom_site_fract_y
 _atom_site_fract_z
 _atom_site_occupancy
  Hf  Hf0  1  0.687003  0.313041  0.312993  1
  Hf  Hf1  1  0.312992  0.686962  0.687011  1
  Hf  Hf2  1  0.311781  0.688193  0.311748  1
  Hf  Hf3  1  0.312214  0.312265  0.687775  1
  Hf  Hf4  1  0.688221  0.311802  0.688253  1
  Hf  Hf5  1  0.687785  0.687731  0.312225  1
  Al  Al6  1  0.334192  0.334524  0.334385  1
  Al  Al7  1  0.334551  0.334119  0.996918  1
  Al  Al8  1  0.996877  0.334393  0.334513  1
  Al  Al9  1  0.334429  0.996875  0.334153  1
  Al  Al10  1  0.665809  0.665474  0.665615  1
  Al  Al11  1  0.665448  0.665880  0.003084  1
  Al  Al12  1  0.665571  0.003125  0.665845  1
  Al  Al13  1  0.003120  0.665606  0.665488  1
  Al  Al14  1  0.120521  0.120390  0.120323  1
  Al  Al15  1  0.120385  0.120536  0.638723  1
  Al  Al16  1  0.638779  0.120315  0.120364  1
  Al  Al17  1  0.120368  0.638706  0.120524  1
  Al  Al18  1  0.879480  0.879611  0.879678  1
  Al  Al19  1  0.879615  0.879464  0.361277  1
  Al  Al20  1  0.879630  0.361297  0.879475  1
  Al  Al21  1  0.361221  0.879684  0.879636  1
  Ni  Ni22  1  0.500003  0.000006  0.999991  1
  Ni  Ni23  1  0.000002  0.499999  0.499998  1
  Ni  Ni24  1  0.000004  0.499996  0.999996  1
  Ni  Ni25  1  0.999995  0.000001  0.500001  1
  Ni  Ni26  1  0.500001  0.999994  0.500003  1
  Ni  Ni27  1  0.499996  0.500001  0.000001  1
  Rh  Rh28  1  0.000004  0.000009  0.000001  1
