# generated using pymatgen
data_NaIn(PSe3)2
_symmetry_space_group_name_H-M   'P 1'
_cell_length_a   6.70159500
_cell_length_b   6.70159394
_cell_length_c   14.63063700
_cell_angle_alpha   90.00000000
_cell_angle_beta   90.00000000
_cell_angle_gamma   120.00001018
_symmetry_Int_Tables_number   1
_chemical_formula_structural   NaIn(PSe3)2
_chemical_formula_sum   'Na2 In2 P4 Se12'
_cell_volume   569.04958411
_cell_formula_units_Z   2
loop_
 _symmetry_equiv_pos_site_id
 _symmetry_equiv_pos_as_xyz
  1  'x, y, z'
loop_
 _atom_site_type_symbol
 _atom_site_label
 _atom_site_symmetry_multiplicity
 _atom_site_fract_x
 _atom_site_fract_y
 _atom_site_fract_z
 _atom_site_occupancy
  Na  Na0  1  0.666667  0.333333  0.250000  1
  Na  Na1  1  0.333333  0.666667  0.750000  1
  In  In2  1  0.000000  0.000000  0.250000  1
  In  In3  1  0.000000  0.000000  0.750000  1
  P  P4  1  0.666667  0.333333  0.672096  1
  P  P5  1  0.666667  0.333333  0.827904  1
  P  P6  1  0.333333  0.666667  0.327904  1
  P  P7  1  0.333333  0.666667  0.172096  1
  Se  Se8  1  0.967666  0.305237  0.873518  1
  Se  Se9  1  0.337571  0.305237  0.626482  1
  Se  Se10  1  0.967666  0.662429  0.626482  1
  Se  Se11  1  0.694763  0.032334  0.626482  1
  Se  Se12  1  0.305237  0.337571  0.126482  1
  Se  Se13  1  0.662429  0.967666  0.126482  1
  Se  Se14  1  0.032334  0.694763  0.126482  1
  Se  Se15  1  0.662429  0.694763  0.373518  1
  Se  Se16  1  0.032334  0.337571  0.373518  1
  Se  Se17  1  0.305237  0.967666  0.373518  1
  Se  Se18  1  0.694763  0.662429  0.873518  1
  Se  Se19  1  0.337571  0.032334  0.873518  1
