# generated using pymatgen
data_Rb2SmEr3(CuSe4)2
_symmetry_space_group_name_H-M   'P 1'
_cell_length_a   4.14064900
_cell_length_b   7.44743156
_cell_length_c   14.46248978
_cell_angle_alpha   90.19086656
_cell_angle_beta   90.00000000
_cell_angle_gamma   73.85962168
_symmetry_Int_Tables_number   1
_chemical_formula_structural   Rb2SmEr3(CuSe4)2
_chemical_formula_sum   'Rb2 Sm1 Er3 Cu2 Se8'
_cell_volume   428.40102933
_cell_formula_units_Z   1
loop_
 _symmetry_equiv_pos_site_id
 _symmetry_equiv_pos_as_xyz
  1  'x, y, z'
loop_
 _atom_site_type_symbol
 _atom_site_label
 _atom_site_symmetry_multiplicity
 _atom_site_fract_x
 _atom_site_fract_y
 _atom_site_fract_z
 _atom_site_occupancy
  Rb  Rb0  1  0.890090  0.219821  0.250609  1
  Rb  Rb1  1  0.109869  0.780263  0.748930  1
  Sm  Sm2  1  0.367372  0.265255  0.936461  1
  Er  Er3  1  0.634932  0.730138  0.065159  1
  Er  Er4  1  0.633437  0.733128  0.436299  1
  Er  Er5  1  0.366118  0.267764  0.561874  1
  Cu  Cu6  1  0.162380  0.675241  0.250798  1
  Cu  Cu7  1  0.837079  0.325843  0.750273  1
  Se  Se8  1  0.004135  0.991730  0.002541  1
  Se  Se9  1  0.260052  0.479895  0.110124  1
  Se  Se10  1  0.570961  0.858079  0.251042  1
  Se  Se11  1  0.259948  0.480103  0.392575  1
  Se  Se12  1  0.000056  0.999888  0.499631  1
  Se  Se13  1  0.739907  0.520188  0.607054  1
  Se  Se14  1  0.428827  0.142347  0.745933  1
  Se  Se15  1  0.734843  0.530315  0.890694  1
