# generated using pymatgen
data_Nb12Al7IrN4
_symmetry_space_group_name_H-M   'P 1'
_cell_length_a   7.07640580
_cell_length_b   7.07640580
_cell_length_c   7.07640580
_cell_angle_alpha   89.80814155
_cell_angle_beta   90.19185845
_cell_angle_gamma   90.19185845
_symmetry_Int_Tables_number   1
_chemical_formula_structural   Nb12Al7IrN4
_chemical_formula_sum   'Nb12 Al7 Ir1 N4'
_cell_volume   354.34874724
_cell_formula_units_Z   1
loop_
 _symmetry_equiv_pos_site_id
 _symmetry_equiv_pos_as_xyz
  1  'x, y, z'
loop_
 _atom_site_type_symbol
 _atom_site_label
 _atom_site_symmetry_multiplicity
 _atom_site_fract_x
 _atom_site_fract_y
 _atom_site_fract_z
 _atom_site_occupancy
  Nb  Nb0  1  0.792903  0.956500  0.373120  1
  Nb  Nb1  1  0.708522  0.044435  0.877548  1
  Nb  Nb2  1  0.206393  0.456069  0.122021  1
  Nb  Nb3  1  0.294602  0.545406  0.628866  1
  Nb  Nb4  1  0.955565  0.377548  0.791478  1
  Nb  Nb5  1  0.043500  0.873120  0.707097  1
  Nb  Nb6  1  0.454594  0.128866  0.205398  1
  Nb  Nb7  1  0.543931  0.622021  0.293607  1
  Nb  Nb8  1  0.377979  0.793607  0.956069  1
  Nb  Nb9  1  0.871134  0.705398  0.045406  1
  Nb  Nb10  1  0.126880  0.207097  0.456500  1
  Nb  Nb11  1  0.622452  0.291478  0.544435  1
  Al  Al12  1  0.321565  0.175510  0.820609  1
  Al  Al13  1  0.824490  0.320609  0.178435  1
  Al  Al14  1  0.679391  0.678435  0.675510  1
  Al  Al15  1  0.570575  0.429425  0.929425  1
  Al  Al16  1  0.420969  0.925839  0.561602  1
  Al  Al17  1  0.938398  0.579031  0.425839  1
  Al  Al18  1  0.074161  0.061602  0.079031  1
  Ir  Ir19  1  0.180234  0.819766  0.319766  1
  N  N20  1  0.875850  0.124150  0.624150  1
  N  N21  1  0.621991  0.876969  0.129109  1
  N  N22  1  0.123031  0.629109  0.878009  1
  N  N23  1  0.370891  0.378009  0.376969  1
