# generated using pymatgen
data_EuYF5
_symmetry_space_group_name_H-M   'P 1'
_cell_length_a   8.23857433
_cell_length_b   8.23857395
_cell_length_c   5.79780898
_cell_angle_alpha   89.06476428
_cell_angle_beta   89.06475367
_cell_angle_gamma   149.50213788
_symmetry_Int_Tables_number   1
_chemical_formula_structural   EuYF5
_chemical_formula_sum   'Eu2 Y2 F10'
_cell_volume   199.32944562
_cell_formula_units_Z   2
loop_
 _symmetry_equiv_pos_site_id
 _symmetry_equiv_pos_as_xyz
  1  'x, y, z'
loop_
 _atom_site_type_symbol
 _atom_site_label
 _atom_site_symmetry_multiplicity
 _atom_site_fract_x
 _atom_site_fract_y
 _atom_site_fract_z
 _atom_site_occupancy
  Eu  Eu0  1  0.323559  0.676441  0.750000  1
  Eu  Eu1  1  0.676441  0.323559  0.250000  1
  Y  Y2  1  0.075730  0.924270  0.750000  1
  Y  Y3  1  0.924270  0.075730  0.250000  1
  F  F4  1  0.728239  0.806680  0.602276  1
  F  F5  1  0.806680  0.728239  0.102276  1
  F  F6  1  0.801043  0.180295  0.002790  1
  F  F7  1  0.622247  0.377753  0.750000  1
  F  F8  1  0.819705  0.198957  0.497210  1
  F  F9  1  0.180295  0.801043  0.502790  1
  F  F10  1  0.377753  0.622247  0.250000  1
  F  F11  1  0.198957  0.819705  0.997210  1
  F  F12  1  0.193320  0.271761  0.897724  1
  F  F13  1  0.271761  0.193320  0.397724  1
