# generated using pymatgen
data_Tm2Mn4Co6SiP5
_symmetry_space_group_name_H-M   'P 1'
_cell_length_a   3.61905300
_cell_length_b   10.34196500
_cell_length_c   12.05473700
_cell_angle_alpha   90.00000000
_cell_angle_beta   90.00000000
_cell_angle_gamma   90.00000000
_symmetry_Int_Tables_number   1
_chemical_formula_structural   Tm2Mn4Co6SiP5
_chemical_formula_sum   'Tm4 Mn8 Co12 Si2 P10'
_cell_volume   451.18613648
_cell_formula_units_Z   2
loop_
 _symmetry_equiv_pos_site_id
 _symmetry_equiv_pos_as_xyz
  1  'x, y, z'
loop_
 _atom_site_type_symbol
 _atom_site_label
 _atom_site_symmetry_multiplicity
 _atom_site_fract_x
 _atom_site_fract_y
 _atom_site_fract_z
 _atom_site_occupancy
  Tm  Tm0  1  0.250000  0.583004  0.708919  1
  Tm  Tm1  1  0.250000  0.916996  0.208919  1
  Tm  Tm2  1  0.750000  0.417043  0.292581  1
  Tm  Tm3  1  0.750000  0.082957  0.792581  1
  Mn  Mn4  1  0.250000  0.713768  0.991642  1
  Mn  Mn5  1  0.250000  0.786232  0.491642  1
  Mn  Mn6  1  0.750000  0.286259  0.008771  1
  Mn  Mn7  1  0.750000  0.213741  0.508771  1
  Mn  Mn8  1  0.250000  0.407458  0.491651  1
  Mn  Mn9  1  0.250000  0.092542  0.991651  1
  Mn  Mn10  1  0.750000  0.593045  0.509186  1
  Mn  Mn11  1  0.750000  0.906955  0.009186  1
  Co  Co12  1  0.250000  0.215939  0.178580  1
  Co  Co13  1  0.250000  0.284061  0.678580  1
  Co  Co14  1  0.750000  0.777874  0.823808  1
  Co  Co15  1  0.750000  0.722126  0.323808  1
  Co  Co16  1  0.250000  0.879917  0.697207  1
  Co  Co17  1  0.250000  0.620083  0.197207  1
  Co  Co18  1  0.750000  0.116573  0.303723  1
  Co  Co19  1  0.750000  0.383427  0.803723  1
  Co  Co20  1  0.250000  0.467181  0.929937  1
  Co  Co21  1  0.250000  0.032819  0.429937  1
  Co  Co22  1  0.750000  0.538376  0.064584  1
  Co  Co23  1  0.750000  0.961624  0.564584  1
  Si  Si24  1  0.250000  0.417185  0.110622  1
  Si  Si25  1  0.250000  0.082815  0.610622  1
  P  P26  1  0.750000  0.580498  0.887521  1
  P  P27  1  0.750000  0.919502  0.387521  1
  P  P28  1  0.250000  0.269057  0.867506  1
  P  P29  1  0.250000  0.230943  0.367506  1
  P  P30  1  0.750000  0.731771  0.133713  1
  P  P31  1  0.750000  0.768229  0.633713  1
  P  P32  1  0.250000  0.598733  0.382687  1
  P  P33  1  0.250000  0.901267  0.882687  1
  P  P34  1  0.750000  0.401417  0.617360  1
  P  P35  1  0.750000  0.098583  0.117360  1
