# generated using pymatgen
data_Rb2NpBiO6
_symmetry_space_group_name_H-M   'P 1'
_cell_length_a   6.24257962
_cell_length_b   6.24257914
_cell_length_c   6.24258000
_cell_angle_alpha   60.00000602
_cell_angle_beta   60.00000857
_cell_angle_gamma   90.00000459
_symmetry_Int_Tables_number   1
_chemical_formula_structural   Rb2NpBiO6
_chemical_formula_sum   'Rb2 Np1 Bi1 O6'
_cell_volume   172.01936638
_cell_formula_units_Z   1
loop_
 _symmetry_equiv_pos_site_id
 _symmetry_equiv_pos_as_xyz
  1  'x, y, z'
loop_
 _atom_site_type_symbol
 _atom_site_label
 _atom_site_symmetry_multiplicity
 _atom_site_fract_x
 _atom_site_fract_y
 _atom_site_fract_z
 _atom_site_occupancy
  Rb  Rb0  1  0.250001  0.749999  0.499999  1
  Rb  Rb1  1  0.749999  0.249999  0.500002  1
  Np  Np2  1  0.000000  0.000000  0.000000  1
  Bi  Bi3  1  0.499999  0.499999  0.000000  1
  O  O4  1  0.230994  0.230994  0.000000  1
  O  O5  1  0.769003  0.230997  0.000000  1
  O  O6  1  0.230994  0.769004  0.000000  1
  O  O7  1  0.769004  0.769004  0.000000  1
  O  O8  1  0.769005  0.769005  0.461990  1
  O  O9  1  0.230995  0.230995  0.538008  1
