# generated using pymatgen
data_La2Yb3Ge5P7Ir19
_symmetry_space_group_name_H-M   'P 1'
_cell_length_a   12.95506878
_cell_length_b   12.92405166
_cell_length_c   3.99516100
_cell_angle_alpha   90.00000000
_cell_angle_beta   90.00000000
_cell_angle_gamma   119.57761167
_symmetry_Int_Tables_number   1
_chemical_formula_structural   La2Yb3Ge5P7Ir19
_chemical_formula_sum   'La2 Yb3 Ge5 P7 Ir19'
_cell_volume   581.74961849
_cell_formula_units_Z   1
loop_
 _symmetry_equiv_pos_site_id
 _symmetry_equiv_pos_as_xyz
  1  'x, y, z'
loop_
 _atom_site_type_symbol
 _atom_site_label
 _atom_site_symmetry_multiplicity
 _atom_site_fract_x
 _atom_site_fract_y
 _atom_site_fract_z
 _atom_site_occupancy
  La  La0  1  0.180129  0.183110  0.500000  1
  La  La1  1  0.819549  0.001872  0.500000  1
  Yb  Yb2  1  0.000153  0.815302  0.500000  1
  Yb  Yb3  1  0.339096  0.670120  0.000000  1
  Yb  Yb4  1  0.662386  0.330130  0.000000  1
  Ge  Ge5  1  0.517993  0.679699  0.500000  1
  Ge  Ge6  1  0.316593  0.831189  0.500000  1
  Ge  Ge7  1  0.171527  0.492643  0.500000  1
  Ge  Ge8  1  0.483205  0.163750  0.500000  1
  Ge  Ge9  1  0.683708  0.511772  0.500000  1
  P  P10  1  0.999799  0.187725  0.000000  1
  P  P11  1  0.825116  0.816785  0.000000  1
  P  P12  1  0.176065  0.996574  0.000000  1
  P  P13  1  0.821252  0.308403  0.500000  1
  P  P14  1  0.003077  0.638572  0.000000  1
  P  P15  1  0.367233  0.366262  0.000000  1
  P  P16  1  0.632437  0.997135  0.000000  1
  Ir  Ir17  1  0.995202  0.287496  0.500000  1
  Ir  Ir18  1  0.728570  0.722414  0.500000  1
  Ir  Ir19  1  0.273988  0.998788  0.500000  1
  Ir  Ir20  1  0.634204  0.810717  0.000000  1
  Ir  Ir21  1  0.187455  0.820167  0.000000  1
  Ir  Ir22  1  0.179922  0.371981  0.000000  1
  Ir  Ir23  1  0.366700  0.179204  0.000000  1
  Ir  Ir24  1  0.817452  0.627754  0.000000  1
  Ir  Ir25  1  0.821041  0.204792  0.000000  1
  Ir  Ir26  1  0.520315  0.873865  0.500000  1
  Ir  Ir27  1  0.117353  0.646052  0.500000  1
  Ir  Ir28  1  0.355561  0.477237  0.500000  1
  Ir  Ir29  1  0.479516  0.353811  0.500000  1
  Ir  Ir30  1  0.870515  0.502375  0.500000  1
  Ir  Ir31  1  0.646783  0.123023  0.500000  1
  Ir  Ir32  1  0.998725  0.003334  0.000000  1
  Ir  Ir33  1  0.004959  0.459465  0.000000  1
  Ir  Ir34  1  0.546421  0.544696  0.000000  1
  Ir  Ir35  1  0.456000  0.001786  0.000000  1
