# generated using pymatgen
data_RbMn3S4
_symmetry_space_group_name_H-M   'P 1'
_cell_length_a   9.72654100
_cell_length_b   9.72654130
_cell_length_c   7.39820300
_cell_angle_alpha   90.00000000
_cell_angle_beta   90.00000000
_cell_angle_gamma   147.46412626
_symmetry_Int_Tables_number   1
_chemical_formula_structural   RbMn3S4
_chemical_formula_sum   'Rb2 Mn6 S8'
_cell_volume   376.43167136
_cell_formula_units_Z   2
loop_
 _symmetry_equiv_pos_site_id
 _symmetry_equiv_pos_as_xyz
  1  'x, y, z'
loop_
 _atom_site_type_symbol
 _atom_site_label
 _atom_site_symmetry_multiplicity
 _atom_site_fract_x
 _atom_site_fract_y
 _atom_site_fract_z
 _atom_site_occupancy
  Rb  Rb0  1  0.475986  0.097132  0.750000  1
  Rb  Rb1  1  0.097132  0.475986  0.250000  1
  Mn  Mn2  1  0.436060  0.649754  0.750000  1
  Mn  Mn3  1  0.649754  0.436060  0.250000  1
  Mn  Mn4  1  0.583556  0.583556  0.500000  1
  Mn  Mn5  1  0.583556  0.583556  0.000000  1
  Mn  Mn6  1  0.144329  0.940353  0.250000  1
  Mn  Mn7  1  0.940353  0.144329  0.750000  1
  S  S8  1  0.080453  0.477422  0.750000  1
  S  S9  1  0.325128  0.314152  0.250000  1
  S  S10  1  0.893617  0.679203  0.003818  1
  S  S11  1  0.679203  0.893617  0.996182  1
  S  S12  1  0.893617  0.679203  0.496182  1
  S  S13  1  0.679203  0.893617  0.503818  1
  S  S14  1  0.314152  0.325128  0.750000  1
  S  S15  1  0.477422  0.080453  0.250000  1
