# generated using pymatgen
data_K4Zr6GeI18
_symmetry_space_group_name_H-M   'P 1'
_cell_length_a   11.32486350
_cell_length_b   11.46966091
_cell_length_c   11.58156491
_cell_angle_alpha   118.52385793
_cell_angle_beta   100.07099098
_cell_angle_gamma   103.79163411
_symmetry_Int_Tables_number   1
_chemical_formula_structural   K4Zr6GeI18
_chemical_formula_sum   'K4 Zr6 Ge1 I18'
_cell_volume   1207.94070620
_cell_formula_units_Z   1
loop_
 _symmetry_equiv_pos_site_id
 _symmetry_equiv_pos_as_xyz
  1  'x, y, z'
loop_
 _atom_site_type_symbol
 _atom_site_label
 _atom_site_symmetry_multiplicity
 _atom_site_fract_x
 _atom_site_fract_y
 _atom_site_fract_z
 _atom_site_occupancy
  K  K0  1  0.653271  0.538586  0.227716  1
  K  K1  1  0.346729  0.461414  0.772284  1
  K  K2  1  0.686729  0.224073  0.563460  1
  K  K3  1  0.313271  0.775927  0.436540  1
  Zr  Zr4  1  0.150916  0.056653  0.231866  1
  Zr  Zr5  1  0.849084  0.943347  0.768134  1
  Zr  Zr6  1  0.860620  0.126956  0.133455  1
  Zr  Zr7  1  0.139380  0.873044  0.866545  1
  Zr  Zr8  1  0.146241  0.240611  0.045549  1
  Zr  Zr9  1  0.853759  0.759389  0.954451  1
  Ge  Ge10  1  0.000000  0.000000  0.000000  1
  I  I11  1  0.007191  0.410929  0.197850  1
  I  I12  1  0.992809  0.589071  0.802150  1
  I  I13  1  0.329432  0.334628  0.312276  1
  I  I14  1  0.670568  0.665372  0.687724  1
  I  I15  1  0.322766  0.525045  0.100579  1
  I  I16  1  0.677234  0.474955  0.899421  1
  I  I17  1  0.004027  0.795111  0.209911  1
  I  I18  1  0.995973  0.204889  0.790089  1
  I  I19  1  0.700110  0.277189  0.289853  1
  I  I20  1  0.299890  0.722811  0.710147  1
  I  I21  1  0.318209  0.127918  0.902745  1
  I  I22  1  0.681791  0.872082  0.097255  1
  I  I23  1  0.013757  0.205483  0.409699  1
  I  I24  1  0.986243  0.794517  0.590301  1
  I  I25  1  0.322015  0.922472  0.110457  1
  I  I26  1  0.677985  0.077528  0.889543  1
  I  I27  1  0.333589  0.121382  0.504492  1
  I  I28  1  0.666411  0.878618  0.495508  1
