# generated using pymatgen
data_Lu8V11Si16Ag
_symmetry_space_group_name_H-M   'P 1'
_cell_length_a   6.61234974
_cell_length_b   6.82108413
_cell_length_c   12.80454500
_cell_angle_alpha   90.00000000
_cell_angle_beta   90.00000000
_cell_angle_gamma   89.56850926
_symmetry_Int_Tables_number   1
_chemical_formula_structural   Lu8V11Si16Ag
_chemical_formula_sum   'Lu8 V11 Si16 Ag1'
_cell_volume   577.51205957
_cell_formula_units_Z   1
loop_
 _symmetry_equiv_pos_site_id
 _symmetry_equiv_pos_as_xyz
  1  'x, y, z'
loop_
 _atom_site_type_symbol
 _atom_site_label
 _atom_site_symmetry_multiplicity
 _atom_site_fract_x
 _atom_site_fract_y
 _atom_site_fract_z
 _atom_site_occupancy
  Lu  Lu0  1  0.499155  0.329272  0.092783  1
  Lu  Lu1  1  0.999643  0.168530  0.406200  1
  Lu  Lu2  1  0.498803  0.669430  0.596326  1
  Lu  Lu3  1  0.002573  0.832135  0.901944  1
  Lu  Lu4  1  0.498803  0.669430  0.903674  1
  Lu  Lu5  1  0.002573  0.832135  0.598056  1
  Lu  Lu6  1  0.499155  0.329272  0.407217  1
  Lu  Lu7  1  0.999643  0.168530  0.093800  1
  V  V8  1  0.836580  0.328550  0.625416  1
  V  V9  1  0.336952  0.171367  0.873026  1
  V  V10  1  0.162260  0.673349  0.124983  1
  V  V11  1  0.663761  0.829064  0.374681  1
  V  V12  1  0.162260  0.673349  0.375017  1
  V  V13  1  0.663761  0.829064  0.125319  1
  V  V14  1  0.836580  0.328550  0.874584  1
  V  V15  1  0.336952  0.171367  0.626974  1
  V  V16  1  0.663689  0.011723  0.750000  1
  V  V17  1  0.164303  0.486438  0.750000  1
  V  V18  1  0.334308  0.995173  0.250000  1
  Si  Si19  1  0.662372  0.041350  0.544626  1
  Si  Si20  1  0.162590  0.457293  0.955898  1
  Si  Si21  1  0.338636  0.958425  0.043072  1
  Si  Si22  1  0.837329  0.547594  0.466025  1
  Si  Si23  1  0.338636  0.958425  0.456928  1
  Si  Si24  1  0.837329  0.547594  0.033975  1
  Si  Si25  1  0.662372  0.041350  0.955374  1
  Si  Si26  1  0.162590  0.457293  0.544102  1
  Si  Si27  1  0.538614  0.368618  0.750000  1
  Si  Si28  1  0.037839  0.132281  0.750000  1
  Si  Si29  1  0.452615  0.641442  0.250000  1
  Si  Si30  1  0.966226  0.873033  0.250000  1
  Si  Si31  1  0.801842  0.622347  0.750000  1
  Si  Si32  1  0.304594  0.879380  0.750000  1
  Si  Si33  1  0.212567  0.375844  0.250000  1
  Si  Si34  1  0.692089  0.108024  0.250000  1
  Ag  Ag35  1  0.830008  0.492978  0.250000  1
