# generated using pymatgen
data_Tm3Al3HgAu2
_symmetry_space_group_name_H-M   'P 1'
_cell_length_a   7.20636100
_cell_length_b   7.20636101
_cell_length_c   4.19492600
_cell_angle_alpha   90.00000000
_cell_angle_beta   90.00000000
_cell_angle_gamma   119.99999534
_symmetry_Int_Tables_number   1
_chemical_formula_structural   Tm3Al3HgAu2
_chemical_formula_sum   'Tm3 Al3 Hg1 Au2'
_cell_volume   188.66310831
_cell_formula_units_Z   1
loop_
 _symmetry_equiv_pos_site_id
 _symmetry_equiv_pos_as_xyz
  1  'x, y, z'
loop_
 _atom_site_type_symbol
 _atom_site_label
 _atom_site_symmetry_multiplicity
 _atom_site_fract_x
 _atom_site_fract_y
 _atom_site_fract_z
 _atom_site_occupancy
  Tm  Tm0  1  0.410561  0.417280  0.500000  1
  Tm  Tm1  1  0.582720  0.993281  0.500000  1
  Tm  Tm2  1  0.006719  0.589439  0.500000  1
  Al  Al3  1  0.757632  0.764389  0.000000  1
  Al  Al4  1  0.235611  0.993243  0.000000  1
  Al  Al5  1  0.006757  0.242368  0.000000  1
  Hg  Hg6  1  0.666667  0.333333  0.000000  1
  Au  Au7  1  0.333333  0.666667  0.000000  1
  Au  Au8  1  0.000000  0.000000  0.500000  1
