# generated using pymatgen
data_Cr4PtIO12
_symmetry_space_group_name_H-M   'P 1'
_cell_length_a   4.60244020
_cell_length_b   4.60243909
_cell_length_c   9.25856700
_cell_angle_alpha   89.99987380
_cell_angle_beta   90.00001450
_cell_angle_gamma   90.42105110
_symmetry_Int_Tables_number   1
_chemical_formula_structural   Cr4PtIO12
_chemical_formula_sum   'Cr4 Pt1 I1 O12'
_cell_volume   196.11384338
_cell_formula_units_Z   1
loop_
 _symmetry_equiv_pos_site_id
 _symmetry_equiv_pos_as_xyz
  1  'x, y, z'
loop_
 _atom_site_type_symbol
 _atom_site_label
 _atom_site_symmetry_multiplicity
 _atom_site_fract_x
 _atom_site_fract_y
 _atom_site_fract_z
 _atom_site_occupancy
  Cr  Cr0  1  0.499994  0.500003  0.170174  1
  Cr  Cr1  1  0.000016  0.999991  0.661998  1
  Cr  Cr2  1  0.000016  0.999995  0.338001  1
  Cr  Cr3  1  0.499990  0.500026  0.829834  1
  Pt  Pt4  1  0.500020  0.499987  0.499994  1
  I  I5  1  0.999987  0.000003  0.000008  1
  O  O6  1  0.300038  0.300081  0.999997  1
  O  O7  1  0.195029  0.804979  0.500002  1
  O  O8  1  0.805017  0.194989  0.500002  1
  O  O9  1  0.699922  0.699963  0.999999  1
  O  O10  1  0.305746  0.305718  0.331148  1
  O  O11  1  0.191518  0.808467  0.161269  1
  O  O12  1  0.191518  0.808466  0.838720  1
  O  O13  1  0.305738  0.305727  0.668857  1
  O  O14  1  0.808445  0.191535  0.161282  1
  O  O15  1  0.694290  0.694256  0.331150  1
  O  O16  1  0.694282  0.694269  0.668853  1
  O  O17  1  0.808436  0.191545  0.838711  1
