# generated using pymatgen
data_Pr10Sn20Pd3Rh5
_symmetry_space_group_name_H-M   'P 1'
_cell_length_a   14.31584576
_cell_length_b   14.30973076
_cell_length_c   4.67855100
_cell_angle_alpha   90.00000000
_cell_angle_beta   90.00000000
_cell_angle_gamma   90.07117944
_symmetry_Int_Tables_number   1
_chemical_formula_structural   Pr10Sn20Pd3Rh5
_chemical_formula_sum   'Pr10 Sn20 Pd3 Rh5'
_cell_volume   958.42802901
_cell_formula_units_Z   1
loop_
 _symmetry_equiv_pos_site_id
 _symmetry_equiv_pos_as_xyz
  1  'x, y, z'
loop_
 _atom_site_type_symbol
 _atom_site_label
 _atom_site_symmetry_multiplicity
 _atom_site_fract_x
 _atom_site_fract_y
 _atom_site_fract_z
 _atom_site_occupancy
  Pr  Pr0  1  0.500412  0.501177  0.000000  1
  Pr  Pr1  1  0.997587  0.001235  0.000000  1
  Pr  Pr2  1  0.679197  0.178679  0.500000  1
  Pr  Pr3  1  0.322669  0.820430  0.500000  1
  Pr  Pr4  1  0.176570  0.319624  0.500000  1
  Pr  Pr5  1  0.822826  0.679926  0.500000  1
  Pr  Pr6  1  0.891092  0.388424  0.500000  1
  Pr  Pr7  1  0.108764  0.610645  0.500000  1
  Pr  Pr8  1  0.389310  0.110421  0.500000  1
  Pr  Pr9  1  0.610203  0.889751  0.500000  1
  Sn  Sn10  1  0.569816  0.070628  0.000000  1
  Sn  Sn11  1  0.433804  0.929805  0.000000  1
  Sn  Sn12  1  0.067007  0.429414  0.000000  1
  Sn  Sn13  1  0.933520  0.571037  0.000000  1
  Sn  Sn14  1  0.653164  0.701651  0.000000  1
  Sn  Sn15  1  0.347296  0.298245  0.000000  1
  Sn  Sn16  1  0.152463  0.798671  0.000000  1
  Sn  Sn17  1  0.847328  0.198897  0.000000  1
  Sn  Sn18  1  0.302023  0.654267  0.000000  1
  Sn  Sn19  1  0.698592  0.345119  0.000000  1
  Sn  Sn20  1  0.197560  0.153422  0.000000  1
  Sn  Sn21  1  0.801238  0.847731  0.000000  1
  Sn  Sn22  1  0.662922  0.503038  0.500000  1
  Sn  Sn23  1  0.336780  0.496986  0.500000  1
  Sn  Sn24  1  0.162103  0.996227  0.500000  1
  Sn  Sn25  1  0.835897  0.005566  0.500000  1
  Sn  Sn26  1  0.496511  0.663167  0.500000  1
  Sn  Sn27  1  0.504043  0.335879  0.500000  1
  Sn  Sn28  1  0.002100  0.163931  0.500000  1
  Sn  Sn29  1  0.995886  0.836485  0.500000  1
  Pd  Pd30  1  0.746454  0.529269  0.000000  1
  Pd  Pd31  1  0.253865  0.470627  0.000000  1
  Pd  Pd32  1  0.246880  0.970388  0.000000  1
  Rh  Rh33  1  0.754243  0.029109  0.000000  1
  Rh  Rh34  1  0.470601  0.743975  0.000000  1
  Rh  Rh35  1  0.529537  0.255801  0.000000  1
  Rh  Rh36  1  0.030144  0.243782  0.000000  1
  Rh  Rh37  1  0.969592  0.756568  0.000000  1
