# generated using pymatgen
data_Y3Lu7(In2Ni)4
_symmetry_space_group_name_H-M   'P 1'
_cell_length_a   3.54491800
_cell_length_b   7.92724705
_cell_length_c   17.74178912
_cell_angle_alpha   89.98665438
_cell_angle_beta   90.00000000
_cell_angle_gamma   90.00000000
_symmetry_Int_Tables_number   1
_chemical_formula_structural   Y3Lu7(In2Ni)4
_chemical_formula_sum   'Y3 Lu7 In8 Ni4'
_cell_volume   498.56982262
_cell_formula_units_Z   1
loop_
 _symmetry_equiv_pos_site_id
 _symmetry_equiv_pos_as_xyz
  1  'x, y, z'
loop_
 _atom_site_type_symbol
 _atom_site_label
 _atom_site_symmetry_multiplicity
 _atom_site_fract_x
 _atom_site_fract_y
 _atom_site_fract_z
 _atom_site_occupancy
  Y  Y0  1  0.000000  0.882957  0.087388  1
  Y  Y1  1  0.000000  0.499373  0.999810  1
  Y  Y2  1  0.000000  0.999884  0.500133  1
  Lu  Lu3  1  0.000000  0.754241  0.279092  1
  Lu  Lu4  1  0.000000  0.745425  0.778781  1
  Lu  Lu5  1  0.000000  0.384268  0.410725  1
  Lu  Lu6  1  0.000000  0.116020  0.910244  1
  Lu  Lu7  1  0.000000  0.245505  0.721332  1
  Lu  Lu8  1  0.000000  0.254820  0.221596  1
  Lu  Lu9  1  0.000000  0.615831  0.589548  1
  In  In10  1  0.500000  0.206280  0.068714  1
  In  In11  1  0.500000  0.424586  0.847407  1
  In  In12  1  0.500000  0.573247  0.153082  1
  In  In13  1  0.500000  0.075699  0.347648  1
  In  In14  1  0.500000  0.924478  0.652600  1
  In  In15  1  0.500000  0.796395  0.930473  1
  In  In16  1  0.500000  0.703173  0.431628  1
  In  In17  1  0.500000  0.296880  0.568560  1
  Ni  Ni18  1  0.500000  0.976482  0.197298  1
  Ni  Ni19  1  0.500000  0.024303  0.803776  1
  Ni  Ni20  1  0.500000  0.524397  0.696183  1
  Ni  Ni21  1  0.500000  0.475756  0.303981  1
