# generated using pymatgen
data_CeSm7(P7Ir8)2
_symmetry_space_group_name_H-M   'P 1'
_cell_length_a   3.95169200
_cell_length_b   12.68250838
_cell_length_c   13.08848000
_cell_angle_alpha   81.24411775
_cell_angle_beta   90.00000000
_cell_angle_gamma   90.00000000
_symmetry_Int_Tables_number   1
_chemical_formula_structural   CeSm7(P7Ir8)2
_chemical_formula_sum   'Ce1 Sm7 P14 Ir16'
_cell_volume   648.31552093
_cell_formula_units_Z   1
loop_
 _symmetry_equiv_pos_site_id
 _symmetry_equiv_pos_as_xyz
  1  'x, y, z'
loop_
 _atom_site_type_symbol
 _atom_site_label
 _atom_site_symmetry_multiplicity
 _atom_site_fract_x
 _atom_site_fract_y
 _atom_site_fract_z
 _atom_site_occupancy
  Ce  Ce0  1  0.250000  0.106914  0.788313  1
  Sm  Sm1  1  0.750000  0.896973  0.211904  1
  Sm  Sm2  1  0.250000  0.278808  0.101171  1
  Sm  Sm3  1  0.750000  0.719538  0.898314  1
  Sm  Sm4  1  0.250000  0.519536  0.292564  1
  Sm  Sm5  1  0.750000  0.480712  0.706622  1
  Sm  Sm6  1  0.250000  0.209629  0.438734  1
  Sm  Sm7  1  0.750000  0.791253  0.561432  1
  P  P8  1  0.250000  0.051428  0.101243  1
  P  P9  1  0.750000  0.946918  0.901232  1
  P  P10  1  0.250000  0.312924  0.687465  1
  P  P11  1  0.750000  0.687920  0.311087  1
  P  P12  1  0.250000  0.607894  0.564856  1
  P  P13  1  0.750000  0.393079  0.433474  1
  P  P14  1  0.250000  0.842565  0.720273  1
  P  P15  1  0.750000  0.156784  0.281339  1
  P  P16  1  0.750000  0.254891  0.917947  1
  P  P17  1  0.250000  0.742439  0.081340  1
  P  P18  1  0.750000  0.092566  0.590277  1
  P  P19  1  0.250000  0.908168  0.411166  1
  P  P20  1  0.750000  0.472889  0.127717  1
  P  P21  1  0.250000  0.526812  0.871174  1
  Ir  Ir22  1  0.250000  0.989553  0.578525  1
  Ir  Ir23  1  0.750000  0.010993  0.425490  1
  Ir  Ir24  1  0.250000  0.662009  0.730732  1
  Ir  Ir25  1  0.750000  0.337773  0.267638  1
  Ir  Ir26  1  0.250000  0.554032  0.045793  1
  Ir  Ir27  1  0.750000  0.446509  0.952801  1
  Ir  Ir28  1  0.250000  0.060705  0.274458  1
  Ir  Ir29  1  0.750000  0.938552  0.728305  1
  Ir  Ir30  1  0.250000  0.423697  0.525274  1
  Ir  Ir31  1  0.750000  0.577780  0.473488  1
  Ir  Ir32  1  0.250000  0.914648  0.997148  1
  Ir  Ir33  1  0.750000  0.082477  0.003957  1
  Ir  Ir34  1  0.250000  0.729701  0.394625  1
  Ir  Ir35  1  0.750000  0.271661  0.602358  1
  Ir  Ir36  1  0.250000  0.339831  0.858400  1
  Ir  Ir37  1  0.750000  0.659440  0.141366  1
