# generated using pymatgen
data_Tb7DyNp4O24
_symmetry_space_group_name_H-M   'P 1'
_cell_length_a   5.55122801
_cell_length_b   7.86304780
_cell_length_c   11.90076078
_cell_angle_alpha   73.84615021
_cell_angle_beta   89.99824779
_cell_angle_gamma   89.99244225
_symmetry_Int_Tables_number   1
_chemical_formula_structural   Tb7DyNp4O24
_chemical_formula_sum   'Tb7 Dy1 Np4 O24'
_cell_volume   498.95370720
_cell_formula_units_Z   1
loop_
 _symmetry_equiv_pos_site_id
 _symmetry_equiv_pos_as_xyz
  1  'x, y, z'
loop_
 _atom_site_type_symbol
 _atom_site_label
 _atom_site_symmetry_multiplicity
 _atom_site_fract_x
 _atom_site_fract_y
 _atom_site_fract_z
 _atom_site_occupancy
  Tb  Tb0  1  0.743988  0.000065  0.749891  1
  Tb  Tb1  1  0.255986  0.000103  0.250117  1
  Tb  Tb2  1  0.187475  0.795264  0.579268  1
  Tb  Tb3  1  0.812452  0.795143  0.079298  1
  Tb  Tb4  1  0.698112  0.499973  0.750001  1
  Tb  Tb5  1  0.301928  0.499855  0.250109  1
  Tb  Tb6  1  0.187533  0.204875  0.920674  1
  Dy  Dy7  1  0.812433  0.205117  0.420535  1
  Np  Np8  1  0.255023  0.720340  0.886822  1
  Np  Np9  1  0.744938  0.720354  0.386834  1
  Np  Np10  1  0.255072  0.279573  0.612987  1
  Np  Np11  1  0.745071  0.279611  0.113332  1
  O  O12  1  0.044374  0.942706  0.896543  1
  O  O13  1  0.550214  0.849520  0.931247  1
  O  O14  1  0.955056  0.943489  0.396645  1
  O  O15  1  0.449165  0.799815  0.727610  1
  O  O16  1  0.449708  0.849341  0.431236  1
  O  O17  1  0.964983  0.713330  0.767114  1
  O  O18  1  0.550827  0.799745  0.227670  1
  O  O19  1  0.874162  0.627409  0.554257  1
  O  O20  1  0.388627  0.481842  0.883855  1
  O  O21  1  0.035023  0.713389  0.267193  1
  O  O22  1  0.388513  0.518042  0.616096  1
  O  O23  1  0.874117  0.372623  0.945740  1
  O  O24  1  0.125839  0.627325  0.054341  1
  O  O25  1  0.611922  0.481339  0.383917  1
  O  O26  1  0.965099  0.286661  0.732847  1
  O  O27  1  0.611337  0.518121  0.116144  1
  O  O28  1  0.124745  0.372101  0.445630  1
  O  O29  1  0.449141  0.200185  0.772257  1
  O  O30  1  0.034818  0.286589  0.233159  1
  O  O31  1  0.551115  0.150760  0.568159  1
  O  O32  1  0.551470  0.200127  0.272850  1
  O  O33  1  0.044271  0.057432  0.603299  1
  O  O34  1  0.449814  0.150526  0.068849  1
  O  O35  1  0.955647  0.057308  0.103472  1
