# generated using pymatgen
data_La10Nd6Cd4OsPt3
_symmetry_space_group_name_H-M   'P 1'
_cell_length_a   10.13027278
_cell_length_b   10.13027287
_cell_length_c   10.13027302
_cell_angle_alpha   59.60543148
_cell_angle_beta   59.60543921
_cell_angle_gamma   59.60543460
_symmetry_Int_Tables_number   1
_chemical_formula_structural   La10Nd6Cd4OsPt3
_chemical_formula_sum   'La10 Nd6 Cd4 Os1 Pt3'
_cell_volume   728.51121758
_cell_formula_units_Z   1
loop_
 _symmetry_equiv_pos_site_id
 _symmetry_equiv_pos_as_xyz
  1  'x, y, z'
loop_
 _atom_site_type_symbol
 _atom_site_label
 _atom_site_symmetry_multiplicity
 _atom_site_fract_x
 _atom_site_fract_y
 _atom_site_fract_z
 _atom_site_occupancy
  La  La0  1  0.350220  0.350220  0.350220  1
  La  La1  1  0.346208  0.346208  0.955256  1
  La  La2  1  0.346208  0.955256  0.346208  1
  La  La3  1  0.955256  0.346208  0.346208  1
  La  La4  1  0.815582  0.190122  0.190122  1
  La  La5  1  0.191740  0.805999  0.805999  1
  La  La6  1  0.190122  0.815582  0.190122  1
  La  La7  1  0.805999  0.191740  0.805999  1
  La  La8  1  0.190122  0.190122  0.815582  1
  La  La9  1  0.805999  0.805999  0.191740  1
  Nd  Nd10  1  0.935610  0.566452  0.566452  1
  Nd  Nd11  1  0.559629  0.935280  0.935280  1
  Nd  Nd12  1  0.566452  0.935610  0.566452  1
  Nd  Nd13  1  0.935280  0.559629  0.935280  1
  Nd  Nd14  1  0.566452  0.566452  0.935610  1
  Nd  Nd15  1  0.935280  0.935280  0.559629  1
  Cd  Cd16  1  0.580029  0.580029  0.580029  1
  Cd  Cd17  1  0.580838  0.580838  0.257008  1
  Cd  Cd18  1  0.580838  0.257008  0.580838  1
  Cd  Cd19  1  0.257008  0.580838  0.580838  1
  Os  Os20  1  0.142152  0.142152  0.142152  1
  Pt  Pt21  1  0.144190  0.144190  0.574599  1
  Pt  Pt22  1  0.144190  0.574599  0.144190  1
  Pt  Pt23  1  0.574599  0.144190  0.144190  1
