# generated using pymatgen
data_Tm2Mg2Co3P6Rh5
_symmetry_space_group_name_H-M   'P 1'
_cell_length_a   3.78975100
_cell_length_b   10.77876800
_cell_length_c   12.58024300
_cell_angle_alpha   90.00000000
_cell_angle_beta   90.00000000
_cell_angle_gamma   90.00000000
_symmetry_Int_Tables_number   1
_chemical_formula_structural   Tm2Mg2Co3P6Rh5
_chemical_formula_sum   'Tm4 Mg4 Co6 P12 Rh10'
_cell_volume   513.88841910
_cell_formula_units_Z   2
loop_
 _symmetry_equiv_pos_site_id
 _symmetry_equiv_pos_as_xyz
  1  'x, y, z'
loop_
 _atom_site_type_symbol
 _atom_site_label
 _atom_site_symmetry_multiplicity
 _atom_site_fract_x
 _atom_site_fract_y
 _atom_site_fract_z
 _atom_site_occupancy
  Tm  Tm0  1  0.250000  0.577621  0.713389  1
  Tm  Tm1  1  0.250000  0.922379  0.213389  1
  Tm  Tm2  1  0.750000  0.415992  0.290038  1
  Tm  Tm3  1  0.750000  0.084008  0.790038  1
  Mg  Mg4  1  0.250000  0.704256  0.986212  1
  Mg  Mg5  1  0.250000  0.795744  0.486212  1
  Mg  Mg6  1  0.750000  0.290539  0.009413  1
  Mg  Mg7  1  0.750000  0.209461  0.509413  1
  Co  Co8  1  0.750000  0.116830  0.305020  1
  Co  Co9  1  0.750000  0.383170  0.805020  1
  Co  Co10  1  0.250000  0.462417  0.934123  1
  Co  Co11  1  0.250000  0.037583  0.434123  1
  Co  Co12  1  0.750000  0.531821  0.063249  1
  Co  Co13  1  0.750000  0.968179  0.563249  1
  P  P14  1  0.250000  0.423934  0.110691  1
  P  P15  1  0.250000  0.076066  0.610691  1
  P  P16  1  0.750000  0.565587  0.885586  1
  P  P17  1  0.750000  0.934413  0.385586  1
  P  P18  1  0.250000  0.274205  0.859107  1
  P  P19  1  0.250000  0.225795  0.359107  1
  P  P20  1  0.750000  0.731742  0.138983  1
  P  P21  1  0.750000  0.768258  0.638983  1
  P  P22  1  0.250000  0.591162  0.385472  1
  P  P23  1  0.250000  0.908838  0.885472  1
  P  P24  1  0.750000  0.408963  0.623254  1
  P  P25  1  0.750000  0.091037  0.123254  1
  Rh  Rh26  1  0.250000  0.400503  0.474345  1
  Rh  Rh27  1  0.250000  0.099497  0.974345  1
  Rh  Rh28  1  0.750000  0.596352  0.524266  1
  Rh  Rh29  1  0.750000  0.903648  0.024266  1
  Rh  Rh30  1  0.250000  0.219442  0.175070  1
  Rh  Rh31  1  0.250000  0.280558  0.675070  1
  Rh  Rh32  1  0.750000  0.772478  0.826435  1
  Rh  Rh33  1  0.750000  0.727522  0.326435  1
  Rh  Rh34  1  0.250000  0.884919  0.695348  1
  Rh  Rh35  1  0.250000  0.615081  0.195348  1
