# generated using pymatgen
data_Cs8Ti2Se7S
_symmetry_space_group_name_H-M   'P 1'
_cell_length_a   8.85053938
_cell_length_b   8.42113420
_cell_length_c   11.90532546
_cell_angle_alpha   82.63296845
_cell_angle_beta   74.22152635
_cell_angle_gamma   68.71594422
_symmetry_Int_Tables_number   1
_chemical_formula_structural   Cs8Ti2Se7S
_chemical_formula_sum   'Cs8 Ti2 Se7 S1'
_cell_volume   795.21549311
_cell_formula_units_Z   1
loop_
 _symmetry_equiv_pos_site_id
 _symmetry_equiv_pos_as_xyz
  1  'x, y, z'
loop_
 _atom_site_type_symbol
 _atom_site_label
 _atom_site_symmetry_multiplicity
 _atom_site_fract_x
 _atom_site_fract_y
 _atom_site_fract_z
 _atom_site_occupancy
  Cs  Cs0  1  0.795201  0.275371  0.058713  1
  Cs  Cs1  1  0.558687  0.768824  0.140861  1
  Cs  Cs2  1  0.037979  0.770977  0.367680  1
  Cs  Cs3  1  0.486801  0.290321  0.439061  1
  Cs  Cs4  1  0.508937  0.706502  0.559513  1
  Cs  Cs5  1  0.957834  0.224894  0.631495  1
  Cs  Cs6  1  0.434544  0.236336  0.865523  1
  Cs  Cs7  1  0.217628  0.733418  0.945437  1
  Ti  Ti8  1  0.165113  0.240443  0.241401  1
  Ti  Ti9  1  0.835892  0.755365  0.754522  1
  Se  Se10  1  0.335458  0.421204  0.174086  1
  Se  Se11  1  0.873323  0.411535  0.322523  1
  Se  Se12  1  0.284318  0.035834  0.384291  1
  Se  Se13  1  0.709645  0.961623  0.615556  1
  Se  Se14  1  0.126020  0.586367  0.671416  1
  Se  Se15  1  0.667647  0.574603  0.824111  1
  Se  Se16  1  0.817762  0.924528  0.909313  1
  S  S17  1  0.187212  0.081857  0.094495  1
