# generated using pymatgen
data_Ta2Be3Ge
_symmetry_space_group_name_H-M   'P 1'
_cell_length_a   4.70362634
_cell_length_b   4.70362641
_cell_length_c   4.74604536
_cell_angle_alpha   60.29522355
_cell_angle_beta   60.29522151
_cell_angle_gamma   60.00000207
_symmetry_Int_Tables_number   1
_chemical_formula_structural   Ta2Be3Ge
_chemical_formula_sum   'Ta2 Be3 Ge1'
_cell_volume   74.57720958
_cell_formula_units_Z   1
loop_
 _symmetry_equiv_pos_site_id
 _symmetry_equiv_pos_as_xyz
  1  'x, y, z'
loop_
 _atom_site_type_symbol
 _atom_site_label
 _atom_site_symmetry_multiplicity
 _atom_site_fract_x
 _atom_site_fract_y
 _atom_site_fract_z
 _atom_site_occupancy
  Ta  Ta0  1  0.001418  0.001418  0.995747  1
  Ta  Ta1  1  0.248582  0.248582  0.254253  1
  Be  Be2  1  0.625000  0.625000  0.625000  1
  Be  Be3  1  0.125000  0.625000  0.625000  1
  Be  Be4  1  0.625000  0.125000  0.625000  1
  Ge  Ge5  1  0.625000  0.625000  0.125000  1
