# generated using pymatgen
data_TcRhI18
_symmetry_space_group_name_H-M   'P 1'
_cell_length_a   10.07457884
_cell_length_b   10.07458017
_cell_length_c   10.07458221
_cell_angle_alpha   94.43661158
_cell_angle_beta   94.43660917
_cell_angle_gamma   94.43661618
_symmetry_Int_Tables_number   1
_chemical_formula_structural   TcRhI18
_chemical_formula_sum   'Tc1 Rh1 I18'
_cell_volume   1012.84380013
_cell_formula_units_Z   1
loop_
 _symmetry_equiv_pos_site_id
 _symmetry_equiv_pos_as_xyz
  1  'x, y, z'
loop_
 _atom_site_type_symbol
 _atom_site_label
 _atom_site_symmetry_multiplicity
 _atom_site_fract_x
 _atom_site_fract_y
 _atom_site_fract_z
 _atom_site_occupancy
  Tc  Tc0  1  0.500000  0.500000  0.500000  1
  Rh  Rh1  1  0.000000  0.000000  0.000000  1
  I  I2  1  0.734791  0.134870  0.618336  1
  I  I3  1  0.969258  0.010055  0.732555  1
  I  I4  1  0.618336  0.734791  0.134870  1
  I  I5  1  0.989945  0.267445  0.030742  1
  I  I6  1  0.732555  0.969258  0.010055  1
  I  I7  1  0.010055  0.732555  0.969258  1
  I  I8  1  0.030742  0.989945  0.267445  1
  I  I9  1  0.865130  0.381664  0.265209  1
  I  I10  1  0.267445  0.030742  0.989945  1
  I  I11  1  0.265209  0.865130  0.381664  1
  I  I12  1  0.134870  0.618336  0.734791  1
  I  I13  1  0.381664  0.265209  0.865130  1
  I  I14  1  0.769390  0.541652  0.492057  1
  I  I15  1  0.541652  0.492057  0.769390  1
  I  I16  1  0.230610  0.458348  0.507943  1
  I  I17  1  0.458348  0.507943  0.230610  1
  I  I18  1  0.492057  0.769390  0.541652  1
  I  I19  1  0.507943  0.230610  0.458348  1
