# generated using pymatgen
data_Yb5Ce7(PrSi2)8
_symmetry_space_group_name_H-M   'P 1'
_cell_length_a   7.51005879
_cell_length_b   7.88064338
_cell_length_c   14.99134400
_cell_angle_alpha   89.96455658
_cell_angle_beta   90.09253467
_cell_angle_gamma   90.08601563
_symmetry_Int_Tables_number   1
_chemical_formula_structural   Yb5Ce7(PrSi2)8
_chemical_formula_sum   'Yb5 Ce7 Pr8 Si16'
_cell_volume   887.24680353
_cell_formula_units_Z   1
loop_
 _symmetry_equiv_pos_site_id
 _symmetry_equiv_pos_as_xyz
  1  'x, y, z'
loop_
 _atom_site_type_symbol
 _atom_site_label
 _atom_site_symmetry_multiplicity
 _atom_site_fract_x
 _atom_site_fract_y
 _atom_site_fract_z
 _atom_site_occupancy
  Yb  Yb0  1  0.318930  0.180607  0.621563  1
  Yb  Yb1  1  0.646260  0.992511  0.749931  1
  Yb  Yb2  1  0.851943  0.486812  0.249676  1
  Yb  Yb3  1  0.350846  0.013050  0.250152  1
  Yb  Yb4  1  0.149501  0.507106  0.749467  1
  Ce  Ce5  1  0.679823  0.817129  0.378187  1
  Ce  Ce6  1  0.178648  0.682269  0.377698  1
  Ce  Ce7  1  0.822718  0.314881  0.877945  1
  Ce  Ce8  1  0.820239  0.317167  0.624539  1
  Ce  Ce9  1  0.320205  0.183856  0.876107  1
  Ce  Ce10  1  0.181343  0.684374  0.121559  1
  Ce  Ce11  1  0.680200  0.815600  0.121172  1
  Pr  Pr12  1  0.023994  0.181986  0.402463  1
  Pr  Pr13  1  0.524051  0.318075  0.402200  1
  Pr  Pr14  1  0.474681  0.683262  0.900863  1
  Pr  Pr15  1  0.474045  0.683189  0.599696  1
  Pr  Pr16  1  0.974800  0.816340  0.599517  1
  Pr  Pr17  1  0.977452  0.819143  0.901959  1
  Pr  Pr18  1  0.523647  0.318299  0.097215  1
  Pr  Pr19  1  0.024850  0.182473  0.097838  1
  Si  Si20  1  0.260737  0.880740  0.751346  1
  Si  Si21  1  0.471858  0.600098  0.250725  1
  Si  Si22  1  0.028664  0.098568  0.750628  1
  Si  Si23  1  0.531259  0.402167  0.752588  1
  Si  Si24  1  0.143643  0.471777  0.536386  1
  Si  Si25  1  0.971375  0.900011  0.250186  1
  Si  Si26  1  0.737348  0.115781  0.249916  1
  Si  Si27  1  0.855149  0.528917  0.035658  1
  Si  Si28  1  0.352234  0.971909  0.034119  1
  Si  Si29  1  0.148743  0.468711  0.963468  1
  Si  Si30  1  0.646513  0.032176  0.535633  1
  Si  Si31  1  0.355369  0.968747  0.461694  1
  Si  Si32  1  0.854274  0.530170  0.464655  1
  Si  Si33  1  0.763087  0.617232  0.750664  1
  Si  Si34  1  0.237130  0.383963  0.250026  1
  Si  Si35  1  0.644439  0.030898  0.962559  1
