# generated using pymatgen
data_Sm2Ho4FeI10
_symmetry_space_group_name_H-M   'P 1'
_cell_length_a   7.74558373
_cell_length_b   9.76017076
_cell_length_c   9.65075137
_cell_angle_alpha   106.62869456
_cell_angle_beta   96.15391267
_cell_angle_gamma   104.88206870
_symmetry_Int_Tables_number   1
_chemical_formula_structural   Sm2Ho4FeI10
_chemical_formula_sum   'Sm2 Ho4 Fe1 I10'
_cell_volume   662.63202884
_cell_formula_units_Z   1
loop_
 _symmetry_equiv_pos_site_id
 _symmetry_equiv_pos_as_xyz
  1  'x, y, z'
loop_
 _atom_site_type_symbol
 _atom_site_label
 _atom_site_symmetry_multiplicity
 _atom_site_fract_x
 _atom_site_fract_y
 _atom_site_fract_z
 _atom_site_occupancy
  Sm  Sm0  1  0.892744  0.960121  0.218937  1
  Sm  Sm1  1  0.107256  0.039879  0.781063  1
  Ho  Ho2  1  0.030664  0.716032  0.914923  1
  Ho  Ho3  1  0.969336  0.283968  0.085077  1
  Ho  Ho4  1  0.653840  0.876777  0.834913  1
  Ho  Ho5  1  0.346160  0.123223  0.165087  1
  Fe  Fe6  1  0.000000  0.000000  0.000000  1
  I  I7  1  0.652051  0.552957  0.730103  1
  I  I8  1  0.347949  0.447043  0.269897  1
  I  I9  1  0.742389  0.913177  0.545683  1
  I  I10  1  0.257611  0.086823  0.454317  1
  I  I11  1  0.085094  0.372178  0.821123  1
  I  I12  1  0.914906  0.627822  0.178877  1
  I  I13  1  0.455734  0.818176  0.093189  1
  I  I14  1  0.544266  0.181824  0.906811  1
  I  I15  1  0.222334  0.743382  0.657309  1
  I  I16  1  0.777666  0.256618  0.342691  1
