# generated using pymatgen
data_Th3Sc(Al8Pt3)3
_symmetry_space_group_name_H-M   'P 1'
_cell_length_a   7.59594763
_cell_length_b   7.61015686
_cell_length_c   13.17347769
_cell_angle_alpha   84.49200503
_cell_angle_beta   78.94098351
_cell_angle_gamma   59.92312947
_symmetry_Int_Tables_number   1
_chemical_formula_structural   Th3Sc(Al8Pt3)3
_chemical_formula_sum   'Th3 Sc1 Al24 Pt9'
_cell_volume   646.73906473
_cell_formula_units_Z   1
loop_
 _symmetry_equiv_pos_site_id
 _symmetry_equiv_pos_as_xyz
  1  'x, y, z'
loop_
 _atom_site_type_symbol
 _atom_site_label
 _atom_site_symmetry_multiplicity
 _atom_site_fract_x
 _atom_site_fract_y
 _atom_site_fract_z
 _atom_site_occupancy
  Th  Th0  1  0.605620  0.832606  0.192150  1
  Th  Th1  1  0.733471  0.498976  0.806459  1
  Th  Th2  1  0.266355  0.501157  0.192322  1
  Sc  Sc3  1  0.395364  0.168346  0.804818  1
  Al  Al4  1  0.680989  0.839973  0.940620  1
  Al  Al5  1  0.314588  0.166301  0.049183  1
  Al  Al6  1  0.145154  0.833139  0.563270  1
  Al  Al7  1  0.852993  0.166615  0.440336  1
  Al  Al8  1  0.479931  0.166662  0.561170  1
  Al  Al9  1  0.518300  0.834139  0.443482  1
  Al  Al10  1  0.211649  0.165457  0.335664  1
  Al  Al11  1  0.780420  0.840353  0.669744  1
  Al  Al12  1  0.434329  0.504009  0.669846  1
  Al  Al13  1  0.564182  0.489936  0.335949  1
  Al  Al14  1  0.116237  0.156375  0.668527  1
  Al  Al15  1  0.888012  0.843911  0.337556  1
  Al  Al16  1  0.351890  0.494987  0.940501  1
  Al  Al17  1  0.652224  0.496219  0.053036  1
  Al  Al18  1  0.021497  0.166195  0.949600  1
  Al  Al19  1  0.986194  0.835593  0.041283  1
  Al  Al20  1  0.186654  0.499449  0.443518  1
  Al  Al21  1  0.813394  0.500085  0.558487  1
  Al  Al22  1  0.738939  0.163541  0.183552  1
  Al  Al23  1  0.263248  0.841694  0.816503  1
  Al  Al24  1  0.065696  0.628987  0.815021  1
  Al  Al25  1  0.939678  0.363937  0.184706  1
  Al  Al26  1  0.853361  0.038933  0.815595  1
  Al  Al27  1  0.140325  0.963214  0.183751  1
  Pt  Pt28  1  0.119670  0.491110  0.639605  1
  Pt  Pt29  1  0.879582  0.509416  0.361247  1
  Pt  Pt30  1  0.656931  0.171487  0.999789  1
  Pt  Pt31  1  0.343687  0.826447  0.000248  1
  Pt  Pt32  1  0.536714  0.167053  0.361848  1
  Pt  Pt33  1  0.463123  0.832395  0.639644  1
  Pt  Pt34  1  0.778878  0.175997  0.638211  1
  Pt  Pt35  1  0.221969  0.823999  0.362892  1
  Pt  Pt36  1  0.998755  0.501310  0.999865  1
