# generated using pymatgen
data_BaTb(PPd)2
_symmetry_space_group_name_H-M   'P 1'
_cell_length_a   4.18379200
_cell_length_b   8.56736131
_cell_length_c   7.34890083
_cell_angle_alpha   89.79964826
_cell_angle_beta   90.00000000
_cell_angle_gamma   90.00000000
_symmetry_Int_Tables_number   1
_chemical_formula_structural   BaTb(PPd)2
_chemical_formula_sum   'Ba2 Tb2 P4 Pd4'
_cell_volume   263.41281513
_cell_formula_units_Z   2
loop_
 _symmetry_equiv_pos_site_id
 _symmetry_equiv_pos_as_xyz
  1  'x, y, z'
loop_
 _atom_site_type_symbol
 _atom_site_label
 _atom_site_symmetry_multiplicity
 _atom_site_fract_x
 _atom_site_fract_y
 _atom_site_fract_z
 _atom_site_occupancy
  Ba  Ba0  1  0.250000  0.500094  0.250079  1
  Ba  Ba1  1  0.750000  0.499906  0.749921  1
  Tb  Tb2  1  0.750000  0.000009  0.750311  1
  Tb  Tb3  1  0.250000  0.999991  0.249689  1
  P  P4  1  0.250000  0.783612  0.914233  1
  P  P5  1  0.750000  0.216388  0.085767  1
  P  P6  1  0.750000  0.783884  0.413724  1
  P  P7  1  0.250000  0.216116  0.586276  1
  Pd  Pd8  1  0.250000  0.780379  0.583196  1
  Pd  Pd9  1  0.750000  0.219621  0.416804  1
  Pd  Pd10  1  0.750000  0.779844  0.083801  1
  Pd  Pd11  1  0.250000  0.220155  0.916199  1
