# generated using pymatgen
data_Tm4AlRu7
_symmetry_space_group_name_H-M   'P 1'
_cell_length_a   5.33922803
_cell_length_b   5.33922785
_cell_length_c   8.54169503
_cell_angle_alpha   89.99197858
_cell_angle_beta   90.00802046
_cell_angle_gamma   120.04569643
_symmetry_Int_Tables_number   1
_chemical_formula_structural   Tm4AlRu7
_chemical_formula_sum   'Tm4 Al1 Ru7'
_cell_volume   210.78099405
_cell_formula_units_Z   1
loop_
 _symmetry_equiv_pos_site_id
 _symmetry_equiv_pos_as_xyz
  1  'x, y, z'
loop_
 _atom_site_type_symbol
 _atom_site_label
 _atom_site_symmetry_multiplicity
 _atom_site_fract_x
 _atom_site_fract_y
 _atom_site_fract_z
 _atom_site_occupancy
  Tm  Tm0  1  0.666634  0.333366  0.569647  1
  Tm  Tm1  1  0.333366  0.666634  0.430353  1
  Tm  Tm2  1  0.333369  0.666631  0.064293  1
  Tm  Tm3  1  0.666631  0.333369  0.935707  1
  Al  Al4  1  0.000000  0.000000  0.500000  1
  Ru  Ru5  1  0.000000  0.000000  0.000000  1
  Ru  Ru6  1  0.171178  0.342480  0.748275  1
  Ru  Ru7  1  0.171291  0.828709  0.748299  1
  Ru  Ru8  1  0.657520  0.828822  0.748275  1
  Ru  Ru9  1  0.828822  0.657520  0.251725  1
  Ru  Ru10  1  0.828709  0.171291  0.251701  1
  Ru  Ru11  1  0.342480  0.171178  0.251725  1
