# generated using pymatgen
data_GdLu5(TeO6)3
_symmetry_space_group_name_H-M   'P 1'
_cell_length_a   9.07668903
_cell_length_b   9.08416418
_cell_length_c   5.11560900
_cell_angle_alpha   90.00000005
_cell_angle_beta   90.00364228
_cell_angle_gamma   120.02725002
_symmetry_Int_Tables_number   1
_chemical_formula_structural   GdLu5(TeO6)3
_chemical_formula_sum   'Gd1 Lu5 Te3 O18'
_cell_volume   365.19185836
_cell_formula_units_Z   1
loop_
 _symmetry_equiv_pos_site_id
 _symmetry_equiv_pos_as_xyz
  1  'x, y, z'
loop_
 _atom_site_type_symbol
 _atom_site_label
 _atom_site_symmetry_multiplicity
 _atom_site_fract_x
 _atom_site_fract_y
 _atom_site_fract_z
 _atom_site_occupancy
  Gd  Gd0  1  0.000000  0.620861  0.000000  1
  Lu  Lu1  1  0.000000  0.287095  0.500000  1
  Lu  Lu2  1  0.374890  0.375387  0.999863  1
  Lu  Lu3  1  0.287865  0.000396  0.499865  1
  Lu  Lu4  1  0.712135  0.712531  0.500135  1
  Lu  Lu5  1  0.625110  0.000497  0.000137  1
  Te  Te6  1  0.336868  0.667138  0.503973  1
  Te  Te7  1  0.000000  0.002725  0.000000  1
  Te  Te8  1  0.663132  0.330269  0.496027  1
  O  O9  1  0.084825  0.885909  0.783962  1
  O  O10  1  0.227308  0.764602  0.294766  1
  O  O11  1  0.133526  0.538270  0.713489  1
  O  O12  1  0.412885  0.868923  0.724584  1
  O  O13  1  0.239718  0.462022  0.284506  1
  O  O14  1  0.119692  0.206965  0.789573  1
  O  O15  1  0.204373  0.120621  0.212998  1
  O  O16  1  0.541235  0.778802  0.287612  1
  O  O17  1  0.459696  0.587067  0.720294  1
  O  O18  1  0.795627  0.916248  0.787002  1
  O  O19  1  0.458765  0.237567  0.712388  1
  O  O20  1  0.587115  0.456038  0.275416  1
  O  O21  1  0.540304  0.127371  0.279706  1
  O  O22  1  0.772692  0.537295  0.705234  1
  O  O23  1  0.915175  0.801084  0.216038  1
  O  O24  1  0.760282  0.222303  0.715494  1
  O  O25  1  0.866474  0.404744  0.286511  1
  O  O26  1  0.880308  0.087272  0.210427  1
