# generated using pymatgen
data_Ta5Si7Ni16Ru
_symmetry_space_group_name_H-M   'P 1'
_cell_length_a   7.92478965
_cell_length_b   7.93927476
_cell_length_c   7.92478926
_cell_angle_alpha   59.93952082
_cell_angle_beta   60.12096735
_cell_angle_gamma   59.93951991
_symmetry_Int_Tables_number   1
_chemical_formula_structural   Ta5Si7Ni16Ru
_chemical_formula_sum   'Ta5 Si7 Ni16 Ru1'
_cell_volume   352.56436898
_cell_formula_units_Z   1
loop_
 _symmetry_equiv_pos_site_id
 _symmetry_equiv_pos_as_xyz
  1  'x, y, z'
loop_
 _atom_site_type_symbol
 _atom_site_label
 _atom_site_symmetry_multiplicity
 _atom_site_fract_x
 _atom_site_fract_y
 _atom_site_fract_z
 _atom_site_occupancy
  Ta  Ta0  1  0.196380  0.205127  0.794874  1
  Ta  Ta1  1  0.794874  0.803621  0.196380  1
  Ta  Ta2  1  0.794874  0.205126  0.196379  1
  Ta  Ta3  1  0.196379  0.803621  0.794874  1
  Ta  Ta4  1  0.199782  0.800218  0.199783  1
  Si  Si5  1  0.500139  0.499861  0.500139  1
  Si  Si6  1  0.501774  0.498226  0.992476  1
  Si  Si7  1  0.992476  0.007524  0.501774  1
  Si  Si8  1  0.499017  0.000983  0.499017  1
  Si  Si9  1  0.992476  0.498226  0.501774  1
  Si  Si10  1  0.501774  0.007524  0.992476  1
  Si  Si11  1  0.999017  0.500983  0.999017  1
  Ni  Ni12  1  0.494995  0.834944  0.835117  1
  Ni  Ni13  1  0.829758  0.507965  0.829758  1
  Ni  Ni14  1  0.835117  0.834944  0.494995  1
  Ni  Ni15  1  0.165056  0.505005  0.165056  1
  Ni  Ni16  1  0.167482  0.170242  0.492035  1
  Ni  Ni17  1  0.492035  0.170242  0.167482  1
  Ni  Ni18  1  0.829758  0.832518  0.829758  1
  Ni  Ni19  1  0.381070  0.386111  0.381070  1
  Ni  Ni20  1  0.148250  0.618930  0.613889  1
  Ni  Ni21  1  0.616187  0.148506  0.616187  1
  Ni  Ni22  1  0.613889  0.618930  0.148250  1
  Ni  Ni23  1  0.381070  0.851750  0.381070  1
  Ni  Ni24  1  0.380880  0.383813  0.851494  1
  Ni  Ni25  1  0.851494  0.383813  0.380880  1
  Ni  Ni26  1  0.616187  0.619120  0.616187  1
  Ni  Ni27  1  0.165056  0.164883  0.165056  1
  Ru  Ru28  1  0.862753  0.137247  0.862753  1
