# generated using pymatgen
data_Ca2Sm(HgPd)3
_symmetry_space_group_name_H-M   'P 1'
_cell_length_a   7.72448790
_cell_length_b   7.72448815
_cell_length_c   4.00803300
_cell_angle_alpha   90.00000000
_cell_angle_beta   90.00000000
_cell_angle_gamma   119.87090313
_symmetry_Int_Tables_number   1
_chemical_formula_structural   Ca2Sm(HgPd)3
_chemical_formula_sum   'Ca2 Sm1 Hg3 Pd3'
_cell_volume   207.37902070
_cell_formula_units_Z   1
loop_
 _symmetry_equiv_pos_site_id
 _symmetry_equiv_pos_as_xyz
  1  'x, y, z'
loop_
 _atom_site_type_symbol
 _atom_site_label
 _atom_site_symmetry_multiplicity
 _atom_site_fract_x
 _atom_site_fract_y
 _atom_site_fract_z
 _atom_site_occupancy
  Ca  Ca0  1  0.602728  0.000398  0.500000  1
  Ca  Ca1  1  0.000398  0.602728  0.500000  1
  Sm  Sm2  1  0.396634  0.396634  0.500000  1
  Hg  Hg3  1  0.264438  0.994208  0.000000  1
  Hg  Hg4  1  0.739794  0.739794  0.000000  1
  Hg  Hg5  1  0.994208  0.264438  0.000000  1
  Pd  Pd6  1  0.006110  0.006110  0.500000  1
  Pd  Pd7  1  0.660290  0.335398  0.000000  1
  Pd  Pd8  1  0.335398  0.660290  0.000000  1
