# generated using pymatgen
data_NpNbB4
_symmetry_space_group_name_H-M   'P 1'
_cell_length_a   3.11399400
_cell_length_b   3.11399408
_cell_length_c   7.32214000
_cell_angle_alpha   90.00000000
_cell_angle_beta   90.00000000
_cell_angle_gamma   119.99999918
_symmetry_Int_Tables_number   1
_chemical_formula_structural   NpNbB4
_chemical_formula_sum   'Np1 Nb1 B4'
_cell_volume   61.48996095
_cell_formula_units_Z   1
loop_
 _symmetry_equiv_pos_site_id
 _symmetry_equiv_pos_as_xyz
  1  'x, y, z'
loop_
 _atom_site_type_symbol
 _atom_site_label
 _atom_site_symmetry_multiplicity
 _atom_site_fract_x
 _atom_site_fract_y
 _atom_site_fract_z
 _atom_site_occupancy
  Np  Np0  1  0.000000  0.000000  0.500000  1
  Nb  Nb1  1  0.000000  0.000000  0.000000  1
  B  B2  1  0.666667  0.333333  0.770990  1
  B  B3  1  0.666667  0.333333  0.229010  1
  B  B4  1  0.333333  0.666667  0.770990  1
  B  B5  1  0.333333  0.666667  0.229010  1
