# generated using pymatgen
data_La8Tm3Lu9Si16
_symmetry_space_group_name_H-M   'P 1'
_cell_length_a   7.77275273
_cell_length_b   7.76699957
_cell_length_c   14.31868900
_cell_angle_alpha   89.83155739
_cell_angle_beta   89.87089784
_cell_angle_gamma   90.00248266
_symmetry_Int_Tables_number   1
_chemical_formula_structural   La8Tm3Lu9Si16
_chemical_formula_sum   'La8 Tm3 Lu9 Si16'
_cell_volume   864.42717228
_cell_formula_units_Z   1
loop_
 _symmetry_equiv_pos_site_id
 _symmetry_equiv_pos_as_xyz
  1  'x, y, z'
loop_
 _atom_site_type_symbol
 _atom_site_label
 _atom_site_symmetry_multiplicity
 _atom_site_fract_x
 _atom_site_fract_y
 _atom_site_fract_z
 _atom_site_occupancy
  La  La0  1  0.992038  0.646444  0.039295  1
  La  La1  1  0.007653  0.353571  0.540391  1
  La  La2  1  0.646573  0.992755  0.959905  1
  La  La3  1  0.147081  0.507754  0.789295  1
  La  La4  1  0.853980  0.492544  0.290175  1
  La  La5  1  0.506969  0.146294  0.209444  1
  La  La6  1  0.492624  0.853401  0.710734  1
  La  La7  1  0.353875  0.007252  0.460426  1
  Tm  Tm8  1  0.357198  0.493776  0.375830  1
  Tm  Tm9  1  0.857026  0.005894  0.374804  1
  Tm  Tm10  1  0.993852  0.142525  0.124708  1
  Lu  Lu11  1  0.005303  0.857514  0.625366  1
  Lu  Lu12  1  0.642440  0.505448  0.874506  1
  Lu  Lu13  1  0.494657  0.357631  0.625693  1
  Lu  Lu14  1  0.505327  0.642612  0.124237  1
  Lu  Lu15  1  0.142533  0.995008  0.874996  1
  Lu  Lu16  1  0.680234  0.679542  0.500358  1
  Lu  Lu17  1  0.820729  0.179863  0.750064  1
  Lu  Lu18  1  0.180351  0.819448  0.249864  1
  Lu  Lu19  1  0.320628  0.320589  0.999606  1
  Si  Si20  1  0.060289  0.711447  0.437392  1
  Si  Si21  1  0.939163  0.289575  0.936142  1
  Si  Si22  1  0.710852  0.060841  0.563765  1
  Si  Si23  1  0.211319  0.439817  0.186591  1
  Si  Si24  1  0.789014  0.560575  0.686819  1
  Si  Si25  1  0.439452  0.211263  0.813374  1
  Si  Si26  1  0.560351  0.788171  0.312615  1
  Si  Si27  1  0.288760  0.938996  0.062812  1
  Si  Si28  1  0.852823  0.796039  0.810945  1
  Si  Si29  1  0.148460  0.203883  0.309998  1
  Si  Si30  1  0.794602  0.850981  0.189261  1
  Si  Si31  1  0.295604  0.647905  0.561736  1
  Si  Si32  1  0.703317  0.352907  0.059631  1
  Si  Si33  1  0.648169  0.295993  0.440950  1
  Si  Si34  1  0.352422  0.704410  0.938808  1
  Si  Si35  1  0.204336  0.147336  0.689463  1
