# generated using pymatgen
data_Tb3Ho4Th(CdPt)2
_symmetry_space_group_name_H-M   'P 1'
_cell_length_a   9.74347933
_cell_length_b   9.74347908
_cell_length_c   9.72765100
_cell_angle_alpha   60.05371941
_cell_angle_beta   60.05372028
_cell_angle_gamma   60.06609811
_symmetry_Int_Tables_number   1
_chemical_formula_structural   Tb3Ho4Th(CdPt)2
_chemical_formula_sum   'Tb6 Ho8 Th2 Cd4 Pt4'
_cell_volume   653.86801904
_cell_formula_units_Z   2
loop_
 _symmetry_equiv_pos_site_id
 _symmetry_equiv_pos_as_xyz
  1  'x, y, z'
loop_
 _atom_site_type_symbol
 _atom_site_label
 _atom_site_symmetry_multiplicity
 _atom_site_fract_x
 _atom_site_fract_y
 _atom_site_fract_z
 _atom_site_occupancy
  Tb  Tb0  1  0.935725  0.565175  0.566051  1
  Tb  Tb1  1  0.565175  0.935725  0.933049  1
  Tb  Tb2  1  0.565175  0.935725  0.566051  1
  Tb  Tb3  1  0.935725  0.565175  0.933049  1
  Tb  Tb4  1  0.566444  0.566444  0.933556  1
  Tb  Tb5  1  0.935419  0.935419  0.564581  1
  Ho  Ho6  1  0.352050  0.943041  0.352454  1
  Ho  Ho7  1  0.943041  0.352050  0.352454  1
  Ho  Ho8  1  0.811701  0.189697  0.189265  1
  Ho  Ho9  1  0.189697  0.811701  0.809337  1
  Ho  Ho10  1  0.189697  0.811701  0.189265  1
  Ho  Ho11  1  0.811701  0.189697  0.809337  1
  Ho  Ho12  1  0.188383  0.188383  0.811617  1
  Ho  Ho13  1  0.809808  0.809808  0.190192  1
  Th  Th14  1  0.349935  0.349935  0.353298  1
  Th  Th15  1  0.349935  0.349935  0.946833  1
  Cd  Cd16  1  0.582680  0.582680  0.580370  1
  Cd  Cd17  1  0.582680  0.582680  0.254270  1
  Cd  Cd18  1  0.583916  0.253079  0.581502  1
  Cd  Cd19  1  0.253079  0.583916  0.581502  1
  Pt  Pt20  1  0.141852  0.141852  0.145002  1
  Pt  Pt21  1  0.141852  0.141852  0.571295  1
  Pt  Pt22  1  0.142451  0.571882  0.142835  1
  Pt  Pt23  1  0.571882  0.142451  0.142835  1
