# generated using pymatgen
data_K8Ba3Sr(SiP4)2
_symmetry_space_group_name_H-M   'P 1'
_cell_length_a   10.05148200
_cell_length_b   10.02411318
_cell_length_c   7.79796732
_cell_angle_alpha   88.35568257
_cell_angle_beta   88.95493066
_cell_angle_gamma   119.37786245
_symmetry_Int_Tables_number   1
_chemical_formula_structural   K8Ba3Sr(SiP4)2
_chemical_formula_sum   'K8 Ba3 Sr1 Si2 P8'
_cell_volume   683.90971461
_cell_formula_units_Z   1
loop_
 _symmetry_equiv_pos_site_id
 _symmetry_equiv_pos_as_xyz
  1  'x, y, z'
loop_
 _atom_site_type_symbol
 _atom_site_label
 _atom_site_symmetry_multiplicity
 _atom_site_fract_x
 _atom_site_fract_y
 _atom_site_fract_z
 _atom_site_occupancy
  K  K0  1  0.052754  0.526764  0.609711  1
  K  K1  1  0.523010  0.047588  0.112695  1
  K  K2  1  0.272686  0.134532  0.815493  1
  K  K3  1  0.869502  0.723964  0.773157  1
  K  K4  1  0.861014  0.149408  0.797808  1
  K  K5  1  0.719144  0.868985  0.274314  1
  K  K6  1  0.132651  0.269800  0.320317  1
  K  K7  1  0.153805  0.860996  0.294875  1
  Ba  Ba8  1  0.467281  0.526972  0.609702  1
  Ba  Ba9  1  0.949660  0.471446  0.113302  1
  Ba  Ba10  1  0.522787  0.466257  0.111670  1
  Sr  Sr11  1  0.477954  0.959080  0.618953  1
  Si  Si12  1  0.667074  0.335718  0.502388  1
  Si  Si13  1  0.337736  0.669148  0.996126  1
  P  P14  1  0.661202  0.339970  0.801247  1
  P  P15  1  0.339847  0.660069  0.297484  1
  P  P16  1  0.588087  0.793767  0.883189  1
  P  P17  1  0.208150  0.409534  0.919637  1
  P  P18  1  0.210791  0.793731  0.897544  1
  P  P19  1  0.410717  0.202980  0.421987  1
  P  P20  1  0.789268  0.588718  0.389451  1
  P  P21  1  0.784709  0.200398  0.410988  1
