# generated using pymatgen
data_Hf5Co4Si6W
_symmetry_space_group_name_H-M   'P 1'
_cell_length_a   3.83777600
_cell_length_b   5.26074843
_cell_length_c   12.62364700
_cell_angle_alpha   90.00000000
_cell_angle_beta   90.00000000
_cell_angle_gamma   111.39254912
_symmetry_Int_Tables_number   1
_chemical_formula_structural   Hf5Co4Si6W
_chemical_formula_sum   'Hf5 Co4 Si6 W1'
_cell_volume   237.30661506
_cell_formula_units_Z   1
loop_
 _symmetry_equiv_pos_site_id
 _symmetry_equiv_pos_as_xyz
  1  'x, y, z'
loop_
 _atom_site_type_symbol
 _atom_site_label
 _atom_site_symmetry_multiplicity
 _atom_site_fract_x
 _atom_site_fract_y
 _atom_site_fract_z
 _atom_site_occupancy
  Hf  Hf0  1  0.072889  0.145778  0.122006  1
  Hf  Hf1  1  0.072889  0.145778  0.377994  1
  Hf  Hf2  1  0.922846  0.845692  0.614362  1
  Hf  Hf3  1  0.632976  0.265953  0.750000  1
  Hf  Hf4  1  0.922846  0.845692  0.885638  1
  Co  Co5  1  0.781270  0.562539  0.084327  1
  Co  Co6  1  0.781270  0.562539  0.415673  1
  Co  Co7  1  0.219349  0.438699  0.578261  1
  Co  Co8  1  0.219349  0.438699  0.921739  1
  Si  Si9  1  0.388917  0.777836  0.049913  1
  Si  Si10  1  0.678018  0.356035  0.250000  1
  Si  Si11  1  0.388917  0.777836  0.450088  1
  Si  Si12  1  0.609654  0.219307  0.538667  1
  Si  Si13  1  0.334441  0.668882  0.750000  1
  Si  Si14  1  0.609654  0.219307  0.961334  1
  W  W15  1  0.364715  0.729430  0.250000  1
