# generated using pymatgen
data_CaYbAl20(IrOs)2
_symmetry_space_group_name_H-M   'P 1'
_cell_length_a   6.88660068
_cell_length_b   6.88660017
_cell_length_c   9.16744600
_cell_angle_alpha   90.15796913
_cell_angle_beta   89.84203138
_cell_angle_gamma   96.50752590
_symmetry_Int_Tables_number   1
_chemical_formula_structural   CaYbAl20(IrOs)2
_chemical_formula_sum   'Ca1 Yb1 Al20 Ir2 Os2'
_cell_volume   431.96438691
_cell_formula_units_Z   1
loop_
 _symmetry_equiv_pos_site_id
 _symmetry_equiv_pos_as_xyz
  1  'x, y, z'
loop_
 _atom_site_type_symbol
 _atom_site_label
 _atom_site_symmetry_multiplicity
 _atom_site_fract_x
 _atom_site_fract_y
 _atom_site_fract_z
 _atom_site_occupancy
  Ca  Ca0  1  0.626369  0.373631  0.749198  1
  Yb  Yb1  1  0.373296  0.626704  0.251055  1
  Al  Al2  1  0.279748  0.019258  0.748355  1
  Al  Al3  1  0.019461  0.280323  0.251593  1
  Al  Al4  1  0.719677  0.980539  0.251593  1
  Al  Al5  1  0.980742  0.720252  0.748355  1
  Al  Al6  1  0.878314  0.121686  0.951756  1
  Al  Al7  1  0.121958  0.878042  0.049512  1
  Al  Al8  1  0.876556  0.123444  0.545800  1
  Al  Al9  1  0.123651  0.876349  0.453087  1
  Al  Al10  1  0.646329  0.916530  0.748698  1
  Al  Al11  1  0.917014  0.646807  0.251176  1
  Al  Al12  1  0.353193  0.082986  0.251176  1
  Al  Al13  1  0.083470  0.353671  0.748698  1
  Al  Al14  1  0.342274  0.657726  0.896413  1
  Al  Al15  1  0.657477  0.342523  0.104364  1
  Al  Al16  1  0.342645  0.657355  0.599241  1
  Al  Al17  1  0.657069  0.342931  0.400085  1
  Al  Al18  1  0.722941  0.723027  0.000507  1
  Al  Al19  1  0.722187  0.722153  0.499583  1
  Al  Al20  1  0.276973  0.277059  0.000507  1
  Al  Al21  1  0.277847  0.277813  0.499583  1
  Ir  Ir22  1  0.499704  0.999312  0.000193  1
  Ir  Ir23  1  0.000688  0.500296  0.000193  1
  Os  Os24  1  0.499658  0.999240  0.499641  1
  Os  Os25  1  0.000760  0.500342  0.499641  1
