# generated using pymatgen
data_Li3Ho5Pt4
_symmetry_space_group_name_H-M   'P 1'
_cell_length_a   4.06760200
_cell_length_b   7.13803998
_cell_length_c   8.71052805
_cell_angle_alpha   88.75348101
_cell_angle_beta   90.00000000
_cell_angle_gamma   90.00000000
_symmetry_Int_Tables_number   1
_chemical_formula_structural   Li3Ho5Pt4
_chemical_formula_sum   'Li3 Ho5 Pt4'
_cell_volume   252.84776799
_cell_formula_units_Z   1
loop_
 _symmetry_equiv_pos_site_id
 _symmetry_equiv_pos_as_xyz
  1  'x, y, z'
loop_
 _atom_site_type_symbol
 _atom_site_label
 _atom_site_symmetry_multiplicity
 _atom_site_fract_x
 _atom_site_fract_y
 _atom_site_fract_z
 _atom_site_occupancy
  Li  Li0  1  0.250000  0.124474  0.443675  1
  Li  Li1  1  0.250000  0.646584  0.069566  1
  Li  Li2  1  0.750000  0.875018  0.553898  1
  Ho  Ho3  1  0.250000  0.024476  0.809271  1
  Ho  Ho4  1  0.250000  0.556154  0.660960  1
  Ho  Ho5  1  0.750000  0.943550  0.180724  1
  Ho  Ho6  1  0.750000  0.457520  0.330820  1
  Ho  Ho7  1  0.750000  0.374735  0.943865  1
  Pt  Pt8  1  0.250000  0.746809  0.372692  1
  Pt  Pt9  1  0.250000  0.234271  0.131959  1
  Pt  Pt10  1  0.750000  0.259900  0.629700  1
  Pt  Pt11  1  0.750000  0.756508  0.872868  1
