# generated using pymatgen
data_Ce4Pr3Ho(Si3Rh)4
_symmetry_space_group_name_H-M   'P 1'
_cell_length_a   8.24063615
_cell_length_b   8.19885901
_cell_length_c   8.29217000
_cell_angle_alpha   90.00000000
_cell_angle_beta   90.00000000
_cell_angle_gamma   119.83243866
_symmetry_Int_Tables_number   1
_chemical_formula_structural   Ce4Pr3Ho(Si3Rh)4
_chemical_formula_sum   'Ce4 Pr3 Ho1 Si12 Rh4'
_cell_volume   486.00842858
_cell_formula_units_Z   1
loop_
 _symmetry_equiv_pos_site_id
 _symmetry_equiv_pos_as_xyz
  1  'x, y, z'
loop_
 _atom_site_type_symbol
 _atom_site_label
 _atom_site_symmetry_multiplicity
 _atom_site_fract_x
 _atom_site_fract_y
 _atom_site_fract_z
 _atom_site_occupancy
  Ce  Ce0  1  0.000179  0.000089  0.250000  1
  Ce  Ce1  1  0.000002  0.000001  0.750000  1
  Ce  Ce2  1  0.497838  0.502044  0.750000  1
  Ce  Ce3  1  0.497838  0.995794  0.750000  1
  Pr  Pr4  1  0.501939  0.498688  0.250000  1
  Pr  Pr5  1  0.501939  0.003252  0.250000  1
  Pr  Pr6  1  0.997459  0.498729  0.250000  1
  Ho  Ho7  1  0.004228  0.502114  0.750000  1
  Si  Si8  1  0.164752  0.832906  0.504885  1
  Si  Si9  1  0.164752  0.331845  0.504885  1
  Si  Si10  1  0.670812  0.835406  0.502185  1
  Si  Si11  1  0.835159  0.167442  0.504046  1
  Si  Si12  1  0.835159  0.667718  0.504046  1
  Si  Si13  1  0.329389  0.164695  0.502332  1
  Si  Si14  1  0.835159  0.167442  0.995954  1
  Si  Si15  1  0.835159  0.667718  0.995954  1
  Si  Si16  1  0.329389  0.164695  0.997668  1
  Si  Si17  1  0.164752  0.832906  0.995115  1
  Si  Si18  1  0.164752  0.331845  0.995115  1
  Si  Si19  1  0.670812  0.835406  0.997815  1
  Rh  Rh20  1  0.335625  0.667813  0.513173  1
  Rh  Rh21  1  0.663642  0.331820  0.525892  1
  Rh  Rh22  1  0.663642  0.331820  0.974108  1
  Rh  Rh23  1  0.335625  0.667813  0.986827  1
