# generated using pymatgen
data_Ho8CdCo2Hg
_symmetry_space_group_name_H-M   'P 1'
_cell_length_a   9.42534039
_cell_length_b   9.43444609
_cell_length_c   9.42534052
_cell_angle_alpha   59.96803727
_cell_angle_beta   59.96711850
_cell_angle_gamma   59.96803748
_symmetry_Int_Tables_number   1
_chemical_formula_structural   Ho8CdCo2Hg
_chemical_formula_sum   'Ho16 Cd2 Co4 Hg2'
_cell_volume   592.21251956
_cell_formula_units_Z   2
loop_
 _symmetry_equiv_pos_site_id
 _symmetry_equiv_pos_as_xyz
  1  'x, y, z'
loop_
 _atom_site_type_symbol
 _atom_site_label
 _atom_site_symmetry_multiplicity
 _atom_site_fract_x
 _atom_site_fract_y
 _atom_site_fract_z
 _atom_site_occupancy
  Ho  Ho0  1  0.939635  0.937205  0.561593  1
  Ho  Ho1  1  0.811018  0.189383  0.187620  1
  Ho  Ho2  1  0.939635  0.561567  0.561593  1
  Ho  Ho3  1  0.938892  0.561108  0.938892  1
  Ho  Ho4  1  0.811018  0.811979  0.187620  1
  Ho  Ho5  1  0.347381  0.345825  0.347381  1
  Ho  Ho6  1  0.561593  0.937205  0.939635  1
  Ho  Ho7  1  0.562399  0.937601  0.562399  1
  Ho  Ho8  1  0.187620  0.811979  0.811018  1
  Ho  Ho9  1  0.187620  0.189383  0.811018  1
  Ho  Ho10  1  0.347671  0.345983  0.960363  1
  Ho  Ho11  1  0.347381  0.959414  0.347381  1
  Ho  Ho12  1  0.811764  0.188236  0.811764  1
  Ho  Ho13  1  0.561593  0.561567  0.939635  1
  Ho  Ho14  1  0.189026  0.810974  0.189026  1
  Ho  Ho15  1  0.960363  0.345983  0.347671  1
  Cd  Cd16  1  0.579425  0.580262  0.579425  1
  Cd  Cd17  1  0.579425  0.260888  0.579425  1
  Co  Co18  1  0.578171  0.139745  0.142339  1
  Co  Co19  1  0.142035  0.139267  0.142035  1
  Co  Co20  1  0.142035  0.576665  0.142035  1
  Co  Co21  1  0.142339  0.139745  0.578171  1
  Hg  Hg22  1  0.585580  0.584019  0.246384  1
  Hg  Hg23  1  0.246384  0.584019  0.585580  1
