# generated using pymatgen
data_Er3Hf2(Co2Si5)2
_symmetry_space_group_name_H-M   'P 1'
_cell_length_a   12.16010500
_cell_length_b   12.16010500
_cell_length_c   3.99580100
_cell_angle_alpha   90.00000000
_cell_angle_beta   90.00000000
_cell_angle_gamma   90.00000000
_symmetry_Int_Tables_number   1
_chemical_formula_structural   Er3Hf2(Co2Si5)2
_chemical_formula_sum   'Er6 Hf4 Co8 Si20'
_cell_volume   590.85171607
_cell_formula_units_Z   2
loop_
 _symmetry_equiv_pos_site_id
 _symmetry_equiv_pos_as_xyz
  1  'x, y, z'
loop_
 _atom_site_type_symbol
 _atom_site_label
 _atom_site_symmetry_multiplicity
 _atom_site_fract_x
 _atom_site_fract_y
 _atom_site_fract_z
 _atom_site_occupancy
  Er  Er0  1  0.000000  0.000000  0.000000  1
  Er  Er1  1  0.500000  0.500000  0.000000  1
  Er  Er2  1  0.887613  0.387613  0.500000  1
  Er  Er3  1  0.387613  0.112387  0.500000  1
  Er  Er4  1  0.612387  0.887613  0.500000  1
  Er  Er5  1  0.112387  0.612387  0.500000  1
  Hf  Hf6  1  0.676419  0.176419  0.500000  1
  Hf  Hf7  1  0.176419  0.323581  0.500000  1
  Hf  Hf8  1  0.823581  0.676419  0.500000  1
  Hf  Hf9  1  0.323581  0.823581  0.500000  1
  Co  Co10  1  0.526294  0.254995  0.000000  1
  Co  Co11  1  0.254995  0.473706  0.000000  1
  Co  Co12  1  0.745005  0.526294  0.000000  1
  Co  Co13  1  0.473706  0.745005  0.000000  1
  Co  Co14  1  0.973706  0.754995  0.000000  1
  Co  Co15  1  0.026294  0.245005  0.000000  1
  Co  Co16  1  0.754995  0.026294  0.000000  1
  Co  Co17  1  0.245005  0.973706  0.000000  1
  Si  Si18  1  0.569309  0.069309  0.000000  1
  Si  Si19  1  0.069309  0.430691  0.000000  1
  Si  Si20  1  0.930691  0.569309  0.000000  1
  Si  Si21  1  0.430691  0.930691  0.000000  1
  Si  Si22  1  0.198273  0.156542  0.000000  1
  Si  Si23  1  0.156542  0.801727  0.000000  1
  Si  Si24  1  0.843458  0.198273  0.000000  1
  Si  Si25  1  0.801727  0.843458  0.000000  1
  Si  Si26  1  0.301727  0.656542  0.000000  1
  Si  Si27  1  0.698273  0.343458  0.000000  1
  Si  Si28  1  0.656542  0.698273  0.000000  1
  Si  Si29  1  0.343458  0.301727  0.000000  1
  Si  Si30  1  0.004246  0.166617  0.500000  1
  Si  Si31  1  0.166617  0.995754  0.500000  1
  Si  Si32  1  0.833383  0.004246  0.500000  1
  Si  Si33  1  0.995754  0.833383  0.500000  1
  Si  Si34  1  0.495754  0.666617  0.500000  1
  Si  Si35  1  0.504246  0.333383  0.500000  1
  Si  Si36  1  0.666617  0.504246  0.500000  1
  Si  Si37  1  0.333383  0.495754  0.500000  1
