# generated using pymatgen
data_Cs2La10Fe2Br17
_symmetry_space_group_name_H-M   'P 1'
_cell_length_a   9.44369150
_cell_length_b   11.43018553
_cell_length_c   11.43012094
_cell_angle_alpha   106.89725654
_cell_angle_beta   92.99325003
_cell_angle_gamma   92.99280569
_symmetry_Int_Tables_number   1
_chemical_formula_structural   Cs2La10Fe2Br17
_chemical_formula_sum   'Cs2 La10 Fe2 Br17'
_cell_volume   1175.99072398
_cell_formula_units_Z   1
loop_
 _symmetry_equiv_pos_site_id
 _symmetry_equiv_pos_as_xyz
  1  'x, y, z'
loop_
 _atom_site_type_symbol
 _atom_site_label
 _atom_site_symmetry_multiplicity
 _atom_site_fract_x
 _atom_site_fract_y
 _atom_site_fract_z
 _atom_site_occupancy
  Cs  Cs0  1  0.000004  0.822767  0.177238  1
  Cs  Cs1  1  0.999996  0.177232  0.822761  1
  La  La2  1  0.435813  0.160358  0.160359  1
  La  La3  1  0.574311  0.510050  0.200972  1
  La  La4  1  0.811120  0.297076  0.297083  1
  La  La5  1  0.319288  0.426983  0.426981  1
  La  La6  1  0.425697  0.799034  0.489947  1
  La  La7  1  0.574303  0.200967  0.510054  1
  La  La8  1  0.680712  0.573017  0.573019  1
  La  La9  1  0.188881  0.702924  0.702917  1
  La  La10  1  0.425689  0.489951  0.799029  1
  La  La11  1  0.564186  0.839642  0.839641  1
  Fe  Fe12  1  0.577898  0.351971  0.351976  1
  Fe  Fe13  1  0.422102  0.648029  0.648024  1
  Br  Br14  1  0.578592  0.685073  0.018912  1
  Br  Br15  1  0.716676  0.067492  0.067495  1
  Br  Br16  1  0.859866  0.449012  0.118647  1
  Br  Br17  1  0.130468  0.210301  0.210301  1
  Br  Br18  1  0.281534  0.604903  0.260141  1
  Br  Br19  1  0.421413  0.981081  0.314923  1
  Br  Br20  1  0.718467  0.739877  0.395095  1
  Br  Br21  1  0.859869  0.118657  0.449032  1
  Br  Br22  1  0.000000  0.499999  0.499999  1
  Br  Br23  1  0.140131  0.881343  0.550968  1
  Br  Br24  1  0.281534  0.260123  0.604905  1
  Br  Br25  1  0.578587  0.018919  0.685078  1
  Br  Br26  1  0.718467  0.395097  0.739859  1
  Br  Br27  1  0.869532  0.789699  0.789699  1
  Br  Br28  1  0.140134  0.550988  0.881353  1
  Br  Br29  1  0.283324  0.932507  0.932504  1
  Br  Br30  1  0.421408  0.314928  0.981088  1
