# generated using pymatgen
data_La8SmYSn6
_symmetry_space_group_name_H-M   'P 1'
_cell_length_a   9.53203735
_cell_length_b   9.53203668
_cell_length_c   9.53203752
_cell_angle_alpha   96.24200101
_cell_angle_beta   96.24200320
_cell_angle_gamma   141.49406415
_symmetry_Int_Tables_number   1
_chemical_formula_structural   La8SmYSn6
_chemical_formula_sum   'La8 Sm1 Y1 Sn6'
_cell_volume   509.05935836
_cell_formula_units_Z   1
loop_
 _symmetry_equiv_pos_site_id
 _symmetry_equiv_pos_as_xyz
  1  'x, y, z'
loop_
 _atom_site_type_symbol
 _atom_site_label
 _atom_site_symmetry_multiplicity
 _atom_site_fract_x
 _atom_site_fract_y
 _atom_site_fract_z
 _atom_site_occupancy
  La  La0  1  0.911697  0.222334  0.133842  1
  La  La1  1  0.222144  0.088303  0.310636  1
  La  La2  1  0.777666  0.911507  0.689364  1
  La  La3  1  0.088493  0.777856  0.866158  1
  La  La4  1  0.722334  0.411697  0.133842  1
  La  La5  1  0.277856  0.588493  0.866158  1
  La  La6  1  0.588303  0.722144  0.310636  1
  La  La7  1  0.411507  0.277666  0.689364  1
  Sm  Sm8  1  0.750000  0.250000  0.500000  1
  Y  Y9  1  0.250000  0.750000  0.500000  1
  Sn  Sn10  1  0.750000  0.750000  0.000000  1
  Sn  Sn11  1  0.250000  0.250000  0.000000  1
  Sn  Sn12  1  0.845001  0.655793  0.500000  1
  Sn  Sn13  1  0.654999  0.154999  0.810793  1
  Sn  Sn14  1  0.344207  0.844207  0.189207  1
  Sn  Sn15  1  0.155793  0.345001  0.500000  1
