# generated using pymatgen
data_Lu5(SnPb)2
_symmetry_space_group_name_H-M   'P 1'
_cell_length_a   8.00496900
_cell_length_b   8.04947200
_cell_length_c   15.26937600
_cell_angle_alpha   90.00000000
_cell_angle_beta   90.00000000
_cell_angle_gamma   90.00000000
_symmetry_Int_Tables_number   1
_chemical_formula_structural   Lu5(SnPb)2
_chemical_formula_sum   'Lu20 Sn8 Pb8'
_cell_volume   983.89405841
_cell_formula_units_Z   4
loop_
 _symmetry_equiv_pos_site_id
 _symmetry_equiv_pos_as_xyz
  1  'x, y, z'
loop_
 _atom_site_type_symbol
 _atom_site_label
 _atom_site_symmetry_multiplicity
 _atom_site_fract_x
 _atom_site_fract_y
 _atom_site_fract_z
 _atom_site_occupancy
  Lu  Lu0  1  0.378568  0.839722  0.876531  1
  Lu  Lu1  1  0.878568  0.660278  0.623469  1
  Lu  Lu2  1  0.621432  0.160278  0.376531  1
  Lu  Lu3  1  0.121432  0.339722  0.123469  1
  Lu  Lu4  1  0.621432  0.160278  0.123469  1
  Lu  Lu5  1  0.121432  0.339722  0.376531  1
  Lu  Lu6  1  0.378568  0.839722  0.623469  1
  Lu  Lu7  1  0.878568  0.660278  0.876531  1
  Lu  Lu8  1  0.535815  0.323548  0.897495  1
  Lu  Lu9  1  0.035815  0.176452  0.602505  1
  Lu  Lu10  1  0.464185  0.676452  0.397495  1
  Lu  Lu11  1  0.964185  0.823548  0.102505  1
  Lu  Lu12  1  0.464185  0.676452  0.102505  1
  Lu  Lu13  1  0.964185  0.823548  0.397495  1
  Lu  Lu14  1  0.535815  0.323548  0.602505  1
  Lu  Lu15  1  0.035815  0.176452  0.897495  1
  Lu  Lu16  1  0.208831  0.504334  0.750000  1
  Lu  Lu17  1  0.708831  0.995666  0.750000  1
  Lu  Lu18  1  0.791169  0.495666  0.250000  1
  Lu  Lu19  1  0.291169  0.004334  0.250000  1
  Sn  Sn20  1  0.573545  0.622986  0.750000  1
  Sn  Sn21  1  0.073545  0.877014  0.750000  1
  Sn  Sn22  1  0.426455  0.377014  0.250000  1
  Sn  Sn23  1  0.926455  0.122986  0.250000  1
  Sn  Sn24  1  0.344482  0.150468  0.750000  1
  Sn  Sn25  1  0.844482  0.349532  0.750000  1
  Sn  Sn26  1  0.655518  0.849532  0.250000  1
  Sn  Sn27  1  0.155518  0.650468  0.250000  1
  Pb  Pb28  1  0.281898  0.033494  0.041075  1
  Pb  Pb29  1  0.781898  0.466506  0.458925  1
  Pb  Pb30  1  0.718102  0.966506  0.541075  1
  Pb  Pb31  1  0.218102  0.533494  0.958925  1
  Pb  Pb32  1  0.718102  0.966506  0.958925  1
  Pb  Pb33  1  0.218102  0.533494  0.541075  1
  Pb  Pb34  1  0.281898  0.033494  0.458925  1
  Pb  Pb35  1  0.781898  0.466506  0.041075  1
