# generated using pymatgen
data_La16Yb(YIr4)3
_symmetry_space_group_name_H-M   'P 1'
_cell_length_a   11.39290000
_cell_length_b   11.39290000
_cell_length_c   6.54269500
_cell_angle_alpha   90.00000000
_cell_angle_beta   90.00000000
_cell_angle_gamma   90.00000000
_symmetry_Int_Tables_number   1
_chemical_formula_structural   La16Yb(YIr4)3
_chemical_formula_sum   'La16 Yb1 Y3 Ir12'
_cell_volume   849.22984055
_cell_formula_units_Z   1
loop_
 _symmetry_equiv_pos_site_id
 _symmetry_equiv_pos_as_xyz
  1  'x, y, z'
loop_
 _atom_site_type_symbol
 _atom_site_label
 _atom_site_symmetry_multiplicity
 _atom_site_fract_x
 _atom_site_fract_y
 _atom_site_fract_z
 _atom_site_occupancy
  La  La0  1  0.286246  0.087502  0.388657  1
  La  La1  1  0.288316  0.911111  0.889195  1
  La  La2  1  0.711684  0.088889  0.889195  1
  La  La3  1  0.713754  0.912498  0.388657  1
  La  La4  1  0.589269  0.788171  0.887965  1
  La  La5  1  0.588104  0.211607  0.387508  1
  La  La6  1  0.411896  0.788393  0.387508  1
  La  La7  1  0.410731  0.211829  0.887965  1
  La  La8  1  0.211607  0.411896  0.612492  1
  La  La9  1  0.211829  0.589269  0.112035  1
  La  La10  1  0.788171  0.410731  0.112035  1
  La  La11  1  0.788393  0.588104  0.612492  1
  La  La12  1  0.911111  0.711684  0.110805  1
  La  La13  1  0.912498  0.286246  0.611343  1
  La  La14  1  0.087502  0.713754  0.611343  1
  La  La15  1  0.088889  0.288316  0.110805  1
  Yb  Yb16  1  0.000000  0.000000  0.500000  1
  Y  Y17  1  0.000000  0.000000  0.000000  1
  Y  Y18  1  0.500000  0.500000  0.000000  1
  Y  Y19  1  0.500000  0.500000  0.500000  1
  Ir  Ir20  1  0.847823  0.152336  0.245108  1
  Ir  Ir21  1  0.847664  0.847823  0.754892  1
  Ir  Ir22  1  0.152336  0.152177  0.754892  1
  Ir  Ir23  1  0.152177  0.847664  0.245108  1
  Ir  Ir24  1  0.649800  0.350294  0.749346  1
  Ir  Ir25  1  0.649706  0.649800  0.250654  1
  Ir  Ir26  1  0.350294  0.350200  0.250654  1
  Ir  Ir27  1  0.350200  0.649706  0.749346  1
  Ir  Ir28  1  0.500000  0.000000  0.119262  1
  Ir  Ir29  1  0.500000  0.000000  0.617924  1
  Ir  Ir30  1  0.000000  0.500000  0.880738  1
  Ir  Ir31  1  0.000000  0.500000  0.382076  1
