# generated using pymatgen
data_Hf6As2CN
_symmetry_space_group_name_H-M   'P 1'
_cell_length_a   5.80841334
_cell_length_b   5.80841402
_cell_length_c   8.58029607
_cell_angle_alpha   90.69392612
_cell_angle_beta   89.30607323
_cell_angle_gamma   145.47030522
_symmetry_Int_Tables_number   1
_chemical_formula_structural   Hf6As2CN
_chemical_formula_sum   'Hf6 As2 C1 N1'
_cell_volume   164.07324433
_cell_formula_units_Z   1
loop_
 _symmetry_equiv_pos_site_id
 _symmetry_equiv_pos_as_xyz
  1  'x, y, z'
loop_
 _atom_site_type_symbol
 _atom_site_label
 _atom_site_symmetry_multiplicity
 _atom_site_fract_x
 _atom_site_fract_y
 _atom_site_fract_z
 _atom_site_occupancy
  Hf  Hf0  1  0.368650  0.631352  0.053935  1
  Hf  Hf1  1  0.057837  0.942165  0.246717  1
  Hf  Hf2  1  0.369872  0.630130  0.443588  1
  Hf  Hf3  1  0.630130  0.369872  0.556412  1
  Hf  Hf4  1  0.942165  0.057837  0.753284  1
  Hf  Hf5  1  0.631352  0.368650  0.946066  1
  As  As6  1  0.745358  0.254644  0.250092  1
  As  As7  1  0.254644  0.745358  0.749909  1
  C  C8  1  0.000000  0.000000  0.500000  1
  N  N9  1  0.000000  0.000000  0.000000  1
