# generated using pymatgen
data_Pr8Ag2IrRh
_symmetry_space_group_name_H-M   'P 1'
_cell_length_a   9.95737899
_cell_length_b   9.95737927
_cell_length_c   9.99154000
_cell_angle_alpha   59.88644183
_cell_angle_beta   59.88644091
_cell_angle_gamma   59.82796485
_symmetry_Int_Tables_number   1
_chemical_formula_structural   Pr8Ag2IrRh
_chemical_formula_sum   'Pr16 Ag4 Ir2 Rh2'
_cell_volume   698.38363067
_cell_formula_units_Z   2
loop_
 _symmetry_equiv_pos_site_id
 _symmetry_equiv_pos_as_xyz
  1  'x, y, z'
loop_
 _atom_site_type_symbol
 _atom_site_label
 _atom_site_symmetry_multiplicity
 _atom_site_fract_x
 _atom_site_fract_y
 _atom_site_fract_z
 _atom_site_occupancy
  Pr  Pr0  1  0.350368  0.350368  0.351244  1
  Pr  Pr1  1  0.350368  0.350368  0.948019  1
  Pr  Pr2  1  0.350722  0.946451  0.351413  1
  Pr  Pr3  1  0.946451  0.350722  0.351413  1
  Pr  Pr4  1  0.810342  0.188272  0.190464  1
  Pr  Pr5  1  0.188272  0.810343  0.810921  1
  Pr  Pr6  1  0.188272  0.810342  0.190463  1
  Pr  Pr7  1  0.810342  0.188272  0.810921  1
  Pr  Pr8  1  0.189279  0.189279  0.810721  1
  Pr  Pr9  1  0.810555  0.810555  0.189445  1
  Pr  Pr10  1  0.938308  0.561682  0.562655  1
  Pr  Pr11  1  0.561682  0.938308  0.937355  1
  Pr  Pr12  1  0.561682  0.938308  0.562655  1
  Pr  Pr13  1  0.938308  0.561682  0.937355  1
  Pr  Pr14  1  0.563423  0.563423  0.936577  1
  Pr  Pr15  1  0.938900  0.938900  0.561100  1
  Ag  Ag16  1  0.581213  0.581213  0.581013  1
  Ag  Ag17  1  0.581213  0.581213  0.256561  1
  Ag  Ag18  1  0.580970  0.257449  0.580790  1
  Ag  Ag19  1  0.257449  0.580970  0.580790  1
  Ir  Ir20  1  0.142809  0.142809  0.141376  1
  Ir  Ir21  1  0.142809  0.142809  0.573008  1
  Rh  Rh22  1  0.142899  0.573366  0.141869  1
  Rh  Rh23  1  0.573366  0.142899  0.141869  1
