# generated using pymatgen
data_Dy3Tm2SnSb2
_symmetry_space_group_name_H-M   'P 1'
_cell_length_a   6.37059100
_cell_length_b   8.92321224
_cell_length_c   8.91708800
_cell_angle_alpha   119.97694040
_cell_angle_beta   90.00000000
_cell_angle_gamma   90.00000000
_symmetry_Int_Tables_number   1
_chemical_formula_structural   Dy3Tm2SnSb2
_chemical_formula_sum   'Dy6 Tm4 Sn2 Sb4'
_cell_volume   439.09197337
_cell_formula_units_Z   2
loop_
 _symmetry_equiv_pos_site_id
 _symmetry_equiv_pos_as_xyz
  1  'x, y, z'
loop_
 _atom_site_type_symbol
 _atom_site_label
 _atom_site_symmetry_multiplicity
 _atom_site_fract_x
 _atom_site_fract_y
 _atom_site_fract_z
 _atom_site_occupancy
  Dy  Dy0  1  0.749999  0.244027  0.001479  1
  Dy  Dy1  1  0.750001  0.755958  0.757433  1
  Dy  Dy2  1  0.750001  0.999994  0.242241  1
  Dy  Dy3  1  0.249999  0.756117  0.999366  1
  Dy  Dy4  1  0.250001  0.243898  0.243265  1
  Dy  Dy5  1  0.250001  0.999999  0.755590  1
  Tm  Tm6  1  0.500059  0.334799  0.667325  1
  Tm  Tm7  1  0.500060  0.665201  0.332520  1
  Tm  Tm8  1  0.999938  0.665205  0.332520  1
  Tm  Tm9  1  0.999939  0.334803  0.667325  1
  Sn  Sn10  1  0.749999  0.607116  0.000766  1
  Sn  Sn11  1  0.750001  0.392881  0.393648  1
  Sb  Sb12  1  0.750001  0.999997  0.607699  1
  Sb  Sb13  1  0.249999  0.391738  0.999466  1
  Sb  Sb14  1  0.250001  0.608268  0.607729  1
  Sb  Sb15  1  0.250001  0.999998  0.391630  1
