# generated using pymatgen
data_Nd5HoAl16(SiOs)8
_symmetry_space_group_name_H-M   'P 1'
_cell_length_a   8.77564381
_cell_length_b   8.77564300
_cell_length_c   9.53625700
_cell_angle_alpha   90.00000000
_cell_angle_beta   90.00000000
_cell_angle_gamma   120.24801182
_symmetry_Int_Tables_number   1
_chemical_formula_structural   Nd5HoAl16(SiOs)8
_chemical_formula_sum   'Nd5 Ho1 Al16 Si8 Os8'
_cell_volume   634.41832717
_cell_formula_units_Z   1
loop_
 _symmetry_equiv_pos_site_id
 _symmetry_equiv_pos_as_xyz
  1  'x, y, z'
loop_
 _atom_site_type_symbol
 _atom_site_label
 _atom_site_symmetry_multiplicity
 _atom_site_fract_x
 _atom_site_fract_y
 _atom_site_fract_z
 _atom_site_occupancy
  Nd  Nd0  1  0.189864  0.382355  0.250000  1
  Nd  Nd1  1  0.810139  0.617406  0.750000  1
  Nd  Nd2  1  0.617645  0.810136  0.250000  1
  Nd  Nd3  1  0.382594  0.189861  0.750000  1
  Nd  Nd4  1  0.192912  0.807088  0.250000  1
  Ho  Ho5  1  0.803831  0.196169  0.750000  1
  Al  Al6  1  0.164308  0.329088  0.578118  1
  Al  Al7  1  0.834166  0.669713  0.423966  1
  Al  Al8  1  0.670912  0.835692  0.578118  1
  Al  Al9  1  0.834166  0.669713  0.076034  1
  Al  Al10  1  0.330287  0.165834  0.423966  1
  Al  Al11  1  0.164308  0.329088  0.921882  1
  Al  Al12  1  0.164993  0.835007  0.577066  1
  Al  Al13  1  0.330287  0.165834  0.076034  1
  Al  Al14  1  0.835436  0.164564  0.426865  1
  Al  Al15  1  0.670912  0.835692  0.921882  1
  Al  Al16  1  0.835436  0.164564  0.073135  1
  Al  Al17  1  0.164993  0.835007  0.922934  1
  Al  Al18  1  0.566006  0.433994  0.250000  1
  Al  Al19  1  0.433381  0.566619  0.750000  1
  Al  Al20  1  0.000963  0.999037  0.250000  1
  Al  Al21  1  0.995885  0.004115  0.750000  1
  Si  Si22  1  0.335447  0.664553  0.034633  1
  Si  Si23  1  0.665779  0.334221  0.962130  1
  Si  Si24  1  0.665779  0.334221  0.537870  1
  Si  Si25  1  0.335447  0.664553  0.465367  1
  Si  Si26  1  0.567548  0.127064  0.250000  1
  Si  Si27  1  0.437312  0.875527  0.750000  1
  Si  Si28  1  0.872936  0.432452  0.250000  1
  Si  Si29  1  0.124473  0.562688  0.750000  1
  Os  Os30  1  0.501476  0.000775  0.998465  1
  Os  Os31  1  0.999225  0.498524  0.998465  1
  Os  Os32  1  0.501476  0.000775  0.501535  1
  Os  Os33  1  0.500186  0.499814  0.999480  1
  Os  Os34  1  0.999225  0.498524  0.501535  1
  Os  Os35  1  0.500186  0.499814  0.500520  1
  Os  Os36  1  0.000038  0.999962  0.999885  1
  Os  Os37  1  0.000038  0.999962  0.500115  1
