# generated using pymatgen
data_Tm2GaIrRu
_symmetry_space_group_name_H-M   'P 1'
_cell_length_a   4.05557870
_cell_length_b   5.83845653
_cell_length_c   5.47682716
_cell_angle_alpha   122.20935846
_cell_angle_beta   111.73098689
_cell_angle_gamma   90.00000018
_symmetry_Int_Tables_number   1
_chemical_formula_structural   Tm2GaIrRu
_chemical_formula_sum   'Tm2 Ga1 Ir1 Ru1'
_cell_volume   98.66164277
_cell_formula_units_Z   1
loop_
 _symmetry_equiv_pos_site_id
 _symmetry_equiv_pos_as_xyz
  1  'x, y, z'
loop_
 _atom_site_type_symbol
 _atom_site_label
 _atom_site_symmetry_multiplicity
 _atom_site_fract_x
 _atom_site_fract_y
 _atom_site_fract_z
 _atom_site_occupancy
  Tm  Tm0  1  0.796252  0.296579  0.592505  1
  Tm  Tm1  1  0.203748  0.704074  0.407495  1
  Ga  Ga2  1  0.000000  0.994835  0.000000  1
  Ir  Ir3  1  0.500000  0.271718  0.000000  1
  Ru  Ru4  1  0.500000  0.732795  0.000000  1
