# generated using pymatgen
data_Dy2Al16IrPt8
_symmetry_space_group_name_H-M   'P 1'
_cell_length_a   11.13815987
_cell_length_b   11.13816116
_cell_length_c   11.13816118
_cell_angle_alpha   158.53333704
_cell_angle_beta   115.66082769
_cell_angle_gamma   68.67403026
_symmetry_Int_Tables_number   1
_chemical_formula_structural   Dy2Al16IrPt8
_chemical_formula_sum   'Dy2 Al16 Ir1 Pt8'
_cell_volume   452.55307620
_cell_formula_units_Z   1
loop_
 _symmetry_equiv_pos_site_id
 _symmetry_equiv_pos_as_xyz
  1  'x, y, z'
loop_
 _atom_site_type_symbol
 _atom_site_label
 _atom_site_symmetry_multiplicity
 _atom_site_fract_x
 _atom_site_fract_y
 _atom_site_fract_z
 _atom_site_occupancy
  Dy  Dy0  1  0.228437  0.228565  0.999872  1
  Dy  Dy1  1  0.771306  0.771435  0.999872  1
  Al  Al2  1  0.271924  0.390612  0.881312  1
  Al  Al3  1  0.091651  0.921261  0.170390  1
  Al  Al4  1  0.511311  0.204107  0.307206  1
  Al  Al5  1  0.249129  0.078739  0.170390  1
  Al  Al6  1  0.911802  0.414331  0.497472  1
  Al  Al7  1  0.725880  0.605257  0.120623  1
  Al  Al8  1  0.897119  0.205502  0.691617  1
  Al  Al9  1  0.486117  0.794498  0.691617  1
  Al  Al10  1  0.388310  0.000000  0.388310  1
  Al  Al11  1  0.621027  0.000000  0.621027  1
  Al  Al12  1  0.490700  0.609388  0.881312  1
  Al  Al13  1  0.103098  0.795893  0.307206  1
  Al  Al14  1  0.904710  0.080436  0.824274  1
  Al  Al15  1  0.743839  0.919564  0.824274  1
  Al  Al16  1  0.515367  0.394743  0.120623  1
  Al  Al17  1  0.083141  0.585669  0.497472  1
  Ir  Ir18  1  0.759206  0.500000  0.259206  1
  Pt  Pt19  1  0.022758  0.340306  0.682452  1
  Pt  Pt20  1  0.628100  0.127301  0.500799  1
  Pt  Pt21  1  0.253396  0.500000  0.753396  1
  Pt  Pt22  1  0.373498  0.872699  0.500799  1
  Pt  Pt23  1  0.995630  0.000000  0.995630  1
  Pt  Pt24  1  0.653850  0.338651  0.315200  1
  Pt  Pt25  1  0.342147  0.659694  0.682452  1
  Pt  Pt26  1  0.976550  0.661349  0.315200  1
