# generated using pymatgen
data_La2Be24CuNi
_symmetry_space_group_name_H-M   'P 1'
_cell_length_a   7.40438044
_cell_length_b   7.44363925
_cell_length_c   7.36767502
_cell_angle_alpha   59.98598870
_cell_angle_beta   59.91666150
_cell_angle_gamma   59.49789312
_symmetry_Int_Tables_number   1
_chemical_formula_structural   La2Be24CuNi
_chemical_formula_sum   'La2 Be24 Cu1 Ni1'
_cell_volume   285.82257655
_cell_formula_units_Z   1
loop_
 _symmetry_equiv_pos_site_id
 _symmetry_equiv_pos_as_xyz
  1  'x, y, z'
loop_
 _atom_site_type_symbol
 _atom_site_label
 _atom_site_symmetry_multiplicity
 _atom_site_fract_x
 _atom_site_fract_y
 _atom_site_fract_z
 _atom_site_occupancy
  La  La0  1  0.252341  0.247495  0.249851  1
  La  La1  1  0.750149  0.749686  0.747659  1
  Be  Be2  1  0.496807  0.498376  0.503193  1
  Be  Be3  1  0.000977  0.998627  0.999023  1
  Be  Be4  1  0.566839  0.788049  0.433161  1
  Be  Be5  1  0.431759  0.214291  0.568241  1
  Be  Be6  1  0.289412  0.935005  0.710588  1
  Be  Be7  1  0.711768  0.065126  0.288232  1
  Be  Be8  1  0.934034  0.280368  0.065966  1
  Be  Be9  1  0.069897  0.717693  0.930103  1
  Be  Be10  1  0.211512  0.791080  0.562605  1
  Be  Be11  1  0.789356  0.204404  0.439683  1
  Be  Be12  1  0.437395  0.565196  0.788488  1
  Be  Be13  1  0.560317  0.433444  0.210644  1
  Be  Be14  1  0.714482  0.283238  0.935802  1
  Be  Be15  1  0.286056  0.717667  0.065016  1
  Be  Be16  1  0.064198  0.933523  0.285518  1
  Be  Be17  1  0.934984  0.068738  0.713944  1
  Be  Be18  1  0.564688  0.211396  0.788800  1
  Be  Be19  1  0.432544  0.790054  0.211668  1
  Be  Be20  1  0.788332  0.434267  0.567456  1
  Be  Be21  1  0.211200  0.564883  0.435312  1
  Be  Be22  1  0.936324  0.717131  0.285653  1
  Be  Be23  1  0.064485  0.284467  0.716021  1
  Be  Be24  1  0.283979  0.064972  0.935515  1
  Be  Be25  1  0.714347  0.939109  0.063676  1
  Cu  Cu26  1  0.798111  0.560274  0.201889  1
  Ni  Ni27  1  0.203706  0.441440  0.796294  1
