# generated using pymatgen
data_Tb20Rh7Au5
_symmetry_space_group_name_H-M   'P 1'
_cell_length_a   11.23581775
_cell_length_b   11.23581774
_cell_length_c   6.35508186
_cell_angle_alpha   89.92680393
_cell_angle_beta   89.92680380
_cell_angle_gamma   89.70704439
_symmetry_Int_Tables_number   1
_chemical_formula_structural   Tb20Rh7Au5
_chemical_formula_sum   'Tb20 Rh7 Au5'
_cell_volume   802.27662431
_cell_formula_units_Z   1
loop_
 _symmetry_equiv_pos_site_id
 _symmetry_equiv_pos_as_xyz
  1  'x, y, z'
loop_
 _atom_site_type_symbol
 _atom_site_label
 _atom_site_symmetry_multiplicity
 _atom_site_fract_x
 _atom_site_fract_y
 _atom_site_fract_z
 _atom_site_occupancy
  Tb  Tb0  1  0.298990  0.090932  0.365550  1
  Tb  Tb1  1  0.300653  0.907135  0.864908  1
  Tb  Tb2  1  0.698941  0.081659  0.860108  1
  Tb  Tb3  1  0.699396  0.905875  0.362525  1
  Tb  Tb4  1  0.583882  0.784691  0.877464  1
  Tb  Tb5  1  0.579022  0.207049  0.364346  1
  Tb  Tb6  1  0.415082  0.789025  0.377819  1
  Tb  Tb7  1  0.410140  0.208831  0.877315  1
  Tb  Tb8  1  0.215309  0.416118  0.622536  1
  Tb  Tb9  1  0.210975  0.584918  0.122181  1
  Tb  Tb10  1  0.792951  0.420978  0.135654  1
  Tb  Tb11  1  0.791169  0.589860  0.622685  1
  Tb  Tb12  1  0.909068  0.701010  0.134450  1
  Tb  Tb13  1  0.918341  0.301059  0.639892  1
  Tb  Tb14  1  0.092865  0.699347  0.635092  1
  Tb  Tb15  1  0.094125  0.300604  0.137475  1
  Tb  Tb16  1  0.998873  0.000424  0.499404  1
  Tb  Tb17  1  0.999576  0.001127  0.000596  1
  Tb  Tb18  1  0.495723  0.502276  0.001037  1
  Tb  Tb19  1  0.497724  0.504277  0.498963  1
  Rh  Rh20  1  0.653519  0.652013  0.251171  1
  Rh  Rh21  1  0.347987  0.346481  0.248829  1
  Rh  Rh22  1  0.344905  0.655095  0.750000  1
  Rh  Rh23  1  0.499842  0.999346  0.112840  1
  Rh  Rh24  1  0.499414  0.000799  0.613827  1
  Rh  Rh25  1  0.999201  0.500586  0.886173  1
  Rh  Rh26  1  0.000654  0.500158  0.387160  1
  Au  Au27  1  0.841836  0.158164  0.250000  1
  Au  Au28  1  0.843145  0.845288  0.750638  1
  Au  Au29  1  0.154712  0.156855  0.749362  1
  Au  Au30  1  0.156328  0.843672  0.250000  1
  Au  Au31  1  0.655650  0.344350  0.750000  1
