# generated using pymatgen
data_Cu2Se2F
_symmetry_space_group_name_H-M   'P 1'
_cell_length_a   3.93921624
_cell_length_b   3.93616343
_cell_length_c   8.07752025
_cell_angle_alpha   72.54978185
_cell_angle_beta   87.14850849
_cell_angle_gamma   60.96840274
_symmetry_Int_Tables_number   1
_chemical_formula_structural   Cu2Se2F
_chemical_formula_sum   'Cu2 Se2 F1'
_cell_volume   103.77754993
_cell_formula_units_Z   1
loop_
 _symmetry_equiv_pos_site_id
 _symmetry_equiv_pos_as_xyz
  1  'x, y, z'
loop_
 _atom_site_type_symbol
 _atom_site_label
 _atom_site_symmetry_multiplicity
 _atom_site_fract_x
 _atom_site_fract_y
 _atom_site_fract_z
 _atom_site_occupancy
  Cu  Cu0  1  0.418699  0.333566  0.012465  1
  Cu  Cu1  1  0.636312  0.045041  0.516151  1
  Se  Se2  1  0.991690  0.307404  0.608629  1
  Se  Se3  1  0.060780  0.067483  0.920376  1
  F  F4  1  0.498360  0.151731  0.268454  1
