# generated using pymatgen
data_Y3Lu5(CdPt)2
_symmetry_space_group_name_H-M   'P 1'
_cell_length_a   9.56787405
_cell_length_b   9.56787439
_cell_length_c   9.56787400
_cell_angle_alpha   60.00000136
_cell_angle_beta   60.00000017
_cell_angle_gamma   60.00000330
_symmetry_Int_Tables_number   1
_chemical_formula_structural   Y3Lu5(CdPt)2
_chemical_formula_sum   'Y6 Lu10 Cd4 Pt4'
_cell_volume   619.34320945
_cell_formula_units_Z   2
loop_
 _symmetry_equiv_pos_site_id
 _symmetry_equiv_pos_as_xyz
  1  'x, y, z'
loop_
 _atom_site_type_symbol
 _atom_site_label
 _atom_site_symmetry_multiplicity
 _atom_site_fract_x
 _atom_site_fract_y
 _atom_site_fract_z
 _atom_site_occupancy
  Y  Y0  1  0.937704  0.562296  0.562296  1
  Y  Y1  1  0.562296  0.937704  0.937704  1
  Y  Y2  1  0.562296  0.937704  0.562296  1
  Y  Y3  1  0.937704  0.562296  0.937704  1
  Y  Y4  1  0.562296  0.562296  0.937704  1
  Y  Y5  1  0.937704  0.937704  0.562296  1
  Lu  Lu6  1  0.351748  0.351748  0.351748  1
  Lu  Lu7  1  0.351748  0.351748  0.944757  1
  Lu  Lu8  1  0.351748  0.944757  0.351748  1
  Lu  Lu9  1  0.944757  0.351748  0.351748  1
  Lu  Lu10  1  0.811575  0.188425  0.188425  1
  Lu  Lu11  1  0.188425  0.811575  0.811575  1
  Lu  Lu12  1  0.188425  0.811575  0.188425  1
  Lu  Lu13  1  0.811575  0.188425  0.811575  1
  Lu  Lu14  1  0.188425  0.188425  0.811575  1
  Lu  Lu15  1  0.811575  0.811575  0.188425  1
  Cd  Cd16  1  0.580822  0.580822  0.580822  1
  Cd  Cd17  1  0.580822  0.580822  0.257535  1
  Cd  Cd18  1  0.580822  0.257535  0.580822  1
  Cd  Cd19  1  0.257535  0.580822  0.580822  1
  Pt  Pt20  1  0.143131  0.143131  0.143131  1
  Pt  Pt21  1  0.143131  0.143131  0.570607  1
  Pt  Pt22  1  0.143131  0.570607  0.143131  1
  Pt  Pt23  1  0.570607  0.143131  0.143131  1
