# generated using pymatgen
data_Sc6Zn17Ag6Sn
_symmetry_space_group_name_H-M   'P 1'
_cell_length_a   8.94274142
_cell_length_b   8.95663783
_cell_length_c   8.95699100
_cell_angle_alpha   59.99908343
_cell_angle_beta   59.94985552
_cell_angle_gamma   59.94852050
_symmetry_Int_Tables_number   1
_chemical_formula_structural   Sc6Zn17Ag6Sn
_chemical_formula_sum   'Sc6 Zn17 Ag6 Sn1'
_cell_volume   506.90415069
_cell_formula_units_Z   1
loop_
 _symmetry_equiv_pos_site_id
 _symmetry_equiv_pos_as_xyz
  1  'x, y, z'
loop_
 _atom_site_type_symbol
 _atom_site_label
 _atom_site_symmetry_multiplicity
 _atom_site_fract_x
 _atom_site_fract_y
 _atom_site_fract_z
 _atom_site_occupancy
  Sc  Sc0  1  0.723297  0.276174  0.276156  1
  Sc  Sc1  1  0.276703  0.723826  0.723844  1
  Sc  Sc2  1  0.276754  0.723887  0.275516  1
  Sc  Sc3  1  0.723246  0.276113  0.724484  1
  Sc  Sc4  1  0.276764  0.275718  0.723773  1
  Sc  Sc5  1  0.723236  0.724282  0.276227  1
  Zn  Zn6  1  0.627107  0.124324  0.124333  1
  Zn  Zn7  1  0.372893  0.875676  0.875667  1
  Zn  Zn8  1  0.500000  0.000000  0.000000  1
  Zn  Zn9  1  0.000000  0.500000  0.500000  1
  Zn  Zn10  1  0.000000  0.500000  0.000000  1
  Zn  Zn11  1  0.500000  0.000000  0.500000  1
  Zn  Zn12  1  0.000000  0.000000  0.500000  1
  Zn  Zn13  1  0.500000  0.500000  0.000000  1
  Zn  Zn14  1  0.341761  0.341519  0.341495  1
  Zn  Zn15  1  0.658239  0.658481  0.658505  1
  Zn  Zn16  1  0.341775  0.341518  0.975212  1
  Zn  Zn17  1  0.341753  0.975190  0.341526  1
  Zn  Zn18  1  0.658225  0.658482  0.024788  1
  Zn  Zn19  1  0.658247  0.024810  0.658474  1
  Zn  Zn20  1  0.973319  0.342209  0.342242  1
  Zn  Zn21  1  0.026681  0.657791  0.657758  1
  Zn  Zn22  1  0.000000  0.000000  0.000000  1
  Ag  Ag23  1  0.123590  0.122608  0.122617  1
  Ag  Ag24  1  0.876410  0.877392  0.877383  1
  Ag  Ag25  1  0.123630  0.122582  0.631178  1
  Ag  Ag26  1  0.123632  0.631172  0.122590  1
  Ag  Ag27  1  0.876370  0.877418  0.368822  1
  Ag  Ag28  1  0.876368  0.368828  0.877410  1
  Sn  Sn29  1  0.500000  0.500000  0.500000  1
