# generated using pymatgen
data_SmTh7(Si4Mo3)4
_symmetry_space_group_name_H-M   'P 1'
_cell_length_a   7.00190763
_cell_length_b   7.07264184
_cell_length_c   13.16550998
_cell_angle_alpha   90.06724080
_cell_angle_beta   89.93415425
_cell_angle_gamma   89.89038521
_symmetry_Int_Tables_number   1
_chemical_formula_structural   SmTh7(Si4Mo3)4
_chemical_formula_sum   'Sm1 Th7 Si16 Mo12'
_cell_volume   651.98011109
_cell_formula_units_Z   1
loop_
 _symmetry_equiv_pos_site_id
 _symmetry_equiv_pos_as_xyz
  1  'x, y, z'
loop_
 _atom_site_type_symbol
 _atom_site_label
 _atom_site_symmetry_multiplicity
 _atom_site_fract_x
 _atom_site_fract_y
 _atom_site_fract_z
 _atom_site_occupancy
  Sm  Sm0  1  0.994448  0.166200  0.094722  1
  Th  Th1  1  0.491450  0.338413  0.095837  1
  Th  Th2  1  0.992134  0.161981  0.404813  1
  Th  Th3  1  0.508452  0.664202  0.595494  1
  Th  Th4  1  0.006539  0.835049  0.905064  1
  Th  Th5  1  0.508238  0.662886  0.906074  1
  Th  Th6  1  0.009454  0.837258  0.594917  1
  Th  Th7  1  0.490554  0.334665  0.403185  1
  Si  Si8  1  0.655980  0.049443  0.548545  1
  Si  Si9  1  0.153144  0.448752  0.952359  1
  Si  Si10  1  0.341054  0.953166  0.049190  1
  Si  Si11  1  0.842261  0.547705  0.451744  1
  Si  Si12  1  0.348036  0.947556  0.449484  1
  Si  Si13  1  0.846428  0.545655  0.048991  1
  Si  Si14  1  0.656171  0.048914  0.953497  1
  Si  Si15  1  0.155568  0.450747  0.548152  1
  Si  Si16  1  0.538941  0.351095  0.750051  1
  Si  Si17  1  0.038901  0.147917  0.751356  1
  Si  Si18  1  0.460478  0.651301  0.253240  1
  Si  Si19  1  0.962579  0.856325  0.246376  1
  Si  Si20  1  0.815773  0.615253  0.750107  1
  Si  Si21  1  0.314456  0.884592  0.750990  1
  Si  Si22  1  0.180658  0.383259  0.248882  1
  Si  Si23  1  0.689803  0.116784  0.246969  1
  Mo  Mo24  1  0.832271  0.335953  0.625494  1
  Mo  Mo25  1  0.333712  0.164040  0.875494  1
  Mo  Mo26  1  0.167356  0.662920  0.125281  1
  Mo  Mo27  1  0.678426  0.840170  0.373436  1
  Mo  Mo28  1  0.161083  0.662058  0.373448  1
  Mo  Mo29  1  0.662488  0.833836  0.124583  1
  Mo  Mo30  1  0.829820  0.337816  0.874260  1
  Mo  Mo31  1  0.332146  0.161776  0.625783  1
  Mo  Mo32  1  0.670653  0.997171  0.751229  1
  Mo  Mo33  1  0.171791  0.501014  0.750015  1
  Mo  Mo34  1  0.331308  0.002875  0.250265  1
  Mo  Mo35  1  0.827439  0.501247  0.250672  1
