# generated using pymatgen
data_Tb3Hf3Ga6PdPt5
_symmetry_space_group_name_H-M   'P 1'
_cell_length_a   7.28388300
_cell_length_b   7.28388263
_cell_length_c   7.37371700
_cell_angle_alpha   90.00000000
_cell_angle_beta   90.00000000
_cell_angle_gamma   120.00000622
_symmetry_Int_Tables_number   1
_chemical_formula_structural   Tb3Hf3Ga6PdPt5
_chemical_formula_sum   'Tb3 Hf3 Ga6 Pd1 Pt5'
_cell_volume   338.79966348
_cell_formula_units_Z   1
loop_
 _symmetry_equiv_pos_site_id
 _symmetry_equiv_pos_as_xyz
  1  'x, y, z'
loop_
 _atom_site_type_symbol
 _atom_site_label
 _atom_site_symmetry_multiplicity
 _atom_site_fract_x
 _atom_site_fract_y
 _atom_site_fract_z
 _atom_site_occupancy
  Tb  Tb0  1  0.410818  0.410360  0.250000  1
  Tb  Tb1  1  0.999542  0.589182  0.250000  1
  Tb  Tb2  1  0.589640  0.000458  0.250000  1
  Hf  Hf3  1  0.609451  0.998959  0.750000  1
  Hf  Hf4  1  0.389507  0.390549  0.750000  1
  Hf  Hf5  1  0.001041  0.610493  0.750000  1
  Ga  Ga6  1  0.263816  0.001022  0.990836  1
  Ga  Ga7  1  0.263816  0.001022  0.509164  1
  Ga  Ga8  1  0.998978  0.262794  0.509164  1
  Ga  Ga9  1  0.998978  0.262794  0.990836  1
  Ga  Ga10  1  0.737206  0.736184  0.990836  1
  Ga  Ga11  1  0.737206  0.736184  0.509164  1
  Pd  Pd12  1  0.000000  0.000000  0.250000  1
  Pt  Pt13  1  0.666667  0.333333  0.533452  1
  Pt  Pt14  1  0.000000  0.000000  0.750000  1
  Pt  Pt15  1  0.666667  0.333333  0.966548  1
  Pt  Pt16  1  0.333333  0.666667  0.968707  1
  Pt  Pt17  1  0.333333  0.666667  0.531293  1
