# generated using pymatgen
data_Ho10Tl4In4Pd3Au
_symmetry_space_group_name_H-M   'P 1'
_cell_length_a   3.63146400
_cell_length_b   8.19259426
_cell_length_c   18.33671713
_cell_angle_alpha   89.96265812
_cell_angle_beta   90.00000000
_cell_angle_gamma   90.00000000
_symmetry_Int_Tables_number   1
_chemical_formula_structural   Ho10Tl4In4Pd3Au
_chemical_formula_sum   'Ho10 Tl4 In4 Pd3 Au1'
_cell_volume   545.53759308
_cell_formula_units_Z   1
loop_
 _symmetry_equiv_pos_site_id
 _symmetry_equiv_pos_as_xyz
  1  'x, y, z'
loop_
 _atom_site_type_symbol
 _atom_site_label
 _atom_site_symmetry_multiplicity
 _atom_site_fract_x
 _atom_site_fract_y
 _atom_site_fract_z
 _atom_site_occupancy
  Ho  Ho0  1  0.000000  0.499383  0.501045  1
  Ho  Ho1  1  0.000000  0.998734  0.999521  1
  Ho  Ho2  1  0.000000  0.747428  0.284153  1
  Ho  Ho3  1  0.000000  0.258035  0.718842  1
  Ho  Ho4  1  0.000000  0.758391  0.780282  1
  Ho  Ho5  1  0.000000  0.233606  0.219213  1
  Ho  Ho6  1  0.000000  0.621366  0.081381  1
  Ho  Ho7  1  0.000000  0.383771  0.913795  1
  Ho  Ho8  1  0.000000  0.883438  0.585306  1
  Ho  Ho9  1  0.000000  0.115210  0.416358  1
  Tl  Tl10  1  0.500000  0.709685  0.932008  1
  Tl  Tl11  1  0.500000  0.290649  0.064325  1
  Tl  Tl12  1  0.500000  0.791063  0.435013  1
  Tl  Tl13  1  0.500000  0.208430  0.567229  1
  In  In14  1  0.500000  0.581507  0.649874  1
  In  In15  1  0.500000  0.414237  0.352348  1
  In  In16  1  0.500000  0.919826  0.149070  1
  In  In17  1  0.500000  0.081530  0.849344  1
  Pd  Pd18  1  0.500000  0.471723  0.801843  1
  Pd  Pd19  1  0.500000  0.971887  0.697440  1
  Pd  Pd20  1  0.500000  0.029228  0.302847  1
  Au  Au21  1  0.500000  0.530875  0.198764  1
