# generated using pymatgen
data_NaCo3(BrO3)8
_symmetry_space_group_name_H-M   'P 1'
_cell_length_a   5.77988932
_cell_length_b   10.76568807
_cell_length_c   10.82789600
_cell_angle_alpha   119.12685833
_cell_angle_beta   90.09118931
_cell_angle_gamma   89.03674588
_symmetry_Int_Tables_number   1
_chemical_formula_structural   NaCo3(BrO3)8
_chemical_formula_sum   'Na1 Co3 Br8 O24'
_cell_volume   588.45940096
_cell_formula_units_Z   1
loop_
 _symmetry_equiv_pos_site_id
 _symmetry_equiv_pos_as_xyz
  1  'x, y, z'
loop_
 _atom_site_type_symbol
 _atom_site_label
 _atom_site_symmetry_multiplicity
 _atom_site_fract_x
 _atom_site_fract_y
 _atom_site_fract_z
 _atom_site_occupancy
  Na  Na0  1  0.120402  0.768593  0.506406  1
  Co  Co1  1  0.648684  0.233761  0.492950  1
  Co  Co2  1  0.147215  0.262382  0.005836  1
  Co  Co3  1  0.639485  0.741743  0.990860  1
  Br  Br4  1  0.277785  0.409265  0.344780  1
  Br  Br5  1  0.734406  0.574701  0.653458  1
  Br  Br6  1  0.265446  0.914164  0.858721  1
  Br  Br7  1  0.768574  0.082575  0.151293  1
  Br  Br8  1  0.780883  0.108575  0.711294  1
  Br  Br9  1  0.308381  0.918610  0.296122  1
  Br  Br10  1  0.286373  0.421615  0.820020  1
  Br  Br11  1  0.783755  0.580661  0.170680  1
  O  O12  1  0.438091  0.895048  0.979990  1
  O  O13  1  0.936685  0.115435  0.044265  1
  O  O14  1  0.373054  0.798678  0.701654  1
  O  O15  1  0.881989  0.179047  0.315433  1
  O  O16  1  0.361753  0.291036  0.175628  1
  O  O17  1  0.831680  0.692884  0.827167  1
  O  O18  1  0.952136  0.240112  0.832343  1
  O  O19  1  0.461283  0.774014  0.158818  1
  O  O20  1  0.899808  0.956145  0.684310  1
  O  O21  1  0.451986  0.067190  0.327815  1
  O  O22  1  0.347399  0.075841  0.882822  1
  O  O23  1  0.855309  0.909955  0.107086  1
  O  O24  1  0.421606  0.288915  0.677977  1
  O  O25  1  0.910757  0.717478  0.302660  1
  O  O26  1  0.361847  0.393450  0.956207  1
  O  O27  1  0.845858  0.600474  0.024698  1
  O  O28  1  0.417724  0.577509  0.853603  1
  O  O29  1  0.938289  0.433430  0.145032  1
  O  O30  1  0.369833  0.566119  0.373795  1
  O  O31  1  0.838673  0.416166  0.629090  1
  O  O32  1  0.456957  0.373513  0.450655  1
  O  O33  1  0.906619  0.613585  0.556943  1
  O  O34  1  0.831423  0.110310  0.555609  1
  O  O35  1  0.357451  0.897023  0.433984  1
