# generated using pymatgen
data_CaZr(CdNi4)2
_symmetry_space_group_name_H-M   'P 1'
_cell_length_a   4.91590500
_cell_length_b   4.91590472
_cell_length_c   8.50999380
_cell_angle_alpha   73.21200136
_cell_angle_beta   90.00000000
_cell_angle_gamma   119.99999512
_symmetry_Int_Tables_number   1
_chemical_formula_structural   CaZr(CdNi4)2
_chemical_formula_sum   'Ca1 Zr1 Cd2 Ni8'
_cell_volume   167.90406296
_cell_formula_units_Z   1
loop_
 _symmetry_equiv_pos_site_id
 _symmetry_equiv_pos_as_xyz
  1  'x, y, z'
loop_
 _atom_site_type_symbol
 _atom_site_label
 _atom_site_symmetry_multiplicity
 _atom_site_fract_x
 _atom_site_fract_y
 _atom_site_fract_z
 _atom_site_occupancy
  Ca  Ca0  1  0.000701  0.001403  0.997895  1
  Zr  Zr1  1  0.499237  0.998473  0.502291  1
  Cd  Cd2  1  0.876152  0.752307  0.371541  1
  Cd  Cd3  1  0.373998  0.747996  0.878006  1
  Ni  Ni4  1  0.435841  0.369744  0.194416  1
  Ni  Ni5  1  0.937171  0.381614  0.681216  1
  Ni  Ni6  1  0.435841  0.871681  0.194416  1
  Ni  Ni7  1  0.937171  0.874341  0.681216  1
  Ni  Ni8  1  0.187622  0.375244  0.437135  1
  Ni  Ni9  1  0.687922  0.375842  0.936236  1
  Ni  Ni10  1  0.933902  0.369744  0.194416  1
  Ni  Ni11  1  0.444442  0.381614  0.681216  1
