# generated using pymatgen
data_Y3Co2Re(NiP)6
_symmetry_space_group_name_H-M   'P 1'
_cell_length_a   3.78519700
_cell_length_b   10.54173600
_cell_length_c   12.35359800
_cell_angle_alpha   90.00000000
_cell_angle_beta   90.00000000
_cell_angle_gamma   90.00000000
_symmetry_Int_Tables_number   1
_chemical_formula_structural   Y3Co2Re(NiP)6
_chemical_formula_sum   'Y6 Co4 Re2 Ni12 P12'
_cell_volume   492.94003077
_cell_formula_units_Z   2
loop_
 _symmetry_equiv_pos_site_id
 _symmetry_equiv_pos_as_xyz
  1  'x, y, z'
loop_
 _atom_site_type_symbol
 _atom_site_label
 _atom_site_symmetry_multiplicity
 _atom_site_fract_x
 _atom_site_fract_y
 _atom_site_fract_z
 _atom_site_occupancy
  Y  Y0  1  0.000000  0.500000  0.521541  1
  Y  Y1  1  0.500000  0.000000  0.476620  1
  Y  Y2  1  0.500000  0.815512  0.207561  1
  Y  Y3  1  0.500000  0.184488  0.207561  1
  Y  Y4  1  0.000000  0.683507  0.792809  1
  Y  Y5  1  0.000000  0.316493  0.792809  1
  Co  Co6  1  0.000000  0.500000  0.985354  1
  Co  Co7  1  0.500000  0.000000  0.015725  1
  Co  Co8  1  0.000000  0.618819  0.288714  1
  Co  Co9  1  0.000000  0.381181  0.288714  1
  Re  Re10  1  0.500000  0.500000  0.153638  1
  Re  Re11  1  0.000000  0.000000  0.848114  1
  Ni  Ni12  1  0.500000  0.500000  0.702066  1
  Ni  Ni13  1  0.000000  0.000000  0.299367  1
  Ni  Ni14  1  0.500000  0.331302  0.987751  1
  Ni  Ni15  1  0.500000  0.668698  0.987751  1
  Ni  Ni16  1  0.000000  0.169088  0.013931  1
  Ni  Ni17  1  0.000000  0.830912  0.013931  1
  Ni  Ni18  1  0.500000  0.303571  0.427581  1
  Ni  Ni19  1  0.500000  0.696429  0.427581  1
  Ni  Ni20  1  0.000000  0.198350  0.569774  1
  Ni  Ni21  1  0.000000  0.801650  0.569774  1
  Ni  Ni22  1  0.500000  0.880371  0.710578  1
  Ni  Ni23  1  0.500000  0.119629  0.710578  1
  P  P24  1  0.500000  0.500000  0.879467  1
  P  P25  1  0.000000  0.000000  0.121828  1
  P  P26  1  0.500000  0.500000  0.344351  1
  P  P27  1  0.000000  0.000000  0.652962  1
  P  P28  1  0.500000  0.313774  0.614693  1
  P  P29  1  0.500000  0.686226  0.614693  1
  P  P30  1  0.000000  0.189478  0.383981  1
  P  P31  1  0.000000  0.810522  0.383981  1
  P  P32  1  0.500000  0.849758  0.892935  1
  P  P33  1  0.500000  0.150242  0.892935  1
  P  P34  1  0.000000  0.649916  0.109177  1
  P  P35  1  0.000000  0.350084  0.109177  1
