# generated using pymatgen
data_Sm4Er4Tc(B8Ru)3
_symmetry_space_group_name_H-M   'P 1'
_cell_length_a   3.69129400
_cell_length_b   9.17250899
_cell_length_c   11.58983700
_cell_angle_alpha   89.91015711
_cell_angle_beta   90.00000000
_cell_angle_gamma   90.00000000
_symmetry_Int_Tables_number   1
_chemical_formula_structural   Sm4Er4Tc(B8Ru)3
_chemical_formula_sum   'Sm4 Er4 Tc1 B24 Ru3'
_cell_volume   392.41317216
_cell_formula_units_Z   1
loop_
 _symmetry_equiv_pos_site_id
 _symmetry_equiv_pos_as_xyz
  1  'x, y, z'
loop_
 _atom_site_type_symbol
 _atom_site_label
 _atom_site_symmetry_multiplicity
 _atom_site_fract_x
 _atom_site_fract_y
 _atom_site_fract_z
 _atom_site_occupancy
  Sm  Sm0  1  0.000000  0.323797  0.413499  1
  Sm  Sm1  1  0.000000  0.677290  0.583570  1
  Sm  Sm2  1  0.000000  0.820851  0.087290  1
  Sm  Sm3  1  0.000000  0.176832  0.915184  1
  Er  Er4  1  0.000000  0.943143  0.371834  1
  Er  Er5  1  0.000000  0.057295  0.628703  1
  Er  Er6  1  0.000000  0.444239  0.128696  1
  Er  Er7  1  0.000000  0.556688  0.870789  1
  Tc  Tc8  1  0.000000  0.638704  0.319822  1
  B  B9  1  0.500000  0.554341  0.431508  1
  B  B10  1  0.500000  0.444936  0.568871  1
  B  B11  1  0.500000  0.055157  0.068831  1
  B  B12  1  0.500000  0.944510  0.931646  1
  B  B13  1  0.500000  0.749501  0.417642  1
  B  B14  1  0.500000  0.250706  0.582337  1
  B  B15  1  0.500000  0.249422  0.081939  1
  B  B16  1  0.500000  0.750386  0.917860  1
  B  B17  1  0.500000  0.791214  0.266203  1
  B  B18  1  0.500000  0.209371  0.733937  1
  B  B19  1  0.500000  0.290612  0.233188  1
  B  B20  1  0.500000  0.709839  0.766054  1
  B  B21  1  0.500000  0.630393  0.185398  1
  B  B22  1  0.500000  0.369338  0.815119  1
  B  B23  1  0.500000  0.130489  0.314577  1
  B  B24  1  0.500000  0.870044  0.685061  1
  B  B25  1  0.500000  0.984380  0.213601  1
  B  B26  1  0.500000  0.015547  0.787008  1
  B  B27  1  0.500000  0.483549  0.286474  1
  B  B28  1  0.500000  0.515374  0.713430  1
  B  B29  1  0.500000  0.602594  0.027526  1
  B  B30  1  0.500000  0.396903  0.971359  1
  B  B31  1  0.500000  0.103451  0.472017  1
  B  B32  1  0.500000  0.898173  0.528702  1
  Ru  Ru33  1  0.000000  0.360985  0.680721  1
  Ru  Ru34  1  0.000000  0.138699  0.179905  1
  Ru  Ru35  1  0.000000  0.861244  0.819699  1
