# generated using pymatgen
data_GaP6PdO18
_symmetry_space_group_name_H-M   'P 1'
_cell_length_a   5.08163911
_cell_length_b   7.10334475
_cell_length_c   10.50616463
_cell_angle_alpha   96.86023595
_cell_angle_beta   91.00966201
_cell_angle_gamma   91.05180921
_symmetry_Int_Tables_number   1
_chemical_formula_structural   GaP6PdO18
_chemical_formula_sum   'Ga1 P6 Pd1 O18'
_cell_volume   376.38358810
_cell_formula_units_Z   1
loop_
 _symmetry_equiv_pos_site_id
 _symmetry_equiv_pos_as_xyz
  1  'x, y, z'
loop_
 _atom_site_type_symbol
 _atom_site_label
 _atom_site_symmetry_multiplicity
 _atom_site_fract_x
 _atom_site_fract_y
 _atom_site_fract_z
 _atom_site_occupancy
  Ga  Ga0  1  0.000000  0.500000  0.500000  1
  P  P1  1  0.503341  0.333430  0.639854  1
  P  P2  1  0.496659  0.666570  0.360146  1
  P  P3  1  0.480862  0.036812  0.817922  1
  P  P4  1  0.519138  0.963188  0.182078  1
  P  P5  1  0.236027  0.325242  0.230112  1
  P  P6  1  0.763973  0.674758  0.769888  1
  Pd  Pd7  1  0.000000  0.000000  0.000000  1
  O  O8  1  0.331308  0.886600  0.073773  1
  O  O9  1  0.668692  0.113400  0.926227  1
  O  O10  1  0.457004  0.868473  0.309178  1
  O  O11  1  0.542996  0.131527  0.690822  1
  O  O12  1  0.602368  0.476614  0.763174  1
  O  O13  1  0.397632  0.523386  0.236826  1
  O  O14  1  0.909761  0.684088  0.646908  1
  O  O15  1  0.090239  0.315912  0.353092  1
  O  O16  1  0.687194  0.339788  0.529762  1
  O  O17  1  0.312806  0.660212  0.470238  1
  O  O18  1  0.480823  0.180214  0.231177  1
  O  O19  1  0.519177  0.819786  0.768823  1
  O  O20  1  0.907278  0.707685  0.896211  1
  O  O21  1  0.092722  0.292315  0.103789  1
  O  O22  1  0.809012  0.927979  0.156067  1
  O  O23  1  0.190988  0.072021  0.843933  1
  O  O24  1  0.785760  0.642398  0.383846  1
  O  O25  1  0.214240  0.357602  0.616154  1
