# generated using pymatgen
data_Pr4TmRu2
_symmetry_space_group_name_H-M   'P 1'
_cell_length_a   6.61572133
_cell_length_b   7.32182832
_cell_length_c   8.84121058
_cell_angle_alpha   95.78177740
_cell_angle_beta   111.97124378
_cell_angle_gamma   89.99999701
_symmetry_Int_Tables_number   1
_chemical_formula_structural   Pr4TmRu2
_chemical_formula_sum   'Pr8 Tm2 Ru4'
_cell_volume   394.80685927
_cell_formula_units_Z   2
loop_
 _symmetry_equiv_pos_site_id
 _symmetry_equiv_pos_as_xyz
  1  'x, y, z'
loop_
 _atom_site_type_symbol
 _atom_site_label
 _atom_site_symmetry_multiplicity
 _atom_site_fract_x
 _atom_site_fract_y
 _atom_site_fract_z
 _atom_site_occupancy
  Pr  Pr0  1  0.793538  0.083493  0.818242  1
  Pr  Pr1  1  0.975296  0.416507  0.181758  1
  Pr  Pr2  1  0.206462  0.916507  0.181758  1
  Pr  Pr3  1  0.024704  0.583493  0.818242  1
  Pr  Pr4  1  0.208310  0.186599  0.570247  1
  Pr  Pr5  1  0.638063  0.313401  0.429753  1
  Pr  Pr6  1  0.791690  0.813401  0.429753  1
  Pr  Pr7  1  0.361937  0.686599  0.570247  1
  Tm  Tm8  1  0.429960  0.250000  0.000000  1
  Tm  Tm9  1  0.570040  0.750000  0.000000  1
  Ru  Ru10  1  0.599919  0.427983  0.788567  1
  Ru  Ru11  1  0.811351  0.072017  0.211433  1
  Ru  Ru12  1  0.400081  0.572017  0.211433  1
  Ru  Ru13  1  0.188649  0.927983  0.788567  1
