# generated using pymatgen
data_Hf4ZnRh
_symmetry_space_group_name_H-M   'P 1'
_cell_length_a   3.25134900
_cell_length_b   3.25134900
_cell_length_c   10.95659600
_cell_angle_alpha   90.00000000
_cell_angle_beta   90.00000000
_cell_angle_gamma   90.00000000
_symmetry_Int_Tables_number   1
_chemical_formula_structural   Hf4ZnRh
_chemical_formula_sum   'Hf4 Zn1 Rh1'
_cell_volume   115.82513810
_cell_formula_units_Z   1
loop_
 _symmetry_equiv_pos_site_id
 _symmetry_equiv_pos_as_xyz
  1  'x, y, z'
loop_
 _atom_site_type_symbol
 _atom_site_label
 _atom_site_symmetry_multiplicity
 _atom_site_fract_x
 _atom_site_fract_y
 _atom_site_fract_z
 _atom_site_occupancy
  Hf  Hf0  1  0.500000  0.500000  0.163151  1
  Hf  Hf1  1  0.000000  0.000000  0.652402  1
  Hf  Hf2  1  0.000000  0.000000  0.347598  1
  Hf  Hf3  1  0.500000  0.500000  0.836849  1
  Zn  Zn4  1  0.000000  0.000000  0.000000  1
  Rh  Rh5  1  0.500000  0.500000  0.500000  1
