# generated using pymatgen
data_Tb20PdRu11
_symmetry_space_group_name_H-M   'P 1'
_cell_length_a   10.89987693
_cell_length_b   10.89987708
_cell_length_c   6.40600842
_cell_angle_alpha   89.95265211
_cell_angle_beta   89.95265145
_cell_angle_gamma   89.56302957
_symmetry_Int_Tables_number   1
_chemical_formula_structural   Tb20PdRu11
_chemical_formula_sum   'Tb20 Pd1 Ru11'
_cell_volume   761.05803462
_cell_formula_units_Z   1
loop_
 _symmetry_equiv_pos_site_id
 _symmetry_equiv_pos_as_xyz
  1  'x, y, z'
loop_
 _atom_site_type_symbol
 _atom_site_label
 _atom_site_symmetry_multiplicity
 _atom_site_fract_x
 _atom_site_fract_y
 _atom_site_fract_z
 _atom_site_occupancy
  Tb  Tb0  1  0.292610  0.087811  0.377991  1
  Tb  Tb1  1  0.291485  0.919816  0.878013  1
  Tb  Tb2  1  0.708583  0.087733  0.877884  1
  Tb  Tb3  1  0.709074  0.913568  0.379005  1
  Tb  Tb4  1  0.592456  0.794927  0.878184  1
  Tb  Tb5  1  0.587240  0.205947  0.376848  1
  Tb  Tb6  1  0.415764  0.795647  0.370178  1
  Tb  Tb7  1  0.413619  0.209881  0.878253  1
  Tb  Tb8  1  0.205073  0.407544  0.621816  1
  Tb  Tb9  1  0.204353  0.584236  0.129822  1
  Tb  Tb10  1  0.794053  0.412760  0.123152  1
  Tb  Tb11  1  0.790119  0.586381  0.621747  1
  Tb  Tb12  1  0.912189  0.707390  0.122009  1
  Tb  Tb13  1  0.912267  0.291417  0.622116  1
  Tb  Tb14  1  0.080184  0.708515  0.621987  1
  Tb  Tb15  1  0.086432  0.290926  0.120995  1
  Tb  Tb16  1  0.000604  0.000390  0.499325  1
  Tb  Tb17  1  0.999610  0.999396  0.000675  1
  Tb  Tb18  1  0.504004  0.498413  0.002335  1
  Tb  Tb19  1  0.501587  0.495996  0.497665  1
  Pd  Pd20  1  0.344723  0.655277  0.750000  1
  Ru  Ru21  1  0.847226  0.152774  0.250000  1
  Ru  Ru22  1  0.847939  0.846711  0.749197  1
  Ru  Ru23  1  0.153289  0.152061  0.750803  1
  Ru  Ru24  1  0.155035  0.844965  0.250000  1
  Ru  Ru25  1  0.653025  0.346975  0.750000  1
  Ru  Ru26  1  0.648835  0.652764  0.250809  1
  Ru  Ru27  1  0.347236  0.351165  0.249191  1
  Ru  Ru28  1  0.500430  0.999073  0.122138  1
  Ru  Ru29  1  0.499447  0.999416  0.624981  1
  Ru  Ru30  1  0.000584  0.500553  0.875019  1
  Ru  Ru31  1  0.000927  0.499570  0.377862  1
