# generated using pymatgen
data_Dy3Ho(AgTe)12
_symmetry_space_group_name_H-M   'P 1'
_cell_length_a   7.25761700
_cell_length_b   8.18728034
_cell_length_c   13.82910400
_cell_angle_alpha   89.99797054
_cell_angle_beta   89.99947896
_cell_angle_gamma   89.98370830
_symmetry_Int_Tables_number   1
_chemical_formula_structural   Dy3Ho(AgTe)12
_chemical_formula_sum   'Dy3 Ho1 Ag12 Te12'
_cell_volume   821.72733049
_cell_formula_units_Z   1
loop_
 _symmetry_equiv_pos_site_id
 _symmetry_equiv_pos_as_xyz
  1  'x, y, z'
loop_
 _atom_site_type_symbol
 _atom_site_label
 _atom_site_symmetry_multiplicity
 _atom_site_fract_x
 _atom_site_fract_y
 _atom_site_fract_z
 _atom_site_occupancy
  Dy  Dy0  1  0.743648  0.250503  0.332832  1
  Dy  Dy1  1  0.743653  0.250505  0.667153  1
  Dy  Dy2  1  0.243650  0.749498  0.167180  1
  Ho  Ho3  1  0.243632  0.749486  0.832822  1
  Ag  Ag4  1  0.381355  0.121614  0.834022  1
  Ag  Ag5  1  0.633154  0.601409  0.999989  1
  Ag  Ag6  1  0.881425  0.878264  0.666006  1
  Ag  Ag7  1  0.605704  0.623957  0.667101  1
  Ag  Ag8  1  0.858224  0.893127  0.999998  1
  Ag  Ag9  1  0.133207  0.398591  0.499979  1
  Ag  Ag10  1  0.605749  0.623933  0.332908  1
  Ag  Ag11  1  0.358162  0.106867  0.499983  1
  Ag  Ag12  1  0.881375  0.878285  0.334011  1
  Ag  Ag13  1  0.381383  0.121742  0.166016  1
  Ag  Ag14  1  0.105763  0.376173  0.832920  1
  Ag  Ag15  1  0.105736  0.376031  0.167124  1
  Te  Te16  1  0.011019  0.558339  0.330968  1
  Te  Te17  1  0.511029  0.441654  0.169040  1
  Te  Te18  1  0.976206  0.056816  0.168747  1
  Te  Te19  1  0.011083  0.558436  0.669102  1
  Te  Te20  1  0.028055  0.577063  0.999879  1
  Te  Te21  1  0.510960  0.441828  0.830987  1
  Te  Te22  1  0.476219  0.943194  0.331266  1
  Te  Te23  1  0.476152  0.943110  0.668805  1
  Te  Te24  1  0.962694  0.080695  0.499998  1
  Te  Te25  1  0.462561  0.919177  0.999879  1
  Te  Te26  1  0.976277  0.056634  0.831289  1
  Te  Te27  1  0.527920  0.423067  0.499995  1
