# generated using pymatgen
data_Zr2MnCuRh4
_symmetry_space_group_name_H-M   'P 1'
_cell_length_a   5.48270173
_cell_length_b   5.48270037
_cell_length_c   8.46872500
_cell_angle_alpha   90.00000000
_cell_angle_beta   90.00000000
_cell_angle_gamma   99.83046550
_symmetry_Int_Tables_number   1
_chemical_formula_structural   Zr2MnCuRh4
_chemical_formula_sum   'Zr4 Mn2 Cu2 Rh8'
_cell_volume   250.83217935
_cell_formula_units_Z   2
loop_
 _symmetry_equiv_pos_site_id
 _symmetry_equiv_pos_as_xyz
  1  'x, y, z'
loop_
 _atom_site_type_symbol
 _atom_site_label
 _atom_site_symmetry_multiplicity
 _atom_site_fract_x
 _atom_site_fract_y
 _atom_site_fract_z
 _atom_site_occupancy
  Zr  Zr0  1  0.770394  0.229606  0.500000  1
  Zr  Zr1  1  0.229606  0.770394  0.000000  1
  Zr  Zr2  1  0.229606  0.770394  0.500000  1
  Zr  Zr3  1  0.770394  0.229606  0.000000  1
  Mn  Mn4  1  0.502432  0.502432  0.750000  1
  Mn  Mn5  1  0.497568  0.497568  0.250000  1
  Cu  Cu6  1  0.001166  0.001166  0.250000  1
  Cu  Cu7  1  0.998834  0.998834  0.750000  1
  Rh  Rh8  1  0.729283  0.729283  0.001018  1
  Rh  Rh9  1  0.729283  0.729283  0.498982  1
  Rh  Rh10  1  0.270717  0.270717  0.998982  1
  Rh  Rh11  1  0.270717  0.270717  0.501018  1
  Rh  Rh12  1  0.499763  0.000696  0.750000  1
  Rh  Rh13  1  0.500237  0.999304  0.250000  1
  Rh  Rh14  1  0.000696  0.499763  0.750000  1
  Rh  Rh15  1  0.999304  0.500237  0.250000  1
