# generated using pymatgen
data_YEr7Re3RuC8
_symmetry_space_group_name_H-M   'P 1'
_cell_length_a   5.06374700
_cell_length_b   6.52964238
_cell_length_c   9.77447756
_cell_angle_alpha   89.82443642
_cell_angle_beta   90.00000000
_cell_angle_gamma   90.00000000
_symmetry_Int_Tables_number   1
_chemical_formula_structural   YEr7Re3RuC8
_chemical_formula_sum   'Y1 Er7 Re3 Ru1 C8'
_cell_volume   323.18627611
_cell_formula_units_Z   1
loop_
 _symmetry_equiv_pos_site_id
 _symmetry_equiv_pos_as_xyz
  1  'x, y, z'
loop_
 _atom_site_type_symbol
 _atom_site_label
 _atom_site_symmetry_multiplicity
 _atom_site_fract_x
 _atom_site_fract_y
 _atom_site_fract_z
 _atom_site_occupancy
  Y  Y0  1  0.750000  0.532004  0.785999  1
  Er  Er1  1  0.250000  0.966979  0.282485  1
  Er  Er2  1  0.750000  0.677468  0.442744  1
  Er  Er3  1  0.250000  0.827117  0.944168  1
  Er  Er4  1  0.750000  0.177689  0.057815  1
  Er  Er5  1  0.250000  0.321622  0.557471  1
  Er  Er6  1  0.250000  0.466348  0.216068  1
  Er  Er7  1  0.750000  0.034026  0.716027  1
  Re  Re8  1  0.250000  0.782128  0.632759  1
  Re  Re9  1  0.750000  0.218663  0.368286  1
  Re  Re10  1  0.750000  0.719537  0.132427  1
  Ru  Ru11  1  0.250000  0.280720  0.867164  1
  C  C12  1  0.250000  0.674725  0.447667  1
  C  C13  1  0.250000  0.549555  0.756610  1
  C  C14  1  0.750000  0.451887  0.240776  1
  C  C15  1  0.750000  0.825470  0.946942  1
  C  C16  1  0.250000  0.046960  0.739959  1
  C  C17  1  0.250000  0.172154  0.051554  1
  C  C18  1  0.750000  0.323469  0.553288  1
  C  C19  1  0.750000  0.951477  0.259788  1
