# generated using pymatgen
data_Ce3Si4
_symmetry_space_group_name_H-M   'P 1'
_cell_length_a   3.92819605
_cell_length_b   4.35548352
_cell_length_c   9.41731249
_cell_angle_alpha   76.62939318
_cell_angle_beta   77.96187391
_cell_angle_gamma   89.99999614
_symmetry_Int_Tables_number   1
_chemical_formula_structural   Ce3Si4
_chemical_formula_sum   'Ce3 Si4'
_cell_volume   153.11105723
_cell_formula_units_Z   1
loop_
 _symmetry_equiv_pos_site_id
 _symmetry_equiv_pos_as_xyz
  1  'x, y, z'
loop_
 _atom_site_type_symbol
 _atom_site_label
 _atom_site_symmetry_multiplicity
 _atom_site_fract_x
 _atom_site_fract_y
 _atom_site_fract_z
 _atom_site_occupancy
  Ce  Ce0  1  0.000026  0.000026  0.999950  1
  Ce  Ce1  1  0.682824  0.182824  0.634351  1
  Ce  Ce2  1  0.317143  0.817143  0.365715  1
  Si  Si3  1  0.856562  0.356562  0.286876  1
  Si  Si4  1  0.143448  0.643448  0.713103  1
  Si  Si5  1  0.565232  0.565232  0.869536  1
  Si  Si6  1  0.434766  0.434766  0.130470  1
