# generated using pymatgen
data_DyTm2Cd3Ga2Hg
_symmetry_space_group_name_H-M   'P 1'
_cell_length_a   7.29068221
_cell_length_b   7.28766833
_cell_length_c   4.46716000
_cell_angle_alpha   90.00000000
_cell_angle_beta   90.00000000
_cell_angle_gamma   119.98633212
_symmetry_Int_Tables_number   1
_chemical_formula_structural   DyTm2Cd3Ga2Hg
_chemical_formula_sum   'Dy1 Tm2 Cd3 Ga2 Hg1'
_cell_volume   205.57897873
_cell_formula_units_Z   1
loop_
 _symmetry_equiv_pos_site_id
 _symmetry_equiv_pos_as_xyz
  1  'x, y, z'
loop_
 _atom_site_type_symbol
 _atom_site_label
 _atom_site_symmetry_multiplicity
 _atom_site_fract_x
 _atom_site_fract_y
 _atom_site_fract_z
 _atom_site_occupancy
  Dy  Dy0  1  0.000000  0.574178  0.500000  1
  Tm  Tm1  1  0.425814  0.425555  0.500000  1
  Tm  Tm2  1  0.574186  0.999741  0.500000  1
  Cd  Cd3  1  0.744497  0.744743  0.000000  1
  Cd  Cd4  1  0.255503  0.000246  0.000000  1
  Cd  Cd5  1  0.000000  0.254904  0.000000  1
  Ga  Ga6  1  0.665989  0.332899  0.000000  1
  Ga  Ga7  1  0.334011  0.666910  0.000000  1
  Hg  Hg8  1  0.000000  0.000824  0.500000  1
