# generated using pymatgen
data_Tb7HoTa11TiSi16
_symmetry_space_group_name_H-M   'P 1'
_cell_length_a   7.05465404
_cell_length_b   7.05076753
_cell_length_c   13.01127902
_cell_angle_alpha   89.96674466
_cell_angle_beta   90.00505847
_cell_angle_gamma   89.99345151
_symmetry_Int_Tables_number   1
_chemical_formula_structural   Tb7HoTa11TiSi16
_chemical_formula_sum   'Tb7 Ho1 Ta11 Ti1 Si16'
_cell_volume   647.19034413
_cell_formula_units_Z   1
loop_
 _symmetry_equiv_pos_site_id
 _symmetry_equiv_pos_as_xyz
  1  'x, y, z'
loop_
 _atom_site_type_symbol
 _atom_site_label
 _atom_site_symmetry_multiplicity
 _atom_site_fract_x
 _atom_site_fract_y
 _atom_site_fract_z
 _atom_site_occupancy
  Tb  Tb0  1  0.342100  0.002296  0.467675  1
  Tb  Tb1  1  0.497876  0.842007  0.717854  1
  Tb  Tb2  1  0.502311  0.158374  0.218060  1
  Tb  Tb3  1  0.841521  0.497548  0.281942  1
  Tb  Tb4  1  0.157890  0.502254  0.782431  1
  Tb  Tb5  1  0.658625  0.996979  0.967853  1
  Tb  Tb6  1  0.002964  0.341357  0.532219  1
  Ho  Ho7  1  0.997609  0.658885  0.031994  1
  Ta  Ta8  1  0.328365  0.328935  0.999815  1
  Ta  Ta9  1  0.171441  0.828053  0.249910  1
  Ta  Ta10  1  0.827151  0.172874  0.750076  1
  Ta  Ta11  1  0.671134  0.671264  0.499814  1
  Ta  Ta12  1  0.151994  0.006958  0.873814  1
  Ta  Ta13  1  0.492536  0.652524  0.124468  1
  Ta  Ta14  1  0.507660  0.347267  0.624214  1
  Ta  Ta15  1  0.653101  0.491486  0.876112  1
  Ta  Ta16  1  0.347941  0.507715  0.375601  1
  Ta  Ta17  1  0.846437  0.991644  0.373762  1
  Ta  Ta18  1  0.008070  0.152662  0.126068  1
  Ti  Ti19  1  0.992422  0.846393  0.626406  1
  Si  Si20  1  0.202265  0.131847  0.682285  1
  Si  Si21  1  0.365892  0.703907  0.932107  1
  Si  Si22  1  0.634106  0.296346  0.432645  1
  Si  Si23  1  0.703696  0.366466  0.067927  1
  Si  Si24  1  0.295839  0.634865  0.567762  1
  Si  Si25  1  0.796922  0.865655  0.181665  1
  Si  Si26  1  0.133877  0.203465  0.318173  1
  Si  Si27  1  0.866045  0.797296  0.817090  1
  Si  Si28  1  0.293653  0.953816  0.063661  1
  Si  Si29  1  0.545726  0.793952  0.313982  1
  Si  Si30  1  0.453509  0.206337  0.813663  1
  Si  Si31  1  0.794998  0.547438  0.685234  1
  Si  Si32  1  0.205867  0.454492  0.185925  1
  Si  Si33  1  0.708788  0.045006  0.564429  1
  Si  Si34  1  0.954118  0.294544  0.936213  1
  Si  Si35  1  0.045548  0.707093  0.437150  1
