# generated using pymatgen
data_LaYb3(CuH6)2
_symmetry_space_group_name_H-M   'P 1'
_cell_length_a   6.88698238
_cell_length_b   6.88698186
_cell_length_c   5.18497101
_cell_angle_alpha   89.99953750
_cell_angle_beta   89.99954006
_cell_angle_gamma   135.82322694
_symmetry_Int_Tables_number   1
_chemical_formula_structural   LaYb3(CuH6)2
_chemical_formula_sum   'La1 Yb3 Cu2 H12'
_cell_volume   171.37945829
_cell_formula_units_Z   1
loop_
 _symmetry_equiv_pos_site_id
 _symmetry_equiv_pos_as_xyz
  1  'x, y, z'
loop_
 _atom_site_type_symbol
 _atom_site_label
 _atom_site_symmetry_multiplicity
 _atom_site_fract_x
 _atom_site_fract_y
 _atom_site_fract_z
 _atom_site_occupancy
  La  La0  1  0.147072  0.852928  0.500000  1
  Yb  Yb1  1  0.648361  0.351639  0.000000  1
  Yb  Yb2  1  0.857230  0.142770  0.500000  1
  Yb  Yb3  1  0.359981  0.640019  0.000000  1
  Cu  Cu4  1  0.496489  0.503511  0.500000  1
  Cu  Cu5  1  0.995624  0.004376  0.000000  1
  H  H6  1  0.000365  0.494776  0.755119  1
  H  H7  1  0.505224  0.999635  0.244881  1
  H  H8  1  0.000373  0.494787  0.244879  1
  H  H9  1  0.505213  0.999627  0.755121  1
  H  H10  1  0.366753  0.633247  0.500000  1
  H  H11  1  0.868813  0.131187  0.000000  1
  H  H12  1  0.628118  0.371882  0.500000  1
  H  H13  1  0.125318  0.874682  0.000000  1
  H  H14  1  0.248160  0.250625  0.747595  1
  H  H15  1  0.749375  0.751840  0.252405  1
  H  H16  1  0.248143  0.250612  0.252413  1
  H  H17  1  0.749388  0.751857  0.747587  1
