# generated using pymatgen
data_Y3Ho3PtI10
_symmetry_space_group_name_H-M   'P 1'
_cell_length_a   7.72060174
_cell_length_b   9.72099593
_cell_length_c   9.75155174
_cell_angle_alpha   107.07198620
_cell_angle_beta   96.90691616
_cell_angle_gamma   104.34675507
_symmetry_Int_Tables_number   1
_chemical_formula_structural   Y3Ho3PtI10
_chemical_formula_sum   'Y3 Ho3 Pt1 I10'
_cell_volume   662.92392673
_cell_formula_units_Z   1
loop_
 _symmetry_equiv_pos_site_id
 _symmetry_equiv_pos_as_xyz
  1  'x, y, z'
loop_
 _atom_site_type_symbol
 _atom_site_label
 _atom_site_symmetry_multiplicity
 _atom_site_fract_x
 _atom_site_fract_y
 _atom_site_fract_z
 _atom_site_occupancy
  Y  Y0  1  0.650934  0.875650  0.833596  1
  Y  Y1  1  0.968662  0.287742  0.086807  1
  Y  Y2  1  0.031741  0.712459  0.913667  1
  Ho  Ho3  1  0.885427  0.959359  0.240764  1
  Ho  Ho4  1  0.115483  0.041292  0.759952  1
  Ho  Ho5  1  0.345753  0.123464  0.165191  1
  Pt  Pt6  1  0.000267  0.000046  0.999514  1
  I  I7  1  0.353268  0.450430  0.272498  1
  I  I8  1  0.648165  0.548341  0.727666  1
  I  I9  1  0.914383  0.627703  0.181242  1
  I  I10  1  0.086100  0.372425  0.819123  1
  I  I11  1  0.455360  0.816885  0.093738  1
  I  I12  1  0.544463  0.184395  0.907974  1
  I  I13  1  0.256686  0.086695  0.462640  1
  I  I14  1  0.745406  0.913932  0.537013  1
  I  I15  1  0.773671  0.255452  0.346083  1
  I  I16  1  0.224231  0.743728  0.652531  1
