# generated using pymatgen
data_Sm4Dy2CoCl10
_symmetry_space_group_name_H-M   'P 1'
_cell_length_a   7.16988198
_cell_length_b   8.89169528
_cell_length_c   9.05386207
_cell_angle_alpha   108.99190779
_cell_angle_beta   96.15519506
_cell_angle_gamma   105.58301326
_symmetry_Int_Tables_number   1
_chemical_formula_structural   Sm4Dy2CoCl10
_chemical_formula_sum   'Sm4 Dy2 Co1 Cl10'
_cell_volume   513.57800851
_cell_formula_units_Z   1
loop_
 _symmetry_equiv_pos_site_id
 _symmetry_equiv_pos_as_xyz
  1  'x, y, z'
loop_
 _atom_site_type_symbol
 _atom_site_label
 _atom_site_symmetry_multiplicity
 _atom_site_fract_x
 _atom_site_fract_y
 _atom_site_fract_z
 _atom_site_occupancy
  Sm  Sm0  1  0.533836  0.704747  0.903780  1
  Sm  Sm1  1  0.466164  0.295253  0.096220  1
  Sm  Sm2  1  0.637843  0.056039  0.753480  1
  Sm  Sm3  1  0.362157  0.943961  0.246520  1
  Dy  Dy4  1  0.861323  0.138356  0.186196  1
  Dy  Dy5  1  0.138677  0.861644  0.813804  1
  Co  Co6  1  0.500000  0.000000  0.000000  1
  Cl  Cl7  1  0.742965  0.080337  0.446073  1
  Cl  Cl8  1  0.257035  0.919663  0.553927  1
  Cl  Cl9  1  0.951455  0.828226  0.074829  1
  Cl  Cl10  1  0.048545  0.171774  0.925171  1
  Cl  Cl11  1  0.274052  0.246756  0.342134  1
  Cl  Cl12  1  0.725948  0.753244  0.657866  1
  Cl  Cl13  1  0.589809  0.372100  0.836388  1
  Cl  Cl14  1  0.410191  0.627900  0.163612  1
  Cl  Cl15  1  0.847435  0.446627  0.274438  1
  Cl  Cl16  1  0.152565  0.553373  0.725562  1
