# generated using pymatgen
data_Er2Si7Ni5Rh7
_symmetry_space_group_name_H-M   'P 1'
_cell_length_a   9.48042459
_cell_length_b   9.51222398
_cell_length_c   3.76110200
_cell_angle_alpha   90.00000000
_cell_angle_beta   90.00000000
_cell_angle_gamma   119.84311563
_symmetry_Int_Tables_number   1
_chemical_formula_structural   Er2Si7Ni5Rh7
_chemical_formula_sum   'Er2 Si7 Ni5 Rh7'
_cell_volume   294.19818858
_cell_formula_units_Z   1
loop_
 _symmetry_equiv_pos_site_id
 _symmetry_equiv_pos_as_xyz
  1  'x, y, z'
loop_
 _atom_site_type_symbol
 _atom_site_label
 _atom_site_symmetry_multiplicity
 _atom_site_fract_x
 _atom_site_fract_y
 _atom_site_fract_z
 _atom_site_occupancy
  Er  Er0  1  0.666471  0.333184  0.000000  1
  Er  Er1  1  0.005312  0.004079  0.500000  1
  Si  Si2  1  0.333659  0.666638  0.000000  1
  Si  Si3  1  0.440306  0.064492  0.500000  1
  Si  Si4  1  0.935318  0.375507  0.500000  1
  Si  Si5  1  0.619872  0.556292  0.500000  1
  Si  Si6  1  0.736743  0.960674  0.000000  1
  Si  Si7  1  0.050738  0.780701  0.000000  1
  Si  Si8  1  0.217555  0.263529  0.000000  1
  Ni  Ni9  1  0.271648  0.040703  0.000000  1
  Ni  Ni10  1  0.959962  0.228415  0.000000  1
  Ni  Ni11  1  0.487047  0.947109  0.000000  1
  Ni  Ni12  1  0.053521  0.538988  0.000000  1
  Ni  Ni13  1  0.453785  0.508776  0.000000  1
  Rh  Rh14  1  0.716481  0.107182  0.500000  1
  Rh  Rh15  1  0.895488  0.607220  0.500000  1
  Rh  Rh16  1  0.387042  0.281533  0.500000  1
  Rh  Rh17  1  0.770279  0.733095  0.000000  1
  Rh  Rh18  1  0.544422  0.763832  0.500000  1
  Rh  Rh19  1  0.240633  0.785565  0.500000  1
  Rh  Rh20  1  0.213720  0.452485  0.500000  1
