# generated using pymatgen
data_Nb6Ga5Rh12Au
_symmetry_space_group_name_H-M   'P 1'
_cell_length_a   4.04838300
_cell_length_b   7.39869200
_cell_length_c   12.13989200
_cell_angle_alpha   90.00000000
_cell_angle_beta   90.00000000
_cell_angle_gamma   90.00000000
_symmetry_Int_Tables_number   1
_chemical_formula_structural   Nb6Ga5Rh12Au
_chemical_formula_sum   'Nb6 Ga5 Rh12 Au1'
_cell_volume   363.62301553
_cell_formula_units_Z   1
loop_
 _symmetry_equiv_pos_site_id
 _symmetry_equiv_pos_as_xyz
  1  'x, y, z'
loop_
 _atom_site_type_symbol
 _atom_site_label
 _atom_site_symmetry_multiplicity
 _atom_site_fract_x
 _atom_site_fract_y
 _atom_site_fract_z
 _atom_site_occupancy
  Nb  Nb0  1  0.000000  0.499999  0.996757  1
  Nb  Nb1  1  0.500007  0.000000  0.168262  1
  Nb  Nb2  1  0.000000  0.499999  0.333352  1
  Nb  Nb3  1  0.499999  0.000000  0.498409  1
  Nb  Nb4  1  0.000000  0.499999  0.669893  1
  Nb  Nb5  1  0.499992  0.000000  0.833323  1
  Ga  Ga6  1  0.000000  0.000000  0.002641  1
  Ga  Ga7  1  0.500004  0.499999  0.164565  1
  Ga  Ga8  1  0.000000  0.000000  0.333338  1
  Ga  Ga9  1  0.499999  0.499999  0.502112  1
  Ga  Ga10  1  0.000000  0.000000  0.664023  1
  Rh  Rh11  1  0.499999  0.244183  0.003902  1
  Rh  Rh12  1  0.499999  0.755817  0.003902  1
  Rh  Rh13  1  0.000000  0.251355  0.168094  1
  Rh  Rh14  1  0.000000  0.748646  0.168094  1
  Rh  Rh15  1  0.500009  0.251718  0.333347  1
  Rh  Rh16  1  0.500009  0.748282  0.333347  1
  Rh  Rh17  1  0.000000  0.251349  0.498588  1
  Rh  Rh18  1  0.000000  0.748651  0.498588  1
  Rh  Rh19  1  0.499992  0.244169  0.662754  1
  Rh  Rh20  1  0.499992  0.755831  0.662754  1
  Rh  Rh21  1  0.000000  0.237259  0.833309  1
  Rh  Rh22  1  0.000000  0.762742  0.833309  1
  Au  Au23  1  0.499994  0.499999  0.833332  1
