# generated using pymatgen
data_TmNpB6Mo
_symmetry_space_group_name_H-M   'P 1'
_cell_length_a   3.60301000
_cell_length_b   9.32353700
_cell_length_c   11.37876400
_cell_angle_alpha   90.00000000
_cell_angle_beta   90.00000000
_cell_angle_gamma   90.00000000
_symmetry_Int_Tables_number   1
_chemical_formula_structural   TmNpB6Mo
_chemical_formula_sum   'Tm4 Np4 B24 Mo4'
_cell_volume   382.24450969
_cell_formula_units_Z   4
loop_
 _symmetry_equiv_pos_site_id
 _symmetry_equiv_pos_as_xyz
  1  'x, y, z'
loop_
 _atom_site_type_symbol
 _atom_site_label
 _atom_site_symmetry_multiplicity
 _atom_site_fract_x
 _atom_site_fract_y
 _atom_site_fract_z
 _atom_site_occupancy
  Tm  Tm0  1  0.000000  0.338036  0.407753  1
  Tm  Tm1  1  0.000000  0.661964  0.592247  1
  Tm  Tm2  1  0.000000  0.838036  0.092247  1
  Tm  Tm3  1  0.000000  0.161964  0.907753  1
  Np  Np4  1  0.000000  0.958657  0.400613  1
  Np  Np5  1  0.000000  0.041343  0.599387  1
  Np  Np6  1  0.000000  0.458657  0.099387  1
  Np  Np7  1  0.000000  0.541343  0.900613  1
  B  B8  1  0.500000  0.551170  0.432563  1
  B  B9  1  0.500000  0.448830  0.567437  1
  B  B10  1  0.500000  0.051170  0.067437  1
  B  B11  1  0.500000  0.948830  0.932563  1
  B  B12  1  0.500000  0.745806  0.424419  1
  B  B13  1  0.500000  0.254194  0.575581  1
  B  B14  1  0.500000  0.245806  0.075581  1
  B  B15  1  0.500000  0.754194  0.924419  1
  B  B16  1  0.500000  0.805867  0.275193  1
  B  B17  1  0.500000  0.194133  0.724807  1
  B  B18  1  0.500000  0.305867  0.224807  1
  B  B19  1  0.500000  0.694133  0.775193  1
  B  B20  1  0.500000  0.644048  0.186812  1
  B  B21  1  0.500000  0.355952  0.813188  1
  B  B22  1  0.500000  0.144048  0.313188  1
  B  B23  1  0.500000  0.855952  0.686812  1
  B  B24  1  0.500000  0.986948  0.221231  1
  B  B25  1  0.500000  0.013052  0.778769  1
  B  B26  1  0.500000  0.486948  0.278769  1
  B  B27  1  0.500000  0.513052  0.721231  1
  B  B28  1  0.500000  0.639466  0.038791  1
  B  B29  1  0.500000  0.360534  0.961209  1
  B  B30  1  0.500000  0.139466  0.461209  1
  B  B31  1  0.500000  0.860534  0.538791  1
  Mo  Mo32  1  0.000000  0.646841  0.318055  1
  Mo  Mo33  1  0.000000  0.353159  0.681945  1
  Mo  Mo34  1  0.000000  0.146841  0.181945  1
  Mo  Mo35  1  0.000000  0.853159  0.818055  1
