# generated using pymatgen
data_K2Cd(ClF)2
_symmetry_space_group_name_H-M   'P 1'
_cell_length_a   6.98827368
_cell_length_b   6.98827380
_cell_length_c   7.36943687
_cell_angle_alpha   120.72804888
_cell_angle_beta   120.72804828
_cell_angle_gamma   33.51232041
_symmetry_Int_Tables_number   1
_chemical_formula_structural   K2Cd(ClF)2
_chemical_formula_sum   'K2 Cd1 Cl2 F2'
_cell_volume   168.04792192
_cell_formula_units_Z   1
loop_
 _symmetry_equiv_pos_site_id
 _symmetry_equiv_pos_as_xyz
  1  'x, y, z'
loop_
 _atom_site_type_symbol
 _atom_site_label
 _atom_site_symmetry_multiplicity
 _atom_site_fract_x
 _atom_site_fract_y
 _atom_site_fract_z
 _atom_site_occupancy
  K  K0  1  0.814513  0.814513  0.277911  1
  K  K1  1  0.185487  0.185487  0.722090  1
  Cd  Cd2  1  0.000000  0.000000  0.000000  1
  Cl  Cl3  1  0.556648  0.556648  0.296251  1
  Cl  Cl4  1  0.443352  0.443352  0.703750  1
  F  F5  1  0.180809  0.180809  0.075420  1
  F  F6  1  0.819191  0.819191  0.924579  1
