# generated using pymatgen
data_Ta6Be4Ni2C
_symmetry_space_group_name_H-M   'P 1'
_cell_length_a   7.77082537
_cell_length_b   7.77082441
_cell_length_c   7.77082400
_cell_angle_alpha   59.99999324
_cell_angle_beta   59.99999733
_cell_angle_gamma   59.99999413
_symmetry_Int_Tables_number   1
_chemical_formula_structural   Ta6Be4Ni2C
_chemical_formula_sum   'Ta12 Be8 Ni4 C2'
_cell_volume   331.80755481
_cell_formula_units_Z   2
loop_
 _symmetry_equiv_pos_site_id
 _symmetry_equiv_pos_as_xyz
  1  'x, y, z'
loop_
 _atom_site_type_symbol
 _atom_site_label
 _atom_site_symmetry_multiplicity
 _atom_site_fract_x
 _atom_site_fract_y
 _atom_site_fract_z
 _atom_site_occupancy
  Ta  Ta0  1  0.300515  0.699485  0.699485  1
  Ta  Ta1  1  0.699485  0.699485  0.300515  1
  Ta  Ta2  1  0.699485  0.300515  0.699485  1
  Ta  Ta3  1  0.300515  0.699485  0.300515  1
  Ta  Ta4  1  0.550515  0.949485  0.550515  1
  Ta  Ta5  1  0.550515  0.949485  0.949485  1
  Ta  Ta6  1  0.949485  0.550515  0.550515  1
  Ta  Ta7  1  0.949485  0.550515  0.949485  1
  Ta  Ta8  1  0.300515  0.300515  0.699485  1
  Ta  Ta9  1  0.550515  0.550515  0.949485  1
  Ta  Ta10  1  0.949485  0.949485  0.550515  1
  Ta  Ta11  1  0.699485  0.300515  0.300515  1
  Be  Be12  1  0.326143  0.326143  0.021570  1
  Be  Be13  1  0.326143  0.326143  0.326143  1
  Be  Be14  1  0.228430  0.923857  0.923857  1
  Be  Be15  1  0.923857  0.923857  0.923857  1
  Be  Be16  1  0.021570  0.326143  0.326143  1
  Be  Be17  1  0.326143  0.021570  0.326143  1
  Be  Be18  1  0.923857  0.923857  0.228430  1
  Be  Be19  1  0.923857  0.228430  0.923857  1
  Ni  Ni20  1  0.125000  0.625000  0.125000  1
  Ni  Ni21  1  0.125000  0.125000  0.625000  1
  Ni  Ni22  1  0.625000  0.125000  0.125000  1
  Ni  Ni23  1  0.125000  0.125000  0.125000  1
  C  C24  1  0.500000  0.500000  0.500000  1
  C  C25  1  0.750000  0.750000  0.750000  1
