# generated using pymatgen
data_LiPr3GeS7
_symmetry_space_group_name_H-M   'P 1'
_cell_length_a   10.29044102
_cell_length_b   10.28998168
_cell_length_c   5.83249400
_cell_angle_alpha   90.00000000
_cell_angle_beta   90.00000000
_cell_angle_gamma   119.99917083
_symmetry_Int_Tables_number   1
_chemical_formula_structural   LiPr3GeS7
_chemical_formula_sum   'Li2 Pr6 Ge2 S14'
_cell_volume   534.85634252
_cell_formula_units_Z   2
loop_
 _symmetry_equiv_pos_site_id
 _symmetry_equiv_pos_as_xyz
  1  'x, y, z'
loop_
 _atom_site_type_symbol
 _atom_site_label
 _atom_site_symmetry_multiplicity
 _atom_site_fract_x
 _atom_site_fract_y
 _atom_site_fract_z
 _atom_site_occupancy
  Li  Li0  1  0.000007  0.000006  0.486877  1
  Li  Li1  1  0.999993  0.999994  0.986877  1
  Pr  Pr2  1  0.643464  0.769840  0.229561  1
  Pr  Pr3  1  0.126360  0.356512  0.229559  1
  Pr  Pr4  1  0.230160  0.873637  0.229575  1
  Pr  Pr5  1  0.356536  0.230160  0.729561  1
  Pr  Pr6  1  0.769840  0.126362  0.729575  1
  Pr  Pr7  1  0.873640  0.643487  0.729559  1
  Ge  Ge8  1  0.666684  0.333339  0.148887  1
  Ge  Ge9  1  0.333316  0.666661  0.648887  1
  S  S10  1  0.519494  0.105828  0.994152  1
  S  S11  1  0.586348  0.480514  0.994157  1
  S  S12  1  0.894178  0.413664  0.994151  1
  S  S13  1  0.333318  0.666661  0.024975  1
  S  S14  1  0.913084  0.755386  0.248044  1
  S  S15  1  0.244635  0.157713  0.248027  1
  S  S16  1  0.842289  0.086918  0.248034  1
  S  S17  1  0.480506  0.894172  0.494152  1
  S  S18  1  0.413653  0.519486  0.494157  1
  S  S19  1  0.105823  0.586336  0.494151  1
  S  S20  1  0.666681  0.333339  0.524975  1
  S  S21  1  0.086916  0.244613  0.748044  1
  S  S22  1  0.755365  0.842287  0.748027  1
  S  S23  1  0.157711  0.913082  0.748034  1
