# generated using pymatgen
data_Tm5Co7(PRu)12
_symmetry_space_group_name_H-M   'P 1'
_cell_length_a   12.34452300
_cell_length_b   12.34452267
_cell_length_c   3.79526900
_cell_angle_alpha   90.00000000
_cell_angle_beta   90.00000000
_cell_angle_gamma   119.99999285
_symmetry_Int_Tables_number   1
_chemical_formula_structural   Tm5Co7(PRu)12
_chemical_formula_sum   'Tm5 Co7 P12 Ru12'
_cell_volume   500.86633346
_cell_formula_units_Z   1
loop_
 _symmetry_equiv_pos_site_id
 _symmetry_equiv_pos_as_xyz
  1  'x, y, z'
loop_
 _atom_site_type_symbol
 _atom_site_label
 _atom_site_symmetry_multiplicity
 _atom_site_fract_x
 _atom_site_fract_y
 _atom_site_fract_z
 _atom_site_occupancy
  Tm  Tm0  1  0.666667  0.333333  0.000000  1
  Tm  Tm1  1  0.333333  0.666667  0.000000  1
  Tm  Tm2  1  0.181621  0.181421  0.500000  1
  Tm  Tm3  1  0.818579  0.000200  0.500000  1
  Tm  Tm4  1  0.999800  0.818379  0.500000  1
  Co  Co5  1  0.193544  0.823883  0.000000  1
  Co  Co6  1  0.630339  0.806456  0.000000  1
  Co  Co7  1  0.176117  0.369661  0.000000  1
  Co  Co8  1  0.716402  0.723355  0.500000  1
  Co  Co9  1  0.276645  0.993047  0.500000  1
  Co  Co10  1  0.006953  0.283598  0.500000  1
  Co  Co11  1  0.000000  0.000000  0.000000  1
  P  P12  1  0.362941  0.366364  0.000000  1
  P  P13  1  0.633636  0.996577  0.000000  1
  P  P14  1  0.003423  0.637059  0.000000  1
  P  P15  1  0.837010  0.312858  0.500000  1
  P  P16  1  0.687142  0.524152  0.500000  1
  P  P17  1  0.475848  0.162990  0.500000  1
  P  P18  1  0.316905  0.839029  0.500000  1
  P  P19  1  0.522124  0.683095  0.500000  1
  P  P20  1  0.160971  0.477876  0.500000  1
  P  P21  1  0.819357  0.825625  0.000000  1
  P  P22  1  0.174375  0.993730  0.000000  1
  P  P23  1  0.006270  0.180643  0.000000  1
  Ru  Ru24  1  0.549834  0.561701  0.000000  1
  Ru  Ru25  1  0.438299  0.988132  0.000000  1
  Ru  Ru26  1  0.011868  0.450166  0.000000  1
  Ru  Ru27  1  0.826780  0.196907  0.000000  1
  Ru  Ru28  1  0.803093  0.629873  0.000000  1
  Ru  Ru29  1  0.370127  0.173220  0.000000  1
  Ru  Ru30  1  0.638616  0.124074  0.500000  1
  Ru  Ru31  1  0.875926  0.514543  0.500000  1
  Ru  Ru32  1  0.485457  0.361384  0.500000  1
  Ru  Ru33  1  0.131732  0.649394  0.500000  1
  Ru  Ru34  1  0.517663  0.868268  0.500000  1
  Ru  Ru35  1  0.350606  0.482337  0.500000  1
