# generated using pymatgen
data_Er4Al3Ga3Pt8
_symmetry_space_group_name_H-M   'P 1'
_cell_length_a   8.09725960
_cell_length_b   8.09725883
_cell_length_c   7.65308765
_cell_angle_alpha   89.97425028
_cell_angle_beta   89.97424611
_cell_angle_gamma   139.90696365
_symmetry_Int_Tables_number   1
_chemical_formula_structural   Er4Al3Ga3Pt8
_chemical_formula_sum   'Er4 Al3 Ga3 Pt8'
_cell_volume   323.16099757
_cell_formula_units_Z   1
loop_
 _symmetry_equiv_pos_site_id
 _symmetry_equiv_pos_as_xyz
  1  'x, y, z'
loop_
 _atom_site_type_symbol
 _atom_site_label
 _atom_site_symmetry_multiplicity
 _atom_site_fract_x
 _atom_site_fract_y
 _atom_site_fract_z
 _atom_site_occupancy
  Er  Er0  1  0.107584  0.893201  0.407966  1
  Er  Er1  1  0.892392  0.106849  0.591941  1
  Er  Er2  1  0.393151  0.607608  0.908059  1
  Er  Er3  1  0.606799  0.392416  0.092034  1
  Al  Al4  1  0.999783  0.999975  0.000099  1
  Al  Al5  1  0.500025  0.500217  0.499901  1
  Al  Al6  1  0.523878  0.976122  0.250000  1
  Ga  Ga7  1  0.022334  0.477666  0.250000  1
  Ga  Ga8  1  0.477408  0.022592  0.750000  1
  Ga  Ga9  1  0.977218  0.522782  0.750000  1
  Pt  Pt10  1  0.193563  0.306437  0.250000  1
  Pt  Pt11  1  0.306507  0.193493  0.750000  1
  Pt  Pt12  1  0.806405  0.693595  0.750000  1
  Pt  Pt13  1  0.692019  0.807981  0.250000  1
  Pt  Pt14  1  0.186982  0.821321  0.030428  1
  Pt  Pt15  1  0.815449  0.180177  0.973944  1
  Pt  Pt16  1  0.319823  0.684551  0.526056  1
  Pt  Pt17  1  0.678679  0.313018  0.469572  1
