# generated using pymatgen
data_La2PtN2
_symmetry_space_group_name_H-M   'P 1'
_cell_length_a   3.75129329
_cell_length_b   3.75126996
_cell_length_c   6.92892514
_cell_angle_alpha   105.69816455
_cell_angle_beta   105.70581569
_cell_angle_gamma   90.00000868
_symmetry_Int_Tables_number   1
_chemical_formula_structural   La2PtN2
_chemical_formula_sum   'La2 Pt1 N2'
_cell_volume   90.08047745
_cell_formula_units_Z   1
loop_
 _symmetry_equiv_pos_site_id
 _symmetry_equiv_pos_as_xyz
  1  'x, y, z'
loop_
 _atom_site_type_symbol
 _atom_site_label
 _atom_site_symmetry_multiplicity
 _atom_site_fract_x
 _atom_site_fract_y
 _atom_site_fract_z
 _atom_site_occupancy
  La  La0  1  0.849890  0.849867  0.199780  1
  La  La1  1  0.150110  0.150133  0.800220  1
  Pt  Pt2  1  0.500000  0.500000  0.500000  1
  N  N3  1  0.335769  0.335838  0.171540  1
  N  N4  1  0.664231  0.664162  0.828460  1
