# generated using pymatgen
data_Ce2HoIn3Tc2
_symmetry_space_group_name_H-M   'P 1'
_cell_length_a   8.38706185
_cell_length_b   8.38706142
_cell_length_c   4.92253646
_cell_angle_alpha   82.33461961
_cell_angle_beta   82.33462288
_cell_angle_gamma   34.30163568
_symmetry_Int_Tables_number   1
_chemical_formula_structural   Ce2HoIn3Tc2
_chemical_formula_sum   'Ce2 Ho1 In3 Tc2'
_cell_volume   193.22687011
_cell_formula_units_Z   1
loop_
 _symmetry_equiv_pos_site_id
 _symmetry_equiv_pos_as_xyz
  1  'x, y, z'
loop_
 _atom_site_type_symbol
 _atom_site_label
 _atom_site_symmetry_multiplicity
 _atom_site_fract_x
 _atom_site_fract_y
 _atom_site_fract_z
 _atom_site_occupancy
  Ce  Ce0  1  0.830081  0.830081  0.580159  1
  Ce  Ce1  1  0.169919  0.169919  0.419841  1
  Ho  Ho2  1  0.000000  0.000000  0.000000  1
  In  In3  1  0.373659  0.373659  0.057862  1
  In  In4  1  0.500000  0.500000  0.500000  1
  In  In5  1  0.626341  0.626341  0.942138  1
  Tc  Tc6  1  0.793893  0.793893  0.083575  1
  Tc  Tc7  1  0.206107  0.206107  0.916425  1
