# generated using pymatgen
data_YbNi4Ge
_symmetry_space_group_name_H-M   'P 1'
_cell_length_a   4.86952191
_cell_length_b   4.86952215
_cell_length_c   3.98851800
_cell_angle_alpha   90.00000000
_cell_angle_beta   90.00000000
_cell_angle_gamma   118.11608617
_symmetry_Int_Tables_number   1
_chemical_formula_structural   YbNi4Ge
_chemical_formula_sum   'Yb1 Ni4 Ge1'
_cell_volume   83.41615132
_cell_formula_units_Z   1
loop_
 _symmetry_equiv_pos_site_id
 _symmetry_equiv_pos_as_xyz
  1  'x, y, z'
loop_
 _atom_site_type_symbol
 _atom_site_label
 _atom_site_symmetry_multiplicity
 _atom_site_fract_x
 _atom_site_fract_y
 _atom_site_fract_z
 _atom_site_occupancy
  Yb  Yb0  1  0.000000  0.000000  0.000000  1
  Ni  Ni1  1  0.334004  0.665996  0.000000  1
  Ni  Ni2  1  0.665996  0.334004  0.000000  1
  Ni  Ni3  1  0.500000  0.000000  0.500000  1
  Ni  Ni4  1  0.000000  0.500000  0.500000  1
  Ge  Ge5  1  0.500000  0.500000  0.500000  1
