# generated using pymatgen
data_Dy(Ga3Pd)3
_symmetry_space_group_name_H-M   'P 1'
_cell_length_a   10.49928974
_cell_length_b   10.49921482
_cell_length_c   10.49932101
_cell_angle_alpha   42.27667828
_cell_angle_beta   42.27612955
_cell_angle_gamma   42.27667807
_symmetry_Int_Tables_number   1
_chemical_formula_structural   Dy(Ga3Pd)3
_chemical_formula_sum   'Dy2 Ga18 Pd6'
_cell_volume   474.04108815
_cell_formula_units_Z   2
loop_
 _symmetry_equiv_pos_site_id
 _symmetry_equiv_pos_as_xyz
  1  'x, y, z'
loop_
 _atom_site_type_symbol
 _atom_site_label
 _atom_site_symmetry_multiplicity
 _atom_site_fract_x
 _atom_site_fract_y
 _atom_site_fract_z
 _atom_site_occupancy
  Dy  Dy0  1  0.166849  0.166848  0.166853  1
  Dy  Dy1  1  0.833153  0.833149  0.833161  1
  Ga  Ga2  1  0.049174  0.049114  0.049220  1
  Ga  Ga3  1  0.704226  0.500010  0.295779  1
  Ga  Ga4  1  0.665062  0.335004  0.999982  1
  Ga  Ga5  1  0.108601  0.437897  0.769241  1
  Ga  Ga6  1  0.437932  0.769206  0.108616  1
  Ga  Ga7  1  0.384824  0.384818  0.384773  1
  Ga  Ga8  1  0.334951  0.000001  0.665111  1
  Ga  Ga9  1  0.615181  0.615190  0.615189  1
  Ga  Ga10  1  0.230756  0.562078  0.891408  1
  Ga  Ga11  1  0.562063  0.891391  0.230779  1
  Ga  Ga12  1  0.499990  0.295781  0.704250  1
  Ga  Ga13  1  0.769235  0.108576  0.437925  1
  Ga  Ga14  1  0.950761  0.950792  0.950757  1
  Ga  Ga15  1  0.295755  0.704259  0.499995  1
  Ga  Ga16  1  0.000028  0.665215  0.334788  1
  Ga  Ga17  1  0.715445  0.715406  0.715390  1
  Ga  Ga18  1  0.284578  0.284597  0.284594  1
  Ga  Ga19  1  0.891407  0.230749  0.562083  1
  Pd  Pd20  1  0.240481  0.921905  0.580701  1
  Pd  Pd21  1  0.921903  0.580664  0.240504  1
  Pd  Pd22  1  0.759551  0.419287  0.078115  1
  Pd  Pd23  1  0.078102  0.759498  0.419309  1
  Pd  Pd24  1  0.419326  0.078074  0.759547  1
  Pd  Pd25  1  0.580668  0.240492  0.921933  1
