# generated using pymatgen
data_TbYb2DyB16
_symmetry_space_group_name_H-M   'P 1'
_cell_length_a   7.11335600
_cell_length_b   7.12036600
_cell_length_c   4.03250400
_cell_angle_alpha   90.00000000
_cell_angle_beta   90.00000000
_cell_angle_gamma   90.00180247
_symmetry_Int_Tables_number   1
_chemical_formula_structural   TbYb2DyB16
_chemical_formula_sum   'Tb1 Yb2 Dy1 B16'
_cell_volume   204.24511062
_cell_formula_units_Z   1
loop_
 _symmetry_equiv_pos_site_id
 _symmetry_equiv_pos_as_xyz
  1  'x, y, z'
loop_
 _atom_site_type_symbol
 _atom_site_label
 _atom_site_symmetry_multiplicity
 _atom_site_fract_x
 _atom_site_fract_y
 _atom_site_fract_z
 _atom_site_occupancy
  Tb  Tb0  1  0.817109  0.316574  0.000000  1
  Yb  Yb1  1  0.183604  0.683658  0.000000  1
  Yb  Yb2  1  0.683525  0.816399  0.000000  1
  Dy  Dy3  1  0.317091  0.183401  0.000000  1
  B  B4  1  0.324398  0.461973  0.500000  1
  B  B5  1  0.676066  0.537794  0.500000  1
  B  B6  1  0.537598  0.324352  0.500000  1
  B  B7  1  0.461951  0.675788  0.500000  1
  B  B8  1  0.999594  0.997976  0.203433  1
  B  B9  1  0.499285  0.501957  0.796555  1
  B  B10  1  0.999594  0.997976  0.796567  1
  B  B11  1  0.499285  0.501957  0.203445  1
  B  B12  1  0.586405  0.086867  0.500000  1
  B  B13  1  0.086564  0.413163  0.500000  1
  B  B14  1  0.913509  0.586278  0.500000  1
  B  B15  1  0.413448  0.913849  0.500000  1
  B  B16  1  0.038061  0.175557  0.500000  1
  B  B17  1  0.176321  0.962399  0.500000  1
  B  B18  1  0.824533  0.037854  0.500000  1
  B  B19  1  0.962056  0.824227  0.500000  1
