# generated using pymatgen
data_Pr2Hg(SeO3)4
_symmetry_space_group_name_H-M   'P 1'
_cell_length_a   7.13314200
_cell_length_b   8.57585003
_cell_length_c   11.46680691
_cell_angle_alpha   74.75470259
_cell_angle_beta   90.00000000
_cell_angle_gamma   90.00000000
_symmetry_Int_Tables_number   1
_chemical_formula_structural   Pr2Hg(SeO3)4
_chemical_formula_sum   'Pr4 Hg2 Se8 O24'
_cell_volume   676.77117269
_cell_formula_units_Z   2
loop_
 _symmetry_equiv_pos_site_id
 _symmetry_equiv_pos_as_xyz
  1  'x, y, z'
loop_
 _atom_site_type_symbol
 _atom_site_label
 _atom_site_symmetry_multiplicity
 _atom_site_fract_x
 _atom_site_fract_y
 _atom_site_fract_z
 _atom_site_occupancy
  Pr  Pr0  1  0.667546  0.773972  0.076136  1
  Pr  Pr1  1  0.167546  0.726028  0.923864  1
  Pr  Pr2  1  0.332454  0.226028  0.923864  1
  Pr  Pr3  1  0.832454  0.273972  0.076136  1
  Hg  Hg4  1  0.500000  0.500000  0.500000  1
  Hg  Hg5  1  0.000000  0.000000  0.500000  1
  Se  Se6  1  0.680668  0.609288  0.832902  1
  Se  Se7  1  0.180668  0.890712  0.167098  1
  Se  Se8  1  0.319332  0.390712  0.167098  1
  Se  Se9  1  0.819332  0.109288  0.832902  1
  Se  Se10  1  0.331426  0.091635  0.665458  1
  Se  Se11  1  0.831426  0.408365  0.334542  1
  Se  Se12  1  0.668574  0.908365  0.334542  1
  Se  Se13  1  0.168574  0.591635  0.665458  1
  O  O14  1  0.398041  0.271588  0.689887  1
  O  O15  1  0.898041  0.228412  0.310113  1
  O  O16  1  0.601959  0.728412  0.310113  1
  O  O17  1  0.101959  0.771588  0.689887  1
  O  O18  1  0.617059  0.410374  0.870656  1
  O  O19  1  0.117059  0.089626  0.129344  1
  O  O20  1  0.382941  0.589626  0.129344  1
  O  O21  1  0.882941  0.910374  0.870656  1
  O  O22  1  0.847661  0.589903  0.948972  1
  O  O23  1  0.347661  0.910097  0.051028  1
  O  O24  1  0.152339  0.410097  0.051028  1
  O  O25  1  0.652339  0.089903  0.948972  1
  O  O26  1  0.115767  0.159119  0.588737  1
  O  O27  1  0.615767  0.340881  0.411263  1
  O  O28  1  0.884233  0.840881  0.411263  1
  O  O29  1  0.384233  0.659119  0.588737  1
  O  O30  1  0.513495  0.713775  0.892211  1
  O  O31  1  0.013495  0.786225  0.107789  1
  O  O32  1  0.486505  0.286225  0.107789  1
  O  O33  1  0.986505  0.213775  0.892211  1
  O  O34  1  0.268123  0.003513  0.811899  1
  O  O35  1  0.768123  0.496487  0.188101  1
  O  O36  1  0.731877  0.996487  0.188101  1
  O  O37  1  0.231877  0.503513  0.811899  1
