# generated using pymatgen
data_Cs2CeTlBr6
_symmetry_space_group_name_H-M   'P 1'
_cell_length_a   8.47526949
_cell_length_b   8.47527060
_cell_length_c   8.74345200
_cell_angle_alpha   119.68437901
_cell_angle_beta   119.68437550
_cell_angle_gamma   59.95840758
_symmetry_Int_Tables_number   1
_chemical_formula_structural   Cs2CeTlBr6
_chemical_formula_sum   'Cs2 Ce1 Tl1 Br6'
_cell_volume   446.05920668
_cell_formula_units_Z   1
loop_
 _symmetry_equiv_pos_site_id
 _symmetry_equiv_pos_as_xyz
  1  'x, y, z'
loop_
 _atom_site_type_symbol
 _atom_site_label
 _atom_site_symmetry_multiplicity
 _atom_site_fract_x
 _atom_site_fract_y
 _atom_site_fract_z
 _atom_site_occupancy
  Cs  Cs0  1  0.247580  0.247580  0.237957  1
  Cs  Cs1  1  0.752420  0.752420  0.762044  1
  Ce  Ce2  1  0.500000  0.500000  0.000000  1
  Tl  Tl3  1  0.000000  0.000000  0.499999  1
  Br  Br4  1  0.694372  0.212523  0.184573  1
  Br  Br5  1  0.212523  0.694372  0.184573  1
  Br  Br6  1  0.733001  0.733001  0.314670  1
  Br  Br7  1  0.266999  0.266999  0.685330  1
  Br  Br8  1  0.787477  0.305629  0.815426  1
  Br  Br9  1  0.305629  0.787477  0.815426  1
