# generated using pymatgen
data_Hf3Ga2AuC
_symmetry_space_group_name_H-M   'P 1'
_cell_length_a   8.65870432
_cell_length_b   8.65870285
_cell_length_c   8.65870500
_cell_angle_alpha   59.99999562
_cell_angle_beta   60.00000123
_cell_angle_gamma   59.99999962
_symmetry_Int_Tables_number   1
_chemical_formula_structural   Hf3Ga2AuC
_chemical_formula_sum   'Hf12 Ga8 Au4 C4'
_cell_volume   459.03275855
_cell_formula_units_Z   4
loop_
 _symmetry_equiv_pos_site_id
 _symmetry_equiv_pos_as_xyz
  1  'x, y, z'
loop_
 _atom_site_type_symbol
 _atom_site_label
 _atom_site_symmetry_multiplicity
 _atom_site_fract_x
 _atom_site_fract_y
 _atom_site_fract_z
 _atom_site_occupancy
  Hf  Hf0  1  0.436415  0.436415  0.063585  1
  Hf  Hf1  1  0.063585  0.436415  0.063585  1
  Hf  Hf2  1  0.436415  0.063585  0.063585  1
  Hf  Hf3  1  0.063585  0.063585  0.436415  1
  Hf  Hf4  1  0.436415  0.063585  0.436415  1
  Hf  Hf5  1  0.063585  0.436415  0.436415  1
  Hf  Hf6  1  0.813585  0.813585  0.186415  1
  Hf  Hf7  1  0.186415  0.813585  0.186415  1
  Hf  Hf8  1  0.813585  0.186415  0.186415  1
  Hf  Hf9  1  0.186415  0.186415  0.813585  1
  Hf  Hf10  1  0.813585  0.186415  0.813585  1
  Hf  Hf11  1  0.186415  0.813585  0.813585  1
  Ga  Ga12  1  0.836908  0.836908  0.489275  1
  Ga  Ga13  1  0.836908  0.489275  0.836908  1
  Ga  Ga14  1  0.489275  0.836908  0.836908  1
  Ga  Ga15  1  0.836908  0.836908  0.836908  1
  Ga  Ga16  1  0.413092  0.413092  0.760725  1
  Ga  Ga17  1  0.413092  0.760725  0.413092  1
  Ga  Ga18  1  0.760725  0.413092  0.413092  1
  Ga  Ga19  1  0.413092  0.413092  0.413092  1
  Au  Au20  1  0.625000  0.625000  0.125000  1
  Au  Au21  1  0.625000  0.125000  0.625000  1
  Au  Au22  1  0.125000  0.625000  0.625000  1
  Au  Au23  1  0.625000  0.625000  0.625000  1
  C  C24  1  0.125000  0.125000  0.625000  1
  C  C25  1  0.125000  0.625000  0.125000  1
  C  C26  1  0.625000  0.125000  0.125000  1
  C  C27  1  0.125000  0.125000  0.125000  1
