# generated using pymatgen
data_Pr20Ir2RuRh9
_symmetry_space_group_name_H-M   'P 1'
_cell_length_a   11.33934927
_cell_length_b   11.33720004
_cell_length_c   6.63920434
_cell_angle_alpha   90.00888551
_cell_angle_beta   90.07236840
_cell_angle_gamma   90.00370632
_symmetry_Int_Tables_number   1
_chemical_formula_structural   Pr20Ir2RuRh9
_chemical_formula_sum   'Pr20 Ir2 Ru1 Rh9'
_cell_volume   853.51198760
_cell_formula_units_Z   1
loop_
 _symmetry_equiv_pos_site_id
 _symmetry_equiv_pos_as_xyz
  1  'x, y, z'
loop_
 _atom_site_type_symbol
 _atom_site_label
 _atom_site_symmetry_multiplicity
 _atom_site_fract_x
 _atom_site_fract_y
 _atom_site_fract_z
 _atom_site_occupancy
  Pr  Pr0  1  0.293055  0.090768  0.381213  1
  Pr  Pr1  1  0.293112  0.909276  0.886532  1
  Pr  Pr2  1  0.706974  0.088793  0.886044  1
  Pr  Pr3  1  0.707023  0.911191  0.380631  1
  Pr  Pr4  1  0.587422  0.791714  0.886228  1
  Pr  Pr5  1  0.587491  0.208239  0.380424  1
  Pr  Pr6  1  0.409855  0.792055  0.382344  1
  Pr  Pr7  1  0.410050  0.207578  0.886602  1
  Pr  Pr8  1  0.210073  0.410529  0.617730  1
  Pr  Pr9  1  0.209909  0.588559  0.116907  1
  Pr  Pr10  1  0.791662  0.409750  0.117319  1
  Pr  Pr11  1  0.791432  0.591172  0.617782  1
  Pr  Pr12  1  0.910464  0.708602  0.117814  1
  Pr  Pr13  1  0.909328  0.291283  0.618668  1
  Pr  Pr14  1  0.092741  0.708457  0.618272  1
  Pr  Pr15  1  0.091588  0.291882  0.117396  1
  Pr  Pr16  1  0.000070  0.999871  0.498075  1
  Pr  Pr17  1  0.000202  0.000256  0.997602  1
  Pr  Pr18  1  0.499843  0.499556  0.998067  1
  Pr  Pr19  1  0.500016  0.500271  0.498277  1
  Ir  Ir20  1  0.344313  0.346656  0.249574  1
  Ir  Ir21  1  0.345148  0.653963  0.749192  1
  Ru  Ru22  1  0.501067  0.999595  0.118463  1
  Rh  Rh23  1  0.847180  0.155905  0.249958  1
  Rh  Rh24  1  0.846504  0.845226  0.749994  1
  Rh  Rh25  1  0.152508  0.154011  0.749673  1
  Rh  Rh26  1  0.152053  0.845004  0.250158  1
  Rh  Rh27  1  0.655153  0.346603  0.749960  1
  Rh  Rh28  1  0.656304  0.652874  0.250047  1
  Rh  Rh29  1  0.500956  0.000291  0.617608  1
  Rh  Rh30  1  0.998297  0.500080  0.880319  1
  Rh  Rh31  1  0.998208  0.499992  0.381132  1
