# generated using pymatgen
data_Ho5ErCrB14W
_symmetry_space_group_name_H-M   'P 1'
_cell_length_a   8.09373445
_cell_length_b   8.09373396
_cell_length_c   9.40096854
_cell_angle_alpha   89.96214004
_cell_angle_beta   90.03785950
_cell_angle_gamma   155.48826783
_symmetry_Int_Tables_number   1
_chemical_formula_structural   Ho5ErCrB14W
_chemical_formula_sum   'Ho5 Er1 Cr1 B14 W1'
_cell_volume   255.50089012
_cell_formula_units_Z   1
loop_
 _symmetry_equiv_pos_site_id
 _symmetry_equiv_pos_as_xyz
  1  'x, y, z'
loop_
 _atom_site_type_symbol
 _atom_site_label
 _atom_site_symmetry_multiplicity
 _atom_site_fract_x
 _atom_site_fract_y
 _atom_site_fract_z
 _atom_site_occupancy
  Ho  Ho0  1  0.894330  0.105670  0.436240  1
  Ho  Ho1  1  0.106820  0.893180  0.555869  1
  Ho  Ho2  1  0.894319  0.105681  0.063702  1
  Ho  Ho3  1  0.241150  0.758850  0.249991  1
  Ho  Ho4  1  0.754479  0.245521  0.750013  1
  Er  Er5  1  0.106588  0.893412  0.944617  1
  Cr  Cr6  1  0.052808  0.947192  0.249859  1
  B  B7  1  0.727185  0.272815  0.465728  1
  B  B8  1  0.272189  0.727811  0.531294  1
  B  B9  1  0.726986  0.273014  0.034069  1
  B  B10  1  0.271966  0.728034  0.968621  1
  B  B11  1  0.630923  0.369077  0.151805  1
  B  B12  1  0.365076  0.634924  0.854034  1
  B  B13  1  0.630952  0.369048  0.347822  1
  B  B14  1  0.365084  0.634916  0.645967  1
  B  B15  1  0.521618  0.478382  0.097207  1
  B  B16  1  0.481276  0.518724  0.909792  1
  B  B17  1  0.521545  0.478455  0.402571  1
  B  B18  1  0.481141  0.518859  0.590435  1
  B  B19  1  0.459440  0.540560  0.249916  1
  B  B20  1  0.546619  0.453381  0.750356  1
  W  W21  1  0.947506  0.052494  0.750092  1
