# generated using pymatgen
data_Nd5Dy11(InRh)4
_symmetry_space_group_name_H-M   'P 1'
_cell_length_a   9.76070830
_cell_length_b   9.76070911
_cell_length_c   9.74535400
_cell_angle_alpha   60.05203270
_cell_angle_beta   60.05202997
_cell_angle_gamma   60.18346575
_symmetry_Int_Tables_number   1
_chemical_formula_structural   Nd5Dy11(InRh)4
_chemical_formula_sum   'Nd5 Dy11 In4 Rh4'
_cell_volume   657.93945555
_cell_formula_units_Z   1
loop_
 _symmetry_equiv_pos_site_id
 _symmetry_equiv_pos_as_xyz
  1  'x, y, z'
loop_
 _atom_site_type_symbol
 _atom_site_label
 _atom_site_symmetry_multiplicity
 _atom_site_fract_x
 _atom_site_fract_y
 _atom_site_fract_z
 _atom_site_occupancy
  Nd  Nd0  1  0.939735  0.563649  0.559581  1
  Nd  Nd1  1  0.563650  0.939734  0.937036  1
  Nd  Nd2  1  0.563649  0.939735  0.559581  1
  Nd  Nd3  1  0.561824  0.561824  0.938177  1
  Nd  Nd4  1  0.939734  0.563650  0.937036  1
  Dy  Dy5  1  0.944680  0.944680  0.555321  1
  Dy  Dy6  1  0.810855  0.185820  0.191760  1
  Dy  Dy7  1  0.185818  0.810857  0.811565  1
  Dy  Dy8  1  0.185820  0.810855  0.191760  1
  Dy  Dy9  1  0.188217  0.188217  0.811782  1
  Dy  Dy10  1  0.810857  0.185818  0.811565  1
  Dy  Dy11  1  0.811309  0.811309  0.188690  1
  Dy  Dy12  1  0.346884  0.346884  0.347650  1
  Dy  Dy13  1  0.346884  0.346884  0.958582  1
  Dy  Dy14  1  0.955364  0.349385  0.347625  1
  Dy  Dy15  1  0.349385  0.955364  0.347625  1
  In  In16  1  0.579146  0.579146  0.580696  1
  In  In17  1  0.579146  0.579146  0.261013  1
  In  In18  1  0.257573  0.581901  0.580263  1
  In  In19  1  0.581901  0.257573  0.580263  1
  Rh  Rh20  1  0.139876  0.139876  0.144965  1
  Rh  Rh21  1  0.139876  0.139876  0.575280  1
  Rh  Rh22  1  0.576434  0.141382  0.141090  1
  Rh  Rh23  1  0.141382  0.576434  0.141090  1
