# generated using pymatgen
data_Hf18Re6SiOsW2
_symmetry_space_group_name_H-M   'P 1'
_cell_length_a   8.65354000
_cell_length_b   8.65353959
_cell_length_c   8.57010700
_cell_angle_alpha   90.00000000
_cell_angle_beta   90.00000000
_cell_angle_gamma   120.00000156
_symmetry_Int_Tables_number   1
_chemical_formula_structural   Hf18Re6SiOsW2
_chemical_formula_sum   'Hf18 Re6 Si1 Os1 W2'
_cell_volume   555.78197731
_cell_formula_units_Z   1
loop_
 _symmetry_equiv_pos_site_id
 _symmetry_equiv_pos_as_xyz
  1  'x, y, z'
loop_
 _atom_site_type_symbol
 _atom_site_label
 _atom_site_symmetry_multiplicity
 _atom_site_fract_x
 _atom_site_fract_y
 _atom_site_fract_z
 _atom_site_occupancy
  Hf  Hf0  1  0.198378  0.801622  0.447919  1
  Hf  Hf1  1  0.198378  0.396757  0.447919  1
  Hf  Hf2  1  0.603243  0.801622  0.447919  1
  Hf  Hf3  1  0.805109  0.194891  0.547389  1
  Hf  Hf4  1  0.805109  0.610218  0.547389  1
  Hf  Hf5  1  0.389782  0.194891  0.547389  1
  Hf  Hf6  1  0.805109  0.194891  0.952611  1
  Hf  Hf7  1  0.805109  0.610218  0.952611  1
  Hf  Hf8  1  0.389782  0.194891  0.952611  1
  Hf  Hf9  1  0.198378  0.801622  0.052081  1
  Hf  Hf10  1  0.198378  0.396757  0.052081  1
  Hf  Hf11  1  0.603243  0.801622  0.052081  1
  Hf  Hf12  1  0.539828  0.460172  0.250000  1
  Hf  Hf13  1  0.539828  0.079654  0.250000  1
  Hf  Hf14  1  0.920346  0.460172  0.250000  1
  Hf  Hf15  1  0.461756  0.538244  0.750000  1
  Hf  Hf16  1  0.461756  0.923513  0.750000  1
  Hf  Hf17  1  0.076487  0.538244  0.750000  1
  Re  Re18  1  0.888452  0.111548  0.250000  1
  Re  Re19  1  0.888452  0.776903  0.250000  1
  Re  Re20  1  0.223097  0.111548  0.250000  1
  Re  Re21  1  0.110656  0.889344  0.750000  1
  Re  Re22  1  0.110656  0.221314  0.750000  1
  Re  Re23  1  0.778686  0.889344  0.750000  1
  Si  Si24  1  0.666667  0.333333  0.750000  1
  Os  Os25  1  0.333333  0.666667  0.250000  1
  W  W26  1  0.000000  0.000000  0.499406  1
  W  W27  1  0.000000  0.000000  0.000594  1
