# generated using pymatgen
data_NdEuTm4Ta2O14
_symmetry_space_group_name_H-M   'P 1'
_cell_length_a   6.44205246
_cell_length_b   6.44171699
_cell_length_c   7.52634818
_cell_angle_alpha   89.91215101
_cell_angle_beta   90.08855863
_cell_angle_gamma   108.99658125
_symmetry_Int_Tables_number   1
_chemical_formula_structural   NdEuTm4Ta2O14
_chemical_formula_sum   'Nd1 Eu1 Tm4 Ta2 O14'
_cell_volume   295.31697720
_cell_formula_units_Z   1
loop_
 _symmetry_equiv_pos_site_id
 _symmetry_equiv_pos_as_xyz
  1  'x, y, z'
loop_
 _atom_site_type_symbol
 _atom_site_label
 _atom_site_symmetry_multiplicity
 _atom_site_fract_x
 _atom_site_fract_y
 _atom_site_fract_z
 _atom_site_occupancy
  Nd  Nd0  1  0.507229  0.507250  0.499999  1
  Eu  Eu1  1  0.495916  0.495935  0.000020  1
  Tm  Tm2  1  0.998976  0.466666  0.749626  1
  Tm  Tm3  1  0.001273  0.532908  0.246023  1
  Tm  Tm4  1  0.532931  0.001284  0.753981  1
  Tm  Tm5  1  0.466690  0.998985  0.250378  1
  Ta  Ta6  1  0.000665  0.000696  0.500036  1
  Ta  Ta7  1  0.000012  0.000047  0.999949  1
  O  O8  1  0.643894  0.356022  0.752928  1
  O  O9  1  0.356014  0.643909  0.247080  1
  O  O10  1  0.931763  0.067951  0.749785  1
  O  O11  1  0.067947  0.931756  0.250201  1
  O  O12  1  0.928404  0.675389  0.531862  1
  O  O13  1  0.069316  0.323163  0.031486  1
  O  O14  1  0.323188  0.069316  0.968512  1
  O  O15  1  0.675408  0.928391  0.468136  1
  O  O16  1  0.362415  0.637336  0.752276  1
  O  O17  1  0.637322  0.362421  0.247735  1
  O  O18  1  0.935310  0.680453  0.963295  1
  O  O19  1  0.065237  0.319591  0.462513  1
  O  O20  1  0.319622  0.065233  0.537479  1
  O  O21  1  0.680469  0.935299  0.036700  1
