# generated using pymatgen
data_Li3Er2TmSi3
_symmetry_space_group_name_H-M   'P 1'
_cell_length_a   6.91272899
_cell_length_b   6.91272825
_cell_length_c   4.21487900
_cell_angle_alpha   90.00000000
_cell_angle_beta   90.00000000
_cell_angle_gamma   119.93881341
_symmetry_Int_Tables_number   1
_chemical_formula_structural   Li3Er2TmSi3
_chemical_formula_sum   'Li3 Er2 Tm1 Si3'
_cell_volume   174.53486545
_cell_formula_units_Z   1
loop_
 _symmetry_equiv_pos_site_id
 _symmetry_equiv_pos_as_xyz
  1  'x, y, z'
loop_
 _atom_site_type_symbol
 _atom_site_label
 _atom_site_symmetry_multiplicity
 _atom_site_fract_x
 _atom_site_fract_y
 _atom_site_fract_z
 _atom_site_occupancy
  Li  Li0  1  0.767793  0.999962  0.500001  1
  Li  Li1  1  0.232243  0.232244  0.500001  1
  Li  Li2  1  0.999962  0.767793  0.500001  1
  Er  Er3  1  0.428768  0.999953  0.000000  1
  Er  Er4  1  0.999953  0.428769  0.000000  1
  Tm  Tm5  1  0.571332  0.571332  0.000000  1
  Si  Si6  1  0.999804  0.999804  0.000000  1
  Si  Si7  1  0.666571  0.333572  0.500001  1
  Si  Si8  1  0.333572  0.666572  0.500001  1
