# generated using pymatgen
data_Y4Lu4B24RhW3
_symmetry_space_group_name_H-M   'P 1'
_cell_length_a   3.59423200
_cell_length_b   9.20930168
_cell_length_c   11.62516104
_cell_angle_alpha   90.16130873
_cell_angle_beta   90.00000000
_cell_angle_gamma   90.00000000
_symmetry_Int_Tables_number   1
_chemical_formula_structural   Y4Lu4B24RhW3
_chemical_formula_sum   'Y4 Lu4 B24 Rh1 W3'
_cell_volume   384.79556955
_cell_formula_units_Z   1
loop_
 _symmetry_equiv_pos_site_id
 _symmetry_equiv_pos_as_xyz
  1  'x, y, z'
loop_
 _atom_site_type_symbol
 _atom_site_label
 _atom_site_symmetry_multiplicity
 _atom_site_fract_x
 _atom_site_fract_y
 _atom_site_fract_z
 _atom_site_occupancy
  Y  Y0  1  0.500000  0.318254  0.414711  1
  Y  Y1  1  0.500000  0.679593  0.588043  1
  Y  Y2  1  0.500000  0.179123  0.913008  1
  Y  Y3  1  0.500000  0.823545  0.083348  1
  Lu  Lu4  1  0.500000  0.444577  0.129248  1
  Lu  Lu5  1  0.500000  0.555929  0.873037  1
  Lu  Lu6  1  0.500000  0.054100  0.626767  1
  Lu  Lu7  1  0.500000  0.942286  0.371161  1
  B  B8  1  0.000000  0.097419  0.471911  1
  B  B9  1  0.000000  0.897274  0.526021  1
  B  B10  1  0.000000  0.401309  0.973760  1
  B  B11  1  0.000000  0.600739  0.029539  1
  B  B12  1  0.000000  0.129723  0.318320  1
  B  B13  1  0.000000  0.868868  0.682370  1
  B  B14  1  0.000000  0.370426  0.816757  1
  B  B15  1  0.000000  0.631363  0.184187  1
  B  B16  1  0.000000  0.052488  0.066022  1
  B  B17  1  0.000000  0.948818  0.934341  1
  B  B18  1  0.000000  0.448730  0.563999  1
  B  B19  1  0.000000  0.555415  0.432453  1
  B  B20  1  0.000000  0.483751  0.287664  1
  B  B21  1  0.000000  0.521775  0.713811  1
  B  B22  1  0.000000  0.021295  0.785120  1
  B  B23  1  0.000000  0.977977  0.213610  1
  B  B24  1  0.000000  0.253911  0.080205  1
  B  B25  1  0.000000  0.747471  0.921330  1
  B  B26  1  0.000000  0.245550  0.578353  1
  B  B27  1  0.000000  0.750084  0.419048  1
  B  B28  1  0.000000  0.296838  0.237268  1
  B  B29  1  0.000000  0.704192  0.764997  1
  B  B30  1  0.000000  0.204597  0.734838  1
  B  B31  1  0.000000  0.791281  0.264995  1
  Rh  Rh32  1  0.500000  0.639501  0.319668  1
  W  W33  1  0.500000  0.140223  0.181710  1
  W  W34  1  0.500000  0.860696  0.819819  1
  W  W35  1  0.500000  0.360876  0.678562  1
