# generated using pymatgen
data_Tb4Ga16Co2Os
_symmetry_space_group_name_H-M   'P 1'
_cell_length_a   6.07531700
_cell_length_b   6.07531700
_cell_length_c   11.15555800
_cell_angle_alpha   90.00000000
_cell_angle_beta   90.00000000
_cell_angle_gamma   90.00000000
_symmetry_Int_Tables_number   1
_chemical_formula_structural   Tb4Ga16Co2Os
_chemical_formula_sum   'Tb4 Ga16 Co2 Os1'
_cell_volume   411.74580752
_cell_formula_units_Z   1
loop_
 _symmetry_equiv_pos_site_id
 _symmetry_equiv_pos_as_xyz
  1  'x, y, z'
loop_
 _atom_site_type_symbol
 _atom_site_label
 _atom_site_symmetry_multiplicity
 _atom_site_fract_x
 _atom_site_fract_y
 _atom_site_fract_z
 _atom_site_occupancy
  Tb  Tb0  1  0.500000  0.000000  0.805311  1
  Tb  Tb1  1  0.000000  0.500000  0.805311  1
  Tb  Tb2  1  0.500000  0.000000  0.194689  1
  Tb  Tb3  1  0.000000  0.500000  0.194689  1
  Ga  Ga4  1  0.248848  0.248848  0.614390  1
  Ga  Ga5  1  0.751152  0.751152  0.614390  1
  Ga  Ga6  1  0.751152  0.248848  0.614390  1
  Ga  Ga7  1  0.248848  0.751152  0.614390  1
  Ga  Ga8  1  0.751152  0.751152  0.385610  1
  Ga  Ga9  1  0.248848  0.248848  0.385610  1
  Ga  Ga10  1  0.248848  0.751152  0.385610  1
  Ga  Ga11  1  0.751152  0.248848  0.385610  1
  Ga  Ga12  1  0.287565  0.287565  0.000000  1
  Ga  Ga13  1  0.712435  0.712435  0.000000  1
  Ga  Ga14  1  0.712435  0.287565  0.000000  1
  Ga  Ga15  1  0.287565  0.712435  0.000000  1
  Ga  Ga16  1  0.500000  0.500000  0.802457  1
  Ga  Ga17  1  0.500000  0.500000  0.197543  1
  Ga  Ga18  1  0.000000  0.000000  0.774920  1
  Ga  Ga19  1  0.000000  0.000000  0.225080  1
  Co  Co20  1  0.500000  0.000000  0.500000  1
  Co  Co21  1  0.000000  0.500000  0.500000  1
  Os  Os22  1  0.000000  0.000000  0.000000  1
