# generated using pymatgen
data_Ce2Ho2TmAl2Ru3
_symmetry_space_group_name_H-M   'P 1'
_cell_length_a   8.39890641
_cell_length_b   8.39582995
_cell_length_c   8.40137453
_cell_angle_alpha   110.12290635
_cell_angle_beta   110.30654773
_cell_angle_gamma   109.79133645
_symmetry_Int_Tables_number   1
_chemical_formula_structural   Ce2Ho2TmAl2Ru3
_chemical_formula_sum   'Ce4 Ho4 Tm2 Al4 Ru6'
_cell_volume   445.58458505
_cell_formula_units_Z   2
loop_
 _symmetry_equiv_pos_site_id
 _symmetry_equiv_pos_as_xyz
  1  'x, y, z'
loop_
 _atom_site_type_symbol
 _atom_site_label
 _atom_site_symmetry_multiplicity
 _atom_site_fract_x
 _atom_site_fract_y
 _atom_site_fract_z
 _atom_site_occupancy
  Ce  Ce0  1  0.502840  0.992403  0.704179  1
  Ce  Ce1  1  0.255651  0.201574  0.947330  1
  Ce  Ce2  1  0.941378  0.248772  0.192974  1
  Ce  Ce3  1  0.196359  0.942998  0.248707  1
  Ho  Ho4  1  0.756348  0.318980  0.566421  1
  Ho  Ho5  1  0.566250  0.746900  0.308025  1
  Ho  Ho6  1  0.724401  0.509236  0.997292  1
  Ho  Ho7  1  0.995299  0.723035  0.508981  1
  Tm  Tm8  1  0.776291  0.778211  0.778141  1
  Tm  Tm9  1  0.314075  0.566003  0.751143  1
  Al  Al10  1  0.410127  0.408158  0.411271  1
  Al  Al11  1  0.097041  0.499212  0.005161  1
  Al  Al12  1  0.999394  0.094557  0.501472  1
  Al  Al13  1  0.498283  0.000049  0.091786  1
  Ru  Ru14  1  0.887014  0.117506  0.752832  1
  Ru  Ru15  1  0.753270  0.897331  0.119099  1
  Ru  Ru16  1  0.119239  0.754531  0.902556  1
  Ru  Ru17  1  0.236032  0.610141  0.380421  1
  Ru  Ru18  1  0.369461  0.223071  0.605942  1
  Ru  Ru19  1  0.601246  0.367334  0.226268  1
