# generated using pymatgen
data_Ho3TiSn2Ir3
_symmetry_space_group_name_H-M   'P 1'
_cell_length_a   7.26398804
_cell_length_b   7.26398800
_cell_length_c   4.16254000
_cell_angle_alpha   90.00000000
_cell_angle_beta   90.00000000
_cell_angle_gamma   121.11850942
_symmetry_Int_Tables_number   1
_chemical_formula_structural   Ho3TiSn2Ir3
_chemical_formula_sum   'Ho3 Ti1 Sn2 Ir3'
_cell_volume   188.03263980
_cell_formula_units_Z   1
loop_
 _symmetry_equiv_pos_site_id
 _symmetry_equiv_pos_as_xyz
  1  'x, y, z'
loop_
 _atom_site_type_symbol
 _atom_site_label
 _atom_site_symmetry_multiplicity
 _atom_site_fract_x
 _atom_site_fract_y
 _atom_site_fract_z
 _atom_site_occupancy
  Ho  Ho0  1  0.405313  0.405313  0.500000  1
  Ho  Ho1  1  0.587774  0.997952  0.500000  1
  Ho  Ho2  1  0.997952  0.587774  0.500000  1
  Ti  Ti3  1  0.754868  0.754868  0.000000  1
  Sn  Sn4  1  0.250876  0.996466  0.000000  1
  Sn  Sn5  1  0.996466  0.250876  0.000000  1
  Ir  Ir6  1  0.673314  0.362427  0.000000  1
  Ir  Ir7  1  0.362427  0.673314  0.000000  1
  Ir  Ir8  1  0.971011  0.971011  0.500000  1
