# generated using pymatgen
data_Tm4CrOsC4
_symmetry_space_group_name_H-M   'P 1'
_cell_length_a   4.99197800
_cell_length_b   6.42623352
_cell_length_c   9.65825897
_cell_angle_alpha   90.30054043
_cell_angle_beta   90.00000000
_cell_angle_gamma   90.00000000
_symmetry_Int_Tables_number   1
_chemical_formula_structural   Tm4CrOsC4
_chemical_formula_sum   'Tm8 Cr2 Os2 C8'
_cell_volume   309.82897987
_cell_formula_units_Z   2
loop_
 _symmetry_equiv_pos_site_id
 _symmetry_equiv_pos_as_xyz
  1  'x, y, z'
loop_
 _atom_site_type_symbol
 _atom_site_label
 _atom_site_symmetry_multiplicity
 _atom_site_fract_x
 _atom_site_fract_y
 _atom_site_fract_z
 _atom_site_occupancy
  Tm  Tm0  1  0.250000  0.681040  0.558988  1
  Tm  Tm1  1  0.750000  0.318960  0.441012  1
  Tm  Tm2  1  0.750000  0.823377  0.055115  1
  Tm  Tm3  1  0.250000  0.176623  0.944885  1
  Tm  Tm4  1  0.250000  0.532214  0.216898  1
  Tm  Tm5  1  0.750000  0.467786  0.783102  1
  Tm  Tm6  1  0.750000  0.972301  0.716958  1
  Tm  Tm7  1  0.250000  0.027699  0.283042  1
  Cr  Cr8  1  0.250000  0.724296  0.863390  1
  Cr  Cr9  1  0.750000  0.275704  0.136610  1
  Os  Os10  1  0.750000  0.776687  0.364319  1
  Os  Os11  1  0.250000  0.223313  0.635681  1
  C  C12  1  0.250000  0.462363  0.764509  1
  C  C13  1  0.750000  0.537637  0.235491  1
  C  C14  1  0.750000  0.047924  0.256314  1
  C  C15  1  0.250000  0.952076  0.743686  1
  C  C16  1  0.250000  0.815807  0.043081  1
  C  C17  1  0.750000  0.184193  0.956919  1
  C  C18  1  0.750000  0.676387  0.551674  1
  C  C19  1  0.250000  0.323613  0.448326  1
