# generated using pymatgen
data_Dy2Al20OsRh3
_symmetry_space_group_name_H-M   'P 1'
_cell_length_a   6.84444666
_cell_length_b   6.84122843
_cell_length_c   9.14663094
_cell_angle_alpha   90.14780754
_cell_angle_beta   90.18042672
_cell_angle_gamma   97.18929634
_symmetry_Int_Tables_number   1
_chemical_formula_structural   Dy2Al20OsRh3
_chemical_formula_sum   'Dy2 Al20 Os1 Rh3'
_cell_volume   424.91456074
_cell_formula_units_Z   1
loop_
 _symmetry_equiv_pos_site_id
 _symmetry_equiv_pos_as_xyz
  1  'x, y, z'
loop_
 _atom_site_type_symbol
 _atom_site_label
 _atom_site_symmetry_multiplicity
 _atom_site_fract_x
 _atom_site_fract_y
 _atom_site_fract_z
 _atom_site_occupancy
  Dy  Dy0  1  0.868597  0.127798  0.749983  1
  Dy  Dy1  1  0.131403  0.872202  0.250017  1
  Al  Al2  1  0.621464  0.376526  0.548059  1
  Al  Al3  1  0.378536  0.623474  0.451941  1
  Al  Al4  1  0.378290  0.622253  0.049885  1
  Al  Al5  1  0.621710  0.377747  0.950115  1
  Al  Al6  1  0.220308  0.220096  0.499668  1
  Al  Al7  1  0.779692  0.779904  0.500332  1
  Al  Al8  1  0.777566  0.777678  0.999588  1
  Al  Al9  1  0.222434  0.222322  0.000412  1
  Al  Al10  1  0.845041  0.155442  0.103426  1
  Al  Al11  1  0.154959  0.844558  0.896574  1
  Al  Al12  1  0.155037  0.845655  0.602556  1
  Al  Al13  1  0.844963  0.154345  0.397444  1
  Al  Al14  1  0.856511  0.588928  0.749676  1
  Al  Al15  1  0.143489  0.411072  0.250324  1
  Al  Al16  1  0.410115  0.143116  0.749666  1
  Al  Al17  1  0.589885  0.856884  0.250334  1
  Al  Al18  1  0.225163  0.480421  0.749687  1
  Al  Al19  1  0.774837  0.519579  0.250313  1
  Al  Al20  1  0.519081  0.776205  0.746812  1
  Al  Al21  1  0.480919  0.223795  0.253188  1
  Os  Os22  1  0.500000  0.000000  0.500000  1
  Rh  Rh23  1  0.000000  0.500000  0.500000  1
  Rh  Rh24  1  0.000000  0.500000  0.000000  1
  Rh  Rh25  1  0.500000  0.000000  0.000000  1
