# generated using pymatgen
data_Ta6Be15CuNi7
_symmetry_space_group_name_H-M   'P 1'
_cell_length_a   7.56666595
_cell_length_b   7.58384039
_cell_length_c   7.56677609
_cell_angle_alpha   60.08840338
_cell_angle_beta   59.99328475
_cell_angle_gamma   60.08229771
_symmetry_Int_Tables_number   1
_chemical_formula_structural   Ta6Be15CuNi7
_chemical_formula_sum   'Ta6 Be15 Cu1 Ni7'
_cell_volume   307.41609029
_cell_formula_units_Z   1
loop_
 _symmetry_equiv_pos_site_id
 _symmetry_equiv_pos_as_xyz
  1  'x, y, z'
loop_
 _atom_site_type_symbol
 _atom_site_label
 _atom_site_symmetry_multiplicity
 _atom_site_fract_x
 _atom_site_fract_y
 _atom_site_fract_z
 _atom_site_occupancy
  Ta  Ta0  1  0.203211  0.204462  0.796171  1
  Ta  Ta1  1  0.200490  0.794442  0.804554  1
  Ta  Ta2  1  0.796178  0.204463  0.203208  1
  Ta  Ta3  1  0.200538  0.794431  0.200543  1
  Ta  Ta4  1  0.796154  0.204459  0.796141  1
  Ta  Ta5  1  0.804517  0.794446  0.200509  1
  Be  Be6  1  0.501642  0.495077  0.501635  1
  Be  Be7  1  0.500886  0.500027  0.999537  1
  Be  Be8  1  0.999548  0.500027  0.500874  1
  Be  Be9  1  0.500674  0.000875  0.997782  1
  Be  Be10  1  0.997763  0.000890  0.500675  1
  Be  Be11  1  0.999553  0.500020  0.999544  1
  Be  Be12  1  0.500684  0.000854  0.500683  1
  Be  Be13  1  0.826854  0.519380  0.826863  1
  Be  Be14  1  0.171625  0.176063  0.480732  1
  Be  Be15  1  0.480725  0.176056  0.171626  1
  Be  Be16  1  0.171614  0.176034  0.171602  1
  Be  Be17  1  0.520351  0.826604  0.826498  1
  Be  Be18  1  0.826519  0.826646  0.826528  1
  Be  Be19  1  0.826498  0.826612  0.520330  1
  Be  Be20  1  0.174452  0.476725  0.174432  1
  Cu  Cu21  1  0.377624  0.867149  0.377653  1
  Ni  Ni22  1  0.622844  0.131398  0.622838  1
  Ni  Ni23  1  0.377320  0.377462  0.867893  1
  Ni  Ni24  1  0.867910  0.377477  0.377310  1
  Ni  Ni25  1  0.377329  0.377413  0.377317  1
  Ni  Ni26  1  0.132486  0.623467  0.622020  1
  Ni  Ni27  1  0.622025  0.623508  0.622030  1
  Ni  Ni28  1  0.621985  0.623533  0.132475  1
