# generated using pymatgen
data_DyEr5Al24(OsRh)4
_symmetry_space_group_name_H-M   'P 1'
_cell_length_a   8.76473099
_cell_length_b   8.83974815
_cell_length_c   9.54197800
_cell_angle_alpha   90.00000000
_cell_angle_beta   90.00000000
_cell_angle_gamma   119.94515951
_symmetry_Int_Tables_number   1
_chemical_formula_structural   DyEr5Al24(OsRh)4
_chemical_formula_sum   'Dy1 Er5 Al24 Os4 Rh4'
_cell_volume   640.60047401
_cell_formula_units_Z   1
loop_
 _symmetry_equiv_pos_site_id
 _symmetry_equiv_pos_as_xyz
  1  'x, y, z'
loop_
 _atom_site_type_symbol
 _atom_site_label
 _atom_site_symmetry_multiplicity
 _atom_site_fract_x
 _atom_site_fract_y
 _atom_site_fract_z
 _atom_site_occupancy
  Dy  Dy0  1  0.800402  0.186898  0.750000  1
  Er  Er1  1  0.192222  0.384178  0.250000  1
  Er  Er2  1  0.807762  0.615923  0.750000  1
  Er  Er3  1  0.611703  0.811428  0.250000  1
  Er  Er4  1  0.388057  0.188579  0.750000  1
  Er  Er5  1  0.200485  0.812748  0.250000  1
  Al  Al6  1  0.333933  0.667348  0.025418  1
  Al  Al7  1  0.665855  0.332747  0.974975  1
  Al  Al8  1  0.665855  0.332747  0.525025  1
  Al  Al9  1  0.333933  0.667348  0.474582  1
  Al  Al10  1  0.162417  0.325328  0.577784  1
  Al  Al11  1  0.837902  0.674823  0.421979  1
  Al  Al12  1  0.672127  0.836590  0.576111  1
  Al  Al13  1  0.837902  0.674823  0.078021  1
  Al  Al14  1  0.327678  0.163095  0.423638  1
  Al  Al15  1  0.162417  0.325328  0.922216  1
  Al  Al16  1  0.164017  0.836766  0.576281  1
  Al  Al17  1  0.327678  0.163095  0.076362  1
  Al  Al18  1  0.835938  0.163221  0.423281  1
  Al  Al19  1  0.672127  0.836590  0.923889  1
  Al  Al20  1  0.835938  0.163221  0.076719  1
  Al  Al21  1  0.164017  0.836766  0.923719  1
  Al  Al22  1  0.563462  0.126665  0.250000  1
  Al  Al23  1  0.436025  0.872953  0.750000  1
  Al  Al24  1  0.878313  0.440065  0.250000  1
  Al  Al25  1  0.122087  0.560434  0.750000  1
  Al  Al26  1  0.561706  0.440055  0.250000  1
  Al  Al27  1  0.438313  0.559934  0.750000  1
  Al  Al28  1  0.001004  0.001935  0.250000  1
  Al  Al29  1  0.999297  0.997648  0.750000  1
  Os  Os30  1  0.499602  0.999759  0.000314  1
  Os  Os31  1  0.499602  0.999759  0.499686  1
  Os  Os32  1  0.999978  0.000004  0.000059  1
  Os  Os33  1  0.999978  0.000004  0.499941  1
  Rh  Rh34  1  0.000204  0.500409  0.000284  1
  Rh  Rh35  1  0.499929  0.500188  0.000001  1
  Rh  Rh36  1  0.000204  0.500409  0.499716  1
  Rh  Rh37  1  0.499929  0.500188  0.499999  1
