# generated using pymatgen
data_Ho2Re2C3
_symmetry_space_group_name_H-M   'P 1'
_cell_length_a   6.06376446
_cell_length_b   6.06376470
_cell_length_c   5.66599745
_cell_angle_alpha   67.43032170
_cell_angle_beta   67.43031882
_cell_angle_gamma   31.65434019
_symmetry_Int_Tables_number   1
_chemical_formula_structural   Ho2Re2C3
_chemical_formula_sum   'Ho2 Re2 C3'
_cell_volume   100.25587537
_cell_formula_units_Z   1
loop_
 _symmetry_equiv_pos_site_id
 _symmetry_equiv_pos_as_xyz
  1  'x, y, z'
loop_
 _atom_site_type_symbol
 _atom_site_label
 _atom_site_symmetry_multiplicity
 _atom_site_fract_x
 _atom_site_fract_y
 _atom_site_fract_z
 _atom_site_occupancy
  Ho  Ho0  1  0.391114  0.391114  0.820385  1
  Ho  Ho1  1  0.608886  0.608886  0.179615  1
  Re  Re2  1  0.156560  0.156560  0.678282  1
  Re  Re3  1  0.843440  0.843440  0.321718  1
  C  C4  1  0.752511  0.752511  0.732437  1
  C  C5  1  0.247489  0.247489  0.267563  1
  C  C6  1  0.000000  0.000000  0.000000  1
