# generated using pymatgen
data_YbSmTm2(B6Ru)2
_symmetry_space_group_name_H-M   'P 1'
_cell_length_a   3.64430800
_cell_length_b   9.12093410
_cell_length_c   11.52599922
_cell_angle_alpha   89.86635277
_cell_angle_beta   90.00000000
_cell_angle_gamma   90.00000000
_symmetry_Int_Tables_number   1
_chemical_formula_structural   YbSmTm2(B6Ru)2
_chemical_formula_sum   'Yb2 Sm2 Tm4 B24 Ru4'
_cell_volume   383.11732924
_cell_formula_units_Z   2
loop_
 _symmetry_equiv_pos_site_id
 _symmetry_equiv_pos_as_xyz
  1  'x, y, z'
loop_
 _atom_site_type_symbol
 _atom_site_label
 _atom_site_symmetry_multiplicity
 _atom_site_fract_x
 _atom_site_fract_y
 _atom_site_fract_z
 _atom_site_occupancy
  Yb  Yb0  1  0.000000  0.324808  0.415368  1
  Yb  Yb1  1  0.000000  0.675192  0.584632  1
  Sm  Sm2  1  0.000000  0.822066  0.086275  1
  Sm  Sm3  1  0.000000  0.177934  0.913725  1
  Tm  Tm4  1  0.000000  0.941901  0.370700  1
  Tm  Tm5  1  0.000000  0.058099  0.629300  1
  Tm  Tm6  1  0.000000  0.442740  0.131940  1
  Tm  Tm7  1  0.000000  0.557260  0.868060  1
  B  B8  1  0.500000  0.554228  0.432592  1
  B  B9  1  0.500000  0.445772  0.567408  1
  B  B10  1  0.500000  0.055277  0.068849  1
  B  B11  1  0.500000  0.944723  0.931151  1
  B  B12  1  0.500000  0.748308  0.418155  1
  B  B13  1  0.500000  0.251692  0.581845  1
  B  B14  1  0.500000  0.249787  0.083499  1
  B  B15  1  0.500000  0.750213  0.916501  1
  B  B16  1  0.500000  0.790459  0.266234  1
  B  B17  1  0.500000  0.209541  0.733766  1
  B  B18  1  0.500000  0.290974  0.235844  1
  B  B19  1  0.500000  0.709026  0.764156  1
  B  B20  1  0.500000  0.629767  0.186193  1
  B  B21  1  0.500000  0.370233  0.813807  1
  B  B22  1  0.500000  0.130774  0.315544  1
  B  B23  1  0.500000  0.869226  0.684456  1
  B  B24  1  0.500000  0.984441  0.213481  1
  B  B25  1  0.500000  0.015559  0.786519  1
  B  B26  1  0.500000  0.483334  0.288754  1
  B  B27  1  0.500000  0.516666  0.711246  1
  B  B28  1  0.500000  0.599366  0.027206  1
  B  B29  1  0.500000  0.400634  0.972794  1
  B  B30  1  0.500000  0.099142  0.472815  1
  B  B31  1  0.500000  0.900858  0.527185  1
  Ru  Ru32  1  0.000000  0.639519  0.319288  1
  Ru  Ru33  1  0.000000  0.360481  0.680712  1
  Ru  Ru34  1  0.000000  0.138729  0.180513  1
  Ru  Ru35  1  0.000000  0.861271  0.819487  1
