# generated using pymatgen
data_DyTm2B7W
_symmetry_space_group_name_H-M   'P 1'
_cell_length_a   8.06706492
_cell_length_b   8.06706518
_cell_length_c   9.46513500
_cell_angle_alpha   90.00000000
_cell_angle_beta   90.00000000
_cell_angle_gamma   155.42625034
_symmetry_Int_Tables_number   1
_chemical_formula_structural   DyTm2B7W
_chemical_formula_sum   'Dy2 Tm4 B14 W2'
_cell_volume   256.15889606
_cell_formula_units_Z   2
loop_
 _symmetry_equiv_pos_site_id
 _symmetry_equiv_pos_as_xyz
  1  'x, y, z'
loop_
 _atom_site_type_symbol
 _atom_site_label
 _atom_site_symmetry_multiplicity
 _atom_site_fract_x
 _atom_site_fract_y
 _atom_site_fract_z
 _atom_site_occupancy
  Dy  Dy0  1  0.246927  0.753073  0.250000  1
  Dy  Dy1  1  0.753073  0.246927  0.750000  1
  Tm  Tm2  1  0.892984  0.107016  0.441445  1
  Tm  Tm3  1  0.107016  0.892984  0.558555  1
  Tm  Tm4  1  0.892984  0.107016  0.058555  1
  Tm  Tm5  1  0.107016  0.892984  0.941445  1
  B  B6  1  0.727538  0.272462  0.467682  1
  B  B7  1  0.272462  0.727538  0.532318  1
  B  B8  1  0.727538  0.272462  0.032318  1
  B  B9  1  0.272462  0.727538  0.967682  1
  B  B10  1  0.635184  0.364816  0.146919  1
  B  B11  1  0.364816  0.635184  0.853081  1
  B  B12  1  0.635184  0.364816  0.353081  1
  B  B13  1  0.364816  0.635184  0.646919  1
  B  B14  1  0.518767  0.481233  0.091414  1
  B  B15  1  0.481233  0.518767  0.908586  1
  B  B16  1  0.518767  0.481233  0.408586  1
  B  B17  1  0.481233  0.518767  0.591414  1
  B  B18  1  0.452221  0.547779  0.250000  1
  B  B19  1  0.547779  0.452221  0.750000  1
  W  W20  1  0.052421  0.947579  0.250000  1
  W  W21  1  0.947579  0.052421  0.750000  1
