# generated using pymatgen
data_LaTh7Zn6Ga2IrRh7
_symmetry_space_group_name_H-M   'P 1'
_cell_length_a   3.94962300
_cell_length_b   7.54197472
_cell_length_c   16.62304500
_cell_angle_alpha   89.66655410
_cell_angle_beta   90.00000000
_cell_angle_gamma   90.00000000
_symmetry_Int_Tables_number   1
_chemical_formula_structural   LaTh7Zn6Ga2IrRh7
_chemical_formula_sum   'La1 Th7 Zn6 Ga2 Ir1 Rh7'
_cell_volume   495.15816124
_cell_formula_units_Z   1
loop_
 _symmetry_equiv_pos_site_id
 _symmetry_equiv_pos_as_xyz
  1  'x, y, z'
loop_
 _atom_site_type_symbol
 _atom_site_label
 _atom_site_symmetry_multiplicity
 _atom_site_fract_x
 _atom_site_fract_y
 _atom_site_fract_z
 _atom_site_occupancy
  La  La0  1  0.750000  0.940563  0.285609  1
  Th  Th1  1  0.750000  0.328485  0.440093  1
  Th  Th2  1  0.250000  0.062424  0.714453  1
  Th  Th3  1  0.250000  0.558850  0.785257  1
  Th  Th4  1  0.250000  0.674700  0.560429  1
  Th  Th5  1  0.750000  0.822444  0.060250  1
  Th  Th6  1  0.250000  0.172013  0.939966  1
  Th  Th7  1  0.750000  0.440713  0.214912  1
  Zn  Zn8  1  0.250000  0.998335  0.440841  1
  Zn  Zn9  1  0.750000  0.005370  0.559172  1
  Zn  Zn10  1  0.250000  0.491814  0.057569  1
  Zn  Zn11  1  0.750000  0.389696  0.653612  1
  Zn  Zn12  1  0.750000  0.501837  0.941111  1
  Zn  Zn13  1  0.250000  0.614568  0.347779  1
  Ga  Ga14  1  0.250000  0.111750  0.153365  1
  Ga  Ga15  1  0.750000  0.885648  0.846606  1
  Ir  Ir16  1  0.750000  0.255121  0.815610  1
  Rh  Rh17  1  0.250000  0.254884  0.313958  1
  Rh  Rh18  1  0.250000  0.756711  0.934670  1
  Rh  Rh19  1  0.250000  0.257965  0.562262  1
  Rh  Rh20  1  0.250000  0.733389  0.178606  1
  Rh  Rh21  1  0.750000  0.741079  0.440687  1
  Rh  Rh22  1  0.750000  0.238183  0.066192  1
  Rh  Rh23  1  0.750000  0.763461  0.686987  1
