# generated using pymatgen
data_CaCd3(SnO4)2
_symmetry_space_group_name_H-M   'P 1'
_cell_length_a   3.26813500
_cell_length_b   5.69748492
_cell_length_c   10.04646597
_cell_angle_alpha   89.67187190
_cell_angle_beta   90.00000000
_cell_angle_gamma   90.00000000
_symmetry_Int_Tables_number   1
_chemical_formula_structural   CaCd3(SnO4)2
_chemical_formula_sum   'Ca1 Cd3 Sn2 O8'
_cell_volume   187.06363440
_cell_formula_units_Z   1
loop_
 _symmetry_equiv_pos_site_id
 _symmetry_equiv_pos_as_xyz
  1  'x, y, z'
loop_
 _atom_site_type_symbol
 _atom_site_label
 _atom_site_symmetry_multiplicity
 _atom_site_fract_x
 _atom_site_fract_y
 _atom_site_fract_z
 _atom_site_occupancy
  Ca  Ca0  1  0.500000  0.065795  0.318549  1
  Cd  Cd1  1  0.500000  0.939620  0.676418  1
  Cd  Cd2  1  0.500000  0.438879  0.823925  1
  Cd  Cd3  1  0.500000  0.563622  0.176800  1
  Sn  Sn4  1  0.000000  0.997016  0.999723  1
  Sn  Sn5  1  0.000000  0.501269  0.500296  1
  O  O6  1  0.000000  0.136207  0.808712  1
  O  O7  1  0.000000  0.864796  0.192345  1
  O  O8  1  0.000000  0.635270  0.692826  1
  O  O9  1  0.000000  0.366187  0.308112  1
  O  O10  1  0.500000  0.264501  0.538466  1
  O  O11  1  0.500000  0.734419  0.459429  1
  O  O12  1  0.500000  0.228290  0.044982  1
  O  O13  1  0.500000  0.764130  0.959417  1
