# generated using pymatgen
data_Tb10SnBi3Pt2
_symmetry_space_group_name_H-M   'P 1'
_cell_length_a   8.09559981
_cell_length_b   9.06427023
_cell_length_c   12.44696175
_cell_angle_alpha   90.03557233
_cell_angle_beta   89.98280309
_cell_angle_gamma   90.04817958
_symmetry_Int_Tables_number   1
_chemical_formula_structural   Tb10SnBi3Pt2
_chemical_formula_sum   'Tb20 Sn2 Bi6 Pt4'
_cell_volume   913.36627994
_cell_formula_units_Z   2
loop_
 _symmetry_equiv_pos_site_id
 _symmetry_equiv_pos_as_xyz
  1  'x, y, z'
loop_
 _atom_site_type_symbol
 _atom_site_label
 _atom_site_symmetry_multiplicity
 _atom_site_fract_x
 _atom_site_fract_y
 _atom_site_fract_z
 _atom_site_occupancy
  Tb  Tb0  1  0.834804  0.746497  0.790895  1
  Tb  Tb1  1  0.165196  0.253503  0.209105  1
  Tb  Tb2  1  0.340745  0.253632  0.711609  1
  Tb  Tb3  1  0.659255  0.746368  0.288391  1
  Tb  Tb4  1  0.375325  0.746244  0.700944  1
  Tb  Tb5  1  0.624675  0.253756  0.299056  1
  Tb  Tb6  1  0.866789  0.253602  0.800926  1
  Tb  Tb7  1  0.133211  0.746398  0.199074  1
  Tb  Tb8  1  0.951460  0.750364  0.499686  1
  Tb  Tb9  1  0.048540  0.249636  0.500314  1
  Tb  Tb10  1  0.454283  0.257212  0.999597  1
  Tb  Tb11  1  0.545717  0.742788  0.000403  1
  Tb  Tb12  1  0.680641  0.045515  0.566229  1
  Tb  Tb13  1  0.319359  0.954485  0.433771  1
  Tb  Tb14  1  0.180333  0.955258  0.933676  1
  Tb  Tb15  1  0.322037  0.544836  0.429625  1
  Tb  Tb16  1  0.819667  0.044742  0.066324  1
  Tb  Tb17  1  0.677963  0.455164  0.570375  1
  Tb  Tb18  1  0.814589  0.456644  0.064531  1
  Tb  Tb19  1  0.185411  0.543356  0.935469  1
  Sn  Sn20  1  0.569346  0.491748  0.827213  1
  Sn  Sn21  1  0.430654  0.508252  0.172787  1
  Bi  Bi22  1  0.069688  0.509805  0.672618  1
  Bi  Bi23  1  0.430412  0.991204  0.171863  1
  Bi  Bi24  1  0.930312  0.490195  0.327382  1
  Bi  Bi25  1  0.569588  0.008796  0.828137  1
  Bi  Bi26  1  0.929845  0.009234  0.326349  1
  Bi  Bi27  1  0.070155  0.990766  0.673651  1
  Pt  Pt28  1  0.574628  0.750490  0.511642  1
  Pt  Pt29  1  0.425372  0.249510  0.488358  1
  Pt  Pt30  1  0.072778  0.250055  0.987668  1
  Pt  Pt31  1  0.927222  0.749945  0.012332  1
