# generated using pymatgen
data_AlV11Si3Tc
_symmetry_space_group_name_H-M   'P 1'
_cell_length_a   4.73204800
_cell_length_b   4.75318600
_cell_length_c   9.41235200
_cell_angle_alpha   90.00000000
_cell_angle_beta   90.00000000
_cell_angle_gamma   90.00000000
_symmetry_Int_Tables_number   1
_chemical_formula_structural   AlV11Si3Tc
_chemical_formula_sum   'Al1 V11 Si3 Tc1'
_cell_volume   211.70548541
_cell_formula_units_Z   1
loop_
 _symmetry_equiv_pos_site_id
 _symmetry_equiv_pos_as_xyz
  1  'x, y, z'
loop_
 _atom_site_type_symbol
 _atom_site_label
 _atom_site_symmetry_multiplicity
 _atom_site_fract_x
 _atom_site_fract_y
 _atom_site_fract_z
 _atom_site_occupancy
  Al  Al0  1  0.497312  0.500000  0.000000  1
  V  V1  1  0.999014  0.500000  0.127825  1
  V  V2  1  0.998988  0.500000  0.629612  1
  V  V3  1  0.500899  0.249134  0.745357  1
  V  V4  1  0.500899  0.249134  0.254643  1
  V  V5  1  0.745945  0.000000  0.500000  1
  V  V6  1  0.999014  0.500000  0.872175  1
  V  V7  1  0.998988  0.500000  0.370388  1
  V  V8  1  0.500899  0.750866  0.745357  1
  V  V9  1  0.500899  0.750866  0.254643  1
  V  V10  1  0.246645  0.000000  0.000000  1
  V  V11  1  0.256032  0.000000  0.500000  1
  Si  Si12  1  0.497338  0.500000  0.500000  1
  Si  Si13  1  0.003187  0.000000  0.747978  1
  Si  Si14  1  0.003187  0.000000  0.252022  1
  Tc  Tc15  1  0.750756  0.000000  0.000000  1
