# generated using pymatgen
data_Ba6TmLu(NiO6)2
_symmetry_space_group_name_H-M   'P 1'
_cell_length_a   7.11709493
_cell_length_b   7.11709489
_cell_length_c   7.11709505
_cell_angle_alpha   93.89083451
_cell_angle_beta   93.89083656
_cell_angle_gamma   93.89083014
_symmetry_Int_Tables_number   1
_chemical_formula_structural   Ba6TmLu(NiO6)2
_chemical_formula_sum   'Ba6 Tm1 Lu1 Ni2 O12'
_cell_volume   357.89056182
_cell_formula_units_Z   1
loop_
 _symmetry_equiv_pos_site_id
 _symmetry_equiv_pos_as_xyz
  1  'x, y, z'
loop_
 _atom_site_type_symbol
 _atom_site_label
 _atom_site_symmetry_multiplicity
 _atom_site_fract_x
 _atom_site_fract_y
 _atom_site_fract_z
 _atom_site_occupancy
  Ba  Ba0  1  0.380227  0.119772  0.750000  1
  Ba  Ba1  1  0.750000  0.380228  0.119773  1
  Ba  Ba2  1  0.249999  0.619609  0.880392  1
  Ba  Ba3  1  0.619608  0.880391  0.250001  1
  Ba  Ba4  1  0.119773  0.750000  0.380228  1
  Ba  Ba5  1  0.880391  0.250000  0.619609  1
  Tm  Tm6  1  0.750000  0.750001  0.750000  1
  Lu  Lu7  1  0.250001  0.250000  0.250000  1
  Ni  Ni8  1  0.499525  0.499525  0.499525  1
  Ni  Ni9  1  0.000475  0.000475  0.000475  1
  O  O10  1  0.782608  0.594620  0.469035  1
  O  O11  1  0.594621  0.469034  0.782608  1
  O  O12  1  0.469034  0.782608  0.594621  1
  O  O13  1  0.030965  0.905380  0.717393  1
  O  O14  1  0.905379  0.717392  0.030965  1
  O  O15  1  0.717393  0.030965  0.905379  1
  O  O16  1  0.217252  0.404186  0.529097  1
  O  O17  1  0.404186  0.529096  0.217252  1
  O  O18  1  0.529096  0.217252  0.404185  1
  O  O19  1  0.970904  0.095814  0.282749  1
  O  O20  1  0.282749  0.970903  0.095813  1
  O  O21  1  0.095813  0.282748  0.970903  1
