# generated using pymatgen
data_La2Nd6CdHgPd2
_symmetry_space_group_name_H-M   'P 1'
_cell_length_a   10.06115603
_cell_length_b   10.06115665
_cell_length_c   10.08682300
_cell_angle_alpha   59.91557985
_cell_angle_beta   59.91557779
_cell_angle_gamma   59.86230516
_symmetry_Int_Tables_number   1
_chemical_formula_structural   La2Nd6CdHgPd2
_chemical_formula_sum   'La4 Nd12 Cd2 Hg2 Pd4'
_cell_volume   720.32256945
_cell_formula_units_Z   2
loop_
 _symmetry_equiv_pos_site_id
 _symmetry_equiv_pos_as_xyz
  1  'x, y, z'
loop_
 _atom_site_type_symbol
 _atom_site_label
 _atom_site_symmetry_multiplicity
 _atom_site_fract_x
 _atom_site_fract_y
 _atom_site_fract_z
 _atom_site_occupancy
  La  La0  1  0.351941  0.351941  0.351452  1
  La  La1  1  0.351941  0.351941  0.944666  1
  La  La2  1  0.354643  0.937953  0.353702  1
  La  La3  1  0.937953  0.354643  0.353702  1
  Nd  Nd4  1  0.809848  0.190355  0.191641  1
  Nd  Nd5  1  0.190355  0.809848  0.808157  1
  Nd  Nd6  1  0.190355  0.809848  0.191641  1
  Nd  Nd7  1  0.809848  0.190355  0.808157  1
  Nd  Nd8  1  0.189933  0.189933  0.810067  1
  Nd  Nd9  1  0.807821  0.807821  0.192179  1
  Nd  Nd10  1  0.936207  0.564176  0.566773  1
  Nd  Nd11  1  0.564176  0.936207  0.932844  1
  Nd  Nd12  1  0.564176  0.936207  0.566773  1
  Nd  Nd13  1  0.936207  0.564176  0.932844  1
  Nd  Nd14  1  0.564721  0.564721  0.935279  1
  Nd  Nd15  1  0.933818  0.933818  0.566182  1
  Cd  Cd16  1  0.579383  0.257611  0.581504  1
  Cd  Cd17  1  0.257611  0.579383  0.581504  1
  Hg  Hg18  1  0.583914  0.583914  0.587055  1
  Hg  Hg19  1  0.583914  0.583914  0.245118  1
  Pd  Pd20  1  0.143739  0.143739  0.144023  1
  Pd  Pd21  1  0.143739  0.143739  0.568496  1
  Pd  Pd22  1  0.143275  0.570480  0.143122  1
  Pd  Pd23  1  0.570480  0.143275  0.143122  1
