# generated using pymatgen
data_NdTm(Tc2P)4
_symmetry_space_group_name_H-M   'P 1'
_cell_length_a   3.95120600
_cell_length_b   7.44392640
_cell_length_c   7.44392640
_cell_angle_alpha   89.31139291
_cell_angle_beta   90.00000000
_cell_angle_gamma   90.00000000
_symmetry_Int_Tables_number   1
_chemical_formula_structural   NdTm(Tc2P)4
_chemical_formula_sum   'Nd1 Tm1 Tc8 P4'
_cell_volume   218.92857372
_cell_formula_units_Z   1
loop_
 _symmetry_equiv_pos_site_id
 _symmetry_equiv_pos_as_xyz
  1  'x, y, z'
loop_
 _atom_site_type_symbol
 _atom_site_label
 _atom_site_symmetry_multiplicity
 _atom_site_fract_x
 _atom_site_fract_y
 _atom_site_fract_z
 _atom_site_occupancy
  Nd  Nd0  1  0.000000  0.500000  0.500000  1
  Tm  Tm1  1  0.500000  0.000000  0.000000  1
  Tc  Tc2  1  0.500000  0.157281  0.584204  1
  Tc  Tc3  1  0.500000  0.842719  0.415796  1
  Tc  Tc4  1  0.000000  0.337375  0.080602  1
  Tc  Tc5  1  0.000000  0.662625  0.919398  1
  Tc  Tc6  1  0.500000  0.584204  0.157281  1
  Tc  Tc7  1  0.500000  0.415796  0.842719  1
  Tc  Tc8  1  0.000000  0.080602  0.337375  1
  Tc  Tc9  1  0.000000  0.919398  0.662625  1
  P  P10  1  0.500000  0.715667  0.715667  1
  P  P11  1  0.500000  0.284333  0.284333  1
  P  P12  1  0.000000  0.791065  0.208935  1
  P  P13  1  0.000000  0.208935  0.791065  1
