# generated using pymatgen
data_NdTi2O5
_symmetry_space_group_name_H-M   'P 1'
_cell_length_a   7.76750801
_cell_length_b   8.80682001
_cell_length_c   5.85655300
_cell_angle_alpha   90.00000000
_cell_angle_beta   90.00000000
_cell_angle_gamma   90.00435809
_symmetry_Int_Tables_number   1
_chemical_formula_structural   NdTi2O5
_chemical_formula_sum   'Nd4 Ti8 O20'
_cell_volume   400.62948289
_cell_formula_units_Z   4
loop_
 _symmetry_equiv_pos_site_id
 _symmetry_equiv_pos_as_xyz
  1  'x, y, z'
loop_
 _atom_site_type_symbol
 _atom_site_label
 _atom_site_symmetry_multiplicity
 _atom_site_fract_x
 _atom_site_fract_y
 _atom_site_fract_z
 _atom_site_occupancy
  Nd  Nd0  1  0.142532  0.171450  0.000035  1
  Nd  Nd1  1  0.857468  0.828550  0.000035  1
  Nd  Nd2  1  0.642661  0.328657  0.000034  1
  Nd  Nd3  1  0.357339  0.671342  0.000034  1
  Ti  Ti4  1  0.000000  0.499999  0.253542  1
  Ti  Ti5  1  0.500000  0.000000  0.746721  1
  Ti  Ti6  1  0.000000  0.499999  0.746470  1
  Ti  Ti7  1  0.500000  0.000000  0.253409  1
  Ti  Ti8  1  0.384960  0.357720  0.499990  1
  Ti  Ti9  1  0.615040  0.642281  0.499990  1
  Ti  Ti10  1  0.885027  0.142318  0.499994  1
  Ti  Ti11  1  0.114973  0.857683  0.499994  1
  O  O12  1  0.397886  0.210385  0.254488  1
  O  O13  1  0.602114  0.789616  0.254488  1
  O  O14  1  0.897895  0.289658  0.745533  1
  O  O15  1  0.102105  0.710341  0.745533  1
  O  O16  1  0.602127  0.789608  0.745543  1
  O  O17  1  0.397873  0.210393  0.745543  1
  O  O18  1  0.102116  0.710324  0.254477  1
  O  O19  1  0.897884  0.289675  0.254477  1
  O  O20  1  0.164594  0.422989  0.499954  1
  O  O21  1  0.835406  0.577010  0.499954  1
  O  O22  1  0.664625  0.077059  0.499967  1
  O  O23  1  0.335375  0.922942  0.499967  1
  O  O24  1  0.162526  0.445912  0.999943  1
  O  O25  1  0.837474  0.554088  0.999943  1
  O  O26  1  0.662509  0.054058  0.999961  1
  O  O27  1  0.337491  0.945941  0.999961  1
  O  O28  1  0.000000  0.000000  0.279556  1
  O  O29  1  0.500000  0.499999  0.720376  1
  O  O30  1  0.000000  0.000000  0.720454  1
  O  O31  1  0.500000  0.499999  0.279633  1
