# generated using pymatgen
data_SrPr7PPd24
_symmetry_space_group_name_H-M   'P 1'
_cell_length_a   8.51033538
_cell_length_b   8.51033476
_cell_length_c   8.51033500
_cell_angle_alpha   89.98291293
_cell_angle_beta   89.98291293
_cell_angle_gamma   89.98291457
_symmetry_Int_Tables_number   1
_chemical_formula_structural   SrPr7PPd24
_chemical_formula_sum   'Sr1 Pr7 P1 Pd24'
_cell_volume   616.36776364
_cell_formula_units_Z   1
loop_
 _symmetry_equiv_pos_site_id
 _symmetry_equiv_pos_as_xyz
  1  'x, y, z'
loop_
 _atom_site_type_symbol
 _atom_site_label
 _atom_site_symmetry_multiplicity
 _atom_site_fract_x
 _atom_site_fract_y
 _atom_site_fract_z
 _atom_site_occupancy
  Sr  Sr0  1  0.252703  0.252703  0.252703  1
  Pr  Pr1  1  0.745466  0.745466  0.745466  1
  Pr  Pr2  1  0.745176  0.745176  0.254481  1
  Pr  Pr3  1  0.745176  0.254481  0.745176  1
  Pr  Pr4  1  0.254818  0.254818  0.744542  1
  Pr  Pr5  1  0.254818  0.744542  0.254818  1
  Pr  Pr6  1  0.254481  0.745176  0.745176  1
  Pr  Pr7  1  0.744542  0.254818  0.254818  1
  P  P8  1  0.001690  0.001690  0.001690  1
  Pd  Pd9  1  0.255192  0.502167  0.997198  1
  Pd  Pd10  1  0.745012  0.500530  0.999533  1
  Pd  Pd11  1  0.997198  0.255192  0.502167  1
  Pd  Pd12  1  0.502167  0.255192  0.997198  1
  Pd  Pd13  1  0.999533  0.745012  0.500530  1
  Pd  Pd14  1  0.500530  0.745012  0.999533  1
  Pd  Pd15  1  0.502167  0.997198  0.255192  1
  Pd  Pd16  1  0.255192  0.997198  0.502167  1
  Pd  Pd17  1  0.500530  0.999533  0.745012  1
  Pd  Pd18  1  0.745012  0.999533  0.500530  1
  Pd  Pd19  1  0.997198  0.502167  0.255192  1
  Pd  Pd20  1  0.999533  0.500530  0.745012  1
  Pd  Pd21  1  0.251212  0.501566  0.501566  1
  Pd  Pd22  1  0.748333  0.500484  0.500484  1
  Pd  Pd23  1  0.501566  0.251212  0.501566  1
  Pd  Pd24  1  0.500484  0.748333  0.500484  1
  Pd  Pd25  1  0.501566  0.501566  0.251212  1
  Pd  Pd26  1  0.500484  0.500484  0.748333  1
  Pd  Pd27  1  0.275544  0.998154  0.998154  1
  Pd  Pd28  1  0.726730  0.999820  0.999820  1
  Pd  Pd29  1  0.998154  0.275544  0.998154  1
  Pd  Pd30  1  0.999820  0.726730  0.999820  1
  Pd  Pd31  1  0.998154  0.998154  0.275544  1
  Pd  Pd32  1  0.999820  0.999820  0.726730  1
