# generated using pymatgen
data_Dy9Zr(IrRh2)2
_symmetry_space_group_name_H-M   'P 1'
_cell_length_a   10.89135100
_cell_length_b   10.89135100
_cell_length_c   6.29630200
_cell_angle_alpha   90.00000000
_cell_angle_beta   90.00000000
_cell_angle_gamma   90.00000000
_symmetry_Int_Tables_number   1
_chemical_formula_structural   Dy9Zr(IrRh2)2
_chemical_formula_sum   'Dy18 Zr2 Ir4 Rh8'
_cell_volume   746.87695521
_cell_formula_units_Z   2
loop_
 _symmetry_equiv_pos_site_id
 _symmetry_equiv_pos_as_xyz
  1  'x, y, z'
loop_
 _atom_site_type_symbol
 _atom_site_label
 _atom_site_symmetry_multiplicity
 _atom_site_fract_x
 _atom_site_fract_y
 _atom_site_fract_z
 _atom_site_occupancy
  Dy  Dy0  1  0.287025  0.086837  0.376914  1
  Dy  Dy1  1  0.287025  0.913163  0.876914  1
  Dy  Dy2  1  0.712975  0.086837  0.876914  1
  Dy  Dy3  1  0.712975  0.913163  0.376914  1
  Dy  Dy4  1  0.589959  0.792403  0.875945  1
  Dy  Dy5  1  0.589959  0.207597  0.375945  1
  Dy  Dy6  1  0.410041  0.792403  0.375945  1
  Dy  Dy7  1  0.410041  0.207597  0.875945  1
  Dy  Dy8  1  0.207597  0.410041  0.624055  1
  Dy  Dy9  1  0.207597  0.589959  0.124055  1
  Dy  Dy10  1  0.792403  0.410041  0.124055  1
  Dy  Dy11  1  0.792403  0.589959  0.624055  1
  Dy  Dy12  1  0.913163  0.712975  0.123086  1
  Dy  Dy13  1  0.913163  0.287025  0.623086  1
  Dy  Dy14  1  0.086837  0.712975  0.623086  1
  Dy  Dy15  1  0.086837  0.287025  0.123086  1
  Dy  Dy16  1  0.500000  0.500000  0.000000  1
  Dy  Dy17  1  0.500000  0.500000  0.500000  1
  Zr  Zr18  1  0.000000  0.000000  0.500000  1
  Zr  Zr19  1  0.000000  0.000000  0.000000  1
  Ir  Ir20  1  0.854702  0.145298  0.250000  1
  Ir  Ir21  1  0.854702  0.854702  0.750000  1
  Ir  Ir22  1  0.145298  0.145298  0.750000  1
  Ir  Ir23  1  0.145298  0.854702  0.250000  1
  Rh  Rh24  1  0.654690  0.345310  0.750000  1
  Rh  Rh25  1  0.654690  0.654690  0.250000  1
  Rh  Rh26  1  0.345310  0.345310  0.250000  1
  Rh  Rh27  1  0.345310  0.654690  0.750000  1
  Rh  Rh28  1  0.500000  0.000000  0.124509  1
  Rh  Rh29  1  0.500000  0.000000  0.624509  1
  Rh  Rh30  1  0.000000  0.500000  0.875491  1
  Rh  Rh31  1  0.000000  0.500000  0.375491  1
