# generated using pymatgen
data_Be6Fe11Si6Ir
_symmetry_space_group_name_H-M   'P 1'
_cell_length_a   3.83912100
_cell_length_b   5.42957300
_cell_length_c   11.52892900
_cell_angle_alpha   89.99910953
_cell_angle_beta   90.00095963
_cell_angle_gamma   89.99731665
_symmetry_Int_Tables_number   1
_chemical_formula_structural   Be6Fe11Si6Ir
_chemical_formula_sum   'Be6 Fe11 Si6 Ir1'
_cell_volume   240.31807754
_cell_formula_units_Z   1
loop_
 _symmetry_equiv_pos_site_id
 _symmetry_equiv_pos_as_xyz
  1  'x, y, z'
loop_
 _atom_site_type_symbol
 _atom_site_label
 _atom_site_symmetry_multiplicity
 _atom_site_fract_x
 _atom_site_fract_y
 _atom_site_fract_z
 _atom_site_occupancy
  Be  Be0  1  0.999981  0.984489  0.999898  1
  Be  Be1  1  0.499803  0.509690  0.171252  1
  Be  Be2  1  0.999697  0.999610  0.334909  1
  Be  Be3  1  0.500027  0.495139  0.499954  1
  Be  Be4  1  0.000267  0.999823  0.665206  1
  Be  Be5  1  0.500252  0.509593  0.828782  1
  Fe  Fe6  1  0.499994  0.753976  0.999977  1
  Fe  Fe7  1  0.999839  0.249889  0.170218  1
  Fe  Fe8  1  0.999808  0.750158  0.170337  1
  Fe  Fe9  1  0.499751  0.249635  0.333827  1
  Fe  Fe10  1  0.499730  0.747833  0.337543  1
  Fe  Fe11  1  0.000034  0.249491  0.500039  1
  Fe  Fe12  1  0.000010  0.749671  0.500083  1
  Fe  Fe13  1  0.500226  0.249622  0.666137  1
  Fe  Fe14  1  0.500211  0.747817  0.662425  1
  Fe  Fe15  1  0.000187  0.249838  0.829806  1
  Fe  Fe16  1  0.000214  0.750209  0.829581  1
  Si  Si17  1  0.999983  0.521822  0.999875  1
  Si  Si18  1  0.499812  0.989684  0.172604  1
  Si  Si19  1  0.999717  0.498839  0.334731  1
  Si  Si20  1  0.500022  0.003180  0.499966  1
  Si  Si21  1  0.000222  0.498602  0.665405  1
  Si  Si22  1  0.500227  0.989825  0.827422  1
  Ir  Ir23  1  0.499981  0.251574  0.000021  1
