# generated using pymatgen
data_YbYEr2(B6Os)2
_symmetry_space_group_name_H-M   'P 1'
_cell_length_a   3.63541400
_cell_length_b   9.13176285
_cell_length_c   11.52747600
_cell_angle_alpha   89.83438869
_cell_angle_beta   90.00000000
_cell_angle_gamma   90.00000000
_symmetry_Int_Tables_number   1
_chemical_formula_structural   YbYEr2(B6Os)2
_chemical_formula_sum   'Yb2 Y2 Er4 B24 Os4'
_cell_volume   382.68453531
_cell_formula_units_Z   2
loop_
 _symmetry_equiv_pos_site_id
 _symmetry_equiv_pos_as_xyz
  1  'x, y, z'
loop_
 _atom_site_type_symbol
 _atom_site_label
 _atom_site_symmetry_multiplicity
 _atom_site_fract_x
 _atom_site_fract_y
 _atom_site_fract_z
 _atom_site_occupancy
  Yb  Yb0  1  0.000000  0.324360  0.414568  1
  Yb  Yb1  1  0.000000  0.675640  0.585432  1
  Y  Y2  1  0.000000  0.821808  0.086387  1
  Y  Y3  1  0.000000  0.178192  0.913613  1
  Er  Er4  1  0.000000  0.942244  0.370527  1
  Er  Er5  1  0.000000  0.057756  0.629473  1
  Er  Er6  1  0.000000  0.442896  0.130278  1
  Er  Er7  1  0.000000  0.557104  0.869722  1
  B  B8  1  0.500000  0.554049  0.432530  1
  B  B9  1  0.500000  0.445951  0.567470  1
  B  B10  1  0.500000  0.053747  0.066883  1
  B  B11  1  0.500000  0.946253  0.933117  1
  B  B12  1  0.500000  0.748275  0.418090  1
  B  B13  1  0.500000  0.251725  0.581910  1
  B  B14  1  0.500000  0.248637  0.081441  1
  B  B15  1  0.500000  0.751363  0.918559  1
  B  B16  1  0.500000  0.791223  0.265169  1
  B  B17  1  0.500000  0.208777  0.734831  1
  B  B18  1  0.500000  0.290292  0.234371  1
  B  B19  1  0.500000  0.709708  0.765629  1
  B  B20  1  0.500000  0.631041  0.185398  1
  B  B21  1  0.500000  0.368959  0.814602  1
  B  B22  1  0.500000  0.130722  0.314022  1
  B  B23  1  0.500000  0.869278  0.685978  1
  B  B24  1  0.500000  0.983097  0.212039  1
  B  B25  1  0.500000  0.016903  0.787961  1
  B  B26  1  0.500000  0.483502  0.287990  1
  B  B27  1  0.500000  0.516498  0.712010  1
  B  B28  1  0.500000  0.602910  0.028346  1
  B  B29  1  0.500000  0.397090  0.971654  1
  B  B30  1  0.500000  0.099489  0.472426  1
  B  B31  1  0.500000  0.900511  0.527574  1
  Os  Os32  1  0.000000  0.639755  0.319153  1
  Os  Os33  1  0.000000  0.360245  0.680847  1
  Os  Os34  1  0.000000  0.137056  0.178218  1
  Os  Os35  1  0.000000  0.862944  0.821782  1
