# generated using pymatgen
data_ZrPa3(AlRh5)2
_symmetry_space_group_name_H-M   'P 1'
_cell_length_a   5.72221474
_cell_length_b   5.72155239
_cell_length_c   8.26730217
_cell_angle_alpha   89.98799411
_cell_angle_beta   90.02090427
_cell_angle_gamma   97.96336614
_symmetry_Int_Tables_number   1
_chemical_formula_structural   ZrPa3(AlRh5)2
_chemical_formula_sum   'Zr1 Pa3 Al2 Rh10'
_cell_volume   268.06092819
_cell_formula_units_Z   1
loop_
 _symmetry_equiv_pos_site_id
 _symmetry_equiv_pos_as_xyz
  1  'x, y, z'
loop_
 _atom_site_type_symbol
 _atom_site_label
 _atom_site_symmetry_multiplicity
 _atom_site_fract_x
 _atom_site_fract_y
 _atom_site_fract_z
 _atom_site_occupancy
  Zr  Zr0  1  0.780429  0.219580  0.000016  1
  Pa  Pa1  1  0.783332  0.216696  0.499985  1
  Pa  Pa2  1  0.215433  0.784560  0.999967  1
  Pa  Pa3  1  0.218564  0.781431  0.500010  1
  Al  Al4  1  0.505428  0.494849  0.755230  1
  Al  Al5  1  0.505141  0.494560  0.244763  1
  Rh  Rh6  1  0.710730  0.715214  0.000071  1
  Rh  Rh7  1  0.711465  0.711829  0.499955  1
  Rh  Rh8  1  0.284746  0.289267  0.999931  1
  Rh  Rh9  1  0.288161  0.288527  0.500063  1
  Rh  Rh10  1  0.499699  0.001040  0.748999  1
  Rh  Rh11  1  0.499648  0.001009  0.251007  1
  Rh  Rh12  1  0.999639  0.000349  0.249822  1
  Rh  Rh13  1  0.999625  0.000411  0.750192  1
  Rh  Rh14  1  0.998997  0.500385  0.748974  1
  Rh  Rh15  1  0.998965  0.500291  0.251016  1
