# generated using pymatgen
data_SrCdIr4(PbO7)2
_symmetry_space_group_name_H-M   'P 1'
_cell_length_a   7.38354601
_cell_length_b   7.32477847
_cell_length_c   7.38354383
_cell_angle_alpha   59.54603295
_cell_angle_beta   59.90949073
_cell_angle_gamma   59.54603806
_symmetry_Int_Tables_number   1
_chemical_formula_structural   SrCdIr4(PbO7)2
_chemical_formula_sum   'Sr1 Cd1 Ir4 Pb2 O14'
_cell_volume   280.22134812
_cell_formula_units_Z   1
loop_
 _symmetry_equiv_pos_site_id
 _symmetry_equiv_pos_as_xyz
  1  'x, y, z'
loop_
 _atom_site_type_symbol
 _atom_site_label
 _atom_site_symmetry_multiplicity
 _atom_site_fract_x
 _atom_site_fract_y
 _atom_site_fract_z
 _atom_site_occupancy
  Sr  Sr0  1  0.125000  0.125000  0.125000  1
  Cd  Cd1  1  0.125000  0.625000  0.125000  1
  Ir  Ir2  1  0.125000  0.625000  0.625000  1
  Ir  Ir3  1  0.625000  0.125000  0.625000  1
  Ir  Ir4  1  0.625000  0.625000  0.125000  1
  Ir  Ir5  1  0.625000  0.625000  0.625000  1
  Pb  Pb6  1  0.625000  0.125000  0.125000  1
  Pb  Pb7  1  0.125000  0.125000  0.625000  1
  O  O8  1  0.688288  0.708103  0.303341  1
  O  O9  1  0.300331  0.297191  0.691249  1
  O  O10  1  0.704451  0.294739  0.704451  1
  O  O11  1  0.302761  0.692146  0.302761  1
  O  O12  1  0.303341  0.708103  0.688288  1
  O  O13  1  0.691249  0.297191  0.300331  1
  O  O14  1  0.561712  0.541897  0.946659  1
  O  O15  1  0.949669  0.952809  0.558751  1
  O  O16  1  0.545549  0.955261  0.545549  1
  O  O17  1  0.947239  0.557854  0.947239  1
  O  O18  1  0.946659  0.541897  0.561712  1
  O  O19  1  0.558751  0.952809  0.949669  1
  O  O20  1  0.250968  0.270000  0.250968  1
  O  O21  1  0.999032  0.980000  0.999032  1
