# generated using pymatgen
data_LiNb6FeS12
_symmetry_space_group_name_H-M   'P 1'
_cell_length_a   5.79940800
_cell_length_b   5.79940916
_cell_length_c   12.33363600
_cell_angle_alpha   90.00000000
_cell_angle_beta   90.00000000
_cell_angle_gamma   119.99999336
_symmetry_Int_Tables_number   1
_chemical_formula_structural   LiNb6FeS12
_chemical_formula_sum   'Li1 Nb6 Fe1 S12'
_cell_volume   359.24373387
_cell_formula_units_Z   1
loop_
 _symmetry_equiv_pos_site_id
 _symmetry_equiv_pos_as_xyz
  1  'x, y, z'
loop_
 _atom_site_type_symbol
 _atom_site_label
 _atom_site_symmetry_multiplicity
 _atom_site_fract_x
 _atom_site_fract_y
 _atom_site_fract_z
 _atom_site_occupancy
  Li  Li0  1  0.333333  0.666667  0.250000  1
  Nb  Nb1  1  0.000000  0.000000  0.518326  1
  Nb  Nb2  1  0.000000  0.000000  0.981674  1
  Nb  Nb3  1  0.333333  0.666667  0.980974  1
  Nb  Nb4  1  0.666667  0.333333  0.986613  1
  Nb  Nb5  1  0.666667  0.333333  0.513387  1
  Nb  Nb6  1  0.333333  0.666667  0.519026  1
  Fe  Fe7  1  0.666667  0.333333  0.750000  1
  S  S8  1  0.329930  0.332182  0.388423  1
  S  S9  1  0.667818  0.997747  0.388423  1
  S  S10  1  0.002253  0.670070  0.388423  1
  S  S11  1  0.338359  0.333006  0.643391  1
  S  S12  1  0.994647  0.661641  0.643391  1
  S  S13  1  0.666994  0.005353  0.643391  1
  S  S14  1  0.666994  0.661641  0.856609  1
  S  S15  1  0.338359  0.005353  0.856609  1
  S  S16  1  0.994647  0.333006  0.856609  1
  S  S17  1  0.667818  0.670070  0.111577  1
  S  S18  1  0.002253  0.332182  0.111577  1
  S  S19  1  0.329930  0.997747  0.111577  1
