# generated using pymatgen
data_YbCd2TeO6
_symmetry_space_group_name_H-M   'P 1'
_cell_length_a   5.60092981
_cell_length_b   5.74544800
_cell_length_c   9.89411891
_cell_angle_alpha   90.00000551
_cell_angle_beta   124.90284557
_cell_angle_gamma   89.99985494
_symmetry_Int_Tables_number   1
_chemical_formula_structural   YbCd2TeO6
_chemical_formula_sum   'Yb2 Cd4 Te2 O12'
_cell_volume   261.12015157
_cell_formula_units_Z   2
loop_
 _symmetry_equiv_pos_site_id
 _symmetry_equiv_pos_as_xyz
  1  'x, y, z'
loop_
 _atom_site_type_symbol
 _atom_site_label
 _atom_site_symmetry_multiplicity
 _atom_site_fract_x
 _atom_site_fract_y
 _atom_site_fract_z
 _atom_site_occupancy
  Yb  Yb0  1  0.499996  0.999998  0.999997  1
  Yb  Yb1  1  0.500004  0.500000  0.500003  1
  Cd  Cd2  1  0.736026  0.452322  0.247458  1
  Cd  Cd3  1  0.263973  0.952319  0.252541  1
  Cd  Cd4  1  0.736033  0.047681  0.747459  1
  Cd  Cd5  1  0.263967  0.547684  0.752541  1
  Te  Te6  1  0.999999  0.500013  0.999978  1
  Te  Te7  1  0.000014  0.999985  0.500020  1
  O  O8  1  0.340903  0.677517  0.056502  1
  O  O9  1  0.237188  0.216378  0.070844  1
  O  O10  1  0.108320  0.561195  0.225590  1
  O  O11  1  0.891680  0.061198  0.274411  1
  O  O12  1  0.762815  0.716383  0.429157  1
  O  O13  1  0.659090  0.177523  0.443497  1
  O  O14  1  0.340899  0.822481  0.556496  1
  O  O15  1  0.237185  0.283620  0.570838  1
  O  O16  1  0.108317  0.938806  0.725578  1
  O  O17  1  0.891683  0.438804  0.774423  1
  O  O18  1  0.762819  0.783615  0.929163  1
  O  O19  1  0.659090  0.322474  0.943502  1
