# generated using pymatgen
data_Yb8Cu3Si12Ag
_symmetry_space_group_name_H-M   'P 1'
_cell_length_a   8.15890400
_cell_length_b   8.15890475
_cell_length_c   8.56758700
_cell_angle_alpha   90.00000000
_cell_angle_beta   90.00000000
_cell_angle_gamma   119.99999695
_symmetry_Int_Tables_number   1
_chemical_formula_structural   Yb8Cu3Si12Ag
_chemical_formula_sum   'Yb8 Cu3 Si12 Ag1'
_cell_volume   493.91572654
_cell_formula_units_Z   1
loop_
 _symmetry_equiv_pos_site_id
 _symmetry_equiv_pos_as_xyz
  1  'x, y, z'
loop_
 _atom_site_type_symbol
 _atom_site_label
 _atom_site_symmetry_multiplicity
 _atom_site_fract_x
 _atom_site_fract_y
 _atom_site_fract_z
 _atom_site_occupancy
  Yb  Yb0  1  0.498389  0.501611  0.751807  1
  Yb  Yb1  1  0.498445  0.501555  0.248197  1
  Yb  Yb2  1  0.003224  0.501611  0.751807  1
  Yb  Yb3  1  0.003111  0.501555  0.248197  1
  Yb  Yb4  1  0.498389  0.996776  0.751807  1
  Yb  Yb5  1  0.498445  0.996889  0.248197  1
  Yb  Yb6  1  0.000000  0.000000  0.751560  1
  Yb  Yb7  1  0.000000  0.000000  0.248459  1
  Cu  Cu8  1  0.666667  0.333333  0.999868  1
  Cu  Cu9  1  0.333333  0.666667  0.000088  1
  Cu  Cu10  1  0.333333  0.666667  0.499949  1
  Si  Si11  1  0.831630  0.168370  0.000032  1
  Si  Si12  1  0.167749  0.832251  0.999965  1
  Si  Si13  1  0.336738  0.168370  0.000032  1
  Si  Si14  1  0.168240  0.831760  0.499929  1
  Si  Si15  1  0.664501  0.832251  0.999965  1
  Si  Si16  1  0.838616  0.161384  0.500081  1
  Si  Si17  1  0.831630  0.663262  0.000032  1
  Si  Si18  1  0.663517  0.831760  0.499929  1
  Si  Si19  1  0.167749  0.335499  0.999965  1
  Si  Si20  1  0.322768  0.161384  0.500081  1
  Si  Si21  1  0.168240  0.336483  0.499929  1
  Si  Si22  1  0.838616  0.677232  0.500081  1
  Ag  Ag23  1  0.666667  0.333333  0.500041  1
