# generated using pymatgen
data_TmLu4Bi2Pt
_symmetry_space_group_name_H-M   'P 1'
_cell_length_a   7.91651900
_cell_length_b   8.94991500
_cell_length_c   12.24837300
_cell_angle_alpha   90.00000000
_cell_angle_beta   90.00000000
_cell_angle_gamma   90.00000000
_symmetry_Int_Tables_number   1
_chemical_formula_structural   TmLu4Bi2Pt
_chemical_formula_sum   'Tm4 Lu16 Bi8 Pt4'
_cell_volume   867.82383230
_cell_formula_units_Z   4
loop_
 _symmetry_equiv_pos_site_id
 _symmetry_equiv_pos_as_xyz
  1  'x, y, z'
loop_
 _atom_site_type_symbol
 _atom_site_label
 _atom_site_symmetry_multiplicity
 _atom_site_fract_x
 _atom_site_fract_y
 _atom_site_fract_z
 _atom_site_occupancy
  Tm  Tm0  1  0.553634  0.750000  0.001273  1
  Tm  Tm1  1  0.446366  0.250000  0.998727  1
  Tm  Tm2  1  0.053634  0.250000  0.498727  1
  Tm  Tm3  1  0.946366  0.750000  0.501273  1
  Lu  Lu4  1  0.664701  0.750000  0.711395  1
  Lu  Lu5  1  0.335299  0.250000  0.288605  1
  Lu  Lu6  1  0.164701  0.250000  0.788605  1
  Lu  Lu7  1  0.835299  0.750000  0.211395  1
  Lu  Lu8  1  0.125800  0.750000  0.804979  1
  Lu  Lu9  1  0.874200  0.250000  0.195021  1
  Lu  Lu10  1  0.625800  0.250000  0.695021  1
  Lu  Lu11  1  0.374200  0.750000  0.304979  1
  Lu  Lu12  1  0.825818  0.453047  0.932208  1
  Lu  Lu13  1  0.174182  0.546953  0.067792  1
  Lu  Lu14  1  0.325818  0.546953  0.567792  1
  Lu  Lu15  1  0.174182  0.953047  0.067792  1
  Lu  Lu16  1  0.674182  0.453047  0.432208  1
  Lu  Lu17  1  0.825818  0.046953  0.932208  1
  Lu  Lu18  1  0.674182  0.046953  0.432208  1
  Lu  Lu19  1  0.325818  0.953047  0.567792  1
  Bi  Bi20  1  0.933403  0.010910  0.672071  1
  Bi  Bi21  1  0.066597  0.989090  0.327929  1
  Bi  Bi22  1  0.433403  0.989090  0.827929  1
  Bi  Bi23  1  0.066597  0.510910  0.327929  1
  Bi  Bi24  1  0.566597  0.010910  0.172071  1
  Bi  Bi25  1  0.933403  0.489090  0.672071  1
  Bi  Bi26  1  0.566597  0.489090  0.172071  1
  Bi  Bi27  1  0.433403  0.510910  0.827929  1
  Pt  Pt28  1  0.923446  0.750000  0.989412  1
  Pt  Pt29  1  0.076554  0.250000  0.010588  1
  Pt  Pt30  1  0.423446  0.250000  0.510588  1
  Pt  Pt31  1  0.576554  0.750000  0.489412  1
