# generated using pymatgen
data_HfPa3(TiRh5)2
_symmetry_space_group_name_H-M   'P 1'
_cell_length_a   4.21915000
_cell_length_b   5.74245133
_cell_length_c   11.30228555
_cell_angle_alpha   89.92246562
_cell_angle_beta   90.00000000
_cell_angle_gamma   90.00000000
_symmetry_Int_Tables_number   1
_chemical_formula_structural   HfPa3(TiRh5)2
_chemical_formula_sum   'Hf1 Pa3 Ti2 Rh10'
_cell_volume   273.83450222
_cell_formula_units_Z   1
loop_
 _symmetry_equiv_pos_site_id
 _symmetry_equiv_pos_as_xyz
  1  'x, y, z'
loop_
 _atom_site_type_symbol
 _atom_site_label
 _atom_site_symmetry_multiplicity
 _atom_site_fract_x
 _atom_site_fract_y
 _atom_site_fract_z
 _atom_site_occupancy
  Hf  Hf0  1  0.500000  0.336660  0.144858  1
  Pa  Pa1  1  0.500000  0.665671  0.862512  1
  Pa  Pa2  1  0.500000  0.835721  0.349390  1
  Pa  Pa3  1  0.500000  0.165262  0.643606  1
  Ti  Ti4  1  0.000000  0.017089  0.008330  1
  Ti  Ti5  1  0.000000  0.500556  0.496551  1
  Rh  Rh6  1  0.000000  0.000468  0.497559  1
  Rh  Rh7  1  0.000000  0.490886  0.004164  1
  Rh  Rh8  1  0.000000  0.090028  0.239536  1
  Rh  Rh9  1  0.000000  0.913272  0.755816  1
  Rh  Rh10  1  0.000000  0.584463  0.254711  1
  Rh  Rh11  1  0.000000  0.413479  0.746673  1
  Rh  Rh12  1  0.500000  0.325276  0.394653  1
  Rh  Rh13  1  0.500000  0.671188  0.601331  1
  Rh  Rh14  1  0.500000  0.818745  0.100451  1
  Rh  Rh15  1  0.500000  0.171238  0.899858  1
