# generated using pymatgen
data_YEr3(Sc3Pt4)2
_symmetry_space_group_name_H-M   'P 1'
_cell_length_a   7.31056419
_cell_length_b   7.36009316
_cell_length_c   13.86495800
_cell_angle_alpha   90.00948171
_cell_angle_beta   90.01289251
_cell_angle_gamma   90.03079396
_symmetry_Int_Tables_number   1
_chemical_formula_structural   YEr3(Sc3Pt4)2
_chemical_formula_sum   'Y2 Er6 Sc12 Pt16'
_cell_volume   746.02380351
_cell_formula_units_Z   2
loop_
 _symmetry_equiv_pos_site_id
 _symmetry_equiv_pos_as_xyz
  1  'x, y, z'
loop_
 _atom_site_type_symbol
 _atom_site_label
 _atom_site_symmetry_multiplicity
 _atom_site_fract_x
 _atom_site_fract_y
 _atom_site_fract_z
 _atom_site_occupancy
  Y  Y0  1  0.006343  0.176649  0.094485  1
  Y  Y1  1  0.993657  0.823351  0.905515  1
  Er  Er2  1  0.493945  0.676749  0.905414  1
  Er  Er3  1  0.993615  0.823286  0.594383  1
  Er  Er4  1  0.506055  0.323251  0.094586  1
  Er  Er5  1  0.006385  0.176714  0.405617  1
  Er  Er6  1  0.506439  0.323098  0.406015  1
  Er  Er7  1  0.493561  0.676902  0.593985  1
  Sc  Sc8  1  0.166582  0.499725  0.749380  1
  Sc  Sc9  1  0.833418  0.500275  0.250620  1
  Sc  Sc10  1  0.333424  0.999707  0.250369  1
  Sc  Sc11  1  0.666576  0.000293  0.749631  1
  Sc  Sc12  1  0.333918  0.164680  0.623542  1
  Sc  Sc13  1  0.666082  0.835320  0.376458  1
  Sc  Sc14  1  0.166256  0.664883  0.376585  1
  Sc  Sc15  1  0.665538  0.834957  0.124024  1
  Sc  Sc16  1  0.833744  0.335117  0.623415  1
  Sc  Sc17  1  0.334462  0.165043  0.875976  1
  Sc  Sc18  1  0.833495  0.335991  0.875712  1
  Sc  Sc19  1  0.166505  0.664009  0.124288  1
  Pt  Pt20  1  0.031847  0.123082  0.749087  1
  Pt  Pt21  1  0.968153  0.876918  0.250913  1
  Pt  Pt22  1  0.469569  0.622352  0.250446  1
  Pt  Pt23  1  0.530431  0.377648  0.749554  1
  Pt  Pt24  1  0.298257  0.853847  0.748978  1
  Pt  Pt25  1  0.701743  0.146153  0.251022  1
  Pt  Pt26  1  0.205075  0.354226  0.251626  1
  Pt  Pt27  1  0.794925  0.645774  0.748374  1
  Pt  Pt28  1  0.176061  0.457719  0.542349  1
  Pt  Pt29  1  0.823939  0.542281  0.457651  1
  Pt  Pt30  1  0.324039  0.958086  0.457414  1
  Pt  Pt31  1  0.822694  0.542400  0.042491  1
  Pt  Pt32  1  0.675961  0.041914  0.542586  1
  Pt  Pt33  1  0.177306  0.457600  0.957509  1
  Pt  Pt34  1  0.673821  0.043521  0.957129  1
  Pt  Pt35  1  0.326179  0.956479  0.042871  1
