# generated using pymatgen
data_HfCu4Pd
_symmetry_space_group_name_H-M   'P 1'
_cell_length_a   4.87417270
_cell_length_b   4.87417343
_cell_length_c   4.87417300
_cell_angle_alpha   59.99999611
_cell_angle_beta   59.99999115
_cell_angle_gamma   60.00000298
_symmetry_Int_Tables_number   1
_chemical_formula_structural   HfCu4Pd
_chemical_formula_sum   'Hf1 Cu4 Pd1'
_cell_volume   81.88187896
_cell_formula_units_Z   1
loop_
 _symmetry_equiv_pos_site_id
 _symmetry_equiv_pos_as_xyz
  1  'x, y, z'
loop_
 _atom_site_type_symbol
 _atom_site_label
 _atom_site_symmetry_multiplicity
 _atom_site_fract_x
 _atom_site_fract_y
 _atom_site_fract_z
 _atom_site_occupancy
  Hf  Hf0  1  0.000000  0.000000  0.000000  1
  Cu  Cu1  1  0.624548  0.624548  0.126356  1
  Cu  Cu2  1  0.624548  0.126356  0.624548  1
  Cu  Cu3  1  0.126356  0.624548  0.624548  1
  Cu  Cu4  1  0.624548  0.624548  0.624548  1
  Pd  Pd5  1  0.250000  0.250000  0.250000  1
