# generated using pymatgen
data_Ho3Tm9TlZnCo4
_symmetry_space_group_name_H-M   'P 1'
_cell_length_a   8.24724767
_cell_length_b   8.24724818
_cell_length_c   8.24630774
_cell_angle_alpha   110.28659482
_cell_angle_beta   111.46784511
_cell_angle_gamma   106.70153300
_symmetry_Int_Tables_number   1
_chemical_formula_structural   Ho3Tm9TlZnCo4
_chemical_formula_sum   'Ho3 Tm9 Tl1 Zn1 Co4'
_cell_volume   430.94567179
_cell_formula_units_Z   1
loop_
 _symmetry_equiv_pos_site_id
 _symmetry_equiv_pos_as_xyz
  1  'x, y, z'
loop_
 _atom_site_type_symbol
 _atom_site_label
 _atom_site_symmetry_multiplicity
 _atom_site_fract_x
 _atom_site_fract_y
 _atom_site_fract_z
 _atom_site_occupancy
  Ho  Ho0  1  0.287688  0.185906  0.473594  1
  Ho  Ho1  1  0.712760  0.814579  0.527340  1
  Ho  Ho2  1  0.287109  0.813851  0.100958  1
  Tm  Tm3  1  0.712932  0.185776  0.898708  1
  Tm  Tm4  1  0.619434  0.314593  0.303866  1
  Tm  Tm5  1  0.381041  0.685722  0.695789  1
  Tm  Tm6  1  0.010068  0.314748  0.695789  1
  Tm  Tm7  1  0.989274  0.684433  0.303866  1
  Tm  Tm8  1  0.222708  0.426351  0.203039  1
  Tm  Tm9  1  0.776363  0.572055  0.796405  1
  Tm  Tm10  1  0.224349  0.020042  0.796405  1
  Tm  Tm11  1  0.776687  0.980330  0.203039  1
  Tl  Tl12  1  0.499946  0.500275  0.000221  1
  Zn  Zn13  1  0.999027  0.999722  0.998749  1
  Co  Co14  1  0.999384  0.376370  0.375755  1
  Co  Co15  1  0.000189  0.623448  0.623636  1
  Co  Co16  1  0.386952  0.887332  0.501420  1
  Co  Co17  1  0.614088  0.114469  0.501420  1
