# generated using pymatgen
data_YTh5SBr15
_symmetry_space_group_name_H-M   'P 1'
_cell_length_a   10.00220585
_cell_length_b   10.00218478
_cell_length_c   10.00218523
_cell_angle_alpha   109.88089596
_cell_angle_beta   109.26678748
_cell_angle_gamma   109.26679399
_symmetry_Int_Tables_number   1
_chemical_formula_structural   YTh5SBr15
_chemical_formula_sum   'Y1 Th5 S1 Br15'
_cell_volume   770.27676781
_cell_formula_units_Z   1
loop_
 _symmetry_equiv_pos_site_id
 _symmetry_equiv_pos_as_xyz
  1  'x, y, z'
loop_
 _atom_site_type_symbol
 _atom_site_label
 _atom_site_symmetry_multiplicity
 _atom_site_fract_x
 _atom_site_fract_y
 _atom_site_fract_z
 _atom_site_occupancy
  Y  Y0  1  0.000002  0.235481  0.235481  1
  Th  Th1  1  0.000000  0.760443  0.760443  1
  Th  Th2  1  0.237772  0.000150  0.237923  1
  Th  Th3  1  0.762230  0.000153  0.762381  1
  Th  Th4  1  0.237772  0.237923  0.000150  1
  Th  Th5  1  0.762230  0.762381  0.000153  1
  S  S6  1  0.000002  0.004006  0.004006  1
  Br  Br7  1  0.502719  0.251294  0.251294  1
  Br  Br8  1  0.497281  0.748575  0.748575  1
  Br  Br9  1  0.000000  0.251295  0.748574  1
  Br  Br10  1  0.000000  0.748574  0.251295  1
  Br  Br11  1  0.244925  0.496903  0.251977  1
  Br  Br12  1  0.755069  0.007055  0.251973  1
  Br  Br13  1  0.747530  0.494544  0.747014  1
  Br  Br14  1  0.252472  0.999481  0.747010  1
  Br  Br15  1  0.244925  0.251977  0.496903  1
  Br  Br16  1  0.747530  0.747014  0.494544  1
  Br  Br17  1  0.755069  0.251973  0.007055  1
  Br  Br18  1  0.252472  0.747010  0.999481  1
  Br  Br19  1  0.000001  0.504857  0.504857  1
  Br  Br20  1  0.500000  0.999456  0.499456  1
  Br  Br21  1  0.500000  0.499456  0.999456  1
