# generated using pymatgen
data_TaTi11AgSn9
_symmetry_space_group_name_H-M   'P 1'
_cell_length_a   9.29702846
_cell_length_b   9.24452122
_cell_length_c   5.69958724
_cell_angle_alpha   89.99999929
_cell_angle_beta   90.55193803
_cell_angle_gamma   119.81335049
_symmetry_Int_Tables_number   1
_chemical_formula_structural   TaTi11AgSn9
_chemical_formula_sum   'Ta1 Ti11 Ag1 Sn9'
_cell_volume   425.00066338
_cell_formula_units_Z   1
loop_
 _symmetry_equiv_pos_site_id
 _symmetry_equiv_pos_as_xyz
  1  'x, y, z'
loop_
 _atom_site_type_symbol
 _atom_site_label
 _atom_site_symmetry_multiplicity
 _atom_site_fract_x
 _atom_site_fract_y
 _atom_site_fract_z
 _atom_site_occupancy
  Ta  Ta0  1  0.000000  0.500000  0.000000  1
  Ti  Ti1  1  0.845902  0.685249  0.762955  1
  Ti  Ti2  1  0.154098  0.839347  0.237045  1
  Ti  Ti3  1  0.686023  0.843011  0.242619  1
  Ti  Ti4  1  0.313977  0.156989  0.757381  1
  Ti  Ti5  1  0.845902  0.160653  0.762955  1
  Ti  Ti6  1  0.154098  0.314751  0.237045  1
  Ti  Ti7  1  0.500000  0.000000  0.500000  1
  Ti  Ti8  1  0.500000  0.500000  0.000000  1
  Ti  Ti9  1  0.000000  0.500000  0.500000  1
  Ti  Ti10  1  0.500000  0.000000  0.000000  1
  Ti  Ti11  1  0.500000  0.500000  0.500000  1
  Ag  Ag12  1  0.000000  0.000000  0.500000  1
  Sn  Sn13  1  0.201896  0.399129  0.739624  1
  Sn  Sn14  1  0.798104  0.197233  0.260376  1
  Sn  Sn15  1  0.397908  0.198954  0.254356  1
  Sn  Sn16  1  0.602092  0.801046  0.745644  1
  Sn  Sn17  1  0.201896  0.802767  0.739624  1
  Sn  Sn18  1  0.798104  0.600871  0.260376  1
  Sn  Sn19  1  0.665115  0.332557  0.753168  1
  Sn  Sn20  1  0.334885  0.667443  0.246832  1
  Sn  Sn21  1  0.000000  0.000000  0.000000  1
