# generated using pymatgen
data_Gd2ZnSi3
_symmetry_space_group_name_H-M   'P 1'
_cell_length_a   4.12749900
_cell_length_b   4.12749976
_cell_length_c   8.08440500
_cell_angle_alpha   90.00000000
_cell_angle_beta   90.00000000
_cell_angle_gamma   120.00001795
_symmetry_Int_Tables_number   1
_chemical_formula_structural   Gd2ZnSi3
_chemical_formula_sum   'Gd2 Zn1 Si3'
_cell_volume   119.27588526
_cell_formula_units_Z   1
loop_
 _symmetry_equiv_pos_site_id
 _symmetry_equiv_pos_as_xyz
  1  'x, y, z'
loop_
 _atom_site_type_symbol
 _atom_site_label
 _atom_site_symmetry_multiplicity
 _atom_site_fract_x
 _atom_site_fract_y
 _atom_site_fract_z
 _atom_site_occupancy
  Gd  Gd0  1  0.333333  0.666667  0.258168  1
  Gd  Gd1  1  0.333333  0.666667  0.741832  1
  Zn  Zn2  1  0.666667  0.333333  0.000000  1
  Si  Si3  1  0.666667  0.333333  0.500000  1
  Si  Si4  1  0.000000  0.000000  0.000000  1
  Si  Si5  1  0.000000  0.000000  0.500000  1
