# generated using pymatgen
data_Th2Si2PtRh3
_symmetry_space_group_name_H-M   'P 1'
_cell_length_a   9.51657138
_cell_length_b   9.51657245
_cell_length_c   4.07379800
_cell_angle_alpha   90.00000000
_cell_angle_beta   90.00000000
_cell_angle_gamma   155.61556182
_symmetry_Int_Tables_number   1
_chemical_formula_structural   Th2Si2PtRh3
_chemical_formula_sum   'Th2 Si2 Pt1 Rh3'
_cell_volume   152.32117556
_cell_formula_units_Z   1
loop_
 _symmetry_equiv_pos_site_id
 _symmetry_equiv_pos_as_xyz
  1  'x, y, z'
loop_
 _atom_site_type_symbol
 _atom_site_label
 _atom_site_symmetry_multiplicity
 _atom_site_fract_x
 _atom_site_fract_y
 _atom_site_fract_z
 _atom_site_occupancy
  Th  Th0  1  0.105040  0.894960  0.750000  1
  Th  Th1  1  0.896603  0.103397  0.250000  1
  Si  Si2  1  0.319872  0.680128  0.750000  1
  Si  Si3  1  0.681411  0.318589  0.250000  1
  Pt  Pt4  1  0.549777  0.450223  0.250000  1
  Rh  Rh5  1  0.448584  0.551416  0.750000  1
  Rh  Rh6  1  0.249617  0.750383  0.250000  1
  Rh  Rh7  1  0.749096  0.250904  0.750000  1
