# generated using pymatgen
data_La3Tm2P12Ru19
_symmetry_space_group_name_H-M   'P 1'
_cell_length_a   12.63129200
_cell_length_b   12.63129221
_cell_length_c   4.02186300
_cell_angle_alpha   90.00000000
_cell_angle_beta   90.00000000
_cell_angle_gamma   119.99999944
_symmetry_Int_Tables_number   1
_chemical_formula_structural   La3Tm2P12Ru19
_chemical_formula_sum   'La3 Tm2 P12 Ru19'
_cell_volume   555.71672045
_cell_formula_units_Z   1
loop_
 _symmetry_equiv_pos_site_id
 _symmetry_equiv_pos_as_xyz
  1  'x, y, z'
loop_
 _atom_site_type_symbol
 _atom_site_label
 _atom_site_symmetry_multiplicity
 _atom_site_fract_x
 _atom_site_fract_y
 _atom_site_fract_z
 _atom_site_occupancy
  La  La0  1  0.000000  0.183148  0.500000  1
  La  La1  1  0.816852  0.816852  0.500000  1
  La  La2  1  0.183148  0.000000  0.500000  1
  Tm  Tm3  1  0.666667  0.333333  0.000000  1
  Tm  Tm4  1  0.333333  0.666667  0.000000  1
  P  P5  1  0.000000  0.809483  0.000000  1
  P  P6  1  0.190517  0.190517  0.000000  1
  P  P7  1  0.809483  0.000000  0.000000  1
  P  P8  1  0.695558  0.175148  0.500000  1
  P  P9  1  0.824852  0.520409  0.500000  1
  P  P10  1  0.479591  0.304442  0.500000  1
  P  P11  1  0.175148  0.695558  0.500000  1
  P  P12  1  0.520409  0.824852  0.500000  1
  P  P13  1  0.304442  0.479591  0.500000  1
  P  P14  1  0.000000  0.374823  0.000000  1
  P  P15  1  0.625177  0.625177  0.000000  1
  P  P16  1  0.374823  0.000000  0.000000  1
  Ru  Ru17  1  0.000000  0.553750  0.000000  1
  Ru  Ru18  1  0.446250  0.446250  0.000000  1
  Ru  Ru19  1  0.553750  0.000000  0.000000  1
  Ru  Ru20  1  0.000000  0.711101  0.500000  1
  Ru  Ru21  1  0.288899  0.288899  0.500000  1
  Ru  Ru22  1  0.711101  0.000000  0.500000  1
  Ru  Ru23  1  0.803223  0.186016  0.000000  1
  Ru  Ru24  1  0.813984  0.617207  0.000000  1
  Ru  Ru25  1  0.382793  0.196777  0.000000  1
  Ru  Ru26  1  0.186016  0.803223  0.000000  1
  Ru  Ru27  1  0.617207  0.813984  0.000000  1
  Ru  Ru28  1  0.196777  0.382793  0.000000  1
  Ru  Ru29  1  0.873734  0.368436  0.500000  1
  Ru  Ru30  1  0.631564  0.505297  0.500000  1
  Ru  Ru31  1  0.494703  0.126266  0.500000  1
  Ru  Ru32  1  0.368436  0.873734  0.500000  1
  Ru  Ru33  1  0.505297  0.631564  0.500000  1
  Ru  Ru34  1  0.126266  0.494703  0.500000  1
  Ru  Ru35  1  0.000000  0.000000  0.000000  1
