# generated using pymatgen
data_Tb5Er11InAg3Rh4
_symmetry_space_group_name_H-M   'P 1'
_cell_length_a   9.51384705
_cell_length_b   9.50154408
_cell_length_c   9.50865097
_cell_angle_alpha   60.16064458
_cell_angle_beta   60.12518520
_cell_angle_gamma   60.19567411
_symmetry_Int_Tables_number   1
_chemical_formula_structural   Tb5Er11InAg3Rh4
_chemical_formula_sum   'Tb5 Er11 In1 Ag3 Rh4'
_cell_volume   610.00001688
_cell_formula_units_Z   1
loop_
 _symmetry_equiv_pos_site_id
 _symmetry_equiv_pos_as_xyz
  1  'x, y, z'
loop_
 _atom_site_type_symbol
 _atom_site_label
 _atom_site_symmetry_multiplicity
 _atom_site_fract_x
 _atom_site_fract_y
 _atom_site_fract_z
 _atom_site_occupancy
  Tb  Tb0  1  0.188680  0.189622  0.810942  1
  Tb  Tb1  1  0.436629  0.062506  0.063196  1
  Tb  Tb2  1  0.434759  0.060935  0.434865  1
  Tb  Tb3  1  0.062304  0.436603  0.063710  1
  Tb  Tb4  1  0.649361  0.053226  0.647490  1
  Er  Er5  1  0.188910  0.812017  0.812429  1
  Er  Er6  1  0.062330  0.062919  0.436617  1
  Er  Er7  1  0.810305  0.189281  0.189498  1
  Er  Er8  1  0.813219  0.812261  0.188644  1
  Er  Er9  1  0.648226  0.648036  0.053476  1
  Er  Er10  1  0.648829  0.648206  0.648440  1
  Er  Er11  1  0.059990  0.436236  0.435176  1
  Er  Er12  1  0.053028  0.649249  0.647647  1
  Er  Er13  1  0.812697  0.189060  0.812321  1
  Er  Er14  1  0.435781  0.436417  0.060029  1
  Er  Er15  1  0.189443  0.809522  0.190478  1
  In  In16  1  0.420692  0.422201  0.420248  1
  Ag  Ag17  1  0.416974  0.747988  0.418083  1
  Ag  Ag18  1  0.417965  0.418925  0.748031  1
  Ag  Ag19  1  0.748853  0.417788  0.417891  1
  Rh  Rh20  1  0.855464  0.430259  0.856686  1
  Rh  Rh21  1  0.858144  0.855767  0.428375  1
  Rh  Rh22  1  0.429054  0.854425  0.858100  1
  Rh  Rh23  1  0.858364  0.856552  0.857627  1
