# generated using pymatgen
data_Ba6Zr2Fe2O13
_symmetry_space_group_name_H-M   'P 1'
_cell_length_a   11.42459878
_cell_length_b   11.42459861
_cell_length_c   5.85734100
_cell_angle_alpha   90.00000000
_cell_angle_beta   90.00000000
_cell_angle_gamma   150.19461330
_symmetry_Int_Tables_number   1
_chemical_formula_structural   Ba6Zr2Fe2O13
_chemical_formula_sum   'Ba6 Zr2 Fe2 O13'
_cell_volume   380.00327276
_cell_formula_units_Z   1
loop_
 _symmetry_equiv_pos_site_id
 _symmetry_equiv_pos_as_xyz
  1  'x, y, z'
loop_
 _atom_site_type_symbol
 _atom_site_label
 _atom_site_symmetry_multiplicity
 _atom_site_fract_x
 _atom_site_fract_y
 _atom_site_fract_z
 _atom_site_occupancy
  Ba  Ba0  1  0.500000  0.500000  0.000000  1
  Ba  Ba1  1  0.000000  0.000000  0.500000  1
  Ba  Ba2  1  0.183091  0.816909  0.500000  1
  Ba  Ba3  1  0.683593  0.316407  0.000000  1
  Ba  Ba4  1  0.316407  0.683593  0.000000  1
  Ba  Ba5  1  0.816909  0.183091  0.500000  1
  Zr  Zr6  1  0.904562  0.095438  0.000000  1
  Zr  Zr7  1  0.095438  0.904562  0.000000  1
  Fe  Fe8  1  0.391313  0.608687  0.500000  1
  Fe  Fe9  1  0.608687  0.391313  0.500000  1
  O  O10  1  0.649102  0.832482  0.741093  1
  O  O11  1  0.167518  0.350898  0.258907  1
  O  O12  1  0.832482  0.649102  0.741093  1
  O  O13  1  0.350898  0.167518  0.258907  1
  O  O14  1  0.167518  0.350898  0.741093  1
  O  O15  1  0.649102  0.832482  0.258907  1
  O  O16  1  0.350898  0.167518  0.741093  1
  O  O17  1  0.832482  0.649102  0.258907  1
  O  O18  1  0.304617  0.695383  0.500000  1
  O  O19  1  0.808888  0.191112  0.000000  1
  O  O20  1  0.191112  0.808888  0.000000  1
  O  O21  1  0.695383  0.304617  0.500000  1
  O  O22  1  0.000000  0.000000  0.000000  1
