# generated using pymatgen
data_Pr6NdSm(Te3N2)2
_symmetry_space_group_name_H-M   'P 1'
_cell_length_a   7.45049307
_cell_length_b   11.47958512
_cell_length_c   11.82975000
_cell_angle_alpha   90.00000000
_cell_angle_beta   90.00000000
_cell_angle_gamma   89.99949685
_symmetry_Int_Tables_number   1
_chemical_formula_structural   Pr6NdSm(Te3N2)2
_chemical_formula_sum   'Pr12 Nd2 Sm2 Te12 N8'
_cell_volume   1011.78159337
_cell_formula_units_Z   2
loop_
 _symmetry_equiv_pos_site_id
 _symmetry_equiv_pos_as_xyz
  1  'x, y, z'
loop_
 _atom_site_type_symbol
 _atom_site_label
 _atom_site_symmetry_multiplicity
 _atom_site_fract_x
 _atom_site_fract_y
 _atom_site_fract_z
 _atom_site_occupancy
  Pr  Pr0  1  0.146006  0.389742  0.950349  1
  Pr  Pr1  1  0.408041  0.159702  0.250000  1
  Pr  Pr2  1  0.353456  0.889566  0.049178  1
  Pr  Pr3  1  0.729476  0.469154  0.750000  1
  Pr  Pr4  1  0.853985  0.610330  0.450503  1
  Pr  Pr5  1  0.771356  0.969563  0.250000  1
  Pr  Pr6  1  0.270864  0.530431  0.250000  1
  Pr  Pr7  1  0.146006  0.389742  0.549651  1
  Pr  Pr8  1  0.353456  0.889566  0.450822  1
  Pr  Pr9  1  0.646396  0.110210  0.549881  1
  Pr  Pr10  1  0.853985  0.610330  0.049497  1
  Pr  Pr11  1  0.646396  0.110210  0.950119  1
  Nd  Nd12  1  0.231368  0.030520  0.750000  1
  Nd  Nd13  1  0.590395  0.841270  0.750000  1
  Sm  Sm14  1  0.088955  0.656854  0.750000  1
  Sm  Sm15  1  0.910709  0.343450  0.250000  1
  Te  Te16  1  0.062960  0.136275  0.080109  1
  Te  Te17  1  0.081884  0.773698  0.250000  1
  Te  Te18  1  0.568100  0.365238  0.079934  1
  Te  Te19  1  0.581924  0.725940  0.250000  1
  Te  Te20  1  0.935727  0.863972  0.919025  1
  Te  Te21  1  0.432662  0.635369  0.919261  1
  Te  Te22  1  0.919547  0.225444  0.750000  1
  Te  Te23  1  0.935727  0.863972  0.580975  1
  Te  Te24  1  0.062960  0.136275  0.419891  1
  Te  Te25  1  0.432662  0.635369  0.580739  1
  Te  Te26  1  0.568100  0.365238  0.420066  1
  Te  Te27  1  0.418033  0.273372  0.750000  1
  N  N28  1  0.447228  0.967027  0.622696  1
  N  N29  1  0.552073  0.032644  0.121617  1
  N  N30  1  0.949587  0.534149  0.622899  1
  N  N31  1  0.050542  0.465780  0.377168  1
  N  N32  1  0.949587  0.534149  0.877101  1
  N  N33  1  0.050542  0.465780  0.122832  1
  N  N34  1  0.552073  0.032644  0.378383  1
  N  N35  1  0.447228  0.967027  0.877304  1
