# generated using pymatgen
data_Tm12GaCo8Si7
_symmetry_space_group_name_H-M   'P 1'
_cell_length_a   5.43553000
_cell_length_b   7.56374727
_cell_length_c   12.47983440
_cell_angle_alpha   89.76927866
_cell_angle_beta   90.00000000
_cell_angle_gamma   90.00000000
_symmetry_Int_Tables_number   1
_chemical_formula_structural   Tm12GaCo8Si7
_chemical_formula_sum   'Tm12 Ga1 Co8 Si7'
_cell_volume   513.07896211
_cell_formula_units_Z   1
loop_
 _symmetry_equiv_pos_site_id
 _symmetry_equiv_pos_as_xyz
  1  'x, y, z'
loop_
 _atom_site_type_symbol
 _atom_site_label
 _atom_site_symmetry_multiplicity
 _atom_site_fract_x
 _atom_site_fract_y
 _atom_site_fract_z
 _atom_site_occupancy
  Tm  Tm0  1  0.631313  0.253453  0.251618  1
  Tm  Tm1  1  0.369256  0.746400  0.749679  1
  Tm  Tm2  1  0.369256  0.753600  0.250321  1
  Tm  Tm3  1  0.631313  0.246547  0.748382  1
  Tm  Tm4  1  0.145012  0.397788  0.101645  1
  Tm  Tm5  1  0.857774  0.604462  0.898462  1
  Tm  Tm6  1  0.857877  0.604278  0.601046  1
  Tm  Tm7  1  0.857877  0.895722  0.398954  1
  Tm  Tm8  1  0.142265  0.395618  0.398619  1
  Tm  Tm9  1  0.142265  0.104382  0.601381  1
  Tm  Tm10  1  0.145012  0.102212  0.898355  1
  Tm  Tm11  1  0.857774  0.895538  0.101538  1
  Ga  Ga12  1  0.632326  0.250000  0.000000  1
  Co  Co13  1  0.358343  0.022688  0.089691  1
  Co  Co14  1  0.631627  0.960342  0.909186  1
  Co  Co15  1  0.634649  0.970373  0.587369  1
  Co  Co16  1  0.634649  0.529627  0.412631  1
  Co  Co17  1  0.365222  0.029356  0.412720  1
  Co  Co18  1  0.365222  0.470644  0.587280  1
  Co  Co19  1  0.358343  0.477312  0.910309  1
  Co  Co20  1  0.631627  0.539658  0.090814  1
  Si  Si21  1  0.149714  0.102634  0.250917  1
  Si  Si22  1  0.850415  0.897672  0.748769  1
  Si  Si23  1  0.850415  0.602328  0.251231  1
  Si  Si24  1  0.149714  0.397366  0.749083  1
  Si  Si25  1  0.381005  0.750000  0.000000  1
  Si  Si26  1  0.386689  0.750000  0.500000  1
  Si  Si27  1  0.613045  0.250000  0.500000  1
