# generated using pymatgen
data_Tb7Nd8Lu5Si16
_symmetry_space_group_name_H-M   'P 1'
_cell_length_a   7.73219537
_cell_length_b   7.72915037
_cell_length_c   14.40857686
_cell_angle_alpha   89.91033769
_cell_angle_beta   89.91041153
_cell_angle_gamma   90.00761376
_symmetry_Int_Tables_number   1
_chemical_formula_structural   Tb7Nd8Lu5Si16
_chemical_formula_sum   'Tb7 Nd8 Lu5 Si16'
_cell_volume   861.10199664
_cell_formula_units_Z   1
loop_
 _symmetry_equiv_pos_site_id
 _symmetry_equiv_pos_as_xyz
  1  'x, y, z'
loop_
 _atom_site_type_symbol
 _atom_site_label
 _atom_site_symmetry_multiplicity
 _atom_site_fract_x
 _atom_site_fract_y
 _atom_site_fract_z
 _atom_site_occupancy
  Tb  Tb0  1  0.988811  0.134880  0.625043  1
  Tb  Tb1  1  0.864519  0.011585  0.875536  1
  Tb  Tb2  1  0.135435  0.989204  0.374625  1
  Tb  Tb3  1  0.511332  0.635105  0.625104  1
  Tb  Tb4  1  0.365146  0.488538  0.875340  1
  Tb  Tb5  1  0.634788  0.511132  0.374725  1
  Tb  Tb6  1  0.010526  0.865102  0.124805  1
  Nd  Nd7  1  0.635992  0.990442  0.455166  1
  Nd  Nd8  1  0.364013  0.009772  0.955679  1
  Nd  Nd9  1  0.990200  0.635875  0.544581  1
  Nd  Nd10  1  0.490374  0.863512  0.205314  1
  Nd  Nd11  1  0.509571  0.135897  0.705397  1
  Nd  Nd12  1  0.864041  0.490463  0.794894  1
  Nd  Nd13  1  0.136253  0.509761  0.294044  1
  Nd  Nd14  1  0.010773  0.363950  0.044773  1
  Lu  Lu15  1  0.489835  0.364542  0.125045  1
  Lu  Lu16  1  0.314025  0.314194  0.499853  1
  Lu  Lu17  1  0.186000  0.813810  0.750125  1
  Lu  Lu18  1  0.813279  0.186403  0.249702  1
  Lu  Lu19  1  0.685401  0.684551  0.000231  1
  Si  Si20  1  0.288111  0.932500  0.562465  1
  Si  Si21  1  0.710519  0.069447  0.063314  1
  Si  Si22  1  0.932344  0.288174  0.437402  1
  Si  Si23  1  0.433101  0.213517  0.310982  1
  Si  Si24  1  0.567730  0.787905  0.812682  1
  Si  Si25  1  0.211946  0.432451  0.687477  1
  Si  Si26  1  0.785847  0.565809  0.186610  1
  Si  Si27  1  0.067788  0.711416  0.937629  1
  Si  Si28  1  0.801307  0.840333  0.693533  1
  Si  Si29  1  0.200971  0.161421  0.192182  1
  Si  Si30  1  0.840280  0.801829  0.306537  1
  Si  Si31  1  0.340407  0.698592  0.443338  1
  Si  Si32  1  0.658147  0.302220  0.944929  1
  Si  Si33  1  0.698461  0.340322  0.556408  1
  Si  Si34  1  0.303192  0.656826  0.057850  1
  Si  Si35  1  0.159537  0.198523  0.806676  1
