# generated using pymatgen
data_Ac2BiO2
_symmetry_space_group_name_H-M   'P 1'
_cell_length_a   7.97309043
_cell_length_b   7.97309124
_cell_length_c   7.97308992
_cell_angle_alpha   149.35327861
_cell_angle_beta   149.35328707
_cell_angle_gamma   43.89154624
_symmetry_Int_Tables_number   1
_chemical_formula_structural   Ac2BiO2
_chemical_formula_sum   'Ac2 Bi1 O2'
_cell_volume   131.32736354
_cell_formula_units_Z   1
loop_
 _symmetry_equiv_pos_site_id
 _symmetry_equiv_pos_as_xyz
  1  'x, y, z'
loop_
 _atom_site_type_symbol
 _atom_site_label
 _atom_site_symmetry_multiplicity
 _atom_site_fract_x
 _atom_site_fract_y
 _atom_site_fract_z
 _atom_site_occupancy
  Ac  Ac0  1  0.336758  0.336758  0.000000  1
  Ac  Ac1  1  0.663242  0.663242  0.000000  1
  Bi  Bi2  1  0.000000  0.000000  0.000000  1
  O  O3  1  0.250000  0.750000  0.500000  1
  O  O4  1  0.750000  0.250000  0.500000  1
