# generated using pymatgen
data_Zr10Bi4Pb3
_symmetry_space_group_name_H-M   'P 1'
_cell_length_a   6.06334600
_cell_length_b   8.82424841
_cell_length_c   8.82424800
_cell_angle_alpha   120.00003625
_cell_angle_beta   89.99974769
_cell_angle_gamma   90.00030968
_symmetry_Int_Tables_number   1
_chemical_formula_structural   Zr10Bi4Pb3
_chemical_formula_sum   'Zr10 Bi4 Pb3'
_cell_volume   408.88224795
_cell_formula_units_Z   1
loop_
 _symmetry_equiv_pos_site_id
 _symmetry_equiv_pos_as_xyz
  1  'x, y, z'
loop_
 _atom_site_type_symbol
 _atom_site_label
 _atom_site_symmetry_multiplicity
 _atom_site_fract_x
 _atom_site_fract_y
 _atom_site_fract_z
 _atom_site_occupancy
  Zr  Zr0  1  0.498140  0.333333  0.666666  1
  Zr  Zr1  1  0.498138  0.666667  0.333335  1
  Zr  Zr2  1  0.003675  0.666668  0.333335  1
  Zr  Zr3  1  0.003675  0.333333  0.666665  1
  Zr  Zr4  1  0.786869  0.264469  0.000001  1
  Zr  Zr5  1  0.786875  0.735533  0.735535  1
  Zr  Zr6  1  0.786873  0.999998  0.264465  1
  Zr  Zr7  1  0.213477  0.732020  0.000000  1
  Zr  Zr8  1  0.213483  0.267983  0.267983  1
  Zr  Zr9  1  0.213482  0.000001  0.732018  1
  Bi  Bi10  1  0.740499  0.610206  0.000000  1
  Bi  Bi11  1  0.740503  0.389789  0.389787  1
  Bi  Bi12  1  0.740503  0.000001  0.610213  1
  Bi  Bi13  1  0.496331  0.000002  0.999999  1
  Pb  Pb14  1  0.259150  0.385695  0.000000  1
  Pb  Pb15  1  0.259161  0.614309  0.614309  1
  Pb  Pb16  1  0.259161  0.999999  0.385690  1
