# generated using pymatgen
data_GaNiF6
_symmetry_space_group_name_H-M   'P 1'
_cell_length_a   5.26704348
_cell_length_b   5.26739096
_cell_length_c   5.26736404
_cell_angle_alpha   57.15054600
_cell_angle_beta   57.14566085
_cell_angle_gamma   57.15169398
_symmetry_Int_Tables_number   1
_chemical_formula_structural   GaNiF6
_chemical_formula_sum   'Ga1 Ni1 F6'
_cell_volume   96.54629956
_cell_formula_units_Z   1
loop_
 _symmetry_equiv_pos_site_id
 _symmetry_equiv_pos_as_xyz
  1  'x, y, z'
loop_
 _atom_site_type_symbol
 _atom_site_label
 _atom_site_symmetry_multiplicity
 _atom_site_fract_x
 _atom_site_fract_y
 _atom_site_fract_z
 _atom_site_occupancy
  Ga  Ga0  1  0.000000  0.000000  0.000000  1
  Ni  Ni1  1  0.500000  0.500002  0.499999  1
  F  F2  1  0.368860  0.750014  0.132162  1
  F  F3  1  0.867845  0.631074  0.249996  1
  F  F4  1  0.750080  0.132056  0.368823  1
  F  F5  1  0.249920  0.867942  0.631179  1
  F  F6  1  0.132158  0.368925  0.750003  1
  F  F7  1  0.631141  0.249986  0.867837  1
