# generated using pymatgen
data_Dy(HoHg2)5
_symmetry_space_group_name_H-M   'P 1'
_cell_length_a   6.37885765
_cell_length_b   6.37885709
_cell_length_c   10.13755869
_cell_angle_alpha   90.02528078
_cell_angle_beta   90.02528323
_cell_angle_gamma   105.15504411
_symmetry_Int_Tables_number   1
_chemical_formula_structural   Dy(HoHg2)5
_chemical_formula_sum   'Dy1 Ho5 Hg10'
_cell_volume   398.14954676
_cell_formula_units_Z   1
loop_
 _symmetry_equiv_pos_site_id
 _symmetry_equiv_pos_as_xyz
  1  'x, y, z'
loop_
 _atom_site_type_symbol
 _atom_site_label
 _atom_site_symmetry_multiplicity
 _atom_site_fract_x
 _atom_site_fract_y
 _atom_site_fract_z
 _atom_site_occupancy
  Dy  Dy0  1  0.213369  0.786631  0.500000  1
  Ho  Ho1  1  0.569243  0.568769  0.249912  1
  Ho  Ho2  1  0.431231  0.430757  0.750088  1
  Ho  Ho3  1  0.213679  0.786321  0.000000  1
  Ho  Ho4  1  0.786550  0.213450  0.500000  1
  Ho  Ho5  1  0.786127  0.213873  0.000000  1
  Hg  Hg6  1  0.970696  0.970694  0.249705  1
  Hg  Hg7  1  0.029306  0.029304  0.750295  1
  Hg  Hg8  1  0.291596  0.291682  0.029700  1
  Hg  Hg9  1  0.708318  0.708404  0.970300  1
  Hg  Hg10  1  0.291949  0.292307  0.469967  1
  Hg  Hg11  1  0.707693  0.708051  0.530033  1
  Hg  Hg12  1  0.479890  0.037716  0.249708  1
  Hg  Hg13  1  0.962284  0.520110  0.750292  1
  Hg  Hg14  1  0.521015  0.962946  0.750357  1
  Hg  Hg15  1  0.037054  0.478985  0.249643  1
