# generated using pymatgen
data_Er8Hf11Si16Tc
_symmetry_space_group_name_H-M   'P 1'
_cell_length_a   7.22308949
_cell_length_b   7.22308952
_cell_length_c   13.22667500
_cell_angle_alpha   89.95262397
_cell_angle_beta   90.04737572
_cell_angle_gamma   90.04169834
_symmetry_Int_Tables_number   1
_chemical_formula_structural   Er8Hf11Si16Tc
_chemical_formula_sum   'Er8 Hf11 Si16 Tc1'
_cell_volume   690.07495137
_cell_formula_units_Z   1
loop_
 _symmetry_equiv_pos_site_id
 _symmetry_equiv_pos_as_xyz
  1  'x, y, z'
loop_
 _atom_site_type_symbol
 _atom_site_label
 _atom_site_symmetry_multiplicity
 _atom_site_fract_x
 _atom_site_fract_y
 _atom_site_fract_z
 _atom_site_occupancy
  Er  Er0  1  0.999010  0.343260  0.212082  1
  Er  Er1  1  0.004386  0.655759  0.717054  1
  Er  Er2  1  0.156050  0.495458  0.465402  1
  Er  Er3  1  0.500980  0.845984  0.033649  1
  Er  Er4  1  0.845984  0.500980  0.966351  1
  Er  Er5  1  0.495458  0.156050  0.534598  1
  Er  Er6  1  0.343260  0.999010  0.787918  1
  Er  Er7  1  0.655759  0.004386  0.282946  1
  Hf  Hf8  1  0.825109  0.825109  0.500000  1
  Hf  Hf9  1  0.324448  0.674750  0.248494  1
  Hf  Hf10  1  0.674750  0.324448  0.751506  1
  Hf  Hf11  1  0.147587  0.997811  0.373020  1
  Hf  Hf12  1  0.853780  0.004298  0.877702  1
  Hf  Hf13  1  0.502952  0.647500  0.625193  1
  Hf  Hf14  1  0.350823  0.494860  0.876899  1
  Hf  Hf15  1  0.494860  0.350823  0.123101  1
  Hf  Hf16  1  0.647500  0.502952  0.374807  1
  Hf  Hf17  1  0.997811  0.147587  0.626980  1
  Hf  Hf18  1  0.004298  0.853780  0.122298  1
  Si  Si19  1  0.360488  0.294937  0.316543  1
  Si  Si20  1  0.638671  0.705244  0.818740  1
  Si  Si21  1  0.205421  0.861141  0.567805  1
  Si  Si22  1  0.138010  0.795010  0.931790  1
  Si  Si23  1  0.795010  0.138010  0.068210  1
  Si  Si24  1  0.861141  0.205421  0.432195  1
  Si  Si25  1  0.294937  0.360488  0.683457  1
  Si  Si26  1  0.705244  0.638671  0.181260  1
  Si  Si27  1  0.294825  0.052614  0.181558  1
  Si  Si28  1  0.702638  0.951750  0.685882  1
  Si  Si29  1  0.450291  0.797542  0.434864  1
  Si  Si30  1  0.203769  0.547645  0.064400  1
  Si  Si31  1  0.547645  0.203769  0.935600  1
  Si  Si32  1  0.797542  0.450291  0.565136  1
  Si  Si33  1  0.052614  0.294825  0.818442  1
  Si  Si34  1  0.951750  0.702638  0.314118  1
  Tc  Tc35  1  0.175200  0.175200  0.000000  1
