# generated using pymatgen
data_YHo15AlCd3Pd4
_symmetry_space_group_name_H-M   'P 1'
_cell_length_a   9.62470497
_cell_length_b   9.62470464
_cell_length_c   9.62255514
_cell_angle_alpha   60.14409514
_cell_angle_beta   60.14409487
_cell_angle_gamma   60.13903076
_symmetry_Int_Tables_number   1
_chemical_formula_structural   YHo15AlCd3Pd4
_chemical_formula_sum   'Y1 Ho15 Al1 Cd3 Pd4'
_cell_volume   632.33750549
_cell_formula_units_Z   1
loop_
 _symmetry_equiv_pos_site_id
 _symmetry_equiv_pos_as_xyz
  1  'x, y, z'
loop_
 _atom_site_type_symbol
 _atom_site_label
 _atom_site_symmetry_multiplicity
 _atom_site_fract_x
 _atom_site_fract_y
 _atom_site_fract_z
 _atom_site_occupancy
  Y  Y0  1  0.935345  0.935345  0.564417  1
  Ho  Ho1  1  0.351554  0.351554  0.351591  1
  Ho  Ho2  1  0.357787  0.357787  0.933625  1
  Ho  Ho3  1  0.358049  0.933592  0.357700  1
  Ho  Ho4  1  0.933592  0.358049  0.357700  1
  Ho  Ho5  1  0.810750  0.189927  0.189407  1
  Ho  Ho6  1  0.192751  0.808299  0.808475  1
  Ho  Ho7  1  0.189927  0.810750  0.189407  1
  Ho  Ho8  1  0.808299  0.192751  0.808475  1
  Ho  Ho9  1  0.189716  0.189716  0.810726  1
  Ho  Ho10  1  0.808417  0.808417  0.192434  1
  Ho  Ho11  1  0.931962  0.566799  0.567233  1
  Ho  Ho12  1  0.563873  0.935554  0.935805  1
  Ho  Ho13  1  0.566799  0.931962  0.567233  1
  Ho  Ho14  1  0.935554  0.563873  0.935805  1
  Ho  Ho15  1  0.567285  0.567285  0.931840  1
  Al  Al16  1  0.581674  0.581674  0.581679  1
  Cd  Cd17  1  0.581070  0.581070  0.255331  1
  Cd  Cd18  1  0.580935  0.255483  0.581049  1
  Cd  Cd19  1  0.255483  0.580935  0.581049  1
  Pd  Pd20  1  0.146284  0.146284  0.146161  1
  Pd  Pd21  1  0.142588  0.142588  0.567787  1
  Pd  Pd22  1  0.142569  0.567733  0.142533  1
  Pd  Pd23  1  0.567733  0.142569  0.142533  1
