# generated using pymatgen
data_PrDy2Y(Ir2O7)2
_symmetry_space_group_name_H-M   'P 1'
_cell_length_a   7.31882363
_cell_length_b   7.27499779
_cell_length_c   7.27499817
_cell_angle_alpha   60.01709098
_cell_angle_beta   60.22063177
_cell_angle_gamma   60.22063576
_symmetry_Int_Tables_number   1
_chemical_formula_structural   PrDy2Y(Ir2O7)2
_chemical_formula_sum   'Pr1 Dy2 Y1 Ir4 O14'
_cell_volume   274.84558852
_cell_formula_units_Z   1
loop_
 _symmetry_equiv_pos_site_id
 _symmetry_equiv_pos_as_xyz
  1  'x, y, z'
loop_
 _atom_site_type_symbol
 _atom_site_label
 _atom_site_symmetry_multiplicity
 _atom_site_fract_x
 _atom_site_fract_y
 _atom_site_fract_z
 _atom_site_occupancy
  Pr  Pr0  1  0.625000  0.125000  0.125000  1
  Dy  Dy1  1  0.125000  0.125000  0.625000  1
  Dy  Dy2  1  0.125000  0.625000  0.125000  1
  Y  Y3  1  0.125000  0.125000  0.125000  1
  Ir  Ir4  1  0.625000  0.625000  0.625000  1
  Ir  Ir5  1  0.125000  0.625000  0.625000  1
  Ir  Ir6  1  0.625000  0.125000  0.625000  1
  Ir  Ir7  1  0.625000  0.625000  0.125000  1
  O  O8  1  0.961844  0.538782  0.538782  1
  O  O9  1  0.288321  0.289550  0.710837  1
  O  O10  1  0.961679  0.539163  0.960450  1
  O  O11  1  0.719115  0.289522  0.289522  1
  O  O12  1  0.530489  0.548197  0.960676  1
  O  O13  1  0.530489  0.960676  0.548197  1
  O  O14  1  0.530885  0.960478  0.960478  1
  O  O15  1  0.237902  0.254161  0.254161  1
  O  O16  1  0.288156  0.711218  0.711218  1
  O  O17  1  0.719511  0.289324  0.701803  1
  O  O18  1  0.012098  0.995839  0.995839  1
  O  O19  1  0.961679  0.960450  0.539163  1
  O  O20  1  0.288321  0.710837  0.289550  1
  O  O21  1  0.719511  0.701803  0.289324  1
