# generated using pymatgen
data_Hf4Zr2FeSb2
_symmetry_space_group_name_H-M   'P 1'
_cell_length_a   7.76509098
_cell_length_b   7.76509044
_cell_length_c   3.62778200
_cell_angle_alpha   90.00000000
_cell_angle_beta   90.00000000
_cell_angle_gamma   120.40700889
_symmetry_Int_Tables_number   1
_chemical_formula_structural   Hf4Zr2FeSb2
_chemical_formula_sum   'Hf4 Zr2 Fe1 Sb2'
_cell_volume   188.65532216
_cell_formula_units_Z   1
loop_
 _symmetry_equiv_pos_site_id
 _symmetry_equiv_pos_as_xyz
  1  'x, y, z'
loop_
 _atom_site_type_symbol
 _atom_site_label
 _atom_site_symmetry_multiplicity
 _atom_site_fract_x
 _atom_site_fract_y
 _atom_site_fract_z
 _atom_site_occupancy
  Hf  Hf0  1  0.236579  0.998310  0.500000  1
  Hf  Hf1  1  0.998310  0.236579  0.500000  1
  Hf  Hf2  1  0.763142  0.763142  0.500000  1
  Hf  Hf3  1  0.392858  0.392858  0.000000  1
  Zr  Zr4  1  0.600522  0.999206  0.000000  1
  Zr  Zr5  1  0.999206  0.600522  0.000000  1
  Fe  Fe6  1  0.011035  0.011035  0.000000  1
  Sb  Sb7  1  0.333608  0.664741  0.500000  1
  Sb  Sb8  1  0.664741  0.333608  0.500000  1
