# generated using pymatgen
data_Tm4Lu(SiBi)2
_symmetry_space_group_name_H-M   'P 1'
_cell_length_a   8.53567564
_cell_length_b   8.53567549
_cell_length_c   7.80559700
_cell_angle_alpha   90.00000000
_cell_angle_beta   90.00000000
_cell_angle_gamma   125.71890198
_symmetry_Int_Tables_number   1
_chemical_formula_structural   Tm4Lu(SiBi)2
_chemical_formula_sum   'Tm8 Lu2 Si4 Bi4'
_cell_volume   461.72100880
_cell_formula_units_Z   2
loop_
 _symmetry_equiv_pos_site_id
 _symmetry_equiv_pos_as_xyz
  1  'x, y, z'
loop_
 _atom_site_type_symbol
 _atom_site_label
 _atom_site_symmetry_multiplicity
 _atom_site_fract_x
 _atom_site_fract_y
 _atom_site_fract_z
 _atom_site_occupancy
  Tm  Tm0  1  0.543240  0.785951  0.164403  1
  Tm  Tm1  1  0.285951  0.043240  0.335597  1
  Tm  Tm2  1  0.214049  0.456760  0.835597  1
  Tm  Tm3  1  0.956760  0.714049  0.664403  1
  Tm  Tm4  1  0.714049  0.956760  0.664403  1
  Tm  Tm5  1  0.456760  0.214049  0.835597  1
  Tm  Tm6  1  0.785951  0.543240  0.164403  1
  Tm  Tm7  1  0.043240  0.285951  0.335597  1
  Lu  Lu8  1  0.500000  0.500000  0.500000  1
  Lu  Lu9  1  0.000000  0.000000  0.000000  1
  Si  Si10  1  0.634496  0.634496  0.866672  1
  Si  Si11  1  0.134496  0.134496  0.633328  1
  Si  Si12  1  0.865504  0.865504  0.366672  1
  Si  Si13  1  0.365504  0.365504  0.133328  1
  Bi  Bi14  1  0.292744  0.707256  0.500000  1
  Bi  Bi15  1  0.207256  0.792744  0.000000  1
  Bi  Bi16  1  0.707256  0.292744  0.500000  1
  Bi  Bi17  1  0.792744  0.207256  0.000000  1
