# generated using pymatgen
data_Zr2Co3Si4(PRu3)3
_symmetry_space_group_name_H-M   'P 1'
_cell_length_a   9.34271700
_cell_length_b   9.34271702
_cell_length_c   3.81038600
_cell_angle_alpha   90.00000000
_cell_angle_beta   90.00000000
_cell_angle_gamma   120.00000346
_symmetry_Int_Tables_number   1
_chemical_formula_structural   Zr2Co3Si4(PRu3)3
_chemical_formula_sum   'Zr2 Co3 Si4 P3 Ru9'
_cell_volume   288.03547403
_cell_formula_units_Z   1
loop_
 _symmetry_equiv_pos_site_id
 _symmetry_equiv_pos_as_xyz
  1  'x, y, z'
loop_
 _atom_site_type_symbol
 _atom_site_label
 _atom_site_symmetry_multiplicity
 _atom_site_fract_x
 _atom_site_fract_y
 _atom_site_fract_z
 _atom_site_occupancy
  Zr  Zr0  1  0.333333  0.666667  0.000000  1
  Zr  Zr1  1  0.666667  0.333333  0.500000  1
  Co  Co2  1  0.160181  0.276761  0.000000  1
  Co  Co3  1  0.723239  0.883420  0.000000  1
  Co  Co4  1  0.116580  0.839819  0.000000  1
  Si  Si5  1  0.116292  0.399531  0.500000  1
  Si  Si6  1  0.600469  0.716761  0.500000  1
  Si  Si7  1  0.283239  0.883708  0.500000  1
  Si  Si8  1  0.000000  0.000000  0.000000  1
  P  P9  1  0.412630  0.303709  0.000000  1
  P  P10  1  0.696291  0.108921  0.000000  1
  P  P11  1  0.891079  0.587370  0.000000  1
  Ru  Ru12  1  0.428777  0.069436  0.000000  1
  Ru  Ru13  1  0.930564  0.359342  0.000000  1
  Ru  Ru14  1  0.640658  0.571223  0.000000  1
  Ru  Ru15  1  0.386532  0.435288  0.500000  1
  Ru  Ru16  1  0.564712  0.951242  0.500000  1
  Ru  Ru17  1  0.048758  0.613468  0.500000  1
  Ru  Ru18  1  0.204978  0.092276  0.500000  1
  Ru  Ru19  1  0.907724  0.112701  0.500000  1
  Ru  Ru20  1  0.887299  0.795022  0.500000  1
