# generated using pymatgen
data_La15Er(HgRh)4
_symmetry_space_group_name_H-M   'P 1'
_cell_length_a   10.06860261
_cell_length_b   10.09933327
_cell_length_c   10.06860163
_cell_angle_alpha   59.89898534
_cell_angle_beta   60.16808781
_cell_angle_gamma   59.89898754
_symmetry_Int_Tables_number   1
_chemical_formula_structural   La15Er(HgRh)4
_chemical_formula_sum   'La15 Er1 Hg4 Rh4'
_cell_volume   723.76611508
_cell_formula_units_Z   1
loop_
 _symmetry_equiv_pos_site_id
 _symmetry_equiv_pos_as_xyz
  1  'x, y, z'
loop_
 _atom_site_type_symbol
 _atom_site_label
 _atom_site_symmetry_multiplicity
 _atom_site_fract_x
 _atom_site_fract_y
 _atom_site_fract_z
 _atom_site_occupancy
  La  La0  1  0.190191  0.186196  0.814406  1
  La  La1  1  0.436869  0.059407  0.062494  1
  La  La2  1  0.438029  0.061971  0.438029  1
  La  La3  1  0.060059  0.439941  0.060059  1
  La  La4  1  0.650740  0.048504  0.650740  1
  La  La5  1  0.190191  0.809206  0.814406  1
  La  La6  1  0.062494  0.059407  0.436869  1
  La  La7  1  0.814406  0.186196  0.190191  1
  La  La8  1  0.814406  0.809206  0.190191  1
  La  La9  1  0.645810  0.651868  0.050454  1
  La  La10  1  0.650740  0.650017  0.650740  1
  La  La11  1  0.062494  0.441231  0.436869  1
  La  La12  1  0.050454  0.651868  0.645810  1
  La  La13  1  0.809684  0.190316  0.809684  1
  La  La14  1  0.436869  0.441231  0.062494  1
  Er  Er15  1  0.191215  0.808785  0.191215  1
  Hg  Hg16  1  0.415434  0.750278  0.415434  1
  Hg  Hg17  1  0.415880  0.416496  0.751128  1
  Hg  Hg18  1  0.751128  0.416496  0.415880  1
  Hg  Hg19  1  0.415434  0.418856  0.415434  1
  Rh  Rh20  1  0.858274  0.423724  0.858274  1
  Rh  Rh21  1  0.859938  0.859537  0.420988  1
  Rh  Rh22  1  0.420988  0.859537  0.859938  1
  Rh  Rh23  1  0.858274  0.859728  0.858274  1
