# generated using pymatgen
data_ErCuNi3Au
_symmetry_space_group_name_H-M   'P 1'
_cell_length_a   4.93222016
_cell_length_b   4.93219019
_cell_length_c   4.93222100
_cell_angle_alpha   59.99980007
_cell_angle_beta   60.00000106
_cell_angle_gamma   59.99979197
_symmetry_Int_Tables_number   1
_chemical_formula_structural   ErCuNi3Au
_chemical_formula_sum   'Er1 Cu1 Ni3 Au1'
_cell_volume   84.84152449
_cell_formula_units_Z   1
loop_
 _symmetry_equiv_pos_site_id
 _symmetry_equiv_pos_as_xyz
  1  'x, y, z'
loop_
 _atom_site_type_symbol
 _atom_site_label
 _atom_site_symmetry_multiplicity
 _atom_site_fract_x
 _atom_site_fract_y
 _atom_site_fract_z
 _atom_site_occupancy
  Er  Er0  1  0.000679  0.997963  0.000679  1
  Cu  Cu1  1  0.624364  0.126908  0.624364  1
  Ni  Ni2  1  0.624333  0.624853  0.624333  1
  Ni  Ni3  1  0.624333  0.624853  0.126480  1
  Ni  Ni4  1  0.126480  0.624853  0.624333  1
  Au  Au5  1  0.249810  0.250570  0.249810  1
