# generated using pymatgen
data_Tb2PuO6
_symmetry_space_group_name_H-M   'P 1'
_cell_length_a   5.51554500
_cell_length_b   5.71565183
_cell_length_c   8.34336946
_cell_angle_alpha   84.22603444
_cell_angle_beta   90.00000000
_cell_angle_gamma   90.00000000
_symmetry_Int_Tables_number   1
_chemical_formula_structural   Tb2PuO6
_chemical_formula_sum   'Tb4 Pu2 O12'
_cell_volume   261.68973238
_cell_formula_units_Z   2
loop_
 _symmetry_equiv_pos_site_id
 _symmetry_equiv_pos_as_xyz
  1  'x, y, z'
loop_
 _atom_site_type_symbol
 _atom_site_label
 _atom_site_symmetry_multiplicity
 _atom_site_fract_x
 _atom_site_fract_y
 _atom_site_fract_z
 _atom_site_occupancy
  Tb  Tb0  1  0.488806  0.014348  0.367093  1
  Tb  Tb1  1  0.988806  0.985652  0.632907  1
  Tb  Tb2  1  0.017251  0.514343  0.366980  1
  Tb  Tb3  1  0.517251  0.485657  0.633020  1
  Pu  Pu4  1  0.004302  0.250127  0.999678  1
  Pu  Pu5  1  0.504302  0.749873  0.000322  1
  O  O6  1  0.173473  0.201804  0.198904  1
  O  O7  1  0.191921  0.988498  0.893721  1
  O  O8  1  0.750796  0.247260  0.480649  1
  O  O9  1  0.250796  0.752740  0.519351  1
  O  O10  1  0.691921  0.011502  0.106279  1
  O  O11  1  0.673473  0.798196  0.801096  1
  O  O12  1  0.335535  0.701332  0.199899  1
  O  O13  1  0.316371  0.488265  0.894016  1
  O  O14  1  0.755250  0.747116  0.481046  1
  O  O15  1  0.816371  0.511735  0.105984  1
  O  O16  1  0.255250  0.252884  0.518954  1
  O  O17  1  0.835535  0.298668  0.800101  1
