# generated using pymatgen
data_Pa2PdRhPb
_symmetry_space_group_name_H-M   'P 1'
_cell_length_a   3.64839400
_cell_length_b   7.84863989
_cell_length_c   7.84863996
_cell_angle_alpha   90.09180626
_cell_angle_beta   90.00000000
_cell_angle_gamma   90.00000000
_symmetry_Int_Tables_number   1
_chemical_formula_structural   Pa2PdRhPb
_chemical_formula_sum   'Pa4 Pd2 Rh2 Pb2'
_cell_volume   224.74497282
_cell_formula_units_Z   2
loop_
 _symmetry_equiv_pos_site_id
 _symmetry_equiv_pos_as_xyz
  1  'x, y, z'
loop_
 _atom_site_type_symbol
 _atom_site_label
 _atom_site_symmetry_multiplicity
 _atom_site_fract_x
 _atom_site_fract_y
 _atom_site_fract_z
 _atom_site_occupancy
  Pa  Pa0  1  0.500000  0.178843  0.678843  1
  Pa  Pa1  1  0.500000  0.821157  0.321157  1
  Pa  Pa2  1  0.500000  0.333169  0.166831  1
  Pa  Pa3  1  0.500000  0.666831  0.833169  1
  Pd  Pd4  1  0.000000  0.873369  0.626631  1
  Pd  Pd5  1  0.000000  0.126631  0.373369  1
  Rh  Rh6  1  0.000000  0.630343  0.130343  1
  Rh  Rh7  1  0.000000  0.369657  0.869657  1
  Pb  Pb8  1  0.000000  0.000000  0.000000  1
  Pb  Pb9  1  0.000000  0.500000  0.500000  1
