# generated using pymatgen
data_Dy10Y2Co5Hg
_symmetry_space_group_name_H-M   'P 1'
_cell_length_a   8.26000936
_cell_length_b   8.26001000
_cell_length_c   8.26000926
_cell_angle_alpha   107.72262563
_cell_angle_beta   110.01827648
_cell_angle_gamma   110.68750765
_symmetry_Int_Tables_number   1
_chemical_formula_structural   Dy10Y2Co5Hg
_chemical_formula_sum   'Dy10 Y2 Co5 Hg1'
_cell_volume   433.51299106
_cell_formula_units_Z   1
loop_
 _symmetry_equiv_pos_site_id
 _symmetry_equiv_pos_as_xyz
  1  'x, y, z'
loop_
 _atom_site_type_symbol
 _atom_site_label
 _atom_site_symmetry_multiplicity
 _atom_site_fract_x
 _atom_site_fract_y
 _atom_site_fract_z
 _atom_site_occupancy
  Dy  Dy0  1  0.892496  0.707743  0.184753  1
  Dy  Dy1  1  0.522991  0.707743  0.815247  1
  Dy  Dy2  1  0.303590  0.619786  0.316197  1
  Dy  Dy3  1  0.303590  0.987395  0.683803  1
  Dy  Dy4  1  0.696333  0.380795  0.684461  1
  Dy  Dy5  1  0.696333  0.011871  0.315539  1
  Dy  Dy6  1  0.192380  0.208559  0.401131  1
  Dy  Dy7  1  0.807428  0.791249  0.598869  1
  Dy  Dy8  1  0.192380  0.791249  0.983820  1
  Dy  Dy9  1  0.807428  0.208559  0.016180  1
  Y  Y10  1  0.478077  0.292218  0.185859  1
  Y  Y11  1  0.106360  0.292218  0.814141  1
  Co  Co12  1  0.500981  0.614716  0.113736  1
  Co  Co13  1  0.500981  0.387245  0.886264  1
  Co  Co14  1  0.378271  0.000069  0.378202  1
  Co  Co15  1  0.621868  0.000069  0.621798  1
  Co  Co16  1  0.998477  0.998477  0.000000  1
  Hg  Hg17  1  0.000039  0.500039  0.500000  1
