# generated using pymatgen
data_TbLu5Bi2Mo
_symmetry_space_group_name_H-M   'P 1'
_cell_length_a   8.16713500
_cell_length_b   8.14781014
_cell_length_c   4.34453800
_cell_angle_alpha   90.00000000
_cell_angle_beta   90.00000000
_cell_angle_gamma   120.07847692
_symmetry_Int_Tables_number   1
_chemical_formula_structural   TbLu5Bi2Mo
_chemical_formula_sum   'Tb1 Lu5 Bi2 Mo1'
_cell_volume   250.17326096
_cell_formula_units_Z   1
loop_
 _symmetry_equiv_pos_site_id
 _symmetry_equiv_pos_as_xyz
  1  'x, y, z'
loop_
 _atom_site_type_symbol
 _atom_site_label
 _atom_site_symmetry_multiplicity
 _atom_site_fract_x
 _atom_site_fract_y
 _atom_site_fract_z
 _atom_site_occupancy
  Tb  Tb0  1  0.610508  0.000000  0.500000  1
  Lu  Lu1  1  0.385446  0.385849  0.500000  1
  Lu  Lu2  1  0.999597  0.614151  0.500000  1
  Lu  Lu3  1  0.001602  0.234669  0.000000  1
  Lu  Lu4  1  0.766933  0.765331  0.000000  1
  Lu  Lu5  1  0.234032  0.000000  0.000000  1
  Bi  Bi6  1  0.667170  0.335032  0.000000  1
  Bi  Bi7  1  0.332137  0.664968  0.000000  1
  Mo  Mo8  1  0.002574  0.000000  0.500000  1
