# generated using pymatgen
data_TbDyEr2(Al3Rh)6
_symmetry_space_group_name_H-M   'P 1'
_cell_length_a   7.54623801
_cell_length_b   7.54626167
_cell_length_c   9.46240500
_cell_angle_alpha   90.00000000
_cell_angle_beta   90.00000000
_cell_angle_gamma   119.32366380
_symmetry_Int_Tables_number   1
_chemical_formula_structural   TbDyEr2(Al3Rh)6
_chemical_formula_sum   'Tb1 Dy1 Er2 Al18 Rh6'
_cell_volume   469.80125264
_cell_formula_units_Z   1
loop_
 _symmetry_equiv_pos_site_id
 _symmetry_equiv_pos_as_xyz
  1  'x, y, z'
loop_
 _atom_site_type_symbol
 _atom_site_label
 _atom_site_symmetry_multiplicity
 _atom_site_fract_x
 _atom_site_fract_y
 _atom_site_fract_z
 _atom_site_occupancy
  Tb  Tb0  1  0.671590  0.994535  0.750000  1
  Dy  Dy1  1  0.994546  0.671516  0.750000  1
  Er  Er2  1  0.005392  0.328325  0.250000  1
  Er  Er3  1  0.328369  0.005366  0.250000  1
  Al  Al4  1  0.128380  0.128269  0.750000  1
  Al  Al5  1  0.872125  0.872227  0.250000  1
  Al  Al6  1  0.001278  0.335736  0.574419  1
  Al  Al7  1  0.999269  0.664285  0.424481  1
  Al  Al8  1  0.999269  0.664285  0.075519  1
  Al  Al9  1  0.335371  0.001063  0.925567  1
  Al  Al10  1  0.001278  0.335736  0.925581  1
  Al  Al11  1  0.664337  0.999345  0.075538  1
  Al  Al12  1  0.664337  0.999345  0.424462  1
  Al  Al13  1  0.335371  0.001063  0.574433  1
  Al  Al14  1  0.332769  0.332763  0.050967  1
  Al  Al15  1  0.666930  0.666770  0.950573  1
  Al  Al16  1  0.666930  0.666770  0.549427  1
  Al  Al17  1  0.332769  0.332763  0.449033  1
  Al  Al18  1  0.339313  0.549836  0.750000  1
  Al  Al19  1  0.660486  0.449822  0.250000  1
  Al  Al20  1  0.549928  0.339472  0.750000  1
  Al  Al21  1  0.449876  0.660620  0.250000  1
  Rh  Rh22  1  0.671986  0.327783  0.499614  1
  Rh  Rh23  1  0.327599  0.671925  0.499577  1
  Rh  Rh24  1  0.327599  0.671925  0.000423  1
  Rh  Rh25  1  0.671986  0.327783  0.000386  1
  Rh  Rh26  1  0.000458  0.000336  0.499396  1
  Rh  Rh27  1  0.000458  0.000336  0.000604  1
