# generated using pymatgen
data_Tb17Ho2CdIr12
_symmetry_space_group_name_H-M   'P 1'
_cell_length_a   10.92963600
_cell_length_b   10.92963600
_cell_length_c   6.32524300
_cell_angle_alpha   90.00000000
_cell_angle_beta   90.00000000
_cell_angle_gamma   90.00000000
_symmetry_Int_Tables_number   1
_chemical_formula_structural   Tb17Ho2CdIr12
_chemical_formula_sum   'Tb17 Ho2 Cd1 Ir12'
_cell_volume   755.59419310
_cell_formula_units_Z   1
loop_
 _symmetry_equiv_pos_site_id
 _symmetry_equiv_pos_as_xyz
  1  'x, y, z'
loop_
 _atom_site_type_symbol
 _atom_site_label
 _atom_site_symmetry_multiplicity
 _atom_site_fract_x
 _atom_site_fract_y
 _atom_site_fract_z
 _atom_site_occupancy
  Tb  Tb0  1  0.282781  0.084542  0.380149  1
  Tb  Tb1  1  0.291248  0.911493  0.879390  1
  Tb  Tb2  1  0.708752  0.088507  0.879390  1
  Tb  Tb3  1  0.717219  0.915458  0.380149  1
  Tb  Tb4  1  0.588919  0.791567  0.881688  1
  Tb  Tb5  1  0.587534  0.208215  0.378206  1
  Tb  Tb6  1  0.412466  0.791785  0.378206  1
  Tb  Tb7  1  0.411081  0.208433  0.881688  1
  Tb  Tb8  1  0.208215  0.412466  0.621794  1
  Tb  Tb9  1  0.208433  0.588919  0.118312  1
  Tb  Tb10  1  0.791567  0.411081  0.118312  1
  Tb  Tb11  1  0.791785  0.587534  0.621794  1
  Tb  Tb12  1  0.911493  0.708752  0.120610  1
  Tb  Tb13  1  0.915458  0.282781  0.619851  1
  Tb  Tb14  1  0.084542  0.717219  0.619851  1
  Tb  Tb15  1  0.088507  0.291248  0.120610  1
  Tb  Tb16  1  0.000000  0.000000  0.000000  1
  Ho  Ho17  1  0.500000  0.500000  0.000000  1
  Ho  Ho18  1  0.500000  0.500000  0.500000  1
  Cd  Cd19  1  0.000000  0.000000  0.500000  1
  Ir  Ir20  1  0.844138  0.157218  0.242675  1
  Ir  Ir21  1  0.842782  0.844138  0.757325  1
  Ir  Ir22  1  0.157218  0.155862  0.757325  1
  Ir  Ir23  1  0.155862  0.842782  0.242675  1
  Ir  Ir24  1  0.654107  0.347138  0.746989  1
  Ir  Ir25  1  0.652862  0.654107  0.253011  1
  Ir  Ir26  1  0.347138  0.345893  0.253011  1
  Ir  Ir27  1  0.345893  0.652862  0.746989  1
  Ir  Ir28  1  0.500000  0.000000  0.124500  1
  Ir  Ir29  1  0.500000  0.000000  0.619196  1
  Ir  Ir30  1  0.000000  0.500000  0.875500  1
  Ir  Ir31  1  0.000000  0.500000  0.380804  1
