# generated using pymatgen
data_Ba4FeCo(ReN4)2
_symmetry_space_group_name_H-M   'P 1'
_cell_length_a   5.99469200
_cell_length_b   6.60620584
_cell_length_c   7.97998158
_cell_angle_alpha   66.14203268
_cell_angle_beta   90.00000000
_cell_angle_gamma   90.00000000
_symmetry_Int_Tables_number   1
_chemical_formula_structural   Ba4FeCo(ReN4)2
_chemical_formula_sum   'Ba4 Fe1 Co1 Re2 N8'
_cell_volume   289.02057304
_cell_formula_units_Z   1
loop_
 _symmetry_equiv_pos_site_id
 _symmetry_equiv_pos_as_xyz
  1  'x, y, z'
loop_
 _atom_site_type_symbol
 _atom_site_label
 _atom_site_symmetry_multiplicity
 _atom_site_fract_x
 _atom_site_fract_y
 _atom_site_fract_z
 _atom_site_occupancy
  Ba  Ba0  1  0.250000  0.261506  0.050537  1
  Ba  Ba1  1  0.750000  0.734612  0.947763  1
  Ba  Ba2  1  0.750000  0.845469  0.402243  1
  Ba  Ba3  1  0.250000  0.153879  0.598283  1
  Fe  Fe4  1  0.250000  0.642422  0.608524  1
  Co  Co5  1  0.750000  0.357856  0.390412  1
  Re  Re6  1  0.250000  0.683766  0.222306  1
  Re  Re7  1  0.750000  0.313681  0.775595  1
  N  N8  1  0.500849  0.500856  0.729434  1
  N  N9  1  0.000441  0.502429  0.274394  1
  N  N10  1  0.499559  0.502429  0.274394  1
  N  N11  1  0.999151  0.500856  0.729434  1
  N  N12  1  0.750000  0.145355  0.629118  1
  N  N13  1  0.250000  0.853962  0.370353  1
  N  N14  1  0.750000  0.126787  0.015703  1
  N  N15  1  0.250000  0.874134  0.981507  1
