# generated using pymatgen
data_Ba2TmB2ClO6
_symmetry_space_group_name_H-M   'P 1'
_cell_length_a   6.43127936
_cell_length_b   5.31941000
_cell_length_c   11.45536816
_cell_angle_alpha   90.00000000
_cell_angle_beta   96.00578267
_cell_angle_gamma   90.00000000
_symmetry_Int_Tables_number   1
_chemical_formula_structural   Ba2TmB2ClO6
_chemical_formula_sum   'Ba4 Tm2 B4 Cl2 O12'
_cell_volume   389.74417351
_cell_formula_units_Z   2
loop_
 _symmetry_equiv_pos_site_id
 _symmetry_equiv_pos_as_xyz
  1  'x, y, z'
loop_
 _atom_site_type_symbol
 _atom_site_label
 _atom_site_symmetry_multiplicity
 _atom_site_fract_x
 _atom_site_fract_y
 _atom_site_fract_z
 _atom_site_occupancy
  Ba  Ba0  1  0.341631  0.250001  0.077527  1
  Ba  Ba1  1  0.906634  0.750000  0.295569  1
  Ba  Ba2  1  0.093367  0.250001  0.704431  1
  Ba  Ba3  1  0.658368  0.750000  0.922473  1
  Tm  Tm4  1  0.347731  0.250001  0.414277  1
  Tm  Tm5  1  0.652269  0.750000  0.585723  1
  B  B6  1  0.378172  0.750000  0.228778  1
  B  B7  1  0.790407  0.250001  0.429545  1
  B  B8  1  0.209592  0.750000  0.570455  1
  B  B9  1  0.621828  0.250001  0.771222  1
  Cl  Cl10  1  0.850683  0.250001  0.085077  1
  Cl  Cl11  1  0.149316  0.750000  0.914924  1
  O  O12  1  0.522526  0.750000  0.147127  1
  O  O13  1  0.295273  0.526047  0.267095  1
  O  O14  1  0.295273  0.973953  0.267095  1
  O  O15  1  0.993924  0.250001  0.406137  1
  O  O16  1  0.674503  0.029861  0.437865  1
  O  O17  1  0.674503  0.470140  0.437865  1
  O  O18  1  0.325497  0.529860  0.562135  1
  O  O19  1  0.325497  0.970139  0.562135  1
  O  O20  1  0.006075  0.750000  0.593863  1
  O  O21  1  0.704726  0.026048  0.732905  1
  O  O22  1  0.704726  0.473952  0.732905  1
  O  O23  1  0.477474  0.250001  0.852873  1
