# generated using pymatgen
data_Tb4HoMn2Co17P12
_symmetry_space_group_name_H-M   'P 1'
_cell_length_a   12.05144400
_cell_length_b   12.04199075
_cell_length_c   3.67556600
_cell_angle_alpha   90.00000000
_cell_angle_beta   90.00000000
_cell_angle_gamma   119.97405885
_symmetry_Int_Tables_number   1
_chemical_formula_structural   Tb4HoMn2Co17P12
_chemical_formula_sum   'Tb4 Ho1 Mn2 Co17 P12'
_cell_volume   462.06779352
_cell_formula_units_Z   1
loop_
 _symmetry_equiv_pos_site_id
 _symmetry_equiv_pos_as_xyz
  1  'x, y, z'
loop_
 _atom_site_type_symbol
 _atom_site_label
 _atom_site_symmetry_multiplicity
 _atom_site_fract_x
 _atom_site_fract_y
 _atom_site_fract_z
 _atom_site_occupancy
  Tb  Tb0  1  0.666545  0.333196  0.000000  1
  Tb  Tb1  1  0.333455  0.666653  0.000000  1
  Tb  Tb2  1  0.813389  0.814070  0.500000  1
  Tb  Tb3  1  0.186611  0.000680  0.500000  1
  Ho  Ho4  1  0.000000  0.188238  0.500000  1
  Mn  Mn5  1  0.442850  0.442669  0.000000  1
  Mn  Mn6  1  0.557150  0.999818  0.000000  1
  Co  Co7  1  0.875591  0.359064  0.500000  1
  Co  Co8  1  0.642998  0.517431  0.500000  1
  Co  Co9  1  0.482831  0.125435  0.500000  1
  Co  Co10  1  0.357002  0.874433  0.500000  1
  Co  Co11  1  0.517169  0.642603  0.500000  1
  Co  Co12  1  0.124409  0.483473  0.500000  1
  Co  Co13  1  0.000000  0.552046  0.000000  1
  Co  Co14  1  0.801533  0.179275  0.000000  1
  Co  Co15  1  0.823183  0.622160  0.000000  1
  Co  Co16  1  0.376649  0.198762  0.000000  1
  Co  Co17  1  0.176817  0.798977  0.000000  1
  Co  Co18  1  0.623351  0.822113  0.000000  1
  Co  Co19  1  0.198467  0.377743  0.000000  1
  Co  Co20  1  0.283103  0.283720  0.500000  1
  Co  Co21  1  0.716897  0.000617  0.500000  1
  Co  Co22  1  0.000000  0.714818  0.500000  1
  Co  Co23  1  0.000000  0.999483  0.000000  1
  P  P24  1  0.686153  0.166001  0.500000  1
  P  P25  1  0.834911  0.520484  0.500000  1
  P  P26  1  0.479086  0.313629  0.500000  1
  P  P27  1  0.165089  0.685574  0.500000  1
  P  P28  1  0.520914  0.834543  0.500000  1
  P  P29  1  0.313847  0.479848  0.500000  1
  P  P30  1  0.179821  0.181171  0.000000  1
  P  P31  1  0.820179  0.001348  0.000000  1
  P  P32  1  0.000000  0.818307  0.000000  1
  P  P33  1  0.634901  0.634362  0.000000  1
  P  P34  1  0.365099  0.999461  0.000000  1
  P  P35  1  0.000000  0.367795  0.000000  1
