# generated using pymatgen
data_Zr3Tc3GeP2
_symmetry_space_group_name_H-M   'P 1'
_cell_length_a   6.89947100
_cell_length_b   6.89947284
_cell_length_c   3.51341200
_cell_angle_alpha   90.00000000
_cell_angle_beta   90.00000000
_cell_angle_gamma   119.99999595
_symmetry_Int_Tables_number   1
_chemical_formula_structural   Zr3Tc3GeP2
_chemical_formula_sum   'Zr3 Tc3 Ge1 P2'
_cell_volume   144.84097277
_cell_formula_units_Z   1
loop_
 _symmetry_equiv_pos_site_id
 _symmetry_equiv_pos_as_xyz
  1  'x, y, z'
loop_
 _atom_site_type_symbol
 _atom_site_label
 _atom_site_symmetry_multiplicity
 _atom_site_fract_x
 _atom_site_fract_y
 _atom_site_fract_z
 _atom_site_occupancy
  Zr  Zr0  1  0.399947  0.408108  0.500000  1
  Zr  Zr1  1  0.591892  0.991840  0.500000  1
  Zr  Zr2  1  0.008160  0.600053  0.500000  1
  Tc  Tc3  1  0.006225  0.246030  0.000000  1
  Tc  Tc4  1  0.239805  0.993775  0.000000  1
  Tc  Tc5  1  0.753970  0.760195  0.000000  1
  Ge  Ge6  1  0.666667  0.333333  0.000000  1
  P  P7  1  0.333333  0.666667  0.000000  1
  P  P8  1  0.000000  0.000000  0.500000  1
