# generated using pymatgen
data_LiNd4Mn2FeO12
_symmetry_space_group_name_H-M   'P 1'
_cell_length_a   5.42633577
_cell_length_b   5.59064249
_cell_length_c   7.76276900
_cell_angle_alpha   90.18474769
_cell_angle_beta   90.13959470
_cell_angle_gamma   90.29077744
_symmetry_Int_Tables_number   1
_chemical_formula_structural   LiNd4Mn2FeO12
_chemical_formula_sum   'Li1 Nd4 Mn2 Fe1 O12'
_cell_volume   235.49185492
_cell_formula_units_Z   1
loop_
 _symmetry_equiv_pos_site_id
 _symmetry_equiv_pos_as_xyz
  1  'x, y, z'
loop_
 _atom_site_type_symbol
 _atom_site_label
 _atom_site_symmetry_multiplicity
 _atom_site_fract_x
 _atom_site_fract_y
 _atom_site_fract_z
 _atom_site_occupancy
  Li  Li0  1  0.000000  0.500000  0.500000  1
  Nd  Nd1  1  0.012942  0.939329  0.736976  1
  Nd  Nd2  1  0.512096  0.548818  0.261294  1
  Nd  Nd3  1  0.487904  0.451182  0.738706  1
  Nd  Nd4  1  0.987058  0.060671  0.263024  1
  Mn  Mn5  1  0.500000  0.000000  0.500000  1
  Mn  Mn6  1  0.000000  0.500000  0.000000  1
  Fe  Fe7  1  0.500000  0.000000  0.000000  1
  O  O8  1  0.693687  0.281901  0.459198  1
  O  O9  1  0.218022  0.193579  0.539152  1
  O  O10  1  0.794418  0.786116  0.049341  1
  O  O11  1  0.286163  0.707224  0.952568  1
  O  O12  1  0.306313  0.718099  0.540802  1
  O  O13  1  0.781978  0.806421  0.460848  1
  O  O14  1  0.205582  0.213884  0.950659  1
  O  O15  1  0.713837  0.292776  0.047432  1
  O  O16  1  0.084978  0.479274  0.236420  1
  O  O17  1  0.580816  0.019414  0.747424  1
  O  O18  1  0.419184  0.980586  0.252576  1
  O  O19  1  0.915022  0.520726  0.763580  1
