# generated using pymatgen
data_NaVF5
_symmetry_space_group_name_H-M   'P 1'
_cell_length_a   5.65184504
_cell_length_b   5.65184479
_cell_length_c   5.65184535
_cell_angle_alpha   139.75190235
_cell_angle_beta   107.30570815
_cell_angle_gamma   86.51863157
_symmetry_Int_Tables_number   1
_chemical_formula_structural   NaVF5
_chemical_formula_sum   'Na1 V1 F5'
_cell_volume   107.24097819
_cell_formula_units_Z   1
loop_
 _symmetry_equiv_pos_site_id
 _symmetry_equiv_pos_as_xyz
  1  'x, y, z'
loop_
 _atom_site_type_symbol
 _atom_site_label
 _atom_site_symmetry_multiplicity
 _atom_site_fract_x
 _atom_site_fract_y
 _atom_site_fract_z
 _atom_site_occupancy
  Na  Na0  1  0.000000  0.000000  0.000000  1
  V  V1  1  0.500000  0.500000  0.000000  1
  F  F2  1  0.781684  0.500000  0.281684  1
  F  F3  1  0.218316  0.500000  0.718316  1
  F  F4  1  0.280118  0.280118  0.000000  1
  F  F5  1  0.719882  0.719882  0.000000  1
  F  F6  1  0.500000  0.000000  0.500000  1
