# generated using pymatgen
data_La4Pt6O19
_symmetry_space_group_name_H-M   'P 1'
_cell_length_a   7.93714682
_cell_length_b   7.93714729
_cell_length_c   7.93714700
_cell_angle_alpha   109.47121480
_cell_angle_beta   109.47121599
_cell_angle_gamma   109.47122408
_symmetry_Int_Tables_number   1
_chemical_formula_structural   La4Pt6O19
_chemical_formula_sum   'La4 Pt6 O19'
_cell_volume   384.92083926
_cell_formula_units_Z   1
loop_
 _symmetry_equiv_pos_site_id
 _symmetry_equiv_pos_as_xyz
  1  'x, y, z'
loop_
 _atom_site_type_symbol
 _atom_site_label
 _atom_site_symmetry_multiplicity
 _atom_site_fract_x
 _atom_site_fract_y
 _atom_site_fract_z
 _atom_site_occupancy
  La  La0  1  0.000000  0.000000  0.317241  1
  La  La1  1  0.000000  0.317241  0.000000  1
  La  La2  1  0.682759  0.682759  0.682759  1
  La  La3  1  0.317241  0.000000  0.000000  1
  Pt  Pt4  1  0.340820  0.500000  0.840820  1
  Pt  Pt5  1  0.840820  0.340820  0.500000  1
  Pt  Pt6  1  0.500000  0.159180  0.659180  1
  Pt  Pt7  1  0.159180  0.659180  0.500000  1
  Pt  Pt8  1  0.500000  0.840820  0.340820  1
  Pt  Pt9  1  0.659180  0.500000  0.159180  1
  O  O10  1  0.340425  0.000000  0.340425  1
  O  O11  1  0.340425  0.340425  0.000000  1
  O  O12  1  0.000000  0.659575  0.659575  1
  O  O13  1  0.659575  0.659575  0.000000  1
  O  O14  1  0.000000  0.340425  0.340425  1
  O  O15  1  0.659575  0.000000  0.659575  1
  O  O16  1  0.000000  0.000000  0.000000  1
  O  O17  1  0.352536  0.313336  0.608993  1
  O  O18  1  0.039201  0.295656  0.686664  1
  O  O19  1  0.743544  0.391007  0.704344  1
  O  O20  1  0.391007  0.704344  0.743544  1
  O  O21  1  0.256456  0.960799  0.647464  1
  O  O22  1  0.608993  0.352536  0.313336  1
  O  O23  1  0.313336  0.608993  0.352536  1
  O  O24  1  0.686664  0.039201  0.295656  1
  O  O25  1  0.960799  0.647464  0.256456  1
  O  O26  1  0.704344  0.743544  0.391007  1
  O  O27  1  0.647464  0.256456  0.960799  1
  O  O28  1  0.295656  0.686664  0.039201  1
