# generated using pymatgen
data_Tm6Zr7Al9Os7
_symmetry_space_group_name_H-M   'P 1'
_cell_length_a   9.27067922
_cell_length_b   9.27067892
_cell_length_c   9.27067900
_cell_angle_alpha   59.53274711
_cell_angle_beta   59.53274103
_cell_angle_gamma   59.53274746
_symmetry_Int_Tables_number   1
_chemical_formula_structural   Tm6Zr7Al9Os7
_chemical_formula_sum   'Tm6 Zr7 Al9 Os7'
_cell_volume   557.41773959
_cell_formula_units_Z   1
loop_
 _symmetry_equiv_pos_site_id
 _symmetry_equiv_pos_as_xyz
  1  'x, y, z'
loop_
 _atom_site_type_symbol
 _atom_site_label
 _atom_site_symmetry_multiplicity
 _atom_site_fract_x
 _atom_site_fract_y
 _atom_site_fract_z
 _atom_site_occupancy
  Tm  Tm0  1  0.697191  0.697191  0.304309  1
  Tm  Tm1  1  0.300507  0.707020  0.300507  1
  Tm  Tm2  1  0.707020  0.300507  0.300507  1
  Tm  Tm3  1  0.300507  0.300507  0.707020  1
  Tm  Tm4  1  0.697191  0.304309  0.697191  1
  Tm  Tm5  1  0.304309  0.697191  0.697191  1
  Zr  Zr6  1  0.881407  0.881407  0.364290  1
  Zr  Zr7  1  0.881407  0.364290  0.881407  1
  Zr  Zr8  1  0.364290  0.881407  0.881407  1
  Zr  Zr9  1  0.876161  0.876161  0.876161  1
  Zr  Zr10  1  0.124131  0.124131  0.629005  1
  Zr  Zr11  1  0.124131  0.629005  0.124131  1
  Zr  Zr12  1  0.629005  0.124131  0.124131  1
  Al  Al13  1  0.118950  0.118950  0.118950  1
  Al  Al14  1  0.665546  0.665546  0.001728  1
  Al  Al15  1  0.665546  0.001728  0.665546  1
  Al  Al16  1  0.001728  0.665546  0.665546  1
  Al  Al17  1  0.667488  0.667488  0.667488  1
  Al  Al18  1  0.328230  0.328230  0.002717  1
  Al  Al19  1  0.328230  0.002717  0.328230  1
  Al  Al20  1  0.002717  0.328230  0.328230  1
  Al  Al21  1  0.336518  0.336518  0.336518  1
  Os  Os22  1  0.998470  0.998470  0.998470  1
  Os  Os23  1  0.000945  0.000945  0.498994  1
  Os  Os24  1  0.499714  0.999008  0.499714  1
  Os  Os25  1  0.999008  0.499714  0.499714  1
  Os  Os26  1  0.499714  0.499714  0.999008  1
  Os  Os27  1  0.000945  0.498994  0.000945  1
  Os  Os28  1  0.498994  0.000945  0.000945  1
