# generated using pymatgen
data_DyHo5(Lu2Si3)2
_symmetry_space_group_name_H-M   'P 1'
_cell_length_a   8.35161900
_cell_length_b   8.35315197
_cell_length_c   6.23119600
_cell_angle_alpha   90.00000000
_cell_angle_beta   90.00000000
_cell_angle_gamma   119.99393334
_symmetry_Int_Tables_number   1
_chemical_formula_structural   DyHo5(Lu2Si3)2
_chemical_formula_sum   'Dy1 Ho5 Lu4 Si6'
_cell_volume   376.48670651
_cell_formula_units_Z   1
loop_
 _symmetry_equiv_pos_site_id
 _symmetry_equiv_pos_as_xyz
  1  'x, y, z'
loop_
 _atom_site_type_symbol
 _atom_site_label
 _atom_site_symmetry_multiplicity
 _atom_site_fract_x
 _atom_site_fract_y
 _atom_site_fract_z
 _atom_site_occupancy
  Dy  Dy0  1  0.756912  0.000000  0.750000  1
  Ho  Ho1  1  0.756850  0.756643  0.250000  1
  Ho  Ho2  1  0.000207  0.243357  0.250000  1
  Ho  Ho3  1  0.999899  0.756680  0.750000  1
  Ho  Ho4  1  0.243219  0.243320  0.750000  1
  Ho  Ho5  1  0.243091  0.000000  0.250000  1
  Lu  Lu6  1  0.666667  0.333423  0.000048  1
  Lu  Lu7  1  0.333243  0.666577  0.499952  1
  Lu  Lu8  1  0.333243  0.666577  0.000048  1
  Lu  Lu9  1  0.666667  0.333423  0.499952  1
  Si  Si10  1  0.395585  0.000000  0.750000  1
  Si  Si11  1  0.395701  0.395688  0.250000  1
  Si  Si12  1  0.000013  0.604312  0.250000  1
  Si  Si13  1  0.000195  0.395959  0.750000  1
  Si  Si14  1  0.604236  0.604041  0.750000  1
  Si  Si15  1  0.604273  0.000000  0.250000  1
