# generated using pymatgen
data_Sc22Tc4HgOs3
_symmetry_space_group_name_H-M   'P 1'
_cell_length_a   9.59937923
_cell_length_b   9.49697870
_cell_length_c   9.59938011
_cell_angle_alpha   60.40558659
_cell_angle_beta   59.40169825
_cell_angle_gamma   60.40559322
_symmetry_Int_Tables_number   1
_chemical_formula_structural   Sc22Tc4HgOs3
_chemical_formula_sum   'Sc22 Tc4 Hg1 Os3'
_cell_volume   619.67863504
_cell_formula_units_Z   1
loop_
 _symmetry_equiv_pos_site_id
 _symmetry_equiv_pos_as_xyz
  1  'x, y, z'
loop_
 _atom_site_type_symbol
 _atom_site_label
 _atom_site_symmetry_multiplicity
 _atom_site_fract_x
 _atom_site_fract_y
 _atom_site_fract_z
 _atom_site_occupancy
  Sc  Sc0  1  0.834757  0.858792  0.834757  1
  Sc  Sc1  1  0.530870  0.154996  0.154892  1
  Sc  Sc2  1  0.154892  0.154996  0.530870  1
  Sc  Sc3  1  0.165009  0.526912  0.165009  1
  Sc  Sc4  1  0.845108  0.845004  0.469130  1
  Sc  Sc5  1  0.834991  0.473088  0.834991  1
  Sc  Sc6  1  0.469130  0.845004  0.845108  1
  Sc  Sc7  1  0.165243  0.141208  0.165243  1
  Sc  Sc8  1  0.197043  0.802915  0.197043  1
  Sc  Sc9  1  0.198302  0.805117  0.801768  1
  Sc  Sc10  1  0.801698  0.194883  0.198232  1
  Sc  Sc11  1  0.801768  0.805117  0.198302  1
  Sc  Sc12  1  0.198232  0.194883  0.801698  1
  Sc  Sc13  1  0.802957  0.197085  0.802957  1
  Sc  Sc14  1  0.385932  0.376693  0.385932  1
  Sc  Sc15  1  0.153109  0.623239  0.602273  1
  Sc  Sc16  1  0.614130  0.150823  0.614130  1
  Sc  Sc17  1  0.602273  0.623239  0.153109  1
  Sc  Sc18  1  0.385870  0.849177  0.385870  1
  Sc  Sc19  1  0.397727  0.376761  0.846891  1
  Sc  Sc20  1  0.846891  0.376761  0.397727  1
  Sc  Sc21  1  0.614068  0.623307  0.614068  1
  Tc  Tc22  1  0.500000  0.500000  0.000000  1
  Tc  Tc23  1  0.500000  0.000000  0.500000  1
  Tc  Tc24  1  0.000000  0.500000  0.500000  1
  Tc  Tc25  1  0.000000  0.000000  0.000000  1
  Hg  Hg26  1  0.000000  0.500000  0.000000  1
  Os  Os27  1  0.000000  0.000000  0.500000  1
  Os  Os28  1  0.500000  0.000000  0.000000  1
  Os  Os29  1  0.500000  0.500000  0.500000  1
