# generated using pymatgen
data_BaBeH4
_symmetry_space_group_name_H-M   'P 1'
_cell_length_a   4.80746500
_cell_length_b   4.82951987
_cell_length_c   6.69849545
_cell_angle_alpha   89.81816217
_cell_angle_beta   90.00000000
_cell_angle_gamma   90.00000000
_symmetry_Int_Tables_number   1
_chemical_formula_structural   BaBeH4
_chemical_formula_sum   'Ba2 Be2 H8'
_cell_volume   155.52319419
_cell_formula_units_Z   2
loop_
 _symmetry_equiv_pos_site_id
 _symmetry_equiv_pos_as_xyz
  1  'x, y, z'
loop_
 _atom_site_type_symbol
 _atom_site_label
 _atom_site_symmetry_multiplicity
 _atom_site_fract_x
 _atom_site_fract_y
 _atom_site_fract_z
 _atom_site_occupancy
  Ba  Ba0  1  0.179590  0.750705  0.249783  1
  Ba  Ba1  1  0.679590  0.249295  0.750217  1
  Be  Be2  1  0.681458  0.247166  0.250225  1
  Be  Be3  1  0.181458  0.752834  0.749775  1
  H  H4  1  0.437078  0.252380  0.126587  1
  H  H5  1  0.937078  0.747620  0.873413  1
  H  H6  1  0.680684  0.003797  0.374527  1
  H  H7  1  0.180684  0.996203  0.625473  1
  H  H8  1  0.687975  0.487846  0.375435  1
  H  H9  1  0.187975  0.512154  0.624565  1
  H  H10  1  0.923827  0.242786  0.124771  1
  H  H11  1  0.423827  0.757214  0.875229  1
