# generated using pymatgen
data_Li4CePr(ThSi3)2
_symmetry_space_group_name_H-M   'P 1'
_cell_length_a   9.43943103
_cell_length_b   9.43943057
_cell_length_c   6.76525900
_cell_angle_alpha   90.00000000
_cell_angle_beta   90.00000000
_cell_angle_gamma   152.86786891
_symmetry_Int_Tables_number   1
_chemical_formula_structural   Li4CePr(ThSi3)2
_chemical_formula_sum   'Li4 Ce1 Pr1 Th2 Si6'
_cell_volume   274.90513118
_cell_formula_units_Z   1
loop_
 _symmetry_equiv_pos_site_id
 _symmetry_equiv_pos_as_xyz
  1  'x, y, z'
loop_
 _atom_site_type_symbol
 _atom_site_label
 _atom_site_symmetry_multiplicity
 _atom_site_fract_x
 _atom_site_fract_y
 _atom_site_fract_z
 _atom_site_occupancy
  Li  Li0  1  0.811191  0.188809  0.562479  1
  Li  Li1  1  0.188670  0.811330  0.437322  1
  Li  Li2  1  0.188670  0.811330  0.062678  1
  Li  Li3  1  0.811191  0.188809  0.937521  1
  Ce  Ce4  1  0.656756  0.343244  0.750000  1
  Pr  Pr5  1  0.343534  0.656466  0.250000  1
  Th  Th6  1  0.551139  0.448861  0.250000  1
  Th  Th7  1  0.449816  0.550184  0.750000  1
  Si  Si8  1  0.941545  0.058455  0.069586  1
  Si  Si9  1  0.060265  0.939735  0.927492  1
  Si  Si10  1  0.060265  0.939735  0.572508  1
  Si  Si11  1  0.941545  0.058455  0.430414  1
  Si  Si12  1  0.716876  0.283124  0.250000  1
  Si  Si13  1  0.278535  0.721465  0.750000  1
