# generated using pymatgen
data_Dy3Lu5Ti11Si16Mo
_symmetry_space_group_name_H-M   'P 1'
_cell_length_a   6.99566514
_cell_length_b   6.99859290
_cell_length_c   12.85487190
_cell_angle_alpha   90.03485996
_cell_angle_beta   89.93444358
_cell_angle_gamma   90.03150975
_symmetry_Int_Tables_number   1
_chemical_formula_structural   Dy3Lu5Ti11Si16Mo
_chemical_formula_sum   'Dy3 Lu5 Ti11 Si16 Mo1'
_cell_volume   629.37149269
_cell_formula_units_Z   1
loop_
 _symmetry_equiv_pos_site_id
 _symmetry_equiv_pos_as_xyz
  1  'x, y, z'
loop_
 _atom_site_type_symbol
 _atom_site_label
 _atom_site_symmetry_multiplicity
 _atom_site_fract_x
 _atom_site_fract_y
 _atom_site_fract_z
 _atom_site_occupancy
  Dy  Dy0  1  0.503541  0.160594  0.217250  1
  Dy  Dy1  1  0.498600  0.839797  0.715835  1
  Dy  Dy2  1  0.341128  0.001883  0.467288  1
  Lu  Lu3  1  0.997863  0.659283  0.032668  1
  Lu  Lu4  1  0.000102  0.342607  0.532766  1
  Lu  Lu5  1  0.659789  0.997722  0.967234  1
  Lu  Lu6  1  0.159600  0.501758  0.782662  1
  Lu  Lu7  1  0.840805  0.500352  0.284458  1
  Ti  Ti8  1  0.348056  0.506807  0.375483  1
  Ti  Ti9  1  0.846915  0.991080  0.376450  1
  Ti  Ti10  1  0.006517  0.151324  0.123809  1
  Ti  Ti11  1  0.992042  0.846489  0.623835  1
  Ti  Ti12  1  0.508025  0.348302  0.624919  1
  Ti  Ti13  1  0.150619  0.007555  0.876083  1
  Ti  Ti14  1  0.826765  0.173161  0.749781  1
  Ti  Ti15  1  0.171746  0.825729  0.250199  1
  Ti  Ti16  1  0.326572  0.327414  0.000006  1
  Ti  Ti17  1  0.493494  0.650966  0.126093  1
  Ti  Ti18  1  0.651307  0.493975  0.873831  1
  Si  Si19  1  0.045358  0.706642  0.435088  1
  Si  Si20  1  0.953327  0.293472  0.934788  1
  Si  Si21  1  0.710624  0.047984  0.564742  1
  Si  Si22  1  0.205287  0.455342  0.184995  1
  Si  Si23  1  0.794438  0.545749  0.684616  1
  Si  Si24  1  0.453531  0.208198  0.815555  1
  Si  Si25  1  0.548159  0.790493  0.315211  1
  Si  Si26  1  0.292081  0.952170  0.064583  1
  Si  Si27  1  0.798711  0.866790  0.183263  1
  Si  Si28  1  0.296353  0.627939  0.566315  1
  Si  Si29  1  0.704384  0.369679  0.065791  1
  Si  Si30  1  0.632465  0.299792  0.433771  1
  Si  Si31  1  0.367961  0.702611  0.933635  1
  Si  Si32  1  0.128270  0.204288  0.316104  1
  Si  Si33  1  0.201112  0.132976  0.683867  1
  Si  Si34  1  0.869993  0.796671  0.817169  1
  Mo  Mo35  1  0.674457  0.672405  0.499853  1
