# generated using pymatgen
data_YbEu2InIrPd
_symmetry_space_group_name_H-M   'P 1'
_cell_length_a   4.46127700
_cell_length_b   7.45564900
_cell_length_c   8.74615400
_cell_angle_alpha   90.00000000
_cell_angle_beta   90.00000000
_cell_angle_gamma   90.00000000
_symmetry_Int_Tables_number   1
_chemical_formula_structural   YbEu2InIrPd
_chemical_formula_sum   'Yb2 Eu4 In2 Ir2 Pd2'
_cell_volume   290.91208523
_cell_formula_units_Z   2
loop_
 _symmetry_equiv_pos_site_id
 _symmetry_equiv_pos_as_xyz
  1  'x, y, z'
loop_
 _atom_site_type_symbol
 _atom_site_label
 _atom_site_symmetry_multiplicity
 _atom_site_fract_x
 _atom_site_fract_y
 _atom_site_fract_z
 _atom_site_occupancy
  Yb  Yb0  1  0.250000  0.138929  0.939695  1
  Yb  Yb1  1  0.750000  0.361071  0.439695  1
  Eu  Eu2  1  0.250000  0.531964  0.171901  1
  Eu  Eu3  1  0.750000  0.466546  0.820733  1
  Eu  Eu4  1  0.250000  0.033454  0.320733  1
  Eu  Eu5  1  0.750000  0.968036  0.671901  1
  In  In6  1  0.250000  0.641264  0.566596  1
  In  In7  1  0.750000  0.858736  0.066596  1
  Ir  Ir8  1  0.750000  0.235965  0.124316  1
  Ir  Ir9  1  0.250000  0.264035  0.624316  1
  Pd  Pd10  1  0.750000  0.737761  0.376760  1
  Pd  Pd11  1  0.250000  0.762239  0.876760  1
