# generated using pymatgen
data_Sm2Tc2B6Os
_symmetry_space_group_name_H-M   'P 1'
_cell_length_a   6.26891970
_cell_length_b   6.26891864
_cell_length_c   7.52727202
_cell_angle_alpha   89.35502917
_cell_angle_beta   89.35501295
_cell_angle_gamma   114.91396455
_symmetry_Int_Tables_number   1
_chemical_formula_structural   Sm2Tc2B6Os
_chemical_formula_sum   'Sm4 Tc4 B12 Os2'
_cell_volume   268.22981795
_cell_formula_units_Z   2
loop_
 _symmetry_equiv_pos_site_id
 _symmetry_equiv_pos_as_xyz
  1  'x, y, z'
loop_
 _atom_site_type_symbol
 _atom_site_label
 _atom_site_symmetry_multiplicity
 _atom_site_fract_x
 _atom_site_fract_y
 _atom_site_fract_z
 _atom_site_occupancy
  Sm  Sm0  1  0.441461  0.095503  0.174918  1
  Sm  Sm1  1  0.904497  0.558539  0.325082  1
  Sm  Sm2  1  0.561247  0.905284  0.824574  1
  Sm  Sm3  1  0.094716  0.438753  0.675426  1
  Tc  Tc4  1  0.199859  0.011212  0.585772  1
  Tc  Tc5  1  0.988788  0.800141  0.914228  1
  Tc  Tc6  1  0.413125  0.586875  0.250000  1
  Tc  Tc7  1  0.585152  0.414848  0.750000  1
  B  B8  1  0.149518  0.239928  0.368499  1
  B  B9  1  0.760072  0.850482  0.131501  1
  B  B10  1  0.850460  0.759129  0.631320  1
  B  B11  1  0.240871  0.149540  0.868680  1
  B  B12  1  0.161752  0.587464  0.018278  1
  B  B13  1  0.412536  0.838248  0.481722  1
  B  B14  1  0.840021  0.414534  0.981384  1
  B  B15  1  0.585466  0.159979  0.518616  1
  B  B16  1  0.350427  0.444683  0.965356  1
  B  B17  1  0.555317  0.649573  0.534644  1
  B  B18  1  0.650216  0.557452  0.035044  1
  B  B19  1  0.442548  0.349784  0.464956  1
  Os  Os20  1  0.800315  0.988365  0.413457  1
  Os  Os21  1  0.011635  0.199685  0.086543  1
