# generated using pymatgen
data_Ba2TcPtBr12
_symmetry_space_group_name_H-M   'P 1'
_cell_length_a   7.00316229
_cell_length_b   7.09128714
_cell_length_c   11.55924400
_cell_angle_alpha   86.80455049
_cell_angle_beta   87.06212466
_cell_angle_gamma   70.52324159
_symmetry_Int_Tables_number   1
_chemical_formula_structural   Ba2TcPtBr12
_chemical_formula_sum   'Ba2 Tc1 Pt1 Br12'
_cell_volume   540.03279782
_cell_formula_units_Z   1
loop_
 _symmetry_equiv_pos_site_id
 _symmetry_equiv_pos_as_xyz
  1  'x, y, z'
loop_
 _atom_site_type_symbol
 _atom_site_label
 _atom_site_symmetry_multiplicity
 _atom_site_fract_x
 _atom_site_fract_y
 _atom_site_fract_z
 _atom_site_occupancy
  Ba  Ba0  1  0.011355  0.999902  0.749999  1
  Ba  Ba1  1  0.988645  0.000098  0.250001  1
  Tc  Tc2  1  0.000000  0.500000  0.000000  1
  Pt  Pt3  1  0.500000  0.000000  0.500000  1
  Br  Br4  1  0.404970  0.719088  0.599469  1
  Br  Br5  1  0.595030  0.280912  0.400531  1
  Br  Br6  1  0.286635  0.586597  0.895799  1
  Br  Br7  1  0.713365  0.413403  0.104201  1
  Br  Br8  1  0.502244  0.140369  0.694555  1
  Br  Br9  1  0.497756  0.859631  0.305445  1
  Br  Br10  1  0.852406  0.490241  0.805297  1
  Br  Br11  1  0.147594  0.509759  0.194703  1
  Br  Br12  1  0.795801  0.872780  0.006236  1
  Br  Br13  1  0.204199  0.127220  0.993764  1
  Br  Br14  1  0.130858  0.202764  0.487212  1
  Br  Br15  1  0.869142  0.797236  0.512788  1
