# generated using pymatgen
data_Na16TiSnSb8
_symmetry_space_group_name_H-M   'P 1'
_cell_length_a   10.45864088
_cell_length_b   10.45864366
_cell_length_c   10.45862921
_cell_angle_alpha   60.22858202
_cell_angle_beta   60.22854852
_cell_angle_gamma   60.22854561
_symmetry_Int_Tables_number   1
_chemical_formula_structural   Na16TiSnSb8
_chemical_formula_sum   'Na16 Ti1 Sn1 Sb8'
_cell_volume   813.11474963
_cell_formula_units_Z   1
loop_
 _symmetry_equiv_pos_site_id
 _symmetry_equiv_pos_as_xyz
  1  'x, y, z'
loop_
 _atom_site_type_symbol
 _atom_site_label
 _atom_site_symmetry_multiplicity
 _atom_site_fract_x
 _atom_site_fract_y
 _atom_site_fract_z
 _atom_site_occupancy
  Na  Na0  1  0.623976  0.127931  0.623976  1
  Na  Na1  1  0.623976  0.623976  0.127931  1
  Na  Na2  1  0.127931  0.623976  0.623976  1
  Na  Na3  1  0.624009  0.624009  0.624008  1
  Na  Na4  1  0.025314  0.025314  0.474709  1
  Na  Na5  1  0.768550  0.231331  0.231331  1
  Na  Na6  1  0.231346  0.768758  0.768758  1
  Na  Na7  1  0.768757  0.768757  0.231346  1
  Na  Na8  1  0.768758  0.231346  0.768757  1
  Na  Na9  1  0.231331  0.768550  0.231331  1
  Na  Na10  1  0.474749  0.025115  0.474749  1
  Na  Na11  1  0.474710  0.025313  0.025314  1
  Na  Na12  1  0.025113  0.474751  0.474752  1
  Na  Na13  1  0.025313  0.474709  0.025315  1
  Na  Na14  1  0.231331  0.231331  0.768549  1
  Na  Na15  1  0.474753  0.474752  0.025112  1
  Ti  Ti16  1  0.499917  0.499917  0.499918  1
  Sn  Sn17  1  0.749820  0.749820  0.749820  1
  Sb  Sb18  1  0.413819  0.862120  0.862120  1
  Sb  Sb19  1  0.862527  0.862527  0.862527  1
  Sb  Sb20  1  0.818886  0.393608  0.393609  1
  Sb  Sb21  1  0.393656  0.393656  0.393656  1
  Sb  Sb22  1  0.393608  0.393608  0.818887  1
  Sb  Sb23  1  0.862120  0.413820  0.862120  1
  Sb  Sb24  1  0.862120  0.862120  0.413819  1
  Sb  Sb25  1  0.393608  0.818886  0.393608  1
