# generated using pymatgen
data_Yb3ScBeOs7
_symmetry_space_group_name_H-M   'P 1'
_cell_length_a   5.22956700
_cell_length_b   5.23606031
_cell_length_c   8.71523600
_cell_angle_alpha   89.67298053
_cell_angle_beta   90.00000000
_cell_angle_gamma   119.95897954
_symmetry_Int_Tables_number   1
_chemical_formula_structural   Yb3ScBeOs7
_chemical_formula_sum   'Yb3 Sc1 Be1 Os7'
_cell_volume   206.75218025
_cell_formula_units_Z   1
loop_
 _symmetry_equiv_pos_site_id
 _symmetry_equiv_pos_as_xyz
  1  'x, y, z'
loop_
 _atom_site_type_symbol
 _atom_site_label
 _atom_site_symmetry_multiplicity
 _atom_site_fract_x
 _atom_site_fract_y
 _atom_site_fract_z
 _atom_site_occupancy
  Yb  Yb0  1  0.329163  0.658327  0.438996  1
  Yb  Yb1  1  0.666229  0.332457  0.561828  1
  Yb  Yb2  1  0.668234  0.336468  0.933454  1
  Sc  Sc3  1  0.332896  0.665791  0.069739  1
  Be  Be4  1  0.173418  0.346835  0.756713  1
  Os  Os5  1  0.188293  0.844108  0.751734  1
  Os  Os6  1  0.346013  0.174844  0.244981  1
  Os  Os7  1  0.832634  0.665269  0.247468  1
  Os  Os8  1  0.655816  0.844108  0.751734  1
  Os  Os9  1  0.991024  0.982047  0.992376  1
  Os  Os10  1  0.828832  0.174844  0.244981  1
  Os  Os11  1  0.987450  0.974900  0.505997  1
