# generated using pymatgen
data_Ca2Ac7Ir6
_symmetry_space_group_name_H-M   'P 1'
_cell_length_a   7.97868602
_cell_length_b   7.97868576
_cell_length_c   7.97868629
_cell_angle_alpha   69.96139365
_cell_angle_beta   69.96138037
_cell_angle_gamma   69.96137577
_symmetry_Int_Tables_number   1
_chemical_formula_structural   Ca2Ac7Ir6
_chemical_formula_sum   'Ca2 Ac7 Ir6'
_cell_volume   433.43904394
_cell_formula_units_Z   1
loop_
 _symmetry_equiv_pos_site_id
 _symmetry_equiv_pos_as_xyz
  1  'x, y, z'
loop_
 _atom_site_type_symbol
 _atom_site_label
 _atom_site_symmetry_multiplicity
 _atom_site_fract_x
 _atom_site_fract_y
 _atom_site_fract_z
 _atom_site_occupancy
  Ca  Ca0  1  0.996261  0.996261  0.996261  1
  Ca  Ca1  1  0.806482  0.806482  0.806482  1
  Ac  Ac2  1  0.191997  0.191997  0.191997  1
  Ac  Ac3  1  0.141781  0.399331  0.680983  1
  Ac  Ac4  1  0.680983  0.141781  0.399331  1
  Ac  Ac5  1  0.399331  0.680983  0.141781  1
  Ac  Ac6  1  0.853067  0.609358  0.317854  1
  Ac  Ac7  1  0.317854  0.853067  0.609358  1
  Ac  Ac8  1  0.609358  0.317854  0.853067  1
  Ir  Ir9  1  0.953645  0.181863  0.581182  1
  Ir  Ir10  1  0.581182  0.953645  0.181863  1
  Ir  Ir11  1  0.181863  0.581182  0.953645  1
  Ir  Ir12  1  0.050322  0.823294  0.412580  1
  Ir  Ir13  1  0.412580  0.050322  0.823294  1
  Ir  Ir14  1  0.823294  0.412580  0.050322  1
