# generated using pymatgen
data_Lu8Ta7Nb2Si16Mo3
_symmetry_space_group_name_H-M   'P 1'
_cell_length_a   6.72712907
_cell_length_b   6.97503585
_cell_length_c   13.22287520
_cell_angle_alpha   89.98389015
_cell_angle_beta   90.01155996
_cell_angle_gamma   89.96501428
_symmetry_Int_Tables_number   1
_chemical_formula_structural   Lu8Ta7Nb2Si16Mo3
_chemical_formula_sum   'Lu8 Ta7 Nb2 Si16 Mo3'
_cell_volume   620.44315348
_cell_formula_units_Z   1
loop_
 _symmetry_equiv_pos_site_id
 _symmetry_equiv_pos_as_xyz
  1  'x, y, z'
loop_
 _atom_site_type_symbol
 _atom_site_label
 _atom_site_symmetry_multiplicity
 _atom_site_fract_x
 _atom_site_fract_y
 _atom_site_fract_z
 _atom_site_occupancy
  Lu  Lu0  1  0.500675  0.327525  0.094183  1
  Lu  Lu1  1  0.000652  0.172743  0.405627  1
  Lu  Lu2  1  0.498759  0.673049  0.594477  1
  Lu  Lu3  1  0.998691  0.826963  0.905974  1
  Lu  Lu4  1  0.498651  0.672551  0.905400  1
  Lu  Lu5  1  0.998703  0.827396  0.594211  1
  Lu  Lu6  1  0.501111  0.327417  0.405774  1
  Lu  Lu7  1  0.000852  0.172699  0.094392  1
  Ta  Ta8  1  0.835920  0.329343  0.625519  1
  Ta  Ta9  1  0.335896  0.171200  0.874918  1
  Ta  Ta10  1  0.164822  0.670383  0.125898  1
  Ta  Ta11  1  0.665175  0.829722  0.373390  1
  Ta  Ta12  1  0.164365  0.670231  0.374052  1
  Ta  Ta13  1  0.664803  0.829797  0.126554  1
  Ta  Ta14  1  0.661237  0.007920  0.749936  1
  Nb  Nb15  1  0.835096  0.329288  0.875008  1
  Nb  Nb16  1  0.335841  0.170716  0.624758  1
  Si  Si17  1  0.667336  0.036478  0.540673  1
  Si  Si18  1  0.166709  0.462485  0.958538  1
  Si  Si19  1  0.333551  0.962554  0.041883  1
  Si  Si20  1  0.833472  0.537511  0.458389  1
  Si  Si21  1  0.333636  0.962445  0.457402  1
  Si  Si22  1  0.833471  0.537345  0.042343  1
  Si  Si23  1  0.666243  0.035846  0.959113  1
  Si  Si24  1  0.165949  0.462737  0.541632  1
  Si  Si25  1  0.533776  0.383593  0.749611  1
  Si  Si26  1  0.039032  0.118878  0.750331  1
  Si  Si27  1  0.464472  0.617136  0.250008  1
  Si  Si28  1  0.965420  0.883383  0.250001  1
  Si  Si29  1  0.796918  0.632913  0.749901  1
  Si  Si30  1  0.293775  0.863604  0.750166  1
  Si  Si31  1  0.202886  0.364678  0.250069  1
  Si  Si32  1  0.702793  0.135629  0.249848  1
  Mo  Mo33  1  0.161137  0.493400  0.750101  1
  Mo  Mo34  1  0.339312  0.992897  0.249752  1
  Mo  Mo35  1  0.838865  0.507547  0.250170  1
