# generated using pymatgen
data_LuNb8NiS16
_symmetry_space_group_name_H-M   'P 1'
_cell_length_a   6.70874600
_cell_length_b   6.70874523
_cell_length_c   12.67837400
_cell_angle_alpha   90.00000000
_cell_angle_beta   90.00000000
_cell_angle_gamma   120.00001365
_symmetry_Int_Tables_number   1
_chemical_formula_structural   LuNb8NiS16
_chemical_formula_sum   'Lu1 Nb8 Ni1 S16'
_cell_volume   494.17045870
_cell_formula_units_Z   1
loop_
 _symmetry_equiv_pos_site_id
 _symmetry_equiv_pos_as_xyz
  1  'x, y, z'
loop_
 _atom_site_type_symbol
 _atom_site_label
 _atom_site_symmetry_multiplicity
 _atom_site_fract_x
 _atom_site_fract_y
 _atom_site_fract_z
 _atom_site_occupancy
  Lu  Lu0  1  0.000000  0.000000  0.500000  1
  Nb  Nb1  1  0.000000  0.000000  0.233528  1
  Nb  Nb2  1  0.000000  0.000000  0.766472  1
  Nb  Nb3  1  0.505124  0.010247  0.232500  1
  Nb  Nb4  1  0.989753  0.494876  0.232500  1
  Nb  Nb5  1  0.505124  0.494876  0.232500  1
  Nb  Nb6  1  0.494876  0.989753  0.767500  1
  Nb  Nb7  1  0.010247  0.505124  0.767500  1
  Nb  Nb8  1  0.494876  0.505124  0.767500  1
  Ni  Ni9  1  0.000000  0.000000  0.000000  1
  S  S10  1  0.333333  0.666667  0.892550  1
  S  S11  1  0.666667  0.333333  0.107450  1
  S  S12  1  0.666667  0.333333  0.360261  1
  S  S13  1  0.333333  0.666667  0.639739  1
  S  S14  1  0.168095  0.831905  0.357582  1
  S  S15  1  0.168095  0.336192  0.357582  1
  S  S16  1  0.663808  0.831905  0.357582  1
  S  S17  1  0.831905  0.168095  0.642418  1
  S  S18  1  0.831905  0.663808  0.642418  1
  S  S19  1  0.336192  0.168095  0.642418  1
  S  S20  1  0.832686  0.167314  0.889017  1
  S  S21  1  0.832686  0.665372  0.889017  1
  S  S22  1  0.334628  0.167314  0.889017  1
  S  S23  1  0.167314  0.832686  0.110983  1
  S  S24  1  0.167314  0.334628  0.110983  1
  S  S25  1  0.665372  0.832686  0.110983  1
