# generated using pymatgen
data_Ac3Th(MgRh)4
_symmetry_space_group_name_H-M   'P 1'
_cell_length_a   4.27178500
_cell_length_b   7.49213516
_cell_length_c   8.95055100
_cell_angle_alpha   90.29626379
_cell_angle_beta   90.00000000
_cell_angle_gamma   90.00000000
_symmetry_Int_Tables_number   1
_chemical_formula_structural   Ac3Th(MgRh)4
_chemical_formula_sum   'Ac3 Th1 Mg4 Rh4'
_cell_volume   286.45668086
_cell_formula_units_Z   1
loop_
 _symmetry_equiv_pos_site_id
 _symmetry_equiv_pos_as_xyz
  1  'x, y, z'
loop_
 _atom_site_type_symbol
 _atom_site_label
 _atom_site_symmetry_multiplicity
 _atom_site_fract_x
 _atom_site_fract_y
 _atom_site_fract_z
 _atom_site_occupancy
  Ac  Ac0  1  0.750000  0.960652  0.317727  1
  Ac  Ac1  1  0.250000  0.038454  0.683751  1
  Ac  Ac2  1  0.250000  0.537540  0.819216  1
  Th  Th3  1  0.750000  0.457296  0.178743  1
  Mg  Mg4  1  0.750000  0.865940  0.948429  1
  Mg  Mg5  1  0.250000  0.135345  0.058099  1
  Mg  Mg6  1  0.250000  0.630319  0.441649  1
  Mg  Mg7  1  0.750000  0.372217  0.548001  1
  Rh  Rh8  1  0.750000  0.750099  0.623857  1
  Rh  Rh9  1  0.250000  0.270613  0.358071  1
  Rh  Rh10  1  0.250000  0.729095  0.126524  1
  Rh  Rh11  1  0.750000  0.252430  0.895934  1
