# generated using pymatgen
data_DyY(Tm4Bi3)2
_symmetry_space_group_name_H-M   'P 1'
_cell_length_a   8.19563100
_cell_length_b   9.43848300
_cell_length_c   11.93470900
_cell_angle_alpha   90.00000000
_cell_angle_beta   90.00000000
_cell_angle_gamma   90.00000000
_symmetry_Int_Tables_number   1
_chemical_formula_structural   DyY(Tm4Bi3)2
_chemical_formula_sum   'Dy2 Y2 Tm16 Bi12'
_cell_volume   923.20134525
_cell_formula_units_Z   2
loop_
 _symmetry_equiv_pos_site_id
 _symmetry_equiv_pos_as_xyz
  1  'x, y, z'
loop_
 _atom_site_type_symbol
 _atom_site_label
 _atom_site_symmetry_multiplicity
 _atom_site_fract_x
 _atom_site_fract_y
 _atom_site_fract_z
 _atom_site_occupancy
  Dy  Dy0  1  0.686996  0.750000  0.782097  1
  Dy  Dy1  1  0.186996  0.750000  0.717903  1
  Y  Y2  1  0.313209  0.250000  0.218105  1
  Y  Y3  1  0.813209  0.250000  0.281895  1
  Tm  Tm4  1  0.352690  0.750000  0.217387  1
  Tm  Tm5  1  0.852690  0.750000  0.282613  1
  Tm  Tm6  1  0.647271  0.250000  0.782463  1
  Tm  Tm7  1  0.147271  0.250000  0.717537  1
  Tm  Tm8  1  0.692161  0.566047  0.059634  1
  Tm  Tm9  1  0.192161  0.933953  0.440366  1
  Tm  Tm10  1  0.307860  0.065905  0.940132  1
  Tm  Tm11  1  0.807860  0.434095  0.559868  1
  Tm  Tm12  1  0.307860  0.434095  0.940132  1
  Tm  Tm13  1  0.807860  0.065905  0.559868  1
  Tm  Tm14  1  0.692161  0.933953  0.059634  1
  Tm  Tm15  1  0.192161  0.566047  0.440366  1
  Tm  Tm16  1  0.476315  0.250000  0.489382  1
  Tm  Tm17  1  0.976315  0.250000  0.010618  1
  Tm  Tm18  1  0.523700  0.750000  0.511233  1
  Tm  Tm19  1  0.023700  0.750000  0.988767  1
  Bi  Bi20  1  0.404654  0.750000  0.958622  1
  Bi  Bi21  1  0.904654  0.750000  0.541378  1
  Bi  Bi22  1  0.595286  0.250000  0.041060  1
  Bi  Bi23  1  0.095286  0.250000  0.458940  1
  Bi  Bi24  1  0.565478  0.994690  0.326290  1
  Bi  Bi25  1  0.065478  0.505310  0.173710  1
  Bi  Bi26  1  0.434441  0.494905  0.674018  1
  Bi  Bi27  1  0.934441  0.005095  0.825982  1
  Bi  Bi28  1  0.434441  0.005095  0.674018  1
  Bi  Bi29  1  0.934441  0.494905  0.825982  1
  Bi  Bi30  1  0.565478  0.505310  0.326290  1
  Bi  Bi31  1  0.065478  0.994690  0.173710  1
