# generated using pymatgen
data_Na2La6SnAu9
_symmetry_space_group_name_H-M   'P 1'
_cell_length_a   8.34234307
_cell_length_b   8.34234288
_cell_length_c   8.34234100
_cell_angle_alpha   65.90623498
_cell_angle_beta   65.90624307
_cell_angle_gamma   65.90623277
_symmetry_Int_Tables_number   1
_chemical_formula_structural   Na2La6SnAu9
_chemical_formula_sum   'Na2 La6 Sn1 Au9'
_cell_volume   463.05155182
_cell_formula_units_Z   1
loop_
 _symmetry_equiv_pos_site_id
 _symmetry_equiv_pos_as_xyz
  1  'x, y, z'
loop_
 _atom_site_type_symbol
 _atom_site_label
 _atom_site_symmetry_multiplicity
 _atom_site_fract_x
 _atom_site_fract_y
 _atom_site_fract_z
 _atom_site_occupancy
  Na  Na0  1  0.661270  0.661270  0.661270  1
  Na  Na1  1  0.338730  0.338730  0.338730  1
  La  La2  1  0.896870  0.191840  0.623421  1
  La  La3  1  0.623421  0.896870  0.191840  1
  La  La4  1  0.191840  0.623421  0.896870  1
  La  La5  1  0.103130  0.808160  0.376579  1
  La  La6  1  0.376579  0.103130  0.808160  1
  La  La7  1  0.808160  0.376579  0.103130  1
  Sn  Sn8  1  0.500000  0.500000  0.500000  1
  Au  Au9  1  0.000000  0.000000  0.000000  1
  Au  Au10  1  0.806581  0.806581  0.806581  1
  Au  Au11  1  0.193419  0.193419  0.193419  1
  Au  Au12  1  0.937344  0.549777  0.312870  1
  Au  Au13  1  0.312870  0.937344  0.549777  1
  Au  Au14  1  0.549777  0.312870  0.937344  1
  Au  Au15  1  0.062656  0.450223  0.687130  1
  Au  Au16  1  0.687130  0.062656  0.450223  1
  Au  Au17  1  0.450223  0.687130  0.062656  1
