# generated using pymatgen
data_Yb2ErTm5(B6Os)4
_symmetry_space_group_name_H-M   'P 1'
_cell_length_a   3.61843200
_cell_length_b   9.09811647
_cell_length_c   11.48286902
_cell_angle_alpha   89.85586130
_cell_angle_beta   90.00000000
_cell_angle_gamma   90.00000000
_symmetry_Int_Tables_number   1
_chemical_formula_structural   Yb2ErTm5(B6Os)4
_chemical_formula_sum   'Yb2 Er1 Tm5 B24 Os4'
_cell_volume   378.02536770
_cell_formula_units_Z   1
loop_
 _symmetry_equiv_pos_site_id
 _symmetry_equiv_pos_as_xyz
  1  'x, y, z'
loop_
 _atom_site_type_symbol
 _atom_site_label
 _atom_site_symmetry_multiplicity
 _atom_site_fract_x
 _atom_site_fract_y
 _atom_site_fract_z
 _atom_site_occupancy
  Yb  Yb0  1  0.000000  0.324208  0.414473  1
  Yb  Yb1  1  0.000000  0.675783  0.585565  1
  Er  Er2  1  0.000000  0.821580  0.086223  1
  Tm  Tm3  1  0.000000  0.178413  0.913690  1
  Tm  Tm4  1  0.000000  0.942284  0.370412  1
  Tm  Tm5  1  0.000000  0.057772  0.629588  1
  Tm  Tm6  1  0.000000  0.442924  0.129702  1
  Tm  Tm7  1  0.000000  0.556957  0.870242  1
  B  B8  1  0.500000  0.553885  0.432480  1
  B  B9  1  0.500000  0.446052  0.567605  1
  B  B10  1  0.500000  0.053514  0.066261  1
  B  B11  1  0.500000  0.946803  0.933552  1
  B  B12  1  0.500000  0.748717  0.418045  1
  B  B13  1  0.500000  0.251290  0.582051  1
  B  B14  1  0.500000  0.248785  0.080660  1
  B  B15  1  0.500000  0.751246  0.919057  1
  B  B16  1  0.500000  0.791692  0.264433  1
  B  B17  1  0.500000  0.208202  0.735773  1
  B  B18  1  0.500000  0.290629  0.234149  1
  B  B19  1  0.500000  0.709405  0.765784  1
  B  B20  1  0.500000  0.631076  0.184726  1
  B  B21  1  0.500000  0.368719  0.815433  1
  B  B22  1  0.500000  0.130466  0.314149  1
  B  B23  1  0.500000  0.869643  0.685857  1
  B  B24  1  0.500000  0.982339  0.211719  1
  B  B25  1  0.500000  0.017962  0.788339  1
  B  B26  1  0.500000  0.483197  0.287632  1
  B  B27  1  0.500000  0.516703  0.712408  1
  B  B28  1  0.500000  0.602947  0.028334  1
  B  B29  1  0.500000  0.396691  0.971557  1
  B  B30  1  0.500000  0.098893  0.472672  1
  B  B31  1  0.500000  0.901154  0.527364  1
  Os  Os32  1  0.000000  0.639979  0.318755  1
  Os  Os33  1  0.000000  0.359857  0.681436  1
  Os  Os34  1  0.000000  0.136816  0.177798  1
  Os  Os35  1  0.000000  0.863413  0.822076  1
