# generated using pymatgen
data_Hf12Ti4Mn5Os3
_symmetry_space_group_name_H-M   'P 1'
_cell_length_a   8.43781388
_cell_length_b   8.43781288
_cell_length_c   8.43781382
_cell_angle_alpha   59.91100680
_cell_angle_beta   59.91101097
_cell_angle_gamma   59.91100620
_symmetry_Int_Tables_number   1
_chemical_formula_structural   Hf12Ti4Mn5Os3
_chemical_formula_sum   'Hf12 Ti4 Mn5 Os3'
_cell_volume   423.93291048
_cell_formula_units_Z   1
loop_
 _symmetry_equiv_pos_site_id
 _symmetry_equiv_pos_as_xyz
  1  'x, y, z'
loop_
 _atom_site_type_symbol
 _atom_site_label
 _atom_site_symmetry_multiplicity
 _atom_site_fract_x
 _atom_site_fract_y
 _atom_site_fract_z
 _atom_site_occupancy
  Hf  Hf0  1  0.432618  0.817764  0.817764  1
  Hf  Hf1  1  0.817514  0.432804  0.432804  1
  Hf  Hf2  1  0.817764  0.432618  0.817764  1
  Hf  Hf3  1  0.432804  0.817514  0.432804  1
  Hf  Hf4  1  0.817764  0.817764  0.432618  1
  Hf  Hf5  1  0.432804  0.432804  0.817514  1
  Hf  Hf6  1  0.564364  0.182504  0.182504  1
  Hf  Hf7  1  0.182025  0.567980  0.567980  1
  Hf  Hf8  1  0.182504  0.564364  0.182504  1
  Hf  Hf9  1  0.567980  0.182025  0.567980  1
  Hf  Hf10  1  0.182504  0.182504  0.564364  1
  Hf  Hf11  1  0.567980  0.567980  0.182025  1
  Ti  Ti12  1  0.996473  0.996473  0.514066  1
  Ti  Ti13  1  0.996473  0.514066  0.996473  1
  Ti  Ti14  1  0.514066  0.996473  0.996473  1
  Ti  Ti15  1  0.993791  0.993791  0.993791  1
  Mn  Mn16  1  0.208463  0.208463  0.208463  1
  Mn  Mn17  1  0.790644  0.790644  0.127600  1
  Mn  Mn18  1  0.790644  0.127600  0.790644  1
  Mn  Mn19  1  0.127600  0.790644  0.790644  1
  Mn  Mn20  1  0.790956  0.790956  0.790956  1
  Os  Os21  1  0.209924  0.209924  0.872419  1
  Os  Os22  1  0.209924  0.872419  0.209924  1
  Os  Os23  1  0.872419  0.209924  0.209924  1
