# generated using pymatgen
data_Gd6Lu2MgPt6
_symmetry_space_group_name_H-M   'P 1'
_cell_length_a   7.57216065
_cell_length_b   7.57216139
_cell_length_c   7.57216200
_cell_angle_alpha   69.49002964
_cell_angle_beta   69.49003561
_cell_angle_gamma   69.49002360
_symmetry_Int_Tables_number   1
_chemical_formula_structural   Gd6Lu2MgPt6
_chemical_formula_sum   'Gd6 Lu2 Mg1 Pt6'
_cell_volume   367.82772376
_cell_formula_units_Z   1
loop_
 _symmetry_equiv_pos_site_id
 _symmetry_equiv_pos_as_xyz
  1  'x, y, z'
loop_
 _atom_site_type_symbol
 _atom_site_label
 _atom_site_symmetry_multiplicity
 _atom_site_fract_x
 _atom_site_fract_y
 _atom_site_fract_z
 _atom_site_occupancy
  Gd  Gd0  1  0.322910  0.607690  0.855467  1
  Gd  Gd1  1  0.855467  0.322910  0.607690  1
  Gd  Gd2  1  0.607690  0.855467  0.322910  1
  Gd  Gd3  1  0.677090  0.392310  0.144533  1
  Gd  Gd4  1  0.144533  0.677090  0.392310  1
  Gd  Gd5  1  0.392310  0.144533  0.677090  1
  Lu  Lu6  1  0.814723  0.814723  0.814723  1
  Lu  Lu7  1  0.185277  0.185277  0.185277  1
  Mg  Mg8  1  0.000000  0.000000  0.000000  1
  Pt  Pt9  1  0.176344  0.956018  0.577511  1
  Pt  Pt10  1  0.577511  0.176344  0.956018  1
  Pt  Pt11  1  0.956018  0.577511  0.176344  1
  Pt  Pt12  1  0.823656  0.043982  0.422489  1
  Pt  Pt13  1  0.422489  0.823656  0.043982  1
  Pt  Pt14  1  0.043982  0.422489  0.823656  1
