# generated using pymatgen
data_TmLu5Al14(Si5Ru4)2
_symmetry_space_group_name_H-M   'P 1'
_cell_length_a   8.62364700
_cell_length_b   8.63118541
_cell_length_c   9.27231800
_cell_angle_alpha   90.00049275
_cell_angle_beta   89.99965421
_cell_angle_gamma   119.96899594
_symmetry_Int_Tables_number   1
_chemical_formula_structural   TmLu5Al14(Si5Ru4)2
_chemical_formula_sum   'Tm1 Lu5 Al14 Si10 Ru8'
_cell_volume   597.88266636
_cell_formula_units_Z   1
loop_
 _symmetry_equiv_pos_site_id
 _symmetry_equiv_pos_as_xyz
  1  'x, y, z'
loop_
 _atom_site_type_symbol
 _atom_site_label
 _atom_site_symmetry_multiplicity
 _atom_site_fract_x
 _atom_site_fract_y
 _atom_site_fract_z
 _atom_site_occupancy
  Tm  Tm0  1  0.192020  0.384036  0.250017  1
  Lu  Lu1  1  0.808476  0.196240  0.750064  1
  Lu  Lu2  1  0.193334  0.805508  0.250055  1
  Lu  Lu3  1  0.387694  0.196225  0.750052  1
  Lu  Lu4  1  0.611981  0.805398  0.250039  1
  Lu  Lu5  1  0.804377  0.608848  0.750044  1
  Al  Al6  1  0.834170  0.165961  0.419046  1
  Al  Al7  1  0.164020  0.837116  0.581685  1
  Al  Al8  1  0.331842  0.165845  0.419005  1
  Al  Al9  1  0.164052  0.837032  0.918317  1
  Al  Al10  1  0.673131  0.837010  0.581623  1
  Al  Al11  1  0.834221  0.165872  0.080998  1
  Al  Al12  1  0.835212  0.670604  0.419145  1
  Al  Al13  1  0.673083  0.836846  0.918296  1
  Al  Al14  1  0.164523  0.329191  0.581659  1
  Al  Al15  1  0.331797  0.165682  0.080941  1
  Al  Al16  1  0.164546  0.329081  0.918309  1
  Al  Al17  1  0.835248  0.670498  0.080841  1
  Al  Al18  1  0.435536  0.870957  0.750011  1
  Al  Al19  1  0.998665  0.997366  0.749852  1
  Si  Si20  1  0.665708  0.331293  0.956185  1
  Si  Si21  1  0.334150  0.668217  0.042673  1
  Si  Si22  1  0.334025  0.668354  0.457399  1
  Si  Si23  1  0.665575  0.331434  0.543933  1
  Si  Si24  1  0.436689  0.561263  0.749961  1
  Si  Si25  1  0.563201  0.437929  0.249961  1
  Si  Si26  1  0.124554  0.561279  0.750100  1
  Si  Si27  1  0.874761  0.437961  0.250096  1
  Si  Si28  1  0.561579  0.123093  0.250017  1
  Si  Si29  1  0.996186  0.992722  0.249813  1
  Ru  Ru30  1  0.501442  0.499803  0.000884  1
  Ru  Ru31  1  0.998547  0.500239  0.000599  1
  Ru  Ru32  1  0.501201  0.500211  0.498993  1
  Ru  Ru33  1  0.500697  0.000524  0.006447  1
  Ru  Ru34  1  0.998460  0.500270  0.499780  1
  Ru  Ru35  1  0.500531  0.000554  0.493554  1
  Ru  Ru36  1  0.002329  0.004762  0.007035  1
  Ru  Ru37  1  0.002438  0.004776  0.492571  1
