# generated using pymatgen
data_Sc2MoP7Ru9Rh2
_symmetry_space_group_name_H-M   'P 1'
_cell_length_a   9.34837046
_cell_length_b   9.47256982
_cell_length_c   3.90673700
_cell_angle_alpha   90.00000000
_cell_angle_beta   90.00000000
_cell_angle_gamma   120.21942444
_symmetry_Int_Tables_number   1
_chemical_formula_structural   Sc2MoP7Ru9Rh2
_chemical_formula_sum   'Sc2 Mo1 P7 Ru9 Rh2'
_cell_volume   298.93999997
_cell_formula_units_Z   1
loop_
 _symmetry_equiv_pos_site_id
 _symmetry_equiv_pos_as_xyz
  1  'x, y, z'
loop_
 _atom_site_type_symbol
 _atom_site_label
 _atom_site_symmetry_multiplicity
 _atom_site_fract_x
 _atom_site_fract_y
 _atom_site_fract_z
 _atom_site_occupancy
  Sc  Sc0  1  0.667604  0.330910  0.500000  1
  Sc  Sc1  1  0.325933  0.662243  0.000000  1
  Mo  Mo2  1  0.905645  0.119643  0.500000  1
  P  P3  1  0.597232  0.714315  0.500000  1
  P  P4  1  0.001414  0.004381  0.000000  1
  P  P5  1  0.278573  0.879756  0.500000  1
  P  P6  1  0.116250  0.404941  0.500000  1
  P  P7  1  0.882905  0.577383  0.000000  1
  P  P8  1  0.427603  0.300465  0.000000  1
  P  P9  1  0.703431  0.123047  0.000000  1
  Ru  Ru10  1  0.216585  0.090449  0.500000  1
  Ru  Ru11  1  0.874476  0.788882  0.500000  1
  Ru  Ru12  1  0.723064  0.886867  0.000000  1
  Ru  Ru13  1  0.109925  0.840856  0.000000  1
  Ru  Ru14  1  0.169138  0.276640  0.000000  1
  Ru  Ru15  1  0.433390  0.064718  0.000000  1
  Ru  Ru16  1  0.937785  0.368686  0.000000  1
  Ru  Ru17  1  0.636681  0.567855  0.000000  1
  Ru  Ru18  1  0.053838  0.612879  0.500000  1
  Rh  Rh19  1  0.546801  0.935948  0.500000  1
  Rh  Rh20  1  0.391731  0.449135  0.500000  1
