# generated using pymatgen
data_ErTm7B24MoOs3
_symmetry_space_group_name_H-M   'P 1'
_cell_length_a   3.62026100
_cell_length_b   9.10491390
_cell_length_c   11.48386209
_cell_angle_alpha   89.91058571
_cell_angle_beta   90.00000000
_cell_angle_gamma   90.00000000
_symmetry_Int_Tables_number   1
_chemical_formula_structural   ErTm7B24MoOs3
_chemical_formula_sum   'Er1 Tm7 B24 Mo1 Os3'
_cell_volume   378.53249251
_cell_formula_units_Z   1
loop_
 _symmetry_equiv_pos_site_id
 _symmetry_equiv_pos_as_xyz
  1  'x, y, z'
loop_
 _atom_site_type_symbol
 _atom_site_label
 _atom_site_symmetry_multiplicity
 _atom_site_fract_x
 _atom_site_fract_y
 _atom_site_fract_z
 _atom_site_occupancy
  Er  Er0  1  0.000000  0.321824  0.413146  1
  Tm  Tm1  1  0.000000  0.677720  0.584729  1
  Tm  Tm2  1  0.000000  0.819989  0.087573  1
  Tm  Tm3  1  0.000000  0.178169  0.914675  1
  Tm  Tm4  1  0.000000  0.944943  0.372864  1
  Tm  Tm5  1  0.000000  0.057385  0.628370  1
  Tm  Tm6  1  0.000000  0.443507  0.126661  1
  Tm  Tm7  1  0.000000  0.556630  0.871486  1
  B  B8  1  0.500000  0.551092  0.435739  1
  B  B9  1  0.500000  0.446326  0.567861  1
  B  B10  1  0.500000  0.053340  0.066555  1
  B  B11  1  0.500000  0.946420  0.933613  1
  B  B12  1  0.500000  0.750941  0.421971  1
  B  B13  1  0.500000  0.251742  0.580946  1
  B  B14  1  0.500000  0.248682  0.079874  1
  B  B15  1  0.500000  0.751158  0.919383  1
  B  B16  1  0.500000  0.794679  0.264447  1
  B  B17  1  0.500000  0.208346  0.734625  1
  B  B18  1  0.500000  0.290998  0.232939  1
  B  B19  1  0.500000  0.709019  0.765545  1
  B  B20  1  0.500000  0.631521  0.182870  1
  B  B21  1  0.500000  0.368397  0.815280  1
  B  B22  1  0.500000  0.131085  0.314010  1
  B  B23  1  0.500000  0.869484  0.685290  1
  B  B24  1  0.500000  0.982511  0.212607  1
  B  B25  1  0.500000  0.017949  0.787963  1
  B  B26  1  0.500000  0.478058  0.286514  1
  B  B27  1  0.500000  0.517326  0.713052  1
  B  B28  1  0.500000  0.605118  0.027662  1
  B  B29  1  0.500000  0.394328  0.970068  1
  B  B30  1  0.500000  0.105946  0.471228  1
  B  B31  1  0.500000  0.896557  0.530244  1
  Mo  Mo32  1  0.000000  0.637672  0.321168  1
  Os  Os33  1  0.000000  0.361151  0.680578  1
  Os  Os34  1  0.000000  0.137338  0.177319  1
  Os  Os35  1  0.000000  0.862647  0.821146  1
