# generated using pymatgen
data_LaTb5U4O20
_symmetry_space_group_name_H-M   'P 1'
_cell_length_a   6.68594511
_cell_length_b   7.57128328
_cell_length_c   8.50816515
_cell_angle_alpha   101.12150005
_cell_angle_beta   97.84858185
_cell_angle_gamma   107.25786572
_symmetry_Int_Tables_number   1
_chemical_formula_structural   LaTb5U4O20
_chemical_formula_sum   'La1 Tb5 U4 O20'
_cell_volume   394.85504988
_cell_formula_units_Z   1
loop_
 _symmetry_equiv_pos_site_id
 _symmetry_equiv_pos_as_xyz
  1  'x, y, z'
loop_
 _atom_site_type_symbol
 _atom_site_label
 _atom_site_symmetry_multiplicity
 _atom_site_fract_x
 _atom_site_fract_y
 _atom_site_fract_z
 _atom_site_occupancy
  La  La0  1  0.000000  0.500000  0.500000  1
  Tb  Tb1  1  0.613774  0.705655  0.700895  1
  Tb  Tb2  1  0.386226  0.294345  0.299105  1
  Tb  Tb3  1  0.198598  0.898387  0.894887  1
  Tb  Tb4  1  0.801402  0.101613  0.105113  1
  Tb  Tb5  1  0.000000  0.000000  0.500000  1
  U  U6  1  0.403866  0.805632  0.301265  1
  U  U7  1  0.199582  0.400584  0.902197  1
  U  U8  1  0.800418  0.599416  0.097803  1
  U  U9  1  0.596134  0.194368  0.698735  1
  O  O10  1  0.438232  0.531674  0.135207  1
  O  O11  1  0.555306  0.987499  0.840784  1
  O  O12  1  0.271483  0.145507  0.745626  1
  O  O13  1  0.368717  0.596460  0.438723  1
  O  O14  1  0.054797  0.733165  0.328003  1
  O  O15  1  0.444694  0.012501  0.159216  1
  O  O16  1  0.150351  0.183870  0.031250  1
  O  O17  1  0.561768  0.468326  0.864793  1
  O  O18  1  0.855082  0.337312  0.950371  1
  O  O19  1  0.262197  0.609071  0.767182  1
  O  O20  1  0.952258  0.780372  0.657844  1
  O  O21  1  0.354973  0.061579  0.453679  1
  O  O22  1  0.645027  0.938421  0.546321  1
  O  O23  1  0.047742  0.219628  0.342156  1
  O  O24  1  0.737803  0.390929  0.232818  1
  O  O25  1  0.144918  0.662688  0.049629  1
  O  O26  1  0.849649  0.816130  0.968750  1
  O  O27  1  0.945203  0.266835  0.671997  1
  O  O28  1  0.631283  0.403540  0.561277  1
  O  O29  1  0.728517  0.854493  0.254374  1
