# generated using pymatgen
data_HfZrNb2(PO4)6
_symmetry_space_group_name_H-M   'P 1'
_cell_length_a   8.86462171
_cell_length_b   8.86435101
_cell_length_c   9.16557002
_cell_angle_alpha   90.11937865
_cell_angle_beta   118.76945765
_cell_angle_gamma   119.99585015
_symmetry_Int_Tables_number   1
_chemical_formula_structural   HfZrNb2(PO4)6
_chemical_formula_sum   'Hf1 Zr1 Nb2 P6 O24'
_cell_volume   518.06927762
_cell_formula_units_Z   1
loop_
 _symmetry_equiv_pos_site_id
 _symmetry_equiv_pos_as_xyz
  1  'x, y, z'
loop_
 _atom_site_type_symbol
 _atom_site_label
 _atom_site_symmetry_multiplicity
 _atom_site_fract_x
 _atom_site_fract_y
 _atom_site_fract_z
 _atom_site_occupancy
  Hf  Hf0  1  0.216168  0.859353  0.075079  1
  Zr  Zr1  1  0.783893  0.640762  0.425271  1
  Nb  Nb2  1  0.214059  0.358073  0.571377  1
  Nb  Nb3  1  0.784700  0.141252  0.926487  1
  P  P4  1  0.998699  0.969546  0.247677  1
  P  P5  1  0.278067  0.529967  0.250299  1
  P  P6  1  0.284721  0.751482  0.748692  1
  P  P7  1  0.719302  0.247587  0.251507  1
  P  P8  1  0.717500  0.466309  0.750197  1
  P  P9  1  0.002572  0.035568  0.753111  1
  O  O10  1  0.284591  0.702130  0.221374  1
  O  O11  1  0.866753  0.999366  0.078552  1
  O  O12  1  0.856164  0.862615  0.595251  1
  O  O13  1  0.847731  0.807020  0.275629  1
  O  O14  1  0.142350  0.936157  0.228406  1
  O  O15  1  0.470407  0.544527  0.279719  1
  O  O16  1  0.103037  0.736081  0.584588  1
  O  O17  1  0.902772  0.635195  0.912249  1
  O  O18  1  0.279481  0.775829  0.910661  1
  O  O19  1  0.494261  0.917789  0.781322  1
  O  O20  1  0.728605  0.483733  0.589665  1
  O  O21  1  0.727734  0.423389  0.271483  1
  O  O22  1  0.283009  0.576819  0.717744  1
  O  O23  1  0.267255  0.502082  0.413134  1
  O  O24  1  0.521821  0.082090  0.228197  1
  O  O25  1  0.722773  0.210800  0.087927  1
  O  O26  1  0.080193  0.361026  0.086263  1
  O  O27  1  0.914068  0.274153  0.417435  1
  O  O28  1  0.508838  0.433529  0.709975  1
  O  O29  1  0.866548  0.079399  0.781219  1
  O  O30  1  0.140657  0.203769  0.714078  1
  O  O31  1  0.136832  0.144726  0.407197  1
  O  O32  1  0.145646  0.016422  0.920156  1
  O  O33  1  0.708793  0.291454  0.788078  1
