# generated using pymatgen
data_Rb8Li4YEr3Sb8
_symmetry_space_group_name_H-M   'P 1'
_cell_length_a   11.19450206
_cell_length_b   11.19450213
_cell_length_c   7.22933760
_cell_angle_alpha   90.02426306
_cell_angle_beta   89.97573249
_cell_angle_gamma   99.40858676
_symmetry_Int_Tables_number   1
_chemical_formula_structural   Rb8Li4YEr3Sb8
_chemical_formula_sum   'Rb8 Li4 Y1 Er3 Sb8'
_cell_volume   893.77063036
_cell_formula_units_Z   1
loop_
 _symmetry_equiv_pos_site_id
 _symmetry_equiv_pos_as_xyz
  1  'x, y, z'
loop_
 _atom_site_type_symbol
 _atom_site_label
 _atom_site_symmetry_multiplicity
 _atom_site_fract_x
 _atom_site_fract_y
 _atom_site_fract_z
 _atom_site_occupancy
  Rb  Rb0  1  0.572709  0.926923  0.750509  1
  Rb  Rb1  1  0.926923  0.572709  0.249491  1
  Rb  Rb2  1  0.427731  0.072813  0.250240  1
  Rb  Rb3  1  0.072813  0.427731  0.749760  1
  Rb  Rb4  1  0.674448  0.325165  0.778615  1
  Rb  Rb5  1  0.826124  0.173924  0.279589  1
  Rb  Rb6  1  0.325165  0.674448  0.221385  1
  Rb  Rb7  1  0.173924  0.826124  0.720411  1
  Li  Li8  1  0.621339  0.621339  0.000000  1
  Li  Li9  1  0.878084  0.878084  0.500000  1
  Li  Li10  1  0.378488  0.378488  0.000000  1
  Li  Li11  1  0.121757  0.121757  0.500000  1
  Y  Y12  1  0.369644  0.369644  0.500000  1
  Er  Er13  1  0.869944  0.869944  0.000000  1
  Er  Er14  1  0.630451  0.630451  0.500000  1
  Er  Er15  1  0.129986  0.129986  0.000000  1
  Sb  Sb16  1  0.345550  0.153456  0.751503  1
  Sb  Sb17  1  0.153456  0.345550  0.248497  1
  Sb  Sb18  1  0.654660  0.845123  0.249830  1
  Sb  Sb19  1  0.845123  0.654660  0.750170  1
  Sb  Sb20  1  0.906605  0.093276  0.760316  1
  Sb  Sb21  1  0.594788  0.407011  0.259330  1
  Sb  Sb22  1  0.093276  0.906605  0.239684  1
  Sb  Sb23  1  0.407011  0.594788  0.740670  1
