# generated using pymatgen
data_Tb2YTh11Ir6
_symmetry_space_group_name_H-M   'P 1'
_cell_length_a   9.99991388
_cell_length_b   10.02207267
_cell_length_c   6.36719863
_cell_angle_alpha   90.33025082
_cell_angle_beta   89.75901283
_cell_angle_gamma   120.02030172
_symmetry_Int_Tables_number   1
_chemical_formula_structural   Tb2YTh11Ir6
_chemical_formula_sum   'Tb2 Y1 Th11 Ir6'
_cell_volume   552.50502880
_cell_formula_units_Z   1
loop_
 _symmetry_equiv_pos_site_id
 _symmetry_equiv_pos_as_xyz
  1  'x, y, z'
loop_
 _atom_site_type_symbol
 _atom_site_label
 _atom_site_symmetry_multiplicity
 _atom_site_fract_x
 _atom_site_fract_y
 _atom_site_fract_z
 _atom_site_occupancy
  Tb  Tb0  1  0.077233  0.537572  0.301648  1
  Tb  Tb1  1  0.924006  0.462577  0.803036  1
  Y  Y2  1  0.459783  0.539097  0.294777  1
  Th  Th3  1  0.253819  0.128802  0.500714  1
  Th  Th4  1  0.543494  0.084718  0.793648  1
  Th  Th5  1  0.746425  0.873830  0.000941  1
  Th  Th6  1  0.664862  0.331286  0.292689  1
  Th  Th7  1  0.127414  0.869428  0.001304  1
  Th  Th8  1  0.456683  0.912425  0.290892  1
  Th  Th9  1  0.543196  0.458984  0.796094  1
  Th  Th10  1  0.873587  0.129831  0.502979  1
  Th  Th11  1  0.126305  0.256425  0.001059  1
  Th  Th12  1  0.869683  0.741492  0.499755  1
  Th  Th13  1  0.334916  0.667605  0.781898  1
  Ir  Ir14  1  0.809870  0.624871  0.055731  1
  Ir  Ir15  1  0.811714  0.187098  0.055738  1
  Ir  Ir16  1  0.627305  0.817203  0.551660  1
  Ir  Ir17  1  0.375423  0.189296  0.050759  1
  Ir  Ir18  1  0.184850  0.372487  0.556278  1
  Ir  Ir19  1  0.189435  0.814971  0.552402  1
