# generated using pymatgen
data_Ba2CoH7
_symmetry_space_group_name_H-M   'P 1'
_cell_length_a   8.70214462
_cell_length_b   8.70214448
_cell_length_c   8.44713922
_cell_angle_alpha   70.62263311
_cell_angle_beta   70.62263351
_cell_angle_gamma   71.05593183
_symmetry_Int_Tables_number   1
_chemical_formula_structural   Ba2CoH7
_chemical_formula_sum   'Ba8 Co4 H28'
_cell_volume   552.46756880
_cell_formula_units_Z   4
loop_
 _symmetry_equiv_pos_site_id
 _symmetry_equiv_pos_as_xyz
  1  'x, y, z'
loop_
 _atom_site_type_symbol
 _atom_site_label
 _atom_site_symmetry_multiplicity
 _atom_site_fract_x
 _atom_site_fract_y
 _atom_site_fract_z
 _atom_site_occupancy
  Ba  Ba0  1  0.260361  0.932351  0.478169  1
  Ba  Ba1  1  0.067649  0.739639  0.021831  1
  Ba  Ba2  1  0.739639  0.067649  0.521831  1
  Ba  Ba3  1  0.932351  0.260361  0.978169  1
  Ba  Ba4  1  0.278332  0.428741  0.480439  1
  Ba  Ba5  1  0.571259  0.721668  0.019561  1
  Ba  Ba6  1  0.721668  0.571259  0.519561  1
  Ba  Ba7  1  0.428741  0.278332  0.980439  1
  Co  Co8  1  0.317021  0.026410  0.802498  1
  Co  Co9  1  0.973590  0.682979  0.697502  1
  Co  Co10  1  0.682979  0.973590  0.197502  1
  Co  Co11  1  0.026410  0.317021  0.302498  1
  H  H12  1  0.385429  0.093122  0.605353  1
  H  H13  1  0.906878  0.614571  0.894647  1
  H  H14  1  0.614571  0.906878  0.394647  1
  H  H15  1  0.093122  0.385429  0.105353  1
  H  H16  1  0.376920  0.841735  0.780785  1
  H  H17  1  0.158265  0.623080  0.719215  1
  H  H18  1  0.623080  0.158265  0.219215  1
  H  H19  1  0.841735  0.376920  0.280785  1
  H  H20  1  0.488835  0.022220  0.822799  1
  H  H21  1  0.977780  0.511165  0.677201  1
  H  H22  1  0.511165  0.977780  0.177201  1
  H  H23  1  0.022220  0.488835  0.322799  1
  H  H24  1  0.256699  0.963674  0.004328  1
  H  H25  1  0.036326  0.743301  0.495672  1
  H  H26  1  0.743301  0.036326  0.995672  1
  H  H27  1  0.963674  0.256699  0.504328  1
  H  H28  1  0.255979  0.210231  0.815019  1
  H  H29  1  0.789769  0.744021  0.684981  1
  H  H30  1  0.744021  0.789769  0.184981  1
  H  H31  1  0.210231  0.255979  0.315019  1
  H  H32  1  0.142320  0.040652  0.780620  1
  H  H33  1  0.959348  0.857680  0.719380  1
  H  H34  1  0.857680  0.959348  0.219380  1
  H  H35  1  0.040652  0.142320  0.280620  1
  H  H36  1  0.344185  0.546080  0.127059  1
  H  H37  1  0.453920  0.655815  0.372941  1
  H  H38  1  0.655815  0.453920  0.872941  1
  H  H39  1  0.546080  0.344185  0.627059  1
