# generated using pymatgen
data_TbCe2Dy3(Al3Ru)8
_symmetry_space_group_name_H-M   'P 1'
_cell_length_a   8.84650808
_cell_length_b   8.83968670
_cell_length_c   9.59086000
_cell_angle_alpha   90.00000000
_cell_angle_beta   90.00000000
_cell_angle_gamma   119.89676123
_symmetry_Int_Tables_number   1
_chemical_formula_structural   TbCe2Dy3(Al3Ru)8
_chemical_formula_sum   'Tb1 Ce2 Dy3 Al24 Ru8'
_cell_volume   650.20123948
_cell_formula_units_Z   1
loop_
 _symmetry_equiv_pos_site_id
 _symmetry_equiv_pos_as_xyz
  1  'x, y, z'
loop_
 _atom_site_type_symbol
 _atom_site_label
 _atom_site_symmetry_multiplicity
 _atom_site_fract_x
 _atom_site_fract_y
 _atom_site_fract_z
 _atom_site_occupancy
  Tb  Tb0  1  0.808286  0.192235  0.750000  1
  Ce  Ce1  1  0.193014  0.803437  0.250000  1
  Ce  Ce2  1  0.190852  0.388837  0.250000  1
  Dy  Dy3  1  0.613035  0.807993  0.250000  1
  Dy  Dy4  1  0.806543  0.614651  0.750000  1
  Dy  Dy5  1  0.387388  0.193883  0.750000  1
  Al  Al6  1  0.561688  0.439037  0.250000  1
  Al  Al7  1  0.562013  0.123848  0.250000  1
  Al  Al8  1  0.870790  0.435860  0.250000  1
  Al  Al9  1  0.440304  0.560827  0.750000  1
  Al  Al10  1  0.440597  0.879864  0.750000  1
  Al  Al11  1  0.120230  0.560250  0.750000  1
  Al  Al12  1  0.324985  0.162896  0.423698  1
  Al  Al13  1  0.835836  0.161487  0.424182  1
  Al  Al14  1  0.835774  0.674467  0.424504  1
  Al  Al15  1  0.675630  0.837283  0.578053  1
  Al  Al16  1  0.162371  0.837712  0.578032  1
  Al  Al17  1  0.162888  0.324659  0.578730  1
  Al  Al18  1  0.675630  0.837283  0.921947  1
  Al  Al19  1  0.162371  0.837712  0.921968  1
  Al  Al20  1  0.162888  0.324659  0.921270  1
  Al  Al21  1  0.324985  0.162896  0.076302  1
  Al  Al22  1  0.835836  0.161487  0.075818  1
  Al  Al23  1  0.835774  0.674467  0.075496  1
  Al  Al24  1  0.667255  0.333172  0.517439  1
  Al  Al25  1  0.336444  0.667769  0.491321  1
  Al  Al26  1  0.336444  0.667769  0.008679  1
  Al  Al27  1  0.667255  0.333172  0.982561  1
  Al  Al28  1  0.999227  0.000437  0.250000  1
  Al  Al29  1  0.002039  0.000075  0.750000  1
  Ru  Ru30  1  0.998963  0.999675  0.500714  1
  Ru  Ru31  1  0.998963  0.999675  0.999286  1
  Ru  Ru32  1  0.499672  0.499618  0.499190  1
  Ru  Ru33  1  0.499143  0.999237  0.498137  1
  Ru  Ru34  1  0.003034  0.501408  0.496111  1
  Ru  Ru35  1  0.499672  0.499618  0.000810  1
  Ru  Ru36  1  0.499143  0.999237  0.001863  1
  Ru  Ru37  1  0.003034  0.501408  0.003889  1
