# generated using pymatgen
data_Hg3BiIr3RuO14
_symmetry_space_group_name_H-M   'P 1'
_cell_length_a   7.37457629
_cell_length_b   7.28762760
_cell_length_c   7.28762700
_cell_angle_alpha   60.00000724
_cell_angle_beta   60.38926770
_cell_angle_gamma   60.38927834
_symmetry_Int_Tables_number   1
_chemical_formula_structural   Hg3BiIr3RuO14
_chemical_formula_sum   'Hg3 Bi1 Ir3 Ru1 O14'
_cell_volume   278.56389837
_cell_formula_units_Z   1
loop_
 _symmetry_equiv_pos_site_id
 _symmetry_equiv_pos_as_xyz
  1  'x, y, z'
loop_
 _atom_site_type_symbol
 _atom_site_label
 _atom_site_symmetry_multiplicity
 _atom_site_fract_x
 _atom_site_fract_y
 _atom_site_fract_z
 _atom_site_occupancy
  Hg  Hg0  1  0.125000  0.125000  0.625000  1
  Hg  Hg1  1  0.125000  0.625000  0.125000  1
  Hg  Hg2  1  0.125000  0.125000  0.125000  1
  Bi  Bi3  1  0.625000  0.125000  0.125000  1
  Ir  Ir4  1  0.625000  0.625000  0.125000  1
  Ir  Ir5  1  0.625000  0.125000  0.625000  1
  Ir  Ir6  1  0.625000  0.625000  0.625000  1
  Ru  Ru7  1  0.125000  0.625000  0.625000  1
  O  O8  1  0.236964  0.254345  0.254345  1
  O  O9  1  0.013036  0.995655  0.995655  1
  O  O10  1  0.554119  0.953124  0.539632  1
  O  O11  1  0.312065  0.690220  0.307495  1
  O  O12  1  0.554119  0.539632  0.953124  1
  O  O13  1  0.937935  0.559780  0.559780  1
  O  O14  1  0.554119  0.953124  0.953124  1
  O  O15  1  0.937935  0.942505  0.559780  1
  O  O16  1  0.937935  0.559780  0.942505  1
  O  O17  1  0.695881  0.296876  0.296876  1
  O  O18  1  0.312065  0.690220  0.690220  1
  O  O19  1  0.695881  0.296876  0.710368  1
  O  O20  1  0.312065  0.307495  0.690220  1
  O  O21  1  0.695881  0.710368  0.296876  1
