# generated using pymatgen
data_Pr14Nd2MgHg3Ir4
_symmetry_space_group_name_H-M   'P 1'
_cell_length_a   10.00066588
_cell_length_b   10.03680626
_cell_length_c   10.03863500
_cell_angle_alpha   59.99397587
_cell_angle_beta   59.87433117
_cell_angle_gamma   59.94857610
_symmetry_Int_Tables_number   1
_chemical_formula_structural   Pr14Nd2MgHg3Ir4
_chemical_formula_sum   'Pr14 Nd2 Mg1 Hg3 Ir4'
_cell_volume   711.51078676
_cell_formula_units_Z   1
loop_
 _symmetry_equiv_pos_site_id
 _symmetry_equiv_pos_as_xyz
  1  'x, y, z'
loop_
 _atom_site_type_symbol
 _atom_site_label
 _atom_site_symmetry_multiplicity
 _atom_site_fract_x
 _atom_site_fract_y
 _atom_site_fract_z
 _atom_site_occupancy
  Pr  Pr0  1  0.349314  0.954287  0.348200  1
  Pr  Pr1  1  0.948122  0.350738  0.350571  1
  Pr  Pr2  1  0.806091  0.192288  0.193742  1
  Pr  Pr3  1  0.187673  0.810021  0.810995  1
  Pr  Pr4  1  0.187673  0.810021  0.191312  1
  Pr  Pr5  1  0.806091  0.192288  0.807881  1
  Pr  Pr6  1  0.188611  0.189968  0.810711  1
  Pr  Pr7  1  0.806036  0.807379  0.193293  1
  Pr  Pr8  1  0.939619  0.560517  0.561569  1
  Pr  Pr9  1  0.558707  0.940830  0.939086  1
  Pr  Pr10  1  0.558707  0.940830  0.561377  1
  Pr  Pr11  1  0.939619  0.560517  0.938296  1
  Pr  Pr12  1  0.559111  0.561450  0.939720  1
  Pr  Pr13  1  0.939155  0.939209  0.560818  1
  Nd  Nd14  1  0.348321  0.347399  0.347032  1
  Nd  Nd15  1  0.348321  0.347399  0.957250  1
  Mg  Mg16  1  0.286229  0.570304  0.571734  1
  Hg  Hg17  1  0.580371  0.585794  0.586278  1
  Hg  Hg18  1  0.580371  0.585794  0.247556  1
  Hg  Hg19  1  0.580270  0.247258  0.586236  1
  Ir  Ir20  1  0.142068  0.143520  0.139869  1
  Ir  Ir21  1  0.142068  0.143520  0.574543  1
  Ir  Ir22  1  0.143362  0.574416  0.141111  1
  Ir  Ir23  1  0.574095  0.144258  0.140823  1
