# generated using pymatgen
data_Dy3HoEr4(ReC2)4
_symmetry_space_group_name_H-M   'P 1'
_cell_length_a   5.08583900
_cell_length_b   6.56740725
_cell_length_c   9.82843138
_cell_angle_alpha   90.03166772
_cell_angle_beta   90.00000000
_cell_angle_gamma   90.00000000
_symmetry_Int_Tables_number   1
_chemical_formula_structural   Dy3HoEr4(ReC2)4
_chemical_formula_sum   'Dy3 Ho1 Er4 Re4 C8'
_cell_volume   328.27718392
_cell_formula_units_Z   1
loop_
 _symmetry_equiv_pos_site_id
 _symmetry_equiv_pos_as_xyz
  1  'x, y, z'
loop_
 _atom_site_type_symbol
 _atom_site_label
 _atom_site_symmetry_multiplicity
 _atom_site_fract_x
 _atom_site_fract_y
 _atom_site_fract_z
 _atom_site_occupancy
  Dy  Dy0  1  0.250000  0.967511  0.283768  1
  Dy  Dy1  1  0.750000  0.532445  0.783793  1
  Dy  Dy2  1  0.750000  0.032466  0.716161  1
  Ho  Ho3  1  0.250000  0.467424  0.216323  1
  Er  Er4  1  0.250000  0.821440  0.942932  1
  Er  Er5  1  0.250000  0.321449  0.557078  1
  Er  Er6  1  0.750000  0.178647  0.057176  1
  Er  Er7  1  0.750000  0.678531  0.442849  1
  Re  Re8  1  0.250000  0.278799  0.866769  1
  Re  Re9  1  0.250000  0.778616  0.633265  1
  Re  Re10  1  0.750000  0.721101  0.133304  1
  Re  Re11  1  0.750000  0.221374  0.366619  1
  C  C12  1  0.250000  0.045815  0.740802  1
  C  C13  1  0.250000  0.545828  0.759187  1
  C  C14  1  0.750000  0.954130  0.259188  1
  C  C15  1  0.750000  0.454170  0.240701  1
  C  C16  1  0.250000  0.674437  0.449602  1
  C  C17  1  0.250000  0.175065  0.050418  1
  C  C18  1  0.750000  0.325409  0.550232  1
  C  C19  1  0.750000  0.825344  0.949833  1
