# generated using pymatgen
data_CeEr3Nb2(B2Ru5)2
_symmetry_space_group_name_H-M   'P 1'
_cell_length_a   9.65460377
_cell_length_b   9.65460377
_cell_length_c   3.14228400
_cell_angle_alpha   90.00000000
_cell_angle_beta   90.00000000
_cell_angle_gamma   89.93064878
_symmetry_Int_Tables_number   1
_chemical_formula_structural   CeEr3Nb2(B2Ru5)2
_chemical_formula_sum   'Ce1 Er3 Nb2 B4 Ru10'
_cell_volume   292.89639432
_cell_formula_units_Z   1
loop_
 _symmetry_equiv_pos_site_id
 _symmetry_equiv_pos_as_xyz
  1  'x, y, z'
loop_
 _atom_site_type_symbol
 _atom_site_label
 _atom_site_symmetry_multiplicity
 _atom_site_fract_x
 _atom_site_fract_y
 _atom_site_fract_z
 _atom_site_occupancy
  Ce  Ce0  1  0.674856  0.174856  0.000000  1
  Er  Er1  1  0.824962  0.674818  0.000000  1
  Er  Er2  1  0.174818  0.324962  0.000000  1
  Er  Er3  1  0.324493  0.824493  0.000000  1
  Nb  Nb4  1  0.497813  0.503587  0.000000  1
  Nb  Nb5  1  0.003587  0.997813  0.000000  1
  B  B6  1  0.621088  0.876195  0.000000  1
  B  B7  1  0.376195  0.121088  0.000000  1
  B  B8  1  0.120810  0.620810  0.000000  1
  B  B9  1  0.881920  0.381920  0.000000  1
  Ru  Ru10  1  0.571083  0.719261  0.500000  1
  Ru  Ru11  1  0.429257  0.282305  0.500000  1
  Ru  Ru12  1  0.070608  0.780923  0.500000  1
  Ru  Ru13  1  0.927776  0.217872  0.500000  1
  Ru  Ru14  1  0.280923  0.570608  0.500000  1
  Ru  Ru15  1  0.717872  0.427776  0.500000  1
  Ru  Ru16  1  0.219261  0.071083  0.500000  1
  Ru  Ru17  1  0.782305  0.929257  0.500000  1
  Ru  Ru18  1  0.500776  0.000776  0.500000  1
  Ru  Ru19  1  0.999597  0.499597  0.500000  1
