# generated using pymatgen
data_Y12ZnIn2Os3
_symmetry_space_group_name_H-M   'P 1'
_cell_length_a   8.56473222
_cell_length_b   8.56547074
_cell_length_c   8.56473214
_cell_angle_alpha   113.20663152
_cell_angle_beta   111.34062132
_cell_angle_gamma   104.00375031
_symmetry_Int_Tables_number   1
_chemical_formula_structural   Y12ZnIn2Os3
_chemical_formula_sum   'Y12 Zn1 In2 Os3'
_cell_volume   480.29747889
_cell_formula_units_Z   1
loop_
 _symmetry_equiv_pos_site_id
 _symmetry_equiv_pos_as_xyz
  1  'x, y, z'
loop_
 _atom_site_type_symbol
 _atom_site_label
 _atom_site_symmetry_multiplicity
 _atom_site_fract_x
 _atom_site_fract_y
 _atom_site_fract_z
 _atom_site_occupancy
  Y  Y0  1  0.438297  0.240056  0.198204  1
  Y  Y1  1  0.556420  0.759689  0.796724  1
  Y  Y2  1  0.041852  0.240056  0.801759  1
  Y  Y3  1  0.962964  0.759689  0.203269  1
  Y  Y4  1  0.190238  0.285482  0.463920  1
  Y  Y5  1  0.821668  0.726376  0.536170  1
  Y  Y6  1  0.190206  0.726376  0.904709  1
  Y  Y7  1  0.821562  0.285482  0.095244  1
  Y  Y8  1  0.328668  0.642558  0.313890  1
  Y  Y9  1  0.659263  0.348960  0.689697  1
  Y  Y10  1  0.328591  0.014717  0.686125  1
  Y  Y11  1  0.659378  0.969621  0.310244  1
  Zn  Zn12  1  0.877586  0.377609  0.500023  1
  In  In13  1  0.501643  0.501652  0.000009  1
  In  In14  1  0.996700  0.996734  0.000034  1
  Os  Os15  1  0.334642  0.003530  0.331114  1
  Os  Os16  1  0.672415  0.003530  0.668888  1
  Os  Os17  1  0.117907  0.617885  0.499978  1
