# generated using pymatgen
data_YbPrSi3Ag
_symmetry_space_group_name_H-M   'P 1'
_cell_length_a   11.17499714
_cell_length_b   9.51120251
_cell_length_c   8.35177054
_cell_angle_alpha   77.14934993
_cell_angle_beta   56.07787624
_cell_angle_gamma   46.77277203
_symmetry_Int_Tables_number   1
_chemical_formula_structural   YbPrSi3Ag
_chemical_formula_sum   'Yb4 Pr4 Si12 Ag4'
_cell_volume   517.63435138
_cell_formula_units_Z   4
loop_
 _symmetry_equiv_pos_site_id
 _symmetry_equiv_pos_as_xyz
  1  'x, y, z'
loop_
 _atom_site_type_symbol
 _atom_site_label
 _atom_site_symmetry_multiplicity
 _atom_site_fract_x
 _atom_site_fract_y
 _atom_site_fract_z
 _atom_site_occupancy
  Yb  Yb0  1  0.875298  0.875298  0.124702  1
  Yb  Yb1  1  0.124702  0.124702  0.875298  1
  Yb  Yb2  1  0.374702  0.374702  0.125298  1
  Yb  Yb3  1  0.125298  0.125298  0.374702  1
  Pr  Pr4  1  0.378682  0.378682  0.621318  1
  Pr  Pr5  1  0.621318  0.621318  0.378682  1
  Pr  Pr6  1  0.871318  0.871318  0.628682  1
  Pr  Pr7  1  0.628682  0.628682  0.871318  1
  Si  Si8  1  0.663144  0.336856  0.663144  1
  Si  Si9  1  0.336856  0.663144  0.336856  1
  Si  Si10  1  0.586856  0.913144  0.586856  1
  Si  Si11  1  0.913144  0.586856  0.913144  1
  Si  Si12  1  0.334894  0.659727  0.828388  1
  Si  Si13  1  0.176991  0.828388  0.659727  1
  Si  Si14  1  0.828388  0.176991  0.334894  1
  Si  Si15  1  0.659727  0.334894  0.176991  1
  Si  Si16  1  0.915106  0.590273  0.421612  1
  Si  Si17  1  0.073009  0.421612  0.590273  1
  Si  Si18  1  0.421612  0.073009  0.915106  1
  Si  Si19  1  0.590273  0.915106  0.073009  1
  Ag  Ag20  1  0.834586  0.165414  0.834586  1
  Ag  Ag21  1  0.165414  0.834586  0.165414  1
  Ag  Ag22  1  0.415414  0.084586  0.415414  1
  Ag  Ag23  1  0.084586  0.415414  0.084586  1
