# generated using pymatgen
data_Tb5Y15(In3Ru)2
_symmetry_space_group_name_H-M   'P 1'
_cell_length_a   9.77978220
_cell_length_b   9.78034678
_cell_length_c   9.79812526
_cell_angle_alpha   90.00000108
_cell_angle_beta   89.97732532
_cell_angle_gamma   120.00191246
_symmetry_Int_Tables_number   1
_chemical_formula_structural   Tb5Y15(In3Ru)2
_chemical_formula_sum   'Tb5 Y15 In6 Ru2'
_cell_volume   811.61233799
_cell_formula_units_Z   1
loop_
 _symmetry_equiv_pos_site_id
 _symmetry_equiv_pos_as_xyz
  1  'x, y, z'
loop_
 _atom_site_type_symbol
 _atom_site_label
 _atom_site_symmetry_multiplicity
 _atom_site_fract_x
 _atom_site_fract_y
 _atom_site_fract_z
 _atom_site_occupancy
  Tb  Tb0  1  0.209699  0.790042  0.438424  1
  Tb  Tb1  1  0.209699  0.419659  0.438424  1
  Tb  Tb2  1  0.580513  0.790257  0.438303  1
  Tb  Tb3  1  0.789897  0.209900  0.561757  1
  Tb  Tb4  1  0.789897  0.579996  0.561757  1
  Y  Y5  1  0.999842  0.999921  0.499979  1
  Y  Y6  1  0.000245  0.000122  0.000218  1
  Y  Y7  1  0.418544  0.209272  0.560776  1
  Y  Y8  1  0.790163  0.209667  0.939324  1
  Y  Y9  1  0.790163  0.580496  0.939324  1
  Y  Y10  1  0.419758  0.209879  0.939150  1
  Y  Y11  1  0.209642  0.790190  0.060652  1
  Y  Y12  1  0.209642  0.419453  0.060652  1
  Y  Y13  1  0.580448  0.790225  0.060768  1
  Y  Y14  1  0.539531  0.460295  0.250359  1
  Y  Y15  1  0.539531  0.079236  0.250359  1
  Y  Y16  1  0.920790  0.460395  0.250410  1
  Y  Y17  1  0.460400  0.539681  0.749545  1
  Y  Y18  1  0.460400  0.920717  0.749545  1
  Y  Y19  1  0.079063  0.539531  0.749642  1
  In  In20  1  0.884326  0.115731  0.249159  1
  In  In21  1  0.884326  0.768596  0.249159  1
  In  In22  1  0.231751  0.115876  0.249471  1
  In  In23  1  0.115857  0.884422  0.750879  1
  In  In24  1  0.115857  0.231434  0.750879  1
  In  In25  1  0.768821  0.884410  0.750750  1
  Ru  Ru26  1  0.333345  0.666673  0.250997  1
  Ru  Ru27  1  0.667849  0.333924  0.749340  1
