# generated using pymatgen
data_LaNd5(CI5)2
_symmetry_space_group_name_H-M   'P 1'
_cell_length_a   7.99404052
_cell_length_b   9.75056636
_cell_length_c   9.86286937
_cell_angle_alpha   107.14806768
_cell_angle_beta   97.23041481
_cell_angle_gamma   104.68148012
_symmetry_Int_Tables_number   1
_chemical_formula_structural   LaNd5(CI5)2
_chemical_formula_sum   'La1 Nd5 C2 I10'
_cell_volume   693.68202639
_cell_formula_units_Z   1
loop_
 _symmetry_equiv_pos_site_id
 _symmetry_equiv_pos_as_xyz
  1  'x, y, z'
loop_
 _atom_site_type_symbol
 _atom_site_label
 _atom_site_symmetry_multiplicity
 _atom_site_fract_x
 _atom_site_fract_y
 _atom_site_fract_z
 _atom_site_occupancy
  La  La0  1  0.380470  0.139354  0.187177  1
  Nd  Nd1  1  0.626445  0.864775  0.817979  1
  Nd  Nd2  1  0.029393  0.736127  0.923656  1
  Nd  Nd3  1  0.105139  0.039383  0.778066  1
  Nd  Nd4  1  0.967501  0.262779  0.074303  1
  Nd  Nd5  1  0.892064  0.958739  0.220268  1
  C  C6  1  0.089047  0.031097  0.042714  1
  C  C7  1  0.914158  0.970147  0.959116  1
  I  I8  1  0.186634  0.733310  0.646728  1
  I  I9  1  0.912469  0.631399  0.177410  1
  I  I10  1  0.086603  0.367831  0.821464  1
  I  I11  1  0.744279  0.913639  0.538734  1
  I  I12  1  0.248155  0.083284  0.464633  1
  I  I13  1  0.653238  0.542031  0.724703  1
  I  I14  1  0.457938  0.805958  0.087969  1
  I  I15  1  0.821470  0.268752  0.357156  1
  I  I16  1  0.340942  0.462867  0.274038  1
  I  I17  1  0.544054  0.188529  0.903884  1
