# generated using pymatgen
data_Er6Al24OsRu7
_symmetry_space_group_name_H-M   'P 1'
_cell_length_a   8.77676351
_cell_length_b   8.77676231
_cell_length_c   9.58020484
_cell_angle_alpha   90.08964367
_cell_angle_beta   89.91035702
_cell_angle_gamma   120.11966303
_symmetry_Int_Tables_number   1
_chemical_formula_structural   Er6Al24OsRu7
_chemical_formula_sum   'Er6 Al24 Os1 Ru7'
_cell_volume   638.33479017
_cell_formula_units_Z   1
loop_
 _symmetry_equiv_pos_site_id
 _symmetry_equiv_pos_as_xyz
  1  'x, y, z'
loop_
 _atom_site_type_symbol
 _atom_site_label
 _atom_site_symmetry_multiplicity
 _atom_site_fract_x
 _atom_site_fract_y
 _atom_site_fract_z
 _atom_site_occupancy
  Er  Er0  1  0.195411  0.387874  0.249372  1
  Er  Er1  1  0.804589  0.612126  0.750628  1
  Er  Er2  1  0.612126  0.804589  0.249372  1
  Er  Er3  1  0.387874  0.195411  0.750628  1
  Er  Er4  1  0.193836  0.806164  0.250480  1
  Er  Er5  1  0.806164  0.193836  0.749520  1
  Al  Al6  1  0.332870  0.667130  0.018597  1
  Al  Al7  1  0.667130  0.332870  0.981403  1
  Al  Al8  1  0.666684  0.333316  0.519127  1
  Al  Al9  1  0.333316  0.666684  0.480873  1
  Al  Al10  1  0.162945  0.326140  0.577075  1
  Al  Al11  1  0.837055  0.673860  0.422925  1
  Al  Al12  1  0.673860  0.837055  0.577075  1
  Al  Al13  1  0.837033  0.673912  0.077184  1
  Al  Al14  1  0.326140  0.162945  0.422925  1
  Al  Al15  1  0.162967  0.326088  0.922816  1
  Al  Al16  1  0.162827  0.837173  0.577496  1
  Al  Al17  1  0.326088  0.162967  0.077184  1
  Al  Al18  1  0.837173  0.162827  0.422504  1
  Al  Al19  1  0.673912  0.837033  0.922816  1
  Al  Al20  1  0.837205  0.162795  0.077705  1
  Al  Al21  1  0.162795  0.837205  0.922295  1
  Al  Al22  1  0.561516  0.122096  0.250263  1
  Al  Al23  1  0.438484  0.877904  0.749737  1
  Al  Al24  1  0.877904  0.438484  0.250263  1
  Al  Al25  1  0.122096  0.561516  0.749737  1
  Al  Al26  1  0.562135  0.437865  0.250557  1
  Al  Al27  1  0.437865  0.562135  0.749443  1
  Al  Al28  1  0.000062  0.999938  0.249949  1
  Al  Al29  1  0.999938  0.000062  0.750051  1
  Os  Os30  1  0.500000  0.500000  0.000000  1
  Ru  Ru31  1  0.500000  0.000000  0.000000  1
  Ru  Ru32  1  0.000000  0.500000  0.000000  1
  Ru  Ru33  1  0.500000  0.000000  0.500000  1
  Ru  Ru34  1  0.000000  0.500000  0.500000  1
  Ru  Ru35  1  0.500000  0.500000  0.500000  1
  Ru  Ru36  1  0.000000  0.000000  0.000000  1
  Ru  Ru37  1  0.000000  0.000000  0.500000  1
