# generated using pymatgen
data_Ce2Y2HoGa2Ru3
_symmetry_space_group_name_H-M   'P 1'
_cell_length_a   8.41920903
_cell_length_b   8.39835074
_cell_length_c   8.42975052
_cell_angle_alpha   110.04173951
_cell_angle_beta   110.55480263
_cell_angle_gamma   109.83430823
_symmetry_Int_Tables_number   1
_chemical_formula_structural   Ce2Y2HoGa2Ru3
_chemical_formula_sum   'Ce4 Y4 Ho2 Ga4 Ru6'
_cell_volume   447.03561845
_cell_formula_units_Z   2
loop_
 _symmetry_equiv_pos_site_id
 _symmetry_equiv_pos_as_xyz
  1  'x, y, z'
loop_
 _atom_site_type_symbol
 _atom_site_label
 _atom_site_symmetry_multiplicity
 _atom_site_fract_x
 _atom_site_fract_y
 _atom_site_fract_z
 _atom_site_occupancy
  Ce  Ce0  1  0.500154  0.993593  0.704646  1
  Ce  Ce1  1  0.254771  0.202938  0.949078  1
  Ce  Ce2  1  0.941657  0.247109  0.192289  1
  Ce  Ce3  1  0.197201  0.943350  0.246928  1
  Y  Y4  1  0.769985  0.772055  0.771620  1
  Y  Y5  1  0.310551  0.563351  0.751390  1
  Y  Y6  1  0.756549  0.315830  0.563963  1
  Y  Y7  1  0.564485  0.747986  0.305616  1
  Ho  Ho8  1  0.728043  0.509743  0.999339  1
  Ho  Ho9  1  0.995015  0.726057  0.508124  1
  Ga  Ga10  1  0.406224  0.403949  0.407558  1
  Ga  Ga11  1  0.096928  0.499561  0.007895  1
  Ga  Ga12  1  0.001772  0.094728  0.502929  1
  Ga  Ga13  1  0.499086  0.002662  0.091269  1
  Ru  Ru14  1  0.890171  0.117353  0.754218  1
  Ru  Ru15  1  0.756105  0.899889  0.119815  1
  Ru  Ru16  1  0.118934  0.756133  0.903987  1
  Ru  Ru17  1  0.235306  0.613363  0.384909  1
  Ru  Ru18  1  0.374644  0.218893  0.609469  1
  Ru  Ru19  1  0.602419  0.371459  0.224961  1
