# generated using pymatgen
data_Dy4Er8IrOs3
_symmetry_space_group_name_H-M   'P 1'
_cell_length_a   6.35232810
_cell_length_b   7.34483676
_cell_length_c   8.98155200
_cell_angle_alpha   90.00000000
_cell_angle_beta   90.00000000
_cell_angle_gamma   90.07849515
_symmetry_Int_Tables_number   1
_chemical_formula_structural   Dy4Er8IrOs3
_chemical_formula_sum   'Dy4 Er8 Ir1 Os3'
_cell_volume   419.05019842
_cell_formula_units_Z   1
loop_
 _symmetry_equiv_pos_site_id
 _symmetry_equiv_pos_as_xyz
  1  'x, y, z'
loop_
 _atom_site_type_symbol
 _atom_site_label
 _atom_site_symmetry_multiplicity
 _atom_site_fract_x
 _atom_site_fract_y
 _atom_site_fract_z
 _atom_site_occupancy
  Dy  Dy0  1  0.872742  0.537604  0.250000  1
  Dy  Dy1  1  0.628361  0.038770  0.250000  1
  Dy  Dy2  1  0.127345  0.462128  0.750000  1
  Dy  Dy3  1  0.370796  0.961875  0.750000  1
  Er  Er4  1  0.332306  0.673405  0.061955  1
  Er  Er5  1  0.170141  0.176421  0.438326  1
  Er  Er6  1  0.669508  0.325089  0.562952  1
  Er  Er7  1  0.827724  0.824706  0.935348  1
  Er  Er8  1  0.669508  0.325089  0.937048  1
  Er  Er9  1  0.827724  0.824706  0.564652  1
  Er  Er10  1  0.332306  0.673405  0.438045  1
  Er  Er11  1  0.170141  0.176421  0.061674  1
  Ir  Ir12  1  0.040968  0.884443  0.250000  1
  Os  Os13  1  0.461252  0.383694  0.250000  1
  Os  Os14  1  0.961453  0.115669  0.750000  1
  Os  Os15  1  0.537725  0.616577  0.750000  1
