# generated using pymatgen
data_Cs12CdHgSe8
_symmetry_space_group_name_H-M   'P 1'
_cell_length_a   11.27428400
_cell_length_b   11.27428369
_cell_length_c   8.82065700
_cell_angle_alpha   90.00000000
_cell_angle_beta   90.00000000
_cell_angle_gamma   120.00000090
_symmetry_Int_Tables_number   1
_chemical_formula_structural   Cs12CdHgSe8
_chemical_formula_sum   'Cs12 Cd1 Hg1 Se8'
_cell_volume   970.97822694
_cell_formula_units_Z   1
loop_
 _symmetry_equiv_pos_site_id
 _symmetry_equiv_pos_as_xyz
  1  'x, y, z'
loop_
 _atom_site_type_symbol
 _atom_site_label
 _atom_site_symmetry_multiplicity
 _atom_site_fract_x
 _atom_site_fract_y
 _atom_site_fract_z
 _atom_site_occupancy
  Cs  Cs0  1  0.147320  0.852680  0.542497  1
  Cs  Cs1  1  0.294547  0.147273  0.042579  1
  Cs  Cs2  1  0.852727  0.705453  0.042579  1
  Cs  Cs3  1  0.147320  0.294641  0.542497  1
  Cs  Cs4  1  0.705359  0.852680  0.542497  1
  Cs  Cs5  1  0.852727  0.147273  0.042579  1
  Cs  Cs6  1  0.528398  0.471602  0.366079  1
  Cs  Cs7  1  0.057609  0.528804  0.866593  1
  Cs  Cs8  1  0.471196  0.942391  0.866593  1
  Cs  Cs9  1  0.528398  0.056797  0.366079  1
  Cs  Cs10  1  0.943203  0.471602  0.366079  1
  Cs  Cs11  1  0.471196  0.528804  0.866593  1
  Cd  Cd12  1  0.666667  0.333333  0.750901  1
  Hg  Hg13  1  0.333333  0.666667  0.250406  1
  Se  Se14  1  0.333333  0.666667  0.569640  1
  Se  Se15  1  0.666667  0.333333  0.065606  1
  Se  Se16  1  0.196777  0.803223  0.154322  1
  Se  Se17  1  0.396739  0.198370  0.655547  1
  Se  Se18  1  0.801630  0.603261  0.655547  1
  Se  Se19  1  0.196777  0.393555  0.154322  1
  Se  Se20  1  0.606445  0.803223  0.154322  1
  Se  Se21  1  0.801630  0.198370  0.655547  1
