# generated using pymatgen
data_La8Re(Si4Pt)3
_symmetry_space_group_name_H-M   'P 1'
_cell_length_a   8.31278400
_cell_length_b   8.31278340
_cell_length_c   8.80305200
_cell_angle_alpha   90.00000000
_cell_angle_beta   90.00000000
_cell_angle_gamma   119.99999445
_symmetry_Int_Tables_number   1
_chemical_formula_structural   La8Re(Si4Pt)3
_chemical_formula_sum   'La8 Re1 Si12 Pt3'
_cell_volume   526.81348540
_cell_formula_units_Z   1
loop_
 _symmetry_equiv_pos_site_id
 _symmetry_equiv_pos_as_xyz
  1  'x, y, z'
loop_
 _atom_site_type_symbol
 _atom_site_label
 _atom_site_symmetry_multiplicity
 _atom_site_fract_x
 _atom_site_fract_y
 _atom_site_fract_z
 _atom_site_occupancy
  La  La0  1  0.000000  0.000000  0.249537  1
  La  La1  1  0.000000  0.000000  0.750545  1
  La  La2  1  0.497340  0.502660  0.257608  1
  La  La3  1  0.497340  0.994681  0.257608  1
  La  La4  1  0.005319  0.502660  0.257608  1
  La  La5  1  0.497240  0.502760  0.742377  1
  La  La6  1  0.497240  0.994478  0.742377  1
  La  La7  1  0.005522  0.502760  0.742377  1
  Re  Re8  1  0.333333  0.666667  0.499684  1
  Si  Si9  1  0.166320  0.833680  0.500064  1
  Si  Si10  1  0.166320  0.332641  0.500064  1
  Si  Si11  1  0.667359  0.833680  0.500064  1
  Si  Si12  1  0.836090  0.163910  0.500042  1
  Si  Si13  1  0.836090  0.672180  0.500042  1
  Si  Si14  1  0.327820  0.163910  0.500042  1
  Si  Si15  1  0.834253  0.165747  0.000205  1
  Si  Si16  1  0.834253  0.668504  0.000205  1
  Si  Si17  1  0.331496  0.165747  0.000205  1
  Si  Si18  1  0.165257  0.834743  0.999768  1
  Si  Si19  1  0.165257  0.330515  0.999768  1
  Si  Si20  1  0.669485  0.834743  0.999768  1
  Pt  Pt21  1  0.666667  0.333333  0.500168  1
  Pt  Pt22  1  0.666667  0.333333  0.999668  1
  Pt  Pt23  1  0.333333  0.666667  0.000206  1
