# generated using pymatgen
data_CsPuCuSe3
_symmetry_space_group_name_H-M   'P 1'
_cell_length_a   8.32066863
_cell_length_b   8.32066865
_cell_length_c   10.69770500
_cell_angle_alpha   90.00000000
_cell_angle_beta   90.00000000
_cell_angle_gamma   150.78195242
_symmetry_Int_Tables_number   1
_chemical_formula_structural   CsPuCuSe3
_chemical_formula_sum   'Cs2 Pu2 Cu2 Se6'
_cell_volume   361.53193120
_cell_formula_units_Z   2
loop_
 _symmetry_equiv_pos_site_id
 _symmetry_equiv_pos_as_xyz
  1  'x, y, z'
loop_
 _atom_site_type_symbol
 _atom_site_label
 _atom_site_symmetry_multiplicity
 _atom_site_fract_x
 _atom_site_fract_y
 _atom_site_fract_z
 _atom_site_occupancy
  Cs  Cs0  1  0.744356  0.255644  0.250000  1
  Cs  Cs1  1  0.255644  0.744356  0.750000  1
  Pu  Pu2  1  0.000000  0.000000  0.500000  1
  Pu  Pu3  1  0.000000  0.000000  0.000000  1
  Cu  Cu4  1  0.530966  0.469034  0.750000  1
  Cu  Cu5  1  0.469034  0.530966  0.250000  1
  Se  Se6  1  0.612564  0.387436  0.558978  1
  Se  Se7  1  0.387436  0.612564  0.441022  1
  Se  Se8  1  0.056841  0.943159  0.250000  1
  Se  Se9  1  0.943159  0.056841  0.750000  1
  Se  Se10  1  0.612564  0.387436  0.941022  1
  Se  Se11  1  0.387436  0.612564  0.058978  1
