# generated using pymatgen
data_Nd10GaSi4Sn
_symmetry_space_group_name_H-M   'P 1'
_cell_length_a   7.96204000
_cell_length_b   9.14580953
_cell_length_c   7.96204000
_cell_angle_alpha   115.80333492
_cell_angle_beta   90.00000000
_cell_angle_gamma   115.80333492
_symmetry_Int_Tables_number   1
_chemical_formula_structural   Nd10GaSi4Sn
_chemical_formula_sum   'Nd10 Ga1 Si4 Sn1'
_cell_volume   456.91607163
_cell_formula_units_Z   1
loop_
 _symmetry_equiv_pos_site_id
 _symmetry_equiv_pos_as_xyz
  1  'x, y, z'
loop_
 _atom_site_type_symbol
 _atom_site_label
 _atom_site_symmetry_multiplicity
 _atom_site_fract_x
 _atom_site_fract_y
 _atom_site_fract_z
 _atom_site_occupancy
  Nd  Nd0  1  0.996589  0.993179  0.996589  1
  Nd  Nd1  1  0.503411  0.006821  0.503411  1
  Nd  Nd2  1  0.538652  0.718936  0.685626  1
  Nd  Nd3  1  0.180284  0.718936  0.033312  1
  Nd  Nd4  1  0.685626  0.718936  0.180284  1
  Nd  Nd5  1  0.033312  0.718936  0.538652  1
  Nd  Nd6  1  0.466688  0.281064  0.319716  1
  Nd  Nd7  1  0.814374  0.281064  0.961348  1
  Nd  Nd8  1  0.319716  0.281064  0.814374  1
  Nd  Nd9  1  0.961348  0.281064  0.466688  1
  Ga  Ga10  1  0.750000  0.500000  0.750000  1
  Si  Si11  1  0.884540  0.000000  0.615460  1
  Si  Si12  1  0.115460  0.000000  0.384540  1
  Si  Si13  1  0.615460  0.000000  0.115460  1
  Si  Si14  1  0.384540  0.000000  0.884540  1
  Sn  Sn15  1  0.250000  0.500000  0.250000  1
