# generated using pymatgen
data_Ba2NdB2ClO6
_symmetry_space_group_name_H-M   'P 1'
_cell_length_a   5.42144000
_cell_length_b   6.58928651
_cell_length_c   11.69960415
_cell_angle_alpha   84.95748553
_cell_angle_beta   90.00000000
_cell_angle_gamma   90.00000000
_symmetry_Int_Tables_number   1
_chemical_formula_structural   Ba2NdB2ClO6
_chemical_formula_sum   'Ba4 Nd2 B4 Cl2 O12'
_cell_volume   416.33232064
_cell_formula_units_Z   2
loop_
 _symmetry_equiv_pos_site_id
 _symmetry_equiv_pos_as_xyz
  1  'x, y, z'
loop_
 _atom_site_type_symbol
 _atom_site_label
 _atom_site_symmetry_multiplicity
 _atom_site_fract_x
 _atom_site_fract_y
 _atom_site_fract_z
 _atom_site_occupancy
  Ba  Ba0  1  0.750000  0.399540  0.712214  1
  Ba  Ba1  1  0.250000  0.600460  0.287786  1
  Ba  Ba2  1  0.750000  0.162407  0.072494  1
  Ba  Ba3  1  0.250000  0.837593  0.927506  1
  Nd  Nd4  1  0.750000  0.155584  0.408823  1
  Nd  Nd5  1  0.250000  0.844416  0.591177  1
  B  B6  1  0.250000  0.127778  0.218120  1
  B  B7  1  0.750000  0.872222  0.781880  1
  B  B8  1  0.750000  0.711201  0.422770  1
  B  B9  1  0.250000  0.288799  0.577230  1
  Cl  Cl10  1  0.750000  0.653188  0.082234  1
  Cl  Cl11  1  0.250000  0.346812  0.917766  1
  O  O12  1  0.469075  0.213490  0.253805  1
  O  O13  1  0.969075  0.786510  0.746195  1
  O  O14  1  0.530925  0.786510  0.746195  1
  O  O15  1  0.030925  0.213490  0.253805  1
  O  O16  1  0.531025  0.821323  0.431415  1
  O  O17  1  0.031025  0.178677  0.568585  1
  O  O18  1  0.468975  0.178677  0.568585  1
  O  O19  1  0.968975  0.821323  0.431415  1
  O  O20  1  0.750000  0.513075  0.398976  1
  O  O21  1  0.250000  0.486925  0.601024  1
  O  O22  1  0.250000  0.975759  0.143528  1
  O  O23  1  0.750000  0.024241  0.856472  1
