# generated using pymatgen
data_Ho5Tm5CoRu3
_symmetry_space_group_name_H-M   'P 1'
_cell_length_a   6.25026051
_cell_length_b   7.19803398
_cell_length_c   8.35741367
_cell_angle_alpha   96.72891999
_cell_angle_beta   111.71751437
_cell_angle_gamma   90.25292067
_symmetry_Int_Tables_number   1
_chemical_formula_structural   Ho5Tm5CoRu3
_chemical_formula_sum   'Ho5 Tm5 Co1 Ru3'
_cell_volume   346.43667658
_cell_formula_units_Z   1
loop_
 _symmetry_equiv_pos_site_id
 _symmetry_equiv_pos_as_xyz
  1  'x, y, z'
loop_
 _atom_site_type_symbol
 _atom_site_label
 _atom_site_symmetry_multiplicity
 _atom_site_fract_x
 _atom_site_fract_y
 _atom_site_fract_z
 _atom_site_occupancy
  Ho  Ho0  1  0.789640  0.088315  0.813964  1
  Ho  Ho1  1  0.978830  0.416154  0.189435  1
  Ho  Ho2  1  0.209940  0.916711  0.185505  1
  Ho  Ho3  1  0.014024  0.584189  0.814004  1
  Ho  Ho4  1  0.209323  0.187086  0.566358  1
  Tm  Tm5  1  0.644201  0.315720  0.434687  1
  Tm  Tm6  1  0.794362  0.814661  0.435515  1
  Tm  Tm7  1  0.358751  0.680676  0.566820  1
  Tm  Tm8  1  0.421507  0.253094  0.998953  1
  Tm  Tm9  1  0.579467  0.746040  0.997555  1
  Co  Co10  1  0.602481  0.422472  0.776628  1
  Ru  Ru11  1  0.821064  0.074714  0.218420  1
  Ru  Ru12  1  0.398789  0.575207  0.221798  1
  Ru  Ru13  1  0.177621  0.924962  0.780356  1
