# generated using pymatgen
data_Sm4GaB4Ir9
_symmetry_space_group_name_H-M   'P 1'
_cell_length_a   10.81051612
_cell_length_b   10.81051527
_cell_length_c   10.81051600
_cell_angle_alpha   29.63844667
_cell_angle_beta   29.63845461
_cell_angle_gamma   29.63844696
_symmetry_Int_Tables_number   1
_chemical_formula_structural   Sm4GaB4Ir9
_chemical_formula_sum   'Sm4 Ga1 B4 Ir9'
_cell_volume   273.53415525
_cell_formula_units_Z   1
loop_
 _symmetry_equiv_pos_site_id
 _symmetry_equiv_pos_as_xyz
  1  'x, y, z'
loop_
 _atom_site_type_symbol
 _atom_site_label
 _atom_site_symmetry_multiplicity
 _atom_site_fract_x
 _atom_site_fract_y
 _atom_site_fract_z
 _atom_site_occupancy
  Sm  Sm0  1  0.149443  0.149443  0.149443  1
  Sm  Sm1  1  0.950198  0.950198  0.950198  1
  Sm  Sm2  1  0.850557  0.850557  0.850557  1
  Sm  Sm3  1  0.049802  0.049802  0.049802  1
  Ga  Ga4  1  0.500000  0.500000  0.500000  1
  B  B5  1  0.616016  0.616016  0.616016  1
  B  B6  1  0.717799  0.717799  0.717799  1
  B  B7  1  0.383984  0.383984  0.383984  1
  B  B8  1  0.282201  0.282201  0.282201  1
  Ir  Ir9  1  0.402615  0.902087  0.402615  1
  Ir  Ir10  1  0.902087  0.402615  0.402615  1
  Ir  Ir11  1  0.500000  0.500000  0.000000  1
  Ir  Ir12  1  0.500000  0.000000  0.500000  1
  Ir  Ir13  1  0.000000  0.500000  0.500000  1
  Ir  Ir14  1  0.597385  0.097913  0.597385  1
  Ir  Ir15  1  0.597385  0.597385  0.097913  1
  Ir  Ir16  1  0.097913  0.597385  0.597385  1
  Ir  Ir17  1  0.402615  0.402615  0.902087  1
