# generated using pymatgen
data_InSn7(BRh6)2
_symmetry_space_group_name_H-M   'P 1'
_cell_length_a   5.68245100
_cell_length_b   5.68245132
_cell_length_c   13.86590800
_cell_angle_alpha   90.00000000
_cell_angle_beta   90.00000000
_cell_angle_gamma   120.00000397
_symmetry_Int_Tables_number   1
_chemical_formula_structural   InSn7(BRh6)2
_chemical_formula_sum   'In1 Sn7 B2 Rh12'
_cell_volume   387.74870130
_cell_formula_units_Z   1
loop_
 _symmetry_equiv_pos_site_id
 _symmetry_equiv_pos_as_xyz
  1  'x, y, z'
loop_
 _atom_site_type_symbol
 _atom_site_label
 _atom_site_symmetry_multiplicity
 _atom_site_fract_x
 _atom_site_fract_y
 _atom_site_fract_z
 _atom_site_occupancy
  In  In0  1  0.333333  0.666667  0.418885  1
  Sn  Sn1  1  0.000000  0.000000  0.748416  1
  Sn  Sn2  1  0.000000  0.000000  0.252579  1
  Sn  Sn3  1  0.333333  0.666667  0.749939  1
  Sn  Sn4  1  0.666667  0.333333  0.251287  1
  Sn  Sn5  1  0.666667  0.333333  0.924587  1
  Sn  Sn6  1  0.666667  0.333333  0.574566  1
  Sn  Sn7  1  0.333333  0.666667  0.075328  1
  B  B8  1  0.000000  0.000000  0.499569  1
  B  B9  1  0.000000  0.000000  0.000338  1
  Rh  Rh10  1  0.336524  0.168263  0.407666  1
  Rh  Rh11  1  0.831737  0.168263  0.407666  1
  Rh  Rh12  1  0.831737  0.663476  0.407666  1
  Rh  Rh13  1  0.167451  0.334900  0.906614  1
  Rh  Rh14  1  0.663847  0.831923  0.593419  1
  Rh  Rh15  1  0.665100  0.832549  0.906614  1
  Rh  Rh16  1  0.335027  0.167514  0.093802  1
  Rh  Rh17  1  0.168077  0.336153  0.593419  1
  Rh  Rh18  1  0.168077  0.831923  0.593419  1
  Rh  Rh19  1  0.832486  0.167514  0.093802  1
  Rh  Rh20  1  0.832486  0.664973  0.093802  1
  Rh  Rh21  1  0.167451  0.832549  0.906614  1
