# generated using pymatgen
data_Er4NbIO12
_symmetry_space_group_name_H-M   'P 1'
_cell_length_a   5.41533000
_cell_length_b   7.68153396
_cell_length_c   11.47368000
_cell_angle_alpha   76.16215347
_cell_angle_beta   90.00000000
_cell_angle_gamma   90.00000000
_symmetry_Int_Tables_number   1
_chemical_formula_structural   Er4NbIO12
_chemical_formula_sum   'Er8 Nb2 I2 O24'
_cell_volume   463.43020508
_cell_formula_units_Z   2
loop_
 _symmetry_equiv_pos_site_id
 _symmetry_equiv_pos_as_xyz
  1  'x, y, z'
loop_
 _atom_site_type_symbol
 _atom_site_label
 _atom_site_symmetry_multiplicity
 _atom_site_fract_x
 _atom_site_fract_y
 _atom_site_fract_z
 _atom_site_occupancy
  Er  Er0  1  0.740735  0.981046  0.758367  1
  Er  Er1  1  0.259265  0.981046  0.258367  1
  Er  Er2  1  0.192026  0.792824  0.577251  1
  Er  Er3  1  0.807974  0.792824  0.077251  1
  Er  Er4  1  0.688494  0.521777  0.746004  1
  Er  Er5  1  0.311506  0.521777  0.246004  1
  Er  Er6  1  0.192036  0.203592  0.922152  1
  Er  Er7  1  0.807964  0.203592  0.422152  1
  Nb  Nb8  1  0.253732  0.716324  0.890473  1
  Nb  Nb9  1  0.746268  0.716324  0.390473  1
  I  I10  1  0.254142  0.273465  0.616922  1
  I  I11  1  0.745858  0.273465  0.116922  1
  O  O12  1  0.022566  0.948520  0.903587  1
  O  O13  1  0.530509  0.856197  0.929011  1
  O  O14  1  0.977434  0.948520  0.403587  1
  O  O15  1  0.477925  0.784024  0.718527  1
  O  O16  1  0.469491  0.856197  0.429011  1
  O  O17  1  0.979973  0.720161  0.766914  1
  O  O18  1  0.522075  0.784024  0.218527  1
  O  O19  1  0.856651  0.634472  0.553349  1
  O  O20  1  0.367123  0.483502  0.880042  1
  O  O21  1  0.020027  0.720161  0.266914  1
  O  O22  1  0.377855  0.502682  0.610975  1
  O  O23  1  0.864589  0.360719  0.957969  1
  O  O24  1  0.143349  0.634472  0.053349  1
  O  O25  1  0.632877  0.483502  0.380042  1
  O  O26  1  0.983182  0.303561  0.723709  1
  O  O27  1  0.622145  0.502682  0.110975  1
  O  O28  1  0.135411  0.360719  0.457969  1
  O  O29  1  0.437203  0.196357  0.766581  1
  O  O30  1  0.016818  0.303561  0.223709  1
  O  O31  1  0.528910  0.159135  0.564716  1
  O  O32  1  0.562797  0.196357  0.266581  1
  O  O33  1  0.060164  0.061643  0.613450  1
  O  O34  1  0.471090  0.159135  0.064716  1
  O  O35  1  0.939836  0.061643  0.113450  1
