# generated using pymatgen
data_Np7BiF30
_symmetry_space_group_name_H-M   'P 1'
_cell_length_a   8.70512191
_cell_length_b   8.71175866
_cell_length_c   8.70512221
_cell_angle_alpha   100.64030439
_cell_angle_beta   100.23375448
_cell_angle_gamma   100.64029759
_symmetry_Int_Tables_number   1
_chemical_formula_structural   Np7BiF30
_chemical_formula_sum   'Np7 Bi1 F30'
_cell_volume   622.15002651
_cell_formula_units_Z   1
loop_
 _symmetry_equiv_pos_site_id
 _symmetry_equiv_pos_as_xyz
  1  'x, y, z'
loop_
 _atom_site_type_symbol
 _atom_site_label
 _atom_site_symmetry_multiplicity
 _atom_site_fract_x
 _atom_site_fract_y
 _atom_site_fract_z
 _atom_site_occupancy
  Np  Np0  1  0.249834  0.250000  0.250166  1
  Np  Np1  1  0.177421  0.750000  0.322579  1
  Np  Np2  1  0.249159  0.678413  0.823046  1
  Np  Np3  1  0.676954  0.821587  0.250841  1
  Np  Np4  1  0.750219  0.750000  0.749781  1
  Np  Np5  1  0.323835  0.179267  0.748975  1
  Np  Np6  1  0.751025  0.320733  0.176165  1
  Bi  Bi7  1  0.823849  0.250000  0.676151  1
  F  F8  1  0.968537  0.530701  0.252303  1
  F  F9  1  0.816884  0.340677  0.439747  1
  F  F10  1  0.488747  0.716836  0.719108  1
  F  F11  1  0.341988  0.449305  0.825189  1
  F  F12  1  0.012800  0.784293  0.784456  1
  F  F13  1  0.752560  0.025950  0.461745  1
  F  F14  1  0.945484  0.837056  0.320343  1
  F  F15  1  0.219625  0.218646  0.990862  1
  F  F16  1  0.779338  0.005821  0.781509  1
  F  F17  1  0.323757  0.947905  0.837931  1
  F  F18  1  0.282201  0.285093  0.511899  1
  F  F19  1  0.446797  0.823900  0.340803  1
  F  F20  1  0.530007  0.250000  0.969993  1
  F  F21  1  0.282451  0.511663  0.281154  1
  F  F22  1  0.159197  0.676100  0.053203  1
  F  F23  1  0.842448  0.322608  0.954504  1
  F  F24  1  0.718491  0.494179  0.720662  1
  F  F25  1  0.465632  0.750000  0.034368  1
  F  F26  1  0.545496  0.177392  0.657552  1
  F  F27  1  0.715544  0.715707  0.487200  1
  F  F28  1  0.674811  0.050695  0.158012  1
  F  F29  1  0.218846  0.988337  0.217549  1
  F  F30  1  0.780892  0.783164  0.011253  1
  F  F31  1  0.060253  0.159323  0.683116  1
  F  F32  1  0.247697  0.969299  0.531463  1
  F  F33  1  0.988101  0.214907  0.217799  1
  F  F34  1  0.662069  0.552095  0.176243  1
  F  F35  1  0.509138  0.281354  0.280375  1
  F  F36  1  0.179657  0.662944  0.554516  1
  F  F37  1  0.038255  0.474050  0.747440  1
