# generated using pymatgen
data_DyEr7Tc3B24Ru
_symmetry_space_group_name_H-M   'P 1'
_cell_length_a   3.65437300
_cell_length_b   9.11850357
_cell_length_c   11.49852601
_cell_angle_alpha   89.92365284
_cell_angle_beta   90.00000000
_cell_angle_gamma   90.00000000
_symmetry_Int_Tables_number   1
_chemical_formula_structural   DyEr7Tc3B24Ru
_chemical_formula_sum   'Dy1 Er7 Tc3 B24 Ru1'
_cell_volume   383.15829518
_cell_formula_units_Z   1
loop_
 _symmetry_equiv_pos_site_id
 _symmetry_equiv_pos_as_xyz
  1  'x, y, z'
loop_
 _atom_site_type_symbol
 _atom_site_label
 _atom_site_symmetry_multiplicity
 _atom_site_fract_x
 _atom_site_fract_y
 _atom_site_fract_z
 _atom_site_occupancy
  Dy  Dy0  1  0.000000  0.323602  0.413840  1
  Er  Er1  1  0.000000  0.675179  0.584023  1
  Er  Er2  1  0.000000  0.822938  0.087268  1
  Er  Er3  1  0.000000  0.177944  0.914629  1
  Er  Er4  1  0.000000  0.942748  0.370357  1
  Er  Er5  1  0.000000  0.057418  0.630524  1
  Er  Er6  1  0.000000  0.443292  0.129737  1
  Er  Er7  1  0.000000  0.557664  0.869491  1
  Tc  Tc8  1  0.000000  0.638707  0.320500  1
  Tc  Tc9  1  0.000000  0.361562  0.680266  1
  Tc  Tc10  1  0.000000  0.137888  0.178138  1
  B  B11  1  0.500000  0.553331  0.433072  1
  B  B12  1  0.500000  0.446855  0.566946  1
  B  B13  1  0.500000  0.052974  0.066508  1
  B  B14  1  0.500000  0.946120  0.932985  1
  B  B15  1  0.500000  0.749041  0.419144  1
  B  B16  1  0.500000  0.250426  0.581495  1
  B  B17  1  0.500000  0.249577  0.080768  1
  B  B18  1  0.500000  0.751238  0.918788  1
  B  B19  1  0.500000  0.792298  0.265443  1
  B  B20  1  0.500000  0.207855  0.735426  1
  B  B21  1  0.500000  0.292062  0.234335  1
  B  B22  1  0.500000  0.708746  0.765119  1
  B  B23  1  0.500000  0.631333  0.185180  1
  B  B24  1  0.500000  0.368943  0.815336  1
  B  B25  1  0.500000  0.130401  0.314181  1
  B  B26  1  0.500000  0.868634  0.685413  1
  B  B27  1  0.500000  0.981442  0.211879  1
  B  B28  1  0.500000  0.016999  0.788262  1
  B  B29  1  0.500000  0.482252  0.287604  1
  B  B30  1  0.500000  0.518115  0.711886  1
  B  B31  1  0.500000  0.602403  0.028082  1
  B  B32  1  0.500000  0.399309  0.971596  1
  B  B33  1  0.500000  0.101136  0.472192  1
  B  B34  1  0.500000  0.898049  0.528722  1
  Ru  Ru35  1  0.000000  0.861521  0.820863  1
