# generated using pymatgen
data_Tm2MgPa2ZnNi4
_symmetry_space_group_name_H-M   'P 1'
_cell_length_a   7.38287175
_cell_length_b   7.23636241
_cell_length_c   3.52799800
_cell_angle_alpha   90.00000000
_cell_angle_beta   90.00000000
_cell_angle_gamma   93.71835180
_symmetry_Int_Tables_number   1
_chemical_formula_structural   Tm2MgPa2ZnNi4
_chemical_formula_sum   'Tm2 Mg1 Pa2 Zn1 Ni4'
_cell_volume   188.08699396
_cell_formula_units_Z   1
loop_
 _symmetry_equiv_pos_site_id
 _symmetry_equiv_pos_as_xyz
  1  'x, y, z'
loop_
 _atom_site_type_symbol
 _atom_site_label
 _atom_site_symmetry_multiplicity
 _atom_site_fract_x
 _atom_site_fract_y
 _atom_site_fract_z
 _atom_site_occupancy
  Tm  Tm0  1  0.164508  0.319565  0.500000  1
  Tm  Tm1  1  0.835492  0.680435  0.500000  1
  Mg  Mg2  1  0.500000  0.500000  0.000000  1
  Pa  Pa3  1  0.686561  0.162507  0.500000  1
  Pa  Pa4  1  0.313439  0.837493  0.500000  1
  Zn  Zn5  1  0.000000  0.000000  0.000000  1
  Ni  Ni6  1  0.134443  0.632779  0.000000  1
  Ni  Ni7  1  0.865557  0.367221  0.000000  1
  Ni  Ni8  1  0.621510  0.884034  0.000000  1
  Ni  Ni9  1  0.378490  0.115966  0.000000  1
