# generated using pymatgen
data_Pr12GeB(AsBr6)2
_symmetry_space_group_name_H-M   'P 1'
_cell_length_a   10.53678230
_cell_length_b   10.43078333
_cell_length_c   10.43078327
_cell_angle_alpha   109.13251099
_cell_angle_beta   109.70584584
_cell_angle_gamma   109.70584648
_symmetry_Int_Tables_number   1
_chemical_formula_structural   Pr12GeB(AsBr6)2
_chemical_formula_sum   'Pr12 Ge1 B1 As2 Br12'
_cell_volume   881.06401290
_cell_formula_units_Z   1
loop_
 _symmetry_equiv_pos_site_id
 _symmetry_equiv_pos_as_xyz
  1  'x, y, z'
loop_
 _atom_site_type_symbol
 _atom_site_label
 _atom_site_symmetry_multiplicity
 _atom_site_fract_x
 _atom_site_fract_y
 _atom_site_fract_z
 _atom_site_occupancy
  Pr  Pr0  1  0.467210  0.493913  0.225187  1
  Pr  Pr1  1  0.750000  0.238672  0.261328  1
  Pr  Pr2  1  0.750000  0.010457  0.489543  1
  Pr  Pr3  1  0.240400  0.480355  0.490018  1
  Pr  Pr4  1  0.258255  0.731035  0.224662  1
  Pr  Pr5  1  0.032790  0.274813  0.006087  1
  Pr  Pr6  1  0.011163  0.021517  0.260408  1
  Pr  Pr7  1  0.472602  0.730898  0.006332  1
  Pr  Pr8  1  0.488837  0.239592  0.478483  1
  Pr  Pr9  1  0.027398  0.493668  0.769102  1
  Pr  Pr10  1  0.259600  0.009982  0.019645  1
  Pr  Pr11  1  0.241745  0.275338  0.768965  1
  Ge  Ge12  1  0.250000  0.250590  0.249410  1
  B  B13  1  0.250000  0.500372  0.999628  1
  As  As14  1  0.499304  0.998112  0.249046  1
  As  As15  1  0.000696  0.250954  0.501888  1
  Br  Br16  1  0.250000  0.754718  0.745282  1
  Br  Br17  1  0.509453  0.504683  0.756195  1
  Br  Br18  1  0.990547  0.743805  0.995317  1
  Br  Br19  1  0.746555  0.251149  0.755893  1
  Br  Br20  1  0.995036  0.990194  0.744778  1
  Br  Br21  1  0.250000  0.996879  0.503121  1
  Br  Br22  1  0.753173  0.505957  0.503026  1
  Br  Br23  1  0.504917  0.251182  0.995134  1
  Br  Br24  1  0.753445  0.744107  0.248851  1
  Br  Br25  1  0.746827  0.996974  0.994043  1
  Br  Br26  1  0.995083  0.504866  0.248818  1
  Br  Br27  1  0.504964  0.755222  0.509806  1
