# generated using pymatgen
data_Y14(InPd)3
_symmetry_space_group_name_H-M   'P 1'
_cell_length_a   9.88476100
_cell_length_b   9.88476100
_cell_length_c   23.98600000
_cell_angle_alpha   90.00000000
_cell_angle_beta   90.00000000
_cell_angle_gamma   90.00000000
_symmetry_Int_Tables_number   1
_chemical_formula_structural   Y14(InPd)3
_chemical_formula_sum   'Y56 In12 Pd12'
_cell_volume   2343.63608165
_cell_formula_units_Z   4
loop_
 _symmetry_equiv_pos_site_id
 _symmetry_equiv_pos_as_xyz
  1  'x, y, z'
loop_
 _atom_site_type_symbol
 _atom_site_label
 _atom_site_symmetry_multiplicity
 _atom_site_fract_x
 _atom_site_fract_y
 _atom_site_fract_z
 _atom_site_occupancy
  Y  Y0  1  0.250000  0.440935  0.466076  1
  Y  Y1  1  0.250000  0.562647  0.983382  1
  Y  Y2  1  0.250000  0.937353  0.983382  1
  Y  Y3  1  0.437048  0.439130  0.604572  1
  Y  Y4  1  0.560870  0.937048  0.895428  1
  Y  Y5  1  0.934565  0.434565  0.250000  1
  Y  Y6  1  0.439130  0.437048  0.104572  1
  Y  Y7  1  0.937048  0.939130  0.395428  1
  Y  Y8  1  0.750000  0.437353  0.016618  1
  Y  Y9  1  0.559065  0.750000  0.033924  1
  Y  Y10  1  0.750000  0.250000  0.146249  1
  Y  Y11  1  0.062952  0.060870  0.604572  1
  Y  Y12  1  0.750000  0.559065  0.533924  1
  Y  Y13  1  0.434565  0.934565  0.750000  1
  Y  Y14  1  0.750000  0.940935  0.533924  1
  Y  Y15  1  0.065435  0.934565  0.750000  1
  Y  Y16  1  0.940935  0.750000  0.033924  1
  Y  Y17  1  0.440935  0.250000  0.966076  1
  Y  Y18  1  0.040633  0.750000  0.193397  1
  Y  Y19  1  0.750000  0.750000  0.787365  1
  Y  Y20  1  0.937353  0.250000  0.483382  1
  Y  Y21  1  0.939130  0.562952  0.895428  1
  Y  Y22  1  0.434565  0.565435  0.750000  1
  Y  Y23  1  0.062647  0.750000  0.516618  1
  Y  Y24  1  0.540633  0.250000  0.806603  1
  Y  Y25  1  0.250000  0.750000  0.646249  1
  Y  Y26  1  0.959367  0.250000  0.806603  1
  Y  Y27  1  0.250000  0.750000  0.853751  1
  Y  Y28  1  0.062952  0.439130  0.604572  1
  Y  Y29  1  0.437048  0.060870  0.604572  1
  Y  Y30  1  0.562952  0.939130  0.395428  1
  Y  Y31  1  0.565435  0.065435  0.250000  1
  Y  Y32  1  0.750000  0.062647  0.016618  1
  Y  Y33  1  0.250000  0.250000  0.712635  1
  Y  Y34  1  0.437353  0.750000  0.516618  1
  Y  Y35  1  0.750000  0.040633  0.693397  1
  Y  Y36  1  0.060870  0.062952  0.104572  1
  Y  Y37  1  0.059065  0.250000  0.966076  1
  Y  Y38  1  0.934565  0.065435  0.250000  1
  Y  Y39  1  0.750000  0.250000  0.353751  1
  Y  Y40  1  0.562647  0.250000  0.483382  1
  Y  Y41  1  0.439130  0.062952  0.104572  1
  Y  Y42  1  0.250000  0.059065  0.466076  1
  Y  Y43  1  0.459367  0.750000  0.193397  1
  Y  Y44  1  0.560870  0.562952  0.895428  1
  Y  Y45  1  0.250000  0.250000  0.212635  1
  Y  Y46  1  0.565435  0.434565  0.250000  1
  Y  Y47  1  0.250000  0.540633  0.306603  1
  Y  Y48  1  0.250000  0.959367  0.306603  1
  Y  Y49  1  0.060870  0.437048  0.104572  1
  Y  Y50  1  0.065435  0.565435  0.750000  1
  Y  Y51  1  0.562952  0.560870  0.395428  1
  Y  Y52  1  0.939130  0.937048  0.895428  1
  Y  Y53  1  0.750000  0.459367  0.693397  1
  Y  Y54  1  0.750000  0.750000  0.287365  1
  Y  Y55  1  0.937048  0.560870  0.395428  1
  In  In56  1  0.250000  0.089228  0.855354  1
  In  In57  1  0.750000  0.250000  0.591737  1
  In  In58  1  0.750000  0.910772  0.144646  1
  In  In59  1  0.589228  0.750000  0.644646  1
  In  In60  1  0.250000  0.750000  0.091737  1
  In  In61  1  0.410772  0.250000  0.355354  1
  In  In62  1  0.250000  0.750000  0.408263  1
  In  In63  1  0.910772  0.750000  0.644646  1
  In  In64  1  0.250000  0.410772  0.855354  1
  In  In65  1  0.750000  0.589228  0.144646  1
  In  In66  1  0.750000  0.250000  0.908263  1
  In  In67  1  0.089228  0.250000  0.355354  1
  Pd  Pd68  1  0.250000  0.250000  0.553919  1
  Pd  Pd69  1  0.250000  0.250000  0.053919  1
  Pd  Pd70  1  0.250000  0.536664  0.189074  1
  Pd  Pd71  1  0.463336  0.750000  0.310926  1
  Pd  Pd72  1  0.750000  0.036664  0.810926  1
  Pd  Pd73  1  0.963336  0.250000  0.689074  1
  Pd  Pd74  1  0.536664  0.250000  0.689074  1
  Pd  Pd75  1  0.250000  0.963336  0.189074  1
  Pd  Pd76  1  0.750000  0.750000  0.446081  1
  Pd  Pd77  1  0.750000  0.463336  0.810926  1
  Pd  Pd78  1  0.036664  0.750000  0.310926  1
  Pd  Pd79  1  0.750000  0.750000  0.946081  1
