# generated using pymatgen
data_Y2PaSn3Ir2Rh
_symmetry_space_group_name_H-M   'P 1'
_cell_length_a   7.66797000
_cell_length_b   7.57072195
_cell_length_c   3.85994200
_cell_angle_alpha   90.00000000
_cell_angle_beta   90.00000000
_cell_angle_gamma   120.42583601
_symmetry_Int_Tables_number   1
_chemical_formula_structural   Y2PaSn3Ir2Rh
_chemical_formula_sum   'Y2 Pa1 Sn3 Ir2 Rh1'
_cell_volume   193.21885876
_cell_formula_units_Z   1
loop_
 _symmetry_equiv_pos_site_id
 _symmetry_equiv_pos_as_xyz
  1  'x, y, z'
loop_
 _atom_site_type_symbol
 _atom_site_label
 _atom_site_symmetry_multiplicity
 _atom_site_fract_x
 _atom_site_fract_y
 _atom_site_fract_z
 _atom_site_occupancy
  Y  Y0  1  0.000073  0.404027  0.500000  1
  Y  Y1  1  0.596046  0.595973  0.500000  1
  Pa  Pa2  1  0.412971  0.000000  0.500000  1
  Sn  Sn3  1  0.756410  0.000000  0.000000  1
  Sn  Sn4  1  0.986267  0.727662  0.000000  1
  Sn  Sn5  1  0.258605  0.272338  0.000000  1
  Ir  Ir6  1  0.336285  0.698547  0.000000  1
  Ir  Ir7  1  0.637739  0.301453  0.000000  1
  Rh  Rh8  1  0.015603  0.000000  0.500000  1
