# generated using pymatgen
data_Zr10AlB2Sb5
_symmetry_space_group_name_H-M   'P 1'
_cell_length_a   8.50146007
_cell_length_b   8.50145913
_cell_length_c   5.78644400
_cell_angle_alpha   90.00000000
_cell_angle_beta   90.00000000
_cell_angle_gamma   120.23260798
_symmetry_Int_Tables_number   1
_chemical_formula_structural   Zr10AlB2Sb5
_chemical_formula_sum   'Zr10 Al1 B2 Sb5'
_cell_volume   361.33218683
_cell_formula_units_Z   1
loop_
 _symmetry_equiv_pos_site_id
 _symmetry_equiv_pos_as_xyz
  1  'x, y, z'
loop_
 _atom_site_type_symbol
 _atom_site_label
 _atom_site_symmetry_multiplicity
 _atom_site_fract_x
 _atom_site_fract_y
 _atom_site_fract_z
 _atom_site_occupancy
  Zr  Zr0  1  0.664855  0.333733  0.497541  1
  Zr  Zr1  1  0.333733  0.664855  0.497541  1
  Zr  Zr2  1  0.333733  0.664855  0.002459  1
  Zr  Zr3  1  0.664855  0.333733  0.002459  1
  Zr  Zr4  1  0.763135  0.763135  0.250000  1
  Zr  Zr5  1  0.237116  0.007370  0.250000  1
  Zr  Zr6  1  0.007370  0.237116  0.250000  1
  Zr  Zr7  1  0.232175  0.232175  0.750000  1
  Zr  Zr8  1  0.766055  0.998087  0.750000  1
  Zr  Zr9  1  0.998087  0.766055  0.750000  1
  Al  Al10  1  0.402751  0.402751  0.250000  1
  B  B11  1  0.999914  0.999914  0.498837  1
  B  B12  1  0.999914  0.999914  0.001163  1
  Sb  Sb13  1  0.603799  0.001032  0.250000  1
  Sb  Sb14  1  0.001032  0.603799  0.250000  1
  Sb  Sb15  1  0.593331  0.593331  0.750000  1
  Sb  Sb16  1  0.398274  0.999873  0.750000  1
  Sb  Sb17  1  0.999873  0.398274  0.750000  1
