# generated using pymatgen
data_DyYAg2(Ir2O7)2
_symmetry_space_group_name_H-M   'P 1'
_cell_length_a   7.22455836
_cell_length_b   7.16932674
_cell_length_c   7.22596229
_cell_angle_alpha   60.25893107
_cell_angle_beta   61.15818653
_cell_angle_gamma   60.25257507
_symmetry_Int_Tables_number   1
_chemical_formula_structural   DyYAg2(Ir2O7)2
_chemical_formula_sum   'Dy1 Y1 Ag2 Ir4 O14'
_cell_volume   267.93282049
_cell_formula_units_Z   1
loop_
 _symmetry_equiv_pos_site_id
 _symmetry_equiv_pos_as_xyz
  1  'x, y, z'
loop_
 _atom_site_type_symbol
 _atom_site_label
 _atom_site_symmetry_multiplicity
 _atom_site_fract_x
 _atom_site_fract_y
 _atom_site_fract_z
 _atom_site_occupancy
  Dy  Dy0  1  0.125000  0.125000  0.625000  1
  Y  Y1  1  0.625000  0.125000  0.125000  1
  Ag  Ag2  1  0.125000  0.625000  0.125000  1
  Ag  Ag3  1  0.125000  0.125000  0.125000  1
  Ir  Ir4  1  0.125000  0.625000  0.625000  1
  Ir  Ir5  1  0.625000  0.125000  0.625000  1
  Ir  Ir6  1  0.625000  0.625000  0.125000  1
  Ir  Ir7  1  0.625000  0.625000  0.625000  1
  O  O8  1  0.694459  0.712250  0.299068  1
  O  O9  1  0.298662  0.294220  0.694447  1
  O  O10  1  0.713527  0.286735  0.713002  1
  O  O11  1  0.306777  0.693052  0.307119  1
  O  O12  1  0.298662  0.712670  0.694447  1
  O  O13  1  0.694459  0.294222  0.299068  1
  O  O14  1  0.555541  0.537750  0.950932  1
  O  O15  1  0.951338  0.955780  0.555553  1
  O  O16  1  0.536473  0.963265  0.536998  1
  O  O17  1  0.943223  0.556948  0.942881  1
  O  O18  1  0.951338  0.537330  0.555553  1
  O  O19  1  0.555541  0.955778  0.950932  1
  O  O20  1  0.244288  0.255422  0.244869  1
  O  O21  1  0.005712  0.994578  0.005131  1
