# generated using pymatgen
data_KGdSiSe4
_symmetry_space_group_name_H-M   'P 1'
_cell_length_a   6.99734500
_cell_length_b   6.72050657
_cell_length_c   9.13073800
_cell_angle_alpha   72.42502265
_cell_angle_beta   90.00000000
_cell_angle_gamma   90.00000000
_symmetry_Int_Tables_number   1
_chemical_formula_structural   KGdSiSe4
_chemical_formula_sum   'K2 Gd2 Si2 Se8'
_cell_volume   409.33707398
_cell_formula_units_Z   2
loop_
 _symmetry_equiv_pos_site_id
 _symmetry_equiv_pos_as_xyz
  1  'x, y, z'
loop_
 _atom_site_type_symbol
 _atom_site_label
 _atom_site_symmetry_multiplicity
 _atom_site_fract_x
 _atom_site_fract_y
 _atom_site_fract_z
 _atom_site_occupancy
  K  K0  1  0.979916  0.734961  0.064538  1
  K  K1  1  0.479916  0.265039  0.935462  1
  Gd  Gd2  1  0.500118  0.229987  0.450020  1
  Gd  Gd3  1  0.000118  0.770013  0.549980  1
  Si  Si4  1  0.462478  0.780927  0.326621  1
  Si  Si5  1  0.962478  0.219073  0.673379  1
  Se  Se6  1  0.462200  0.581533  0.166458  1
  Se  Se7  1  0.227177  0.029664  0.276234  1
  Se  Se8  1  0.733566  0.982338  0.295007  1
  Se  Se9  1  0.901546  0.423289  0.427730  1
  Se  Se10  1  0.401546  0.576711  0.572270  1
  Se  Se11  1  0.233566  0.017662  0.704993  1
  Se  Se12  1  0.727177  0.970336  0.723766  1
  Se  Se13  1  0.962200  0.418467  0.833542  1
