# generated using pymatgen
data_CeCo(P4Ru)3
_symmetry_space_group_name_H-M   'P 1'
_cell_length_a   6.94773074
_cell_length_b   6.94773118
_cell_length_c   6.94773094
_cell_angle_alpha   109.37410838
_cell_angle_beta   109.37411490
_cell_angle_gamma   109.37410913
_symmetry_Int_Tables_number   1
_chemical_formula_structural   CeCo(P4Ru)3
_chemical_formula_sum   'Ce1 Co1 P12 Ru3'
_cell_volume   259.09484888
_cell_formula_units_Z   1
loop_
 _symmetry_equiv_pos_site_id
 _symmetry_equiv_pos_as_xyz
  1  'x, y, z'
loop_
 _atom_site_type_symbol
 _atom_site_label
 _atom_site_symmetry_multiplicity
 _atom_site_fract_x
 _atom_site_fract_y
 _atom_site_fract_z
 _atom_site_occupancy
  Ce  Ce0  1  0.000000  0.000000  0.000000  1
  Co  Co1  1  0.500000  0.500000  0.500000  1
  P  P2  1  0.847906  0.641514  0.501034  1
  P  P3  1  0.856273  0.357296  0.214283  1
  P  P4  1  0.143727  0.642704  0.785717  1
  P  P5  1  0.358486  0.498966  0.152094  1
  P  P6  1  0.498966  0.152094  0.358486  1
  P  P7  1  0.152094  0.358486  0.498966  1
  P  P8  1  0.642704  0.785717  0.143727  1
  P  P9  1  0.214283  0.856273  0.357296  1
  P  P10  1  0.641514  0.501034  0.847906  1
  P  P11  1  0.785717  0.143727  0.642704  1
  P  P12  1  0.357296  0.214283  0.856273  1
  P  P13  1  0.501034  0.847906  0.641514  1
  Ru  Ru14  1  0.000000  0.000000  0.500000  1
  Ru  Ru15  1  0.000000  0.500000  0.000000  1
  Ru  Ru16  1  0.500000  0.000000  0.000000  1
