# generated using pymatgen
data_TbDy3Co2Sn5
_symmetry_space_group_name_H-M   'P 1'
_cell_length_a   7.26331293
_cell_length_b   7.26331269
_cell_length_c   10.65428091
_cell_angle_alpha   54.40910662
_cell_angle_beta   54.40910749
_cell_angle_gamma   35.61632022
_symmetry_Int_Tables_number   1
_chemical_formula_structural   TbDy3Co2Sn5
_chemical_formula_sum   'Tb1 Dy3 Co2 Sn5'
_cell_volume   259.05016279
_cell_formula_units_Z   1
loop_
 _symmetry_equiv_pos_site_id
 _symmetry_equiv_pos_as_xyz
  1  'x, y, z'
loop_
 _atom_site_type_symbol
 _atom_site_label
 _atom_site_symmetry_multiplicity
 _atom_site_fract_x
 _atom_site_fract_y
 _atom_site_fract_z
 _atom_site_occupancy
  Tb  Tb0  1  0.066608  0.066608  0.781813  1
  Dy  Dy1  1  0.932828  0.932828  0.218370  1
  Dy  Dy2  1  0.328375  0.328375  0.785076  1
  Dy  Dy3  1  0.671679  0.671679  0.214896  1
  Co  Co4  1  0.771472  0.771472  0.647016  1
  Co  Co5  1  0.228712  0.228712  0.353117  1
  Sn  Sn6  1  0.373721  0.373721  0.046597  1
  Sn  Sn7  1  0.626011  0.626011  0.954140  1
  Sn  Sn8  1  0.000136  0.000136  0.499793  1
  Sn  Sn9  1  0.349884  0.349884  0.472823  1
  Sn  Sn10  1  0.650573  0.650573  0.526358  1
