# generated using pymatgen
data_Tb8Al2PtRh
_symmetry_space_group_name_H-M   'P 1'
_cell_length_a   9.61367397
_cell_length_b   9.61367398
_cell_length_c   9.58245500
_cell_angle_alpha   60.10736694
_cell_angle_beta   60.10736692
_cell_angle_gamma   60.25221031
_symmetry_Int_Tables_number   1
_chemical_formula_structural   Tb8Al2PtRh
_chemical_formula_sum   'Tb16 Al4 Pt2 Rh2'
_cell_volume   628.44477350
_cell_formula_units_Z   2
loop_
 _symmetry_equiv_pos_site_id
 _symmetry_equiv_pos_as_xyz
  1  'x, y, z'
loop_
 _atom_site_type_symbol
 _atom_site_label
 _atom_site_symmetry_multiplicity
 _atom_site_fract_x
 _atom_site_fract_y
 _atom_site_fract_z
 _atom_site_occupancy
  Tb  Tb0  1  0.351643  0.351643  0.355781  1
  Tb  Tb1  1  0.351643  0.351643  0.940932  1
  Tb  Tb2  1  0.350454  0.942143  0.353702  1
  Tb  Tb3  1  0.942143  0.350454  0.353702  1
  Tb  Tb4  1  0.810352  0.192919  0.193102  1
  Tb  Tb5  1  0.192919  0.810352  0.803628  1
  Tb  Tb6  1  0.192919  0.810352  0.193102  1
  Tb  Tb7  1  0.810352  0.192919  0.803628  1
  Tb  Tb8  1  0.191833  0.191833  0.808167  1
  Tb  Tb9  1  0.805665  0.805665  0.194335  1
  Tb  Tb10  1  0.936391  0.563139  0.564505  1
  Tb  Tb11  1  0.563139  0.936391  0.935963  1
  Tb  Tb12  1  0.563139  0.936391  0.564505  1
  Tb  Tb13  1  0.936391  0.563139  0.935963  1
  Tb  Tb14  1  0.563255  0.563255  0.936745  1
  Tb  Tb15  1  0.936046  0.936046  0.563954  1
  Al  Al16  1  0.577180  0.577180  0.577109  1
  Al  Al17  1  0.577180  0.577180  0.268532  1
  Al  Al18  1  0.577269  0.269600  0.576565  1
  Al  Al19  1  0.269600  0.577269  0.576565  1
  Pt  Pt20  1  0.143595  0.570848  0.142778  1
  Pt  Pt21  1  0.570848  0.143595  0.142778  1
  Rh  Rh22  1  0.143022  0.143022  0.142233  1
  Rh  Rh23  1  0.143022  0.143022  0.571725  1
