# generated using pymatgen
data_Hf3Ga4Mo
_symmetry_space_group_name_H-M   'P 1'
_cell_length_a   5.48451456
_cell_length_b   8.47946486
_cell_length_c   9.07914400
_cell_angle_alpha   90.00000000
_cell_angle_beta   90.00000000
_cell_angle_gamma   90.05152020
_symmetry_Int_Tables_number   1
_chemical_formula_structural   Hf3Ga4Mo
_chemical_formula_sum   'Hf9 Ga12 Mo3'
_cell_volume   422.23221604
_cell_formula_units_Z   3
loop_
 _symmetry_equiv_pos_site_id
 _symmetry_equiv_pos_as_xyz
  1  'x, y, z'
loop_
 _atom_site_type_symbol
 _atom_site_label
 _atom_site_symmetry_multiplicity
 _atom_site_fract_x
 _atom_site_fract_y
 _atom_site_fract_z
 _atom_site_occupancy
  Hf  Hf0  1  0.500000  0.750000  0.111963  1
  Hf  Hf1  1  0.752798  0.468972  0.623017  1
  Hf  Hf2  1  0.251629  0.528680  0.380511  1
  Hf  Hf3  1  0.748371  0.971320  0.380511  1
  Hf  Hf4  1  0.247202  0.031028  0.623017  1
  Hf  Hf5  1  0.749867  0.365637  0.182001  1
  Hf  Hf6  1  0.248298  0.632763  0.813797  1
  Hf  Hf7  1  0.751702  0.867237  0.813797  1
  Hf  Hf8  1  0.250133  0.134363  0.182001  1
  Ga  Ga9  1  0.000000  0.750000  0.571545  1
  Ga  Ga10  1  0.500000  0.250000  0.430960  1
  Ga  Ga11  1  0.000000  0.250000  0.427545  1
  Ga  Ga12  1  0.500000  0.750000  0.567632  1
  Ga  Ga13  1  0.756837  0.048042  0.076147  1
  Ga  Ga14  1  0.243709  0.957602  0.919595  1
  Ga  Ga15  1  0.756291  0.542398  0.919595  1
  Ga  Ga16  1  0.243163  0.451958  0.076147  1
  Ga  Ga17  1  0.746528  0.135703  0.656651  1
  Ga  Ga18  1  0.241432  0.868479  0.348150  1
  Ga  Ga19  1  0.758568  0.631521  0.348150  1
  Ga  Ga20  1  0.253472  0.364297  0.656651  1
  Mo  Mo21  1  0.000000  0.750000  0.109705  1
  Mo  Mo22  1  0.500000  0.250000  0.892953  1
  Mo  Mo23  1  0.000000  0.250000  0.887959  1
