# generated using pymatgen
data_Dy5Er5InSb5
_symmetry_space_group_name_H-M   'P 1'
_cell_length_a   6.36759700
_cell_length_b   8.93727826
_cell_length_c   8.93993814
_cell_angle_alpha   119.99017545
_cell_angle_beta   90.00001800
_cell_angle_gamma   89.99997176
_symmetry_Int_Tables_number   1
_chemical_formula_structural   Dy5Er5InSb5
_chemical_formula_sum   'Dy5 Er5 In1 Sb5'
_cell_volume   440.64513606
_cell_formula_units_Z   1
loop_
 _symmetry_equiv_pos_site_id
 _symmetry_equiv_pos_as_xyz
  1  'x, y, z'
loop_
 _atom_site_type_symbol
 _atom_site_label
 _atom_site_symmetry_multiplicity
 _atom_site_fract_x
 _atom_site_fract_y
 _atom_site_fract_z
 _atom_site_occupancy
  Dy  Dy0  1  0.750001  0.243888  0.000000  1
  Dy  Dy1  1  0.750001  0.754211  0.758082  1
  Dy  Dy2  1  0.750001  0.996130  0.241918  1
  Dy  Dy3  1  0.250001  0.246313  0.244472  1
  Dy  Dy4  1  0.250001  0.001841  0.755528  1
  Er  Er5  1  0.499202  0.335126  0.668808  1
  Er  Er6  1  0.499202  0.666318  0.331192  1
  Er  Er7  1  0.000797  0.666319  0.331192  1
  Er  Er8  1  0.000797  0.335127  0.668808  1
  Er  Er9  1  0.249999  0.756922  0.000000  1
  In  In10  1  0.749999  0.604436  0.000000  1
  Sb  Sb11  1  0.750001  0.389785  0.390484  1
  Sb  Sb12  1  0.750001  0.999300  0.609516  1
  Sb  Sb13  1  0.250000  0.392704  0.000000  1
  Sb  Sb14  1  0.250000  0.610941  0.610305  1
  Sb  Sb15  1  0.250000  0.000635  0.389695  1
