# generated using pymatgen
data_LaTb(BOs)8
_symmetry_space_group_name_H-M   'P 1'
_cell_length_a   4.01323000
_cell_length_b   7.61426500
_cell_length_c   7.61426500
_cell_angle_alpha   90.00000000
_cell_angle_beta   90.00000000
_cell_angle_gamma   90.00000000
_symmetry_Int_Tables_number   1
_chemical_formula_structural   LaTb(BOs)8
_chemical_formula_sum   'La1 Tb1 B8 Os8'
_cell_volume   232.67516209
_cell_formula_units_Z   1
loop_
 _symmetry_equiv_pos_site_id
 _symmetry_equiv_pos_as_xyz
  1  'x, y, z'
loop_
 _atom_site_type_symbol
 _atom_site_label
 _atom_site_symmetry_multiplicity
 _atom_site_fract_x
 _atom_site_fract_y
 _atom_site_fract_z
 _atom_site_occupancy
  La  La0  1  0.750000  0.750000  0.750000  1
  Tb  Tb1  1  0.250000  0.250000  0.250000  1
  B  B2  1  0.359695  0.915614  0.034731  1
  B  B3  1  0.359695  0.584386  0.465269  1
  B  B4  1  0.863369  0.527582  0.086930  1
  B  B5  1  0.863369  0.972418  0.413070  1
  B  B6  1  0.636631  0.086930  0.972418  1
  B  B7  1  0.636631  0.413070  0.527582  1
  B  B8  1  0.140305  0.465269  0.915614  1
  B  B9  1  0.140305  0.034731  0.584386  1
  Os  Os10  1  0.137802  0.393780  0.641744  1
  Os  Os11  1  0.137802  0.106220  0.858256  1
  Os  Os12  1  0.637076  0.144076  0.602012  1
  Os  Os13  1  0.637076  0.355924  0.897988  1
  Os  Os14  1  0.862924  0.602012  0.355924  1
  Os  Os15  1  0.862924  0.897988  0.144076  1
  Os  Os16  1  0.362198  0.858256  0.393780  1
  Os  Os17  1  0.362198  0.641744  0.106220  1
