# generated using pymatgen
data_La2ThNp5Se12
_symmetry_space_group_name_H-M   'P 1'
_cell_length_a   7.79183893
_cell_length_b   4.18894400
_cell_length_c   16.07887251
_cell_angle_alpha   90.00000000
_cell_angle_beta   90.38611757
_cell_angle_gamma   90.00000000
_symmetry_Int_Tables_number   1
_chemical_formula_structural   La2ThNp5Se12
_chemical_formula_sum   'La2 Th1 Np5 Se12'
_cell_volume   524.79567945
_cell_formula_units_Z   1
loop_
 _symmetry_equiv_pos_site_id
 _symmetry_equiv_pos_as_xyz
  1  'x, y, z'
loop_
 _atom_site_type_symbol
 _atom_site_label
 _atom_site_symmetry_multiplicity
 _atom_site_fract_x
 _atom_site_fract_y
 _atom_site_fract_z
 _atom_site_occupancy
  La  La0  1  0.364141  0.500000  0.698713  1
  La  La1  1  0.869788  0.500000  0.793060  1
  Th  Th2  1  0.745170  0.500000  0.047003  1
  Np  Np3  1  0.126023  0.000000  0.214038  1
  Np  Np4  1  0.631226  0.000000  0.292652  1
  Np  Np5  1  0.231018  0.500000  0.453598  1
  Np  Np6  1  0.761247  0.000000  0.536088  1
  Np  Np7  1  0.263637  0.000000  0.963469  1
  Se  Se8  1  0.127777  0.500000  0.072441  1
  Se  Se9  1  0.510339  0.000000  0.110443  1
  Se  Se10  1  0.848380  0.500000  0.224176  1
  Se  Se11  1  0.349109  0.500000  0.278995  1
  Se  Se12  1  0.005209  0.000000  0.389785  1
  Se  Se13  1  0.624177  0.500000  0.429041  1
  Se  Se14  1  0.374586  0.000000  0.560287  1
  Se  Se15  1  0.991713  0.500000  0.601126  1
  Se  Se16  1  0.652806  0.000000  0.714724  1
  Se  Se17  1  0.157314  0.000000  0.784728  1
  Se  Se18  1  0.491171  0.500000  0.900709  1
  Se  Se19  1  0.875172  0.000000  0.934925  1
