# generated using pymatgen
data_Re4As6Se2S
_symmetry_space_group_name_H-M   'P 1'
_cell_length_a   7.13879655
_cell_length_b   7.13879662
_cell_length_c   7.11245533
_cell_angle_alpha   59.85856401
_cell_angle_beta   59.85856349
_cell_angle_gamma   60.04081443
_symmetry_Int_Tables_number   1
_chemical_formula_structural   Re4As6Se2S
_chemical_formula_sum   'Re4 As6 Se2 S1'
_cell_volume   255.83267922
_cell_formula_units_Z   1
loop_
 _symmetry_equiv_pos_site_id
 _symmetry_equiv_pos_as_xyz
  1  'x, y, z'
loop_
 _atom_site_type_symbol
 _atom_site_label
 _atom_site_symmetry_multiplicity
 _atom_site_fract_x
 _atom_site_fract_y
 _atom_site_fract_z
 _atom_site_occupancy
  Re  Re0  1  0.401647  0.401647  0.396504  1
  Re  Re1  1  0.401844  0.798811  0.395693  1
  Re  Re2  1  0.798811  0.401844  0.395693  1
  Re  Re3  1  0.399706  0.399706  0.798861  1
  As  As4  1  0.001075  0.001075  0.999152  1
  As  As5  1  0.144711  0.144711  0.142904  1
  As  As6  1  0.143819  0.569152  0.142224  1
  As  As7  1  0.569152  0.143819  0.142224  1
  As  As8  1  0.145140  0.145140  0.563814  1
  As  As9  1  0.639034  0.639034  0.638927  1
  Se  Se10  1  0.637678  0.086681  0.638009  1
  Se  Se11  1  0.086681  0.637678  0.638009  1
  S  S12  1  0.630704  0.630704  0.107986  1
