# generated using pymatgen
data_MnAg3Au16
_symmetry_space_group_name_H-M   'P 1'
_cell_length_a   5.06965090
_cell_length_b   4.84773800
_cell_length_c   14.64150700
_cell_angle_alpha   90.00000000
_cell_angle_beta   90.06123274
_cell_angle_gamma   90.00000000
_symmetry_Int_Tables_number   1
_chemical_formula_structural   MnAg3Au16
_chemical_formula_sum   'Mn1 Ag3 Au16'
_cell_volume   359.83443827
_cell_formula_units_Z   1
loop_
 _symmetry_equiv_pos_site_id
 _symmetry_equiv_pos_as_xyz
  1  'x, y, z'
loop_
 _atom_site_type_symbol
 _atom_site_label
 _atom_site_symmetry_multiplicity
 _atom_site_fract_x
 _atom_site_fract_y
 _atom_site_fract_z
 _atom_site_occupancy
  Mn  Mn0  1  0.836132  0.250000  0.901097  1
  Ag  Ag1  1  0.165354  0.749999  0.099809  1
  Ag  Ag2  1  0.664306  0.749999  0.400247  1
  Ag  Ag3  1  0.336524  0.250000  0.600388  1
  Au  Au4  1  0.668522  0.749999  0.997993  1
  Au  Au5  1  0.832810  0.250000  0.096388  1
  Au  Au6  1  0.335834  0.250000  0.199584  1
  Au  Au7  1  0.666290  0.749999  0.199461  1
  Au  Au8  1  0.166107  0.749999  0.300187  1
  Au  Au9  1  0.835691  0.250000  0.298505  1
  Au  Au10  1  0.333857  0.250000  0.399849  1
  Au  Au11  1  0.166877  0.749999  0.500356  1
  Au  Au12  1  0.834046  0.250000  0.500389  1
  Au  Au13  1  0.667128  0.749999  0.600469  1
  Au  Au14  1  0.166766  0.749999  0.700055  1
  Au  Au15  1  0.833250  0.250000  0.703704  1
  Au  Au16  1  0.333684  0.250000  0.802656  1
  Au  Au17  1  0.666559  0.749999  0.801138  1
  Au  Au18  1  0.157422  0.749999  0.899633  1
  Au  Au19  1  0.332833  0.250000  0.998095  1
