# generated using pymatgen
data_La12Os(PtI4)3
_symmetry_space_group_name_H-M   'P 1'
_cell_length_a   11.15066288
_cell_length_b   11.01268023
_cell_length_c   11.01268022
_cell_angle_alpha   109.21602074
_cell_angle_beta   109.72522476
_cell_angle_gamma   109.72522945
_symmetry_Int_Tables_number   1
_chemical_formula_structural   La12Os(PtI4)3
_chemical_formula_sum   'La12 Os1 Pt3 I12'
_cell_volume   1037.75262463
_cell_formula_units_Z   1
loop_
 _symmetry_equiv_pos_site_id
 _symmetry_equiv_pos_as_xyz
  1  'x, y, z'
loop_
 _atom_site_type_symbol
 _atom_site_label
 _atom_site_symmetry_multiplicity
 _atom_site_fract_x
 _atom_site_fract_y
 _atom_site_fract_z
 _atom_site_occupancy
  La  La0  1  0.458851  0.484375  0.225267  1
  La  La1  1  0.750000  0.231027  0.268973  1
  La  La2  1  0.750000  0.019925  0.480075  1
  La  La3  1  0.230075  0.460149  0.480075  1
  La  La4  1  0.266416  0.740892  0.225267  1
  La  La5  1  0.041149  0.274733  0.015625  1
  La  La6  1  0.018973  0.037948  0.268973  1
  La  La7  1  0.474476  0.740892  0.015625  1
  La  La8  1  0.481027  0.231027  0.462052  1
  La  La9  1  0.025524  0.484375  0.759108  1
  La  La10  1  0.269925  0.019925  0.039851  1
  La  La11  1  0.233584  0.274733  0.759108  1
  Os  Os12  1  0.250000  0.500000  0.000000  1
  Pt  Pt13  1  0.250000  0.249341  0.250659  1
  Pt  Pt14  1  0.500659  0.001318  0.250659  1
  Pt  Pt15  1  0.999341  0.249341  0.498682  1
  I  I16  1  0.250000  0.759415  0.740585  1
  I  I17  1  0.518457  0.509004  0.758649  1
  I  I18  1  0.981543  0.741351  0.990996  1
  I  I19  1  0.740193  0.249645  0.758649  1
  I  I20  1  0.990585  0.981170  0.740585  1
  I  I21  1  0.250000  0.991339  0.508661  1
  I  I22  1  0.758661  0.517322  0.508661  1
  I  I23  1  0.509452  0.249645  0.990996  1
  I  I24  1  0.759807  0.741351  0.250355  1
  I  I25  1  0.741339  0.991339  0.982678  1
  I  I26  1  0.990548  0.509004  0.250355  1
  I  I27  1  0.509415  0.759415  0.518830  1
