# generated using pymatgen
data_Th4Si(PtRh5)2
_symmetry_space_group_name_H-M   'P 1'
_cell_length_a   7.33676586
_cell_length_b   7.33039764
_cell_length_c   7.33039802
_cell_angle_alpha   109.00365266
_cell_angle_beta   109.68770337
_cell_angle_gamma   109.68769821
_symmetry_Int_Tables_number   1
_chemical_formula_structural   Th4Si(PtRh5)2
_chemical_formula_sum   'Th4 Si1 Pt2 Rh10'
_cell_volume   303.60418954
_cell_formula_units_Z   1
loop_
 _symmetry_equiv_pos_site_id
 _symmetry_equiv_pos_as_xyz
  1  'x, y, z'
loop_
 _atom_site_type_symbol
 _atom_site_label
 _atom_site_symmetry_multiplicity
 _atom_site_fract_x
 _atom_site_fract_y
 _atom_site_fract_z
 _atom_site_occupancy
  Th  Th0  1  0.005323  0.002661  0.502661  1
  Th  Th1  1  0.005323  0.502661  0.002661  1
  Th  Th2  1  0.495135  0.992639  0.992639  1
  Th  Th3  1  0.495135  0.502496  0.502496  1
  Si  Si4  1  0.000154  0.000077  0.000077  1
  Pt  Pt5  1  0.750180  0.249779  0.500401  1
  Pt  Pt6  1  0.750180  0.500401  0.249779  1
  Rh  Rh7  1  0.499240  0.249620  0.749620  1
  Rh  Rh8  1  0.249947  0.500280  0.749666  1
  Rh  Rh9  1  0.249947  0.749666  0.500280  1
  Rh  Rh10  1  0.499240  0.749620  0.249620  1
  Rh  Rh11  1  0.725128  0.725127  0.000001  1
  Rh  Rh12  1  0.275371  0.000404  0.274967  1
  Rh  Rh13  1  0.999600  0.274018  0.274018  1
  Rh  Rh14  1  0.275371  0.274967  0.000404  1
  Rh  Rh15  1  0.725128  0.000001  0.725127  1
  Rh  Rh16  1  0.999600  0.725582  0.725582  1
