# generated using pymatgen
data_Dy5GeP11Ir16Rh3
_symmetry_space_group_name_H-M   'P 1'
_cell_length_a   12.75489701
_cell_length_b   12.75565588
_cell_length_c   3.97276500
_cell_angle_alpha   90.00000000
_cell_angle_beta   90.00000000
_cell_angle_gamma   120.00197232
_symmetry_Int_Tables_number   1
_chemical_formula_structural   Dy5GeP11Ir16Rh3
_chemical_formula_sum   'Dy5 Ge1 P11 Ir16 Rh3'
_cell_volume   559.75067589
_cell_formula_units_Z   1
loop_
 _symmetry_equiv_pos_site_id
 _symmetry_equiv_pos_as_xyz
  1  'x, y, z'
loop_
 _atom_site_type_symbol
 _atom_site_label
 _atom_site_symmetry_multiplicity
 _atom_site_fract_x
 _atom_site_fract_y
 _atom_site_fract_z
 _atom_site_occupancy
  Dy  Dy0  1  0.333299  0.665940  0.500000  1
  Dy  Dy1  1  0.666701  0.332640  0.500000  1
  Dy  Dy2  1  0.000000  0.819001  0.000000  1
  Dy  Dy3  1  0.186003  0.185743  0.000000  1
  Dy  Dy4  1  0.813997  0.999740  0.000000  1
  Ge  Ge5  1  0.000000  0.640252  0.500000  1
  P  P6  1  0.359330  0.359310  0.500000  1
  P  P7  1  0.640670  0.999980  0.500000  1
  P  P8  1  0.515357  0.686831  0.000000  1
  P  P9  1  0.312949  0.829406  0.000000  1
  P  P10  1  0.168298  0.481777  0.000000  1
  P  P11  1  0.484643  0.171474  0.000000  1
  P  P12  1  0.687051  0.516457  0.000000  1
  P  P13  1  0.831702  0.313479  0.000000  1
  P  P14  1  0.000000  0.176606  0.500000  1
  P  P15  1  0.819147  0.821213  0.500000  1
  P  P16  1  0.180853  0.002066  0.500000  1
  Ir  Ir17  1  0.507696  0.868186  0.000000  1
  Ir  Ir18  1  0.134992  0.640678  0.000000  1
  Ir  Ir19  1  0.357667  0.491551  0.000000  1
  Ir  Ir20  1  0.492304  0.360489  0.000000  1
  Ir  Ir21  1  0.865008  0.505685  0.000000  1
  Ir  Ir22  1  0.642333  0.133882  0.000000  1
  Ir  Ir23  1  0.000000  0.280921  0.000000  1
  Ir  Ir24  1  0.716109  0.719419  0.000000  1
  Ir  Ir25  1  0.283891  0.003310  0.000000  1
  Ir  Ir26  1  0.624312  0.806578  0.500000  1
  Ir  Ir27  1  0.205957  0.827750  0.500000  1
  Ir  Ir28  1  0.179819  0.372202  0.500000  1
  Ir  Ir29  1  0.375688  0.182267  0.500000  1
  Ir  Ir30  1  0.794043  0.621793  0.500000  1
  Ir  Ir31  1  0.820181  0.192382  0.500000  1
  Ir  Ir32  1  0.000000  0.998091  0.500000  1
  Rh  Rh33  1  0.000000  0.449532  0.500000  1
  Rh  Rh34  1  0.535734  0.539552  0.500000  1
  Rh  Rh35  1  0.464266  0.003818  0.500000  1
