# generated using pymatgen
data_GdDy2Y(B6Ru)2
_symmetry_space_group_name_H-M   'P 1'
_cell_length_a   3.67447000
_cell_length_b   9.17288294
_cell_length_c   11.54954619
_cell_angle_alpha   90.05197424
_cell_angle_beta   90.00000000
_cell_angle_gamma   90.00000000
_symmetry_Int_Tables_number   1
_chemical_formula_structural   GdDy2Y(B6Ru)2
_chemical_formula_sum   'Gd2 Dy4 Y2 B24 Ru4'
_cell_volume   389.28287472
_cell_formula_units_Z   2
loop_
 _symmetry_equiv_pos_site_id
 _symmetry_equiv_pos_as_xyz
  1  'x, y, z'
loop_
 _atom_site_type_symbol
 _atom_site_label
 _atom_site_symmetry_multiplicity
 _atom_site_fract_x
 _atom_site_fract_y
 _atom_site_fract_z
 _atom_site_occupancy
  Gd  Gd0  1  0.000000  0.323221  0.413931  1
  Gd  Gd1  1  0.000000  0.676779  0.586069  1
  Dy  Dy2  1  0.000000  0.943998  0.372049  1
  Dy  Dy3  1  0.000000  0.056002  0.627951  1
  Dy  Dy4  1  0.000000  0.443879  0.127592  1
  Dy  Dy5  1  0.000000  0.556121  0.872408  1
  Y  Y6  1  0.000000  0.822969  0.085800  1
  Y  Y7  1  0.000000  0.177031  0.914200  1
  B  B8  1  0.500000  0.554730  0.432161  1
  B  B9  1  0.500000  0.445270  0.567839  1
  B  B10  1  0.500000  0.054215  0.067152  1
  B  B11  1  0.500000  0.945785  0.932848  1
  B  B12  1  0.500000  0.748036  0.419216  1
  B  B13  1  0.500000  0.251964  0.580784  1
  B  B14  1  0.500000  0.247783  0.080317  1
  B  B15  1  0.500000  0.752217  0.919683  1
  B  B16  1  0.500000  0.791142  0.266212  1
  B  B17  1  0.500000  0.208858  0.733788  1
  B  B18  1  0.500000  0.290655  0.233164  1
  B  B19  1  0.500000  0.709345  0.766836  1
  B  B20  1  0.500000  0.632336  0.185204  1
  B  B21  1  0.500000  0.367664  0.814796  1
  B  B22  1  0.500000  0.131985  0.314357  1
  B  B23  1  0.500000  0.868015  0.685643  1
  B  B24  1  0.500000  0.984220  0.212712  1
  B  B25  1  0.500000  0.015780  0.787288  1
  B  B26  1  0.500000  0.484795  0.286883  1
  B  B27  1  0.500000  0.515205  0.713117  1
  B  B28  1  0.500000  0.608771  0.030020  1
  B  B29  1  0.500000  0.391229  0.969980  1
  B  B30  1  0.500000  0.107655  0.470246  1
  B  B31  1  0.500000  0.892345  0.529754  1
  Ru  Ru32  1  0.000000  0.638634  0.320539  1
  Ru  Ru33  1  0.000000  0.361366  0.679461  1
  Ru  Ru34  1  0.000000  0.137873  0.178615  1
  Ru  Ru35  1  0.000000  0.862127  0.821385  1
