# generated using pymatgen
data_Bi3IrRu3PbO14
_symmetry_space_group_name_H-M   'P 1'
_cell_length_a   7.37884026
_cell_length_b   7.33594547
_cell_length_c   7.37884009
_cell_angle_alpha   60.08994221
_cell_angle_beta   60.24974119
_cell_angle_gamma   60.08993487
_symmetry_Int_Tables_number   1
_chemical_formula_structural   Bi3IrRu3PbO14
_chemical_formula_sum   'Bi3 Ir1 Ru3 Pb1 O14'
_cell_volume   283.34893565
_cell_formula_units_Z   1
loop_
 _symmetry_equiv_pos_site_id
 _symmetry_equiv_pos_as_xyz
  1  'x, y, z'
loop_
 _atom_site_type_symbol
 _atom_site_label
 _atom_site_symmetry_multiplicity
 _atom_site_fract_x
 _atom_site_fract_y
 _atom_site_fract_z
 _atom_site_occupancy
  Bi  Bi0  1  0.125000  0.125000  0.625000  1
  Bi  Bi1  1  0.625000  0.125000  0.125000  1
  Bi  Bi2  1  0.125000  0.125000  0.125000  1
  Ir  Ir3  1  0.625000  0.625000  0.625000  1
  Ru  Ru4  1  0.625000  0.625000  0.125000  1
  Ru  Ru5  1  0.625000  0.125000  0.625000  1
  Ru  Ru6  1  0.125000  0.625000  0.625000  1
  Pb  Pb7  1  0.125000  0.625000  0.125000  1
  O  O8  1  0.254334  0.238979  0.254334  1
  O  O9  1  0.995666  0.011021  0.995666  1
  O  O10  1  0.545691  0.954729  0.545691  1
  O  O11  1  0.299582  0.705246  0.299582  1
  O  O12  1  0.550042  0.544453  0.952605  1
  O  O13  1  0.952605  0.544453  0.550042  1
  O  O14  1  0.547063  0.952729  0.951254  1
  O  O15  1  0.951254  0.952729  0.547063  1
  O  O16  1  0.950418  0.544754  0.950418  1
  O  O17  1  0.702937  0.297271  0.298746  1
  O  O18  1  0.297395  0.705547  0.699958  1
  O  O19  1  0.704309  0.295271  0.704309  1
  O  O20  1  0.298746  0.297271  0.702937  1
  O  O21  1  0.699958  0.705547  0.297395  1
