# generated using pymatgen
data_Th3Ga2Ir2PtRh
_symmetry_space_group_name_H-M   'P 1'
_cell_length_a   7.34643114
_cell_length_b   7.74465909
_cell_length_c   3.87229300
_cell_angle_alpha   90.00000000
_cell_angle_beta   90.00000000
_cell_angle_gamma   121.80996887
_symmetry_Int_Tables_number   1
_chemical_formula_structural   Th3Ga2Ir2PtRh
_chemical_formula_sum   'Th3 Ga2 Ir2 Pt1 Rh1'
_cell_volume   187.22513994
_cell_formula_units_Z   1
loop_
 _symmetry_equiv_pos_site_id
 _symmetry_equiv_pos_as_xyz
  1  'x, y, z'
loop_
 _atom_site_type_symbol
 _atom_site_label
 _atom_site_symmetry_multiplicity
 _atom_site_fract_x
 _atom_site_fract_y
 _atom_site_fract_z
 _atom_site_occupancy
  Th  Th0  1  0.000000  0.409939  0.500000  1
  Th  Th1  1  0.619573  0.606892  0.500000  1
  Th  Th2  1  0.380427  0.987319  0.500000  1
  Ga  Ga3  1  0.255641  0.256364  0.000000  1
  Ga  Ga4  1  0.744359  0.000724  0.000000  1
  Ir  Ir5  1  0.349584  0.651029  0.000000  1
  Ir  Ir6  1  0.650416  0.301444  0.000000  1
  Pt  Pt7  1  0.000000  0.748506  0.000000  1
  Rh  Rh8  1  0.000000  0.037782  0.500000  1
