# generated using pymatgen
data_Sc12Mn3Si12Ru
_symmetry_space_group_name_H-M   'P 1'
_cell_length_a   3.95957400
_cell_length_b   10.30929351
_cell_length_c   11.75425072
_cell_angle_alpha   89.93800812
_cell_angle_beta   90.00000000
_cell_angle_gamma   90.00000000
_symmetry_Int_Tables_number   1
_chemical_formula_structural   Sc12Mn3Si12Ru
_chemical_formula_sum   'Sc12 Mn3 Si12 Ru1'
_cell_volume   479.81305908
_cell_formula_units_Z   1
loop_
 _symmetry_equiv_pos_site_id
 _symmetry_equiv_pos_as_xyz
  1  'x, y, z'
loop_
 _atom_site_type_symbol
 _atom_site_label
 _atom_site_symmetry_multiplicity
 _atom_site_fract_x
 _atom_site_fract_y
 _atom_site_fract_z
 _atom_site_occupancy
  Sc  Sc0  1  0.250000  0.878220  0.020292  1
  Sc  Sc1  1  0.250000  0.621074  0.521057  1
  Sc  Sc2  1  0.750000  0.122936  0.980305  1
  Sc  Sc3  1  0.750000  0.378116  0.479731  1
  Sc  Sc4  1  0.250000  0.923222  0.603109  1
  Sc  Sc5  1  0.250000  0.577231  0.103039  1
  Sc  Sc6  1  0.750000  0.076767  0.397522  1
  Sc  Sc7  1  0.750000  0.422687  0.896693  1
  Sc  Sc8  1  0.250000  0.659328  0.798044  1
  Sc  Sc9  1  0.250000  0.838303  0.298495  1
  Sc  Sc10  1  0.750000  0.338899  0.201228  1
  Sc  Sc11  1  0.750000  0.162601  0.701491  1
  Mn  Mn12  1  0.250000  0.387760  0.677482  1
  Mn  Mn13  1  0.250000  0.112728  0.177627  1
  Mn  Mn14  1  0.750000  0.612846  0.322095  1
  Si  Si15  1  0.250000  0.016481  0.822919  1
  Si  Si16  1  0.250000  0.484064  0.324031  1
  Si  Si17  1  0.750000  0.983646  0.176613  1
  Si  Si18  1  0.750000  0.515468  0.676743  1
  Si  Si19  1  0.250000  0.253540  0.842242  1
  Si  Si20  1  0.250000  0.246642  0.342437  1
  Si  Si21  1  0.750000  0.746494  0.157614  1
  Si  Si22  1  0.750000  0.752404  0.656634  1
  Si  Si23  1  0.250000  0.194898  0.545159  1
  Si  Si24  1  0.250000  0.304813  0.044697  1
  Si  Si25  1  0.750000  0.804339  0.454956  1
  Si  Si26  1  0.750000  0.695210  0.955632  1
  Ru  Ru27  1  0.750000  0.889282  0.822113  1
