# generated using pymatgen
data_Dy2HoThMgRu
_symmetry_space_group_name_H-M   'P 1'
_cell_length_a   9.73860438
_cell_length_b   9.73860436
_cell_length_c   9.74007100
_cell_angle_alpha   59.99501466
_cell_angle_beta   59.99501472
_cell_angle_gamma   60.00996717
_symmetry_Int_Tables_number   1
_chemical_formula_structural   Dy2HoThMgRu
_chemical_formula_sum   'Dy8 Ho4 Th4 Mg4 Ru4'
_cell_volume   653.19152326
_cell_formula_units_Z   4
loop_
 _symmetry_equiv_pos_site_id
 _symmetry_equiv_pos_as_xyz
  1  'x, y, z'
loop_
 _atom_site_type_symbol
 _atom_site_label
 _atom_site_symmetry_multiplicity
 _atom_site_fract_x
 _atom_site_fract_y
 _atom_site_fract_z
 _atom_site_occupancy
  Dy  Dy0  1  0.186128  0.186128  0.813872  1
  Dy  Dy1  1  0.813872  0.813872  0.186128  1
  Dy  Dy2  1  0.935363  0.564637  0.564637  1
  Dy  Dy3  1  0.564637  0.935363  0.935363  1
  Dy  Dy4  1  0.564637  0.935363  0.564637  1
  Dy  Dy5  1  0.935363  0.564637  0.935363  1
  Dy  Dy6  1  0.564598  0.564598  0.935402  1
  Dy  Dy7  1  0.935402  0.935402  0.564598  1
  Ho  Ho8  1  0.813871  0.186129  0.186129  1
  Ho  Ho9  1  0.186129  0.813871  0.813871  1
  Ho  Ho10  1  0.186129  0.813871  0.186129  1
  Ho  Ho11  1  0.813871  0.186129  0.813871  1
  Th  Th12  1  0.346397  0.346397  0.346063  1
  Th  Th13  1  0.346397  0.346397  0.961143  1
  Th  Th14  1  0.346063  0.961143  0.346397  1
  Th  Th15  1  0.961143  0.346063  0.346397  1
  Mg  Mg16  1  0.579769  0.579769  0.579926  1
  Mg  Mg17  1  0.579769  0.579769  0.260536  1
  Mg  Mg18  1  0.579926  0.260536  0.579769  1
  Mg  Mg19  1  0.260536  0.579926  0.579769  1
  Ru  Ru20  1  0.143297  0.143297  0.143617  1
  Ru  Ru21  1  0.143297  0.143297  0.569789  1
  Ru  Ru22  1  0.143617  0.569789  0.143297  1
  Ru  Ru23  1  0.569789  0.143617  0.143297  1
