# generated using pymatgen
data_Dy6Ho3Er(CoSb2)2
_symmetry_space_group_name_H-M   'P 1'
_cell_length_a   7.86533205
_cell_length_b   8.75634006
_cell_length_c   12.18587600
_cell_angle_alpha   90.00000000
_cell_angle_beta   90.00000000
_cell_angle_gamma   89.98691508
_symmetry_Int_Tables_number   1
_chemical_formula_structural   Dy6Ho3Er(CoSb2)2
_chemical_formula_sum   'Dy12 Ho6 Er2 Co4 Sb8'
_cell_volume   839.25980639
_cell_formula_units_Z   2
loop_
 _symmetry_equiv_pos_site_id
 _symmetry_equiv_pos_as_xyz
  1  'x, y, z'
loop_
 _atom_site_type_symbol
 _atom_site_label
 _atom_site_symmetry_multiplicity
 _atom_site_fract_x
 _atom_site_fract_y
 _atom_site_fract_z
 _atom_site_occupancy
  Dy  Dy0  1  0.154886  0.750029  0.203171  1
  Dy  Dy1  1  0.345114  0.749971  0.703171  1
  Dy  Dy2  1  0.845021  0.250000  0.796831  1
  Dy  Dy3  1  0.654979  0.250000  0.296831  1
  Dy  Dy4  1  0.453157  0.750026  0.998183  1
  Dy  Dy5  1  0.046843  0.749974  0.498183  1
  Dy  Dy6  1  0.546957  0.249957  0.001816  1
  Dy  Dy7  1  0.953043  0.250043  0.501816  1
  Dy  Dy8  1  0.620890  0.749948  0.307333  1
  Dy  Dy9  1  0.879110  0.750052  0.807333  1
  Dy  Dy10  1  0.379225  0.250029  0.692669  1
  Dy  Dy11  1  0.120775  0.249971  0.192669  1
  Ho  Ho12  1  0.822085  0.536102  0.065200  1
  Ho  Ho13  1  0.677915  0.963898  0.565200  1
  Ho  Ho14  1  0.177828  0.036033  0.934843  1
  Ho  Ho15  1  0.322172  0.463967  0.434843  1
  Ho  Ho16  1  0.177932  0.463951  0.934811  1
  Ho  Ho17  1  0.322068  0.036049  0.434811  1
  Er  Er18  1  0.822412  0.963861  0.065183  1
  Er  Er19  1  0.677588  0.536139  0.565183  1
  Co  Co20  1  0.433963  0.749894  0.490981  1
  Co  Co21  1  0.066037  0.750106  0.990981  1
  Co  Co22  1  0.566261  0.250087  0.509061  1
  Co  Co23  1  0.933739  0.249913  0.009061  1
  Sb  Sb24  1  0.928857  0.508925  0.326876  1
  Sb  Sb25  1  0.571143  0.991075  0.826876  1
  Sb  Sb26  1  0.071164  0.008919  0.673128  1
  Sb  Sb27  1  0.428836  0.491081  0.173128  1
  Sb  Sb28  1  0.071058  0.491093  0.673099  1
  Sb  Sb29  1  0.428942  0.008907  0.173099  1
  Sb  Sb30  1  0.928803  0.991070  0.326817  1
  Sb  Sb31  1  0.571197  0.508930  0.826817  1
