# generated using pymatgen
data_Pr4Se3NCl3
_symmetry_space_group_name_H-M   'P 1'
_cell_length_a   9.53221303
_cell_length_b   9.53221238
_cell_length_c   7.18185400
_cell_angle_alpha   90.00000000
_cell_angle_beta   90.00000000
_cell_angle_gamma   120.00058973
_symmetry_Int_Tables_number   1
_chemical_formula_structural   Pr4Se3NCl3
_chemical_formula_sum   'Pr8 Se6 N2 Cl6'
_cell_volume   565.13482736
_cell_formula_units_Z   2
loop_
 _symmetry_equiv_pos_site_id
 _symmetry_equiv_pos_as_xyz
  1  'x, y, z'
loop_
 _atom_site_type_symbol
 _atom_site_label
 _atom_site_symmetry_multiplicity
 _atom_site_fract_x
 _atom_site_fract_y
 _atom_site_fract_z
 _atom_site_occupancy
  Pr  Pr0  1  0.333301  0.666699  0.699647  1
  Pr  Pr1  1  0.666699  0.333300  0.199647  1
  Pr  Pr2  1  0.200820  0.799181  0.259423  1
  Pr  Pr3  1  0.799181  0.200820  0.759423  1
  Pr  Pr4  1  0.200835  0.401634  0.259485  1
  Pr  Pr5  1  0.598366  0.799166  0.259485  1
  Pr  Pr6  1  0.401633  0.200834  0.759485  1
  Pr  Pr7  1  0.799166  0.598366  0.759485  1
  Se  Se8  1  0.469791  0.530210  0.968810  1
  Se  Se9  1  0.530210  0.469790  0.468812  1
  Se  Se10  1  0.469845  0.939632  0.968862  1
  Se  Se11  1  0.060368  0.530155  0.968862  1
  Se  Se12  1  0.939632  0.469845  0.468861  1
  Se  Se13  1  0.530155  0.060369  0.468861  1
  N  N14  1  0.333331  0.666669  0.366577  1
  N  N15  1  0.666669  0.333331  0.866577  1
  Cl  Cl16  1  0.131433  0.868565  0.639538  1
  Cl  Cl17  1  0.868567  0.131435  0.139538  1
  Cl  Cl18  1  0.131418  0.262844  0.639506  1
  Cl  Cl19  1  0.737156  0.868583  0.639506  1
  Cl  Cl20  1  0.262844  0.131418  0.139506  1
  Cl  Cl21  1  0.868583  0.737157  0.139506  1
