# generated using pymatgen
data_HfPa5(AlCo)6
_symmetry_space_group_name_H-M   'P 1'
_cell_length_a   6.74272146
_cell_length_b   6.74244738
_cell_length_c   7.80062900
_cell_angle_alpha   90.00000000
_cell_angle_beta   90.00000000
_cell_angle_gamma   120.62459555
_symmetry_Int_Tables_number   1
_chemical_formula_structural   HfPa5(AlCo)6
_chemical_formula_sum   'Hf1 Pa5 Al6 Co6'
_cell_volume   305.17229783
_cell_formula_units_Z   1
loop_
 _symmetry_equiv_pos_site_id
 _symmetry_equiv_pos_as_xyz
  1  'x, y, z'
loop_
 _atom_site_type_symbol
 _atom_site_label
 _atom_site_symmetry_multiplicity
 _atom_site_fract_x
 _atom_site_fract_y
 _atom_site_fract_z
 _atom_site_occupancy
  Hf  Hf0  1  0.404440  0.404463  0.750000  1
  Pa  Pa1  1  0.571686  0.991250  0.750000  1
  Pa  Pa2  1  0.991270  0.571703  0.750000  1
  Pa  Pa3  1  0.008379  0.585671  0.250000  1
  Pa  Pa4  1  0.585678  0.008381  0.250000  1
  Pa  Pa5  1  0.424115  0.424161  0.250000  1
  Al  Al6  1  0.758456  0.758464  0.992691  1
  Al  Al7  1  0.235253  0.005680  0.996963  1
  Al  Al8  1  0.005680  0.235238  0.996960  1
  Al  Al9  1  0.758456  0.758464  0.507309  1
  Al  Al10  1  0.235253  0.005680  0.503037  1
  Al  Al11  1  0.005680  0.235238  0.503040  1
  Co  Co12  1  0.998803  0.998803  0.750000  1
  Co  Co13  1  0.999036  0.999045  0.250000  1
  Co  Co14  1  0.674800  0.334069  0.997827  1
  Co  Co15  1  0.674800  0.334069  0.502173  1
  Co  Co16  1  0.334106  0.674809  0.502180  1
  Co  Co17  1  0.334106  0.674809  0.997821  1
