# generated using pymatgen
data_TbHf3Al17GaIr6
_symmetry_space_group_name_H-M   'P 1'
_cell_length_a   7.48533166
_cell_length_b   7.47665059
_cell_length_c   9.29488300
_cell_angle_alpha   90.00000000
_cell_angle_beta   90.00000000
_cell_angle_gamma   119.69294606
_symmetry_Int_Tables_number   1
_chemical_formula_structural   TbHf3Al17GaIr6
_chemical_formula_sum   'Tb1 Hf3 Al17 Ga1 Ir6'
_cell_volume   451.88521822
_cell_formula_units_Z   1
loop_
 _symmetry_equiv_pos_site_id
 _symmetry_equiv_pos_as_xyz
  1  'x, y, z'
loop_
 _atom_site_type_symbol
 _atom_site_label
 _atom_site_symmetry_multiplicity
 _atom_site_fract_x
 _atom_site_fract_y
 _atom_site_fract_z
 _atom_site_occupancy
  Tb  Tb0  1  0.326171  0.006376  0.750000  1
  Hf  Hf1  1  0.993929  0.671479  0.250000  1
  Hf  Hf2  1  0.005921  0.327574  0.750000  1
  Hf  Hf3  1  0.671927  0.994456  0.250000  1
  Al  Al4  1  0.125232  0.126493  0.250000  1
  Al  Al5  1  0.998058  0.335106  0.077780  1
  Al  Al6  1  0.999737  0.662534  0.926763  1
  Al  Al7  1  0.999737  0.662534  0.573237  1
  Al  Al8  1  0.335483  0.998562  0.419025  1
  Al  Al9  1  0.998058  0.335106  0.422220  1
  Al  Al10  1  0.668015  0.001647  0.573863  1
  Al  Al11  1  0.668015  0.001647  0.926137  1
  Al  Al12  1  0.335483  0.998562  0.080975  1
  Al  Al13  1  0.331880  0.334378  0.554789  1
  Al  Al14  1  0.668283  0.668270  0.436738  1
  Al  Al15  1  0.668283  0.668270  0.063262  1
  Al  Al16  1  0.331880  0.334378  0.945211  1
  Al  Al17  1  0.337727  0.552857  0.250000  1
  Al  Al18  1  0.667993  0.451625  0.750000  1
  Al  Al19  1  0.553772  0.339019  0.250000  1
  Al  Al20  1  0.445833  0.657355  0.750000  1
  Ga  Ga21  1  0.865817  0.869027  0.750000  1
  Ir  Ir22  1  0.673782  0.328832  0.001483  1
  Ir  Ir23  1  0.328796  0.673642  0.001778  1
  Ir  Ir24  1  0.328796  0.673642  0.498222  1
  Ir  Ir25  1  0.673782  0.328832  0.498517  1
  Ir  Ir26  1  0.998804  0.998900  0.004410  1
  Ir  Ir27  1  0.998804  0.998900  0.495590  1
