# generated using pymatgen
data_NdGaNi3Sn
_symmetry_space_group_name_H-M   'P 1'
_cell_length_a   9.23005400
_cell_length_b   9.23005379
_cell_length_c   4.11270800
_cell_angle_alpha   90.00000000
_cell_angle_beta   90.00000000
_cell_angle_gamma   120.00000075
_symmetry_Int_Tables_number   1
_chemical_formula_structural   NdGaNi3Sn
_chemical_formula_sum   'Nd3 Ga3 Ni9 Sn3'
_cell_volume   303.43591159
_cell_formula_units_Z   3
loop_
 _symmetry_equiv_pos_site_id
 _symmetry_equiv_pos_as_xyz
  1  'x, y, z'
loop_
 _atom_site_type_symbol
 _atom_site_label
 _atom_site_symmetry_multiplicity
 _atom_site_fract_x
 _atom_site_fract_y
 _atom_site_fract_z
 _atom_site_occupancy
  Nd  Nd0  1  0.333333  0.666667  0.500000  1
  Nd  Nd1  1  0.666667  0.333333  0.500000  1
  Nd  Nd2  1  0.000000  0.000000  0.000000  1
  Ga  Ga3  1  0.738626  0.000000  0.500000  1
  Ga  Ga4  1  0.000000  0.738626  0.500000  1
  Ga  Ga5  1  0.261374  0.261374  0.500000  1
  Ni  Ni6  1  0.210502  0.368355  0.000000  1
  Ni  Ni7  1  0.631645  0.842147  0.000000  1
  Ni  Ni8  1  0.157853  0.789498  0.000000  1
  Ni  Ni9  1  0.842147  0.631645  0.000000  1
  Ni  Ni10  1  0.789498  0.157853  0.000000  1
  Ni  Ni11  1  0.368355  0.210502  0.000000  1
  Ni  Ni12  1  0.277920  0.000000  0.500000  1
  Ni  Ni13  1  0.000000  0.277920  0.500000  1
  Ni  Ni14  1  0.722080  0.722080  0.500000  1
  Sn  Sn15  1  0.465133  0.000000  0.000000  1
  Sn  Sn16  1  0.000000  0.465133  0.000000  1
  Sn  Sn17  1  0.534867  0.534867  0.000000  1
