# generated using pymatgen
data_Ce3Er(Ni2Pb)2
_symmetry_space_group_name_H-M   'P 1'
_cell_length_a   7.58186683
_cell_length_b   7.58186727
_cell_length_c   3.62618500
_cell_angle_alpha   90.00000000
_cell_angle_beta   90.00000000
_cell_angle_gamma   90.82642748
_symmetry_Int_Tables_number   1
_chemical_formula_structural   Ce3Er(Ni2Pb)2
_chemical_formula_sum   'Ce3 Er1 Ni4 Pb2'
_cell_volume   208.42850216
_cell_formula_units_Z   1
loop_
 _symmetry_equiv_pos_site_id
 _symmetry_equiv_pos_as_xyz
  1  'x, y, z'
loop_
 _atom_site_type_symbol
 _atom_site_label
 _atom_site_symmetry_multiplicity
 _atom_site_fract_x
 _atom_site_fract_y
 _atom_site_fract_z
 _atom_site_occupancy
  Ce  Ce0  1  0.674780  0.173520  0.500000  1
  Ce  Ce1  1  0.326480  0.825220  0.500000  1
  Ce  Ce2  1  0.171693  0.328307  0.500000  1
  Er  Er3  1  0.828017  0.671983  0.500000  1
  Ni  Ni4  1  0.880398  0.374160  0.000000  1
  Ni  Ni5  1  0.125840  0.619602  0.000000  1
  Ni  Ni6  1  0.375694  0.124306  0.000000  1
  Ni  Ni7  1  0.614903  0.885097  0.000000  1
  Pb  Pb8  1  0.505954  0.503760  0.000000  1
  Pb  Pb9  1  0.996240  0.994046  0.000000  1
