# generated using pymatgen
data_Nd20Ga3CoSb8
_symmetry_space_group_name_H-M   'P 1'
_cell_length_a   8.16956713
_cell_length_b   9.38143400
_cell_length_c   12.52094109
_cell_angle_alpha   90.00000000
_cell_angle_beta   90.01700396
_cell_angle_gamma   90.00000000
_symmetry_Int_Tables_number   1
_chemical_formula_structural   Nd20Ga3CoSb8
_chemical_formula_sum   'Nd20 Ga3 Co1 Sb8'
_cell_volume   959.63311548
_cell_formula_units_Z   1
loop_
 _symmetry_equiv_pos_site_id
 _symmetry_equiv_pos_as_xyz
  1  'x, y, z'
loop_
 _atom_site_type_symbol
 _atom_site_label
 _atom_site_symmetry_multiplicity
 _atom_site_fract_x
 _atom_site_fract_y
 _atom_site_fract_z
 _atom_site_occupancy
  Nd  Nd0  1  0.153132  0.750000  0.204287  1
  Nd  Nd1  1  0.659060  0.250000  0.283861  1
  Nd  Nd2  1  0.836348  0.250000  0.783968  1
  Nd  Nd3  1  0.337512  0.750000  0.715827  1
  Nd  Nd4  1  0.467236  0.750000  0.000469  1
  Nd  Nd5  1  0.966293  0.250000  0.499789  1
  Nd  Nd6  1  0.526883  0.250000  0.997893  1
  Nd  Nd7  1  0.034323  0.750000  0.500170  1
  Nd  Nd8  1  0.637631  0.750000  0.291907  1
  Nd  Nd9  1  0.140592  0.250000  0.209867  1
  Nd  Nd10  1  0.359178  0.250000  0.710668  1
  Nd  Nd11  1  0.871915  0.750000  0.799425  1
  Nd  Nd12  1  0.820109  0.954544  0.061074  1
  Nd  Nd13  1  0.307289  0.040583  0.433444  1
  Nd  Nd14  1  0.185123  0.481283  0.939053  1
  Nd  Nd15  1  0.694196  0.541428  0.566077  1
  Nd  Nd16  1  0.185123  0.018717  0.939053  1
  Nd  Nd17  1  0.694196  0.958572  0.566077  1
  Nd  Nd18  1  0.820109  0.545456  0.061074  1
  Nd  Nd19  1  0.307289  0.459417  0.433444  1
  Ga  Ga20  1  0.429321  0.750000  0.485354  1
  Ga  Ga21  1  0.927358  0.250000  0.017728  1
  Ga  Ga22  1  0.571383  0.250000  0.518868  1
  Co  Co23  1  0.070226  0.750000  0.983495  1
  Sb  Sb24  1  0.924815  0.992417  0.326135  1
  Sb  Sb25  1  0.427999  0.006466  0.173056  1
  Sb  Sb26  1  0.073269  0.491191  0.672613  1
  Sb  Sb27  1  0.573004  0.507847  0.826760  1
  Sb  Sb28  1  0.073269  0.008809  0.672613  1
  Sb  Sb29  1  0.573004  0.992153  0.826760  1
  Sb  Sb30  1  0.924815  0.507583  0.326135  1
  Sb  Sb31  1  0.427999  0.493534  0.173056  1
