# generated using pymatgen
data_Li4ZrPaBr12
_symmetry_space_group_name_H-M   'P 1'
_cell_length_a   6.90445800
_cell_length_b   6.90446021
_cell_length_c   27.06186900
_cell_angle_alpha   90.00000000
_cell_angle_beta   90.00000000
_cell_angle_gamma   119.99999900
_symmetry_Int_Tables_number   1
_chemical_formula_structural   Li4ZrPaBr12
_chemical_formula_sum   'Li8 Zr2 Pa2 Br24'
_cell_volume   1117.24326840
_cell_formula_units_Z   2
loop_
 _symmetry_equiv_pos_site_id
 _symmetry_equiv_pos_as_xyz
  1  'x, y, z'
loop_
 _atom_site_type_symbol
 _atom_site_label
 _atom_site_symmetry_multiplicity
 _atom_site_fract_x
 _atom_site_fract_y
 _atom_site_fract_z
 _atom_site_occupancy
  Li  Li0  1  0.000000  0.000000  0.250000  1
  Li  Li1  1  0.000000  0.000000  0.750000  1
  Li  Li2  1  0.333333  0.666667  0.001045  1
  Li  Li3  1  0.333333  0.666667  0.498955  1
  Li  Li4  1  0.333333  0.666667  0.250000  1
  Li  Li5  1  0.666667  0.333333  0.750000  1
  Li  Li6  1  0.666667  0.333333  0.998955  1
  Li  Li7  1  0.666667  0.333333  0.501045  1
  Zr  Zr8  1  0.333333  0.666667  0.750000  1
  Zr  Zr9  1  0.666667  0.333333  0.250000  1
  Pa  Pa10  1  0.000000  0.000000  0.000000  1
  Pa  Pa11  1  0.000000  0.000000  0.500000  1
  Br  Br12  1  0.349269  0.015936  0.305922  1
  Br  Br13  1  0.333332  0.984064  0.805922  1
  Br  Br14  1  0.999018  0.336070  0.058363  1
  Br  Br15  1  0.000982  0.337052  0.558363  1
  Br  Br16  1  0.984064  0.333332  0.305922  1
  Br  Br17  1  0.015936  0.349269  0.805922  1
  Br  Br18  1  0.349269  0.333332  0.194078  1
  Br  Br19  1  0.333332  0.349269  0.694078  1
  Br  Br20  1  0.337052  0.336070  0.441637  1
  Br  Br21  1  0.336070  0.337052  0.941637  1
  Br  Br22  1  0.663930  0.000982  0.441637  1
  Br  Br23  1  0.337052  0.000982  0.058363  1
  Br  Br24  1  0.336070  0.999018  0.558363  1
  Br  Br25  1  0.663930  0.662948  0.058363  1
  Br  Br26  1  0.662948  0.663930  0.558363  1
  Br  Br27  1  0.666668  0.650731  0.305922  1
  Br  Br28  1  0.650731  0.666668  0.805922  1
  Br  Br29  1  0.984064  0.650731  0.194078  1
  Br  Br30  1  0.015936  0.666668  0.694078  1
  Br  Br31  1  0.999018  0.662948  0.441637  1
  Br  Br32  1  0.000982  0.663930  0.941637  1
  Br  Br33  1  0.662948  0.999018  0.941637  1
  Br  Br34  1  0.666668  0.015936  0.194078  1
  Br  Br35  1  0.650731  0.984064  0.694078  1
