# generated using pymatgen
data_Lu3Zn2In3Os
_symmetry_space_group_name_H-M   'P 1'
_cell_length_a   7.70874200
_cell_length_b   7.70874065
_cell_length_c   3.75139400
_cell_angle_alpha   90.00000000
_cell_angle_beta   90.00000000
_cell_angle_gamma   119.99998862
_symmetry_Int_Tables_number   1
_chemical_formula_structural   Lu3Zn2In3Os
_chemical_formula_sum   'Lu3 Zn2 In3 Os1'
_cell_volume   193.05911294
_cell_formula_units_Z   1
loop_
 _symmetry_equiv_pos_site_id
 _symmetry_equiv_pos_as_xyz
  1  'x, y, z'
loop_
 _atom_site_type_symbol
 _atom_site_label
 _atom_site_symmetry_multiplicity
 _atom_site_fract_x
 _atom_site_fract_y
 _atom_site_fract_z
 _atom_site_occupancy
  Lu  Lu0  1  0.029387  0.612254  0.500000  1
  Lu  Lu1  1  0.582868  0.970613  0.500000  1
  Lu  Lu2  1  0.387746  0.417132  0.500000  1
  Zn  Zn3  1  0.000000  0.000000  0.500000  1
  Zn  Zn4  1  0.666667  0.333333  0.000000  1
  In  In5  1  0.995121  0.263260  0.000000  1
  In  In6  1  0.268139  0.004879  0.000000  1
  In  In7  1  0.736740  0.731861  0.000000  1
  Os  Os8  1  0.333333  0.666667  0.000000  1
