# generated using pymatgen
data_Ca2Tc2C3
_symmetry_space_group_name_H-M   'P 1'
_cell_length_a   5.69113676
_cell_length_b   5.69113791
_cell_length_c   5.77072251
_cell_angle_alpha   104.31297308
_cell_angle_beta   104.31297393
_cell_angle_gamma   36.48700962
_symmetry_Int_Tables_number   1
_chemical_formula_structural   Ca2Tc2C3
_chemical_formula_sum   'Ca2 Tc2 C3'
_cell_volume   107.31175043
_cell_formula_units_Z   1
loop_
 _symmetry_equiv_pos_site_id
 _symmetry_equiv_pos_as_xyz
  1  'x, y, z'
loop_
 _atom_site_type_symbol
 _atom_site_label
 _atom_site_symmetry_multiplicity
 _atom_site_fract_x
 _atom_site_fract_y
 _atom_site_fract_z
 _atom_site_occupancy
  Ca  Ca0  1  0.604818  0.604818  0.324533  1
  Ca  Ca1  1  0.395182  0.395182  0.675468  1
  Tc  Tc2  1  0.845011  0.845011  0.105196  1
  Tc  Tc3  1  0.154989  0.154989  0.894803  1
  C  C4  1  0.000000  0.000000  0.000000  1
  C  C5  1  0.297909  0.297909  0.224709  1
  C  C6  1  0.702091  0.702091  0.775292  1
