# generated using pymatgen
data_DyTm(Al5Ru)4
_symmetry_space_group_name_H-M   'P 1'
_cell_length_a   6.84520890
_cell_length_b   6.84520829
_cell_length_c   9.13847700
_cell_angle_alpha   90.00000000
_cell_angle_beta   90.00000000
_cell_angle_gamma   96.68267524
_symmetry_Int_Tables_number   1
_chemical_formula_structural   DyTm(Al5Ru)4
_chemical_formula_sum   'Dy1 Tm1 Al20 Ru4'
_cell_volume   425.29128175
_cell_formula_units_Z   1
loop_
 _symmetry_equiv_pos_site_id
 _symmetry_equiv_pos_as_xyz
  1  'x, y, z'
loop_
 _atom_site_type_symbol
 _atom_site_label
 _atom_site_symmetry_multiplicity
 _atom_site_fract_x
 _atom_site_fract_y
 _atom_site_fract_z
 _atom_site_occupancy
  Dy  Dy0  1  0.873298  0.126702  0.750000  1
  Tm  Tm1  1  0.127300  0.872700  0.250000  1
  Al  Al2  1  0.587602  0.859350  0.250000  1
  Al  Al3  1  0.780010  0.521210  0.250000  1
  Al  Al4  1  0.157575  0.842425  0.900669  1
  Al  Al5  1  0.412721  0.140446  0.750000  1
  Al  Al6  1  0.622376  0.377624  0.948934  1
  Al  Al7  1  0.842511  0.157489  0.400381  1
  Al  Al8  1  0.774532  0.774435  0.999855  1
  Al  Al9  1  0.859554  0.587279  0.750000  1
  Al  Al10  1  0.842511  0.157489  0.099619  1
  Al  Al11  1  0.220702  0.479865  0.750000  1
  Al  Al12  1  0.157575  0.842425  0.599331  1
  Al  Al13  1  0.774532  0.774435  0.500145  1
  Al  Al14  1  0.478790  0.219990  0.250000  1
  Al  Al15  1  0.622376  0.377624  0.551066  1
  Al  Al16  1  0.225565  0.225468  0.500145  1
  Al  Al17  1  0.377116  0.622884  0.448806  1
  Al  Al18  1  0.140650  0.412398  0.250000  1
  Al  Al19  1  0.520135  0.779298  0.750000  1
  Al  Al20  1  0.377116  0.622884  0.051194  1
  Al  Al21  1  0.225565  0.225468  0.999855  1
  Ru  Ru22  1  0.499877  0.999935  0.000366  1
  Ru  Ru23  1  0.499877  0.999935  0.499634  1
  Ru  Ru24  1  0.000065  0.500123  0.000366  1
  Ru  Ru25  1  0.000065  0.500123  0.499634  1
