# generated using pymatgen
data_Nd3Y3(NiRh8)2
_symmetry_space_group_name_H-M   'P 1'
_cell_length_a   5.31364100
_cell_length_b   5.31364240
_cell_length_c   17.23812400
_cell_angle_alpha   90.00000000
_cell_angle_beta   90.00000000
_cell_angle_gamma   119.99998505
_symmetry_Int_Tables_number   1
_chemical_formula_structural   Nd3Y3(NiRh8)2
_chemical_formula_sum   'Nd3 Y3 Ni2 Rh16'
_cell_volume   421.50742637
_cell_formula_units_Z   1
loop_
 _symmetry_equiv_pos_site_id
 _symmetry_equiv_pos_as_xyz
  1  'x, y, z'
loop_
 _atom_site_type_symbol
 _atom_site_label
 _atom_site_symmetry_multiplicity
 _atom_site_fract_x
 _atom_site_fract_y
 _atom_site_fract_z
 _atom_site_occupancy
  Nd  Nd0  1  0.333333  0.666667  0.958381  1
  Nd  Nd1  1  0.333333  0.666667  0.749643  1
  Nd  Nd2  1  0.666667  0.333333  0.250046  1
  Y  Y3  1  0.666667  0.333333  0.042723  1
  Y  Y4  1  0.666667  0.333333  0.457876  1
  Y  Y5  1  0.333333  0.666667  0.542034  1
  Ni  Ni6  1  0.333333  0.666667  0.250135  1
  Ni  Ni7  1  0.666667  0.333333  0.749784  1
  Rh  Rh8  1  0.168613  0.831387  0.373187  1
  Rh  Rh9  1  0.168613  0.337228  0.373187  1
  Rh  Rh10  1  0.662772  0.831387  0.373187  1
  Rh  Rh11  1  0.831380  0.168620  0.626803  1
  Rh  Rh12  1  0.831380  0.662759  0.626803  1
  Rh  Rh13  1  0.337241  0.168620  0.626803  1
  Rh  Rh14  1  0.831578  0.168422  0.872274  1
  Rh  Rh15  1  0.831578  0.663156  0.872274  1
  Rh  Rh16  1  0.336844  0.168422  0.872274  1
  Rh  Rh17  1  0.168338  0.831662  0.127428  1
  Rh  Rh18  1  0.168338  0.336678  0.127428  1
  Rh  Rh19  1  0.663322  0.831662  0.127428  1
  Rh  Rh20  1  0.000000  0.000000  0.250336  1
  Rh  Rh21  1  0.000000  0.000000  0.749562  1
  Rh  Rh22  1  0.000000  0.000000  0.500021  1
  Rh  Rh23  1  0.000000  0.000000  0.000383  1
