# generated using pymatgen
data_Lu6FeCo
_symmetry_space_group_name_H-M   'P 1'
_cell_length_a   6.11557600
_cell_length_b   6.91016700
_cell_length_c   8.90493000
_cell_angle_alpha   90.00000000
_cell_angle_beta   90.00000000
_cell_angle_gamma   90.00000000
_symmetry_Int_Tables_number   1
_chemical_formula_structural   Lu6FeCo
_chemical_formula_sum   'Lu12 Fe2 Co2'
_cell_volume   376.31923809
_cell_formula_units_Z   2
loop_
 _symmetry_equiv_pos_site_id
 _symmetry_equiv_pos_as_xyz
  1  'x, y, z'
loop_
 _atom_site_type_symbol
 _atom_site_label
 _atom_site_symmetry_multiplicity
 _atom_site_fract_x
 _atom_site_fract_y
 _atom_site_fract_z
 _atom_site_occupancy
  Lu  Lu0  1  0.323044  0.674986  0.067071  1
  Lu  Lu1  1  0.176956  0.174986  0.432929  1
  Lu  Lu2  1  0.673762  0.325109  0.563120  1
  Lu  Lu3  1  0.826238  0.825109  0.936880  1
  Lu  Lu4  1  0.673762  0.325109  0.936880  1
  Lu  Lu5  1  0.826238  0.825109  0.563120  1
  Lu  Lu6  1  0.323044  0.674986  0.432929  1
  Lu  Lu7  1  0.176956  0.174986  0.067071  1
  Lu  Lu8  1  0.866670  0.543181  0.250000  1
  Lu  Lu9  1  0.633330  0.043181  0.250000  1
  Lu  Lu10  1  0.134423  0.456261  0.750000  1
  Lu  Lu11  1  0.365577  0.956261  0.750000  1
  Fe  Fe12  1  0.031915  0.888728  0.250000  1
  Fe  Fe13  1  0.468085  0.388728  0.250000  1
  Co  Co14  1  0.961147  0.111641  0.750000  1
  Co  Co15  1  0.538853  0.611641  0.750000  1
