# generated using pymatgen
data_Zr3ZnIr2N
_symmetry_space_group_name_H-M   'P 1'
_cell_length_a   8.56951639
_cell_length_b   8.56951634
_cell_length_c   8.56951700
_cell_angle_alpha   60.00000133
_cell_angle_beta   60.00000149
_cell_angle_gamma   60.00000306
_symmetry_Int_Tables_number   1
_chemical_formula_structural   Zr3ZnIr2N
_chemical_formula_sum   'Zr12 Zn4 Ir8 N4'
_cell_volume   444.99383170
_cell_formula_units_Z   4
loop_
 _symmetry_equiv_pos_site_id
 _symmetry_equiv_pos_as_xyz
  1  'x, y, z'
loop_
 _atom_site_type_symbol
 _atom_site_label
 _atom_site_symmetry_multiplicity
 _atom_site_fract_x
 _atom_site_fract_y
 _atom_site_fract_z
 _atom_site_occupancy
  Zr  Zr0  1  0.807498  0.192502  0.192502  1
  Zr  Zr1  1  0.192502  0.807498  0.192502  1
  Zr  Zr2  1  0.807498  0.807498  0.192502  1
  Zr  Zr3  1  0.192502  0.807498  0.807498  1
  Zr  Zr4  1  0.807498  0.192502  0.807498  1
  Zr  Zr5  1  0.192502  0.192502  0.807498  1
  Zr  Zr6  1  0.442502  0.057498  0.057498  1
  Zr  Zr7  1  0.057498  0.442502  0.057498  1
  Zr  Zr8  1  0.442502  0.442502  0.057498  1
  Zr  Zr9  1  0.057498  0.442502  0.442502  1
  Zr  Zr10  1  0.442502  0.057498  0.442502  1
  Zr  Zr11  1  0.057498  0.057498  0.442502  1
  Zn  Zn12  1  0.625000  0.625000  0.125000  1
  Zn  Zn13  1  0.625000  0.625000  0.625000  1
  Zn  Zn14  1  0.125000  0.625000  0.625000  1
  Zn  Zn15  1  0.625000  0.125000  0.625000  1
  Ir  Ir16  1  0.414754  0.414754  0.755736  1
  Ir  Ir17  1  0.414754  0.414754  0.414754  1
  Ir  Ir18  1  0.755736  0.414754  0.414754  1
  Ir  Ir19  1  0.414754  0.755736  0.414754  1
  Ir  Ir20  1  0.835246  0.835246  0.494264  1
  Ir  Ir21  1  0.835246  0.835246  0.835246  1
  Ir  Ir22  1  0.494264  0.835246  0.835246  1
  Ir  Ir23  1  0.835246  0.494264  0.835246  1
  N  N24  1  0.125000  0.125000  0.625000  1
  N  N25  1  0.125000  0.125000  0.125000  1
  N  N26  1  0.625000  0.125000  0.125000  1
  N  N27  1  0.125000  0.625000  0.125000  1
