# generated using pymatgen
data_Sm4Al5ZnPt8
_symmetry_space_group_name_H-M   'P 1'
_cell_length_a   8.17446664
_cell_length_b   8.17446535
_cell_length_c   7.61690600
_cell_angle_alpha   89.97740962
_cell_angle_beta   89.97740962
_cell_angle_gamma   140.12837805
_symmetry_Int_Tables_number   1
_chemical_formula_structural   Sm4Al5ZnPt8
_chemical_formula_sum   'Sm4 Al5 Zn1 Pt8'
_cell_volume   326.28887013
_cell_formula_units_Z   1
loop_
 _symmetry_equiv_pos_site_id
 _symmetry_equiv_pos_as_xyz
  1  'x, y, z'
loop_
 _atom_site_type_symbol
 _atom_site_label
 _atom_site_symmetry_multiplicity
 _atom_site_fract_x
 _atom_site_fract_y
 _atom_site_fract_z
 _atom_site_occupancy
  Sm  Sm0  1  0.105808  0.889273  0.406400  1
  Sm  Sm1  1  0.894673  0.109636  0.590495  1
  Sm  Sm2  1  0.390364  0.605327  0.909505  1
  Sm  Sm3  1  0.610727  0.394192  0.093600  1
  Al  Al4  1  0.999859  0.999007  0.000062  1
  Al  Al5  1  0.500993  0.500141  0.499938  1
  Al  Al6  1  0.476612  0.023388  0.750000  1
  Al  Al7  1  0.976894  0.523106  0.750000  1
  Al  Al8  1  0.523286  0.976714  0.250000  1
  Zn  Zn9  1  0.022122  0.477878  0.250000  1
  Pt  Pt10  1  0.192644  0.307356  0.250000  1
  Pt  Pt11  1  0.309640  0.190360  0.750000  1
  Pt  Pt12  1  0.810598  0.689402  0.750000  1
  Pt  Pt13  1  0.688927  0.811073  0.250000  1
  Pt  Pt14  1  0.190336  0.826986  0.022305  1
  Pt  Pt15  1  0.811649  0.178147  0.969201  1
  Pt  Pt16  1  0.321853  0.688351  0.530799  1
  Pt  Pt17  1  0.673014  0.309664  0.477695  1
