# generated using pymatgen
data_Li2Y3MgAu3
_symmetry_space_group_name_H-M   'P 1'
_cell_length_a   7.55016561
_cell_length_b   7.55016576
_cell_length_c   4.05078300
_cell_angle_alpha   90.00000000
_cell_angle_beta   90.00000000
_cell_angle_gamma   120.11199715
_symmetry_Int_Tables_number   1
_chemical_formula_structural   Li2Y3MgAu3
_chemical_formula_sum   'Li2 Y3 Mg1 Au3'
_cell_volume   199.75209405
_cell_formula_units_Z   1
loop_
 _symmetry_equiv_pos_site_id
 _symmetry_equiv_pos_as_xyz
  1  'x, y, z'
loop_
 _atom_site_type_symbol
 _atom_site_label
 _atom_site_symmetry_multiplicity
 _atom_site_fract_x
 _atom_site_fract_y
 _atom_site_fract_z
 _atom_site_occupancy
  Li  Li0  1  0.243636  0.998979  0.500000  1
  Li  Li1  1  0.998979  0.243636  0.500000  1
  Y  Y2  1  0.590699  0.002923  0.000000  1
  Y  Y3  1  0.002923  0.590699  0.000000  1
  Y  Y4  1  0.401930  0.401930  0.000000  1
  Mg  Mg5  1  0.756080  0.756080  0.500000  1
  Au  Au6  1  0.335520  0.666776  0.500000  1
  Au  Au7  1  0.666776  0.335520  0.500000  1
  Au  Au8  1  0.003458  0.003458  0.000000  1
