# generated using pymatgen
data_Y12Er4Cd4TcNi3
_symmetry_space_group_name_H-M   'P 1'
_cell_length_a   9.59679943
_cell_length_b   9.59679953
_cell_length_c   9.59679899
_cell_angle_alpha   59.51048222
_cell_angle_beta   59.51048461
_cell_angle_gamma   59.51047573
_symmetry_Int_Tables_number   1
_chemical_formula_structural   Y12Er4Cd4TcNi3
_chemical_formula_sum   'Y12 Er4 Cd4 Tc1 Ni3'
_cell_volume   618.01988094
_cell_formula_units_Z   1
loop_
 _symmetry_equiv_pos_site_id
 _symmetry_equiv_pos_as_xyz
  1  'x, y, z'
loop_
 _atom_site_type_symbol
 _atom_site_label
 _atom_site_symmetry_multiplicity
 _atom_site_fract_x
 _atom_site_fract_y
 _atom_site_fract_z
 _atom_site_occupancy
  Y  Y0  1  0.060465  0.438160  0.438160  1
  Y  Y1  1  0.438127  0.060002  0.060002  1
  Y  Y2  1  0.438160  0.060465  0.438160  1
  Y  Y3  1  0.060002  0.438127  0.060002  1
  Y  Y4  1  0.438160  0.438160  0.060465  1
  Y  Y5  1  0.060002  0.060002  0.438127  1
  Y  Y6  1  0.186874  0.814563  0.814563  1
  Y  Y7  1  0.805017  0.189989  0.189989  1
  Y  Y8  1  0.814563  0.186874  0.814563  1
  Y  Y9  1  0.189989  0.805017  0.189989  1
  Y  Y10  1  0.814563  0.814563  0.186874  1
  Y  Y11  1  0.189989  0.189989  0.805017  1
  Er  Er12  1  0.596264  0.596264  0.596264  1
  Er  Er13  1  0.601687  0.601687  0.205399  1
  Er  Er14  1  0.601687  0.205399  0.601687  1
  Er  Er15  1  0.205399  0.601687  0.601687  1
  Cd  Cd16  1  0.829313  0.829313  0.829313  1
  Cd  Cd17  1  0.829614  0.829614  0.506602  1
  Cd  Cd18  1  0.829614  0.506602  0.829614  1
  Cd  Cd19  1  0.506602  0.829614  0.829614  1
  Tc  Tc20  1  0.395572  0.395572  0.395572  1
  Ni  Ni21  1  0.393480  0.393480  0.821373  1
  Ni  Ni22  1  0.393480  0.821373  0.393480  1
  Ni  Ni23  1  0.821373  0.393480  0.393480  1
