# generated using pymatgen
data_Be6Nb3Si2W
_symmetry_space_group_name_H-M   'P 1'
_cell_length_a   4.59900800
_cell_length_b   4.59900734
_cell_length_c   7.70763800
_cell_angle_alpha   90.00000000
_cell_angle_beta   90.00000000
_cell_angle_gamma   120.00000474
_symmetry_Int_Tables_number   1
_chemical_formula_structural   Be6Nb3Si2W
_chemical_formula_sum   'Be6 Nb3 Si2 W1'
_cell_volume   141.18227899
_cell_formula_units_Z   1
loop_
 _symmetry_equiv_pos_site_id
 _symmetry_equiv_pos_as_xyz
  1  'x, y, z'
loop_
 _atom_site_type_symbol
 _atom_site_label
 _atom_site_symmetry_multiplicity
 _atom_site_fract_x
 _atom_site_fract_y
 _atom_site_fract_z
 _atom_site_occupancy
  Be  Be0  1  0.826609  0.173391  0.251802  1
  Be  Be1  1  0.826609  0.653218  0.251802  1
  Be  Be2  1  0.346782  0.173391  0.251802  1
  Be  Be3  1  0.173823  0.826177  0.748247  1
  Be  Be4  1  0.173823  0.347647  0.748247  1
  Be  Be5  1  0.652353  0.826177  0.748247  1
  Nb  Nb6  1  0.666667  0.333333  0.559487  1
  Nb  Nb7  1  0.666667  0.333333  0.936986  1
  Nb  Nb8  1  0.333333  0.666667  0.065177  1
  Si  Si9  1  0.000000  0.000000  0.499389  1
  Si  Si10  1  0.000000  0.000000  0.001303  1
  W  W11  1  0.333333  0.666667  0.437510  1
