# generated using pymatgen
data_SrYPa2(Al3Ir)6
_symmetry_space_group_name_H-M   'P 1'
_cell_length_a   7.62225252
_cell_length_b   7.61258689
_cell_length_c   9.43887000
_cell_angle_alpha   90.00000000
_cell_angle_beta   90.00000000
_cell_angle_gamma   119.56755856
_symmetry_Int_Tables_number   1
_chemical_formula_structural   SrYPa2(Al3Ir)6
_chemical_formula_sum   'Sr1 Y1 Pa2 Al18 Ir6'
_cell_volume   476.36764176
_cell_formula_units_Z   1
loop_
 _symmetry_equiv_pos_site_id
 _symmetry_equiv_pos_as_xyz
  1  'x, y, z'
loop_
 _atom_site_type_symbol
 _atom_site_label
 _atom_site_symmetry_multiplicity
 _atom_site_fract_x
 _atom_site_fract_y
 _atom_site_fract_z
 _atom_site_occupancy
  Sr  Sr0  1  0.670156  0.993921  0.250000  1
  Y  Y1  1  0.330179  0.006736  0.750000  1
  Pa  Pa2  1  0.998056  0.672125  0.250000  1
  Pa  Pa3  1  0.001946  0.327466  0.750000  1
  Al  Al4  1  0.134388  0.127593  0.250000  1
  Al  Al5  1  0.869397  0.872227  0.750000  1
  Al  Al6  1  0.002148  0.333683  0.075890  1
  Al  Al7  1  0.999289  0.667634  0.921825  1
  Al  Al8  1  0.999289  0.667634  0.578175  1
  Al  Al9  1  0.337066  0.003473  0.427111  1
  Al  Al10  1  0.002148  0.333683  0.424110  1
  Al  Al11  1  0.661290  0.996082  0.576496  1
  Al  Al12  1  0.661290  0.996082  0.923504  1
  Al  Al13  1  0.337066  0.003473  0.072889  1
  Al  Al14  1  0.335122  0.333475  0.554142  1
  Al  Al15  1  0.664661  0.665172  0.449854  1
  Al  Al16  1  0.664661  0.665172  0.050146  1
  Al  Al17  1  0.335122  0.333475  0.945858  1
  Al  Al18  1  0.336220  0.544655  0.250000  1
  Al  Al19  1  0.659770  0.452285  0.750000  1
  Al  Al20  1  0.550099  0.346366  0.250000  1
  Al  Al21  1  0.450052  0.657593  0.750000  1
  Ir  Ir22  1  0.675613  0.331154  0.997537  1
  Ir  Ir23  1  0.322375  0.668223  0.998482  1
  Ir  Ir24  1  0.322375  0.668223  0.501518  1
  Ir  Ir25  1  0.675613  0.331154  0.502463  1
  Ir  Ir26  1  0.002305  0.000621  0.997796  1
  Ir  Ir27  1  0.002305  0.000621  0.502204  1
