# generated using pymatgen
data_Hg2PtRhO7
_symmetry_space_group_name_H-M   'P 1'
_cell_length_a   7.31467930
_cell_length_b   7.35058964
_cell_length_c   7.31467909
_cell_angle_alpha   59.83745767
_cell_angle_beta   59.69874081
_cell_angle_gamma   59.83745418
_symmetry_Int_Tables_number   1
_chemical_formula_structural   Hg2PtRhO7
_chemical_formula_sum   'Hg4 Pt2 Rh2 O14'
_cell_volume   276.77870893
_cell_formula_units_Z   2
loop_
 _symmetry_equiv_pos_site_id
 _symmetry_equiv_pos_as_xyz
  1  'x, y, z'
loop_
 _atom_site_type_symbol
 _atom_site_label
 _atom_site_symmetry_multiplicity
 _atom_site_fract_x
 _atom_site_fract_y
 _atom_site_fract_z
 _atom_site_occupancy
  Hg  Hg0  1  0.125000  0.125000  0.125000  1
  Hg  Hg1  1  0.625000  0.125000  0.125000  1
  Hg  Hg2  1  0.125000  0.625000  0.125000  1
  Hg  Hg3  1  0.125000  0.125000  0.625000  1
  Pt  Pt4  1  0.625000  0.625000  0.125000  1
  Pt  Pt5  1  0.125000  0.625000  0.625000  1
  Rh  Rh6  1  0.625000  0.625000  0.625000  1
  Rh  Rh7  1  0.625000  0.125000  0.625000  1
  O  O8  1  0.700145  0.298389  0.299376  1
  O  O9  1  0.694469  0.305531  0.694469  1
  O  O10  1  0.994358  0.005642  0.994358  1
  O  O11  1  0.293846  0.706154  0.293846  1
  O  O12  1  0.700145  0.702090  0.299376  1
  O  O13  1  0.950624  0.547910  0.549855  1
  O  O14  1  0.299376  0.702090  0.700145  1
  O  O15  1  0.255642  0.244358  0.255642  1
  O  O16  1  0.956154  0.543846  0.956154  1
  O  O17  1  0.555531  0.944469  0.555531  1
  O  O18  1  0.549855  0.547910  0.950624  1
  O  O19  1  0.950624  0.951611  0.549855  1
  O  O20  1  0.549855  0.951611  0.950624  1
  O  O21  1  0.299376  0.298389  0.700145  1
