# generated using pymatgen
data_NaSc3As6Ir7
_symmetry_space_group_name_H-M   'P 1'
_cell_length_a   7.13990670
_cell_length_b   7.13990631
_cell_length_c   7.13581000
_cell_angle_alpha   109.45960480
_cell_angle_beta   109.45960370
_cell_angle_gamma   109.48283215
_symmetry_Int_Tables_number   1
_chemical_formula_structural   NaSc3As6Ir7
_chemical_formula_sum   'Na1 Sc3 As6 Ir7'
_cell_volume   280.07135372
_cell_formula_units_Z   1
loop_
 _symmetry_equiv_pos_site_id
 _symmetry_equiv_pos_as_xyz
  1  'x, y, z'
loop_
 _atom_site_type_symbol
 _atom_site_label
 _atom_site_symmetry_multiplicity
 _atom_site_fract_x
 _atom_site_fract_y
 _atom_site_fract_z
 _atom_site_occupancy
  Na  Na0  1  0.000000  0.000000  0.500000  1
  Sc  Sc1  1  0.500000  0.000000  0.000000  1
  Sc  Sc2  1  0.000000  0.500000  0.000000  1
  Sc  Sc3  1  0.500000  0.500000  0.500000  1
  As  As4  1  0.312319  0.000000  0.318231  1
  As  As5  1  0.000000  0.312319  0.318231  1
  As  As6  1  0.000000  0.687681  0.681769  1
  As  As7  1  0.312319  0.312319  0.994087  1
  As  As8  1  0.687681  0.687681  0.005913  1
  As  As9  1  0.687681  0.000000  0.681769  1
  Ir  Ir10  1  0.745159  0.490317  0.245159  1
  Ir  Ir11  1  0.490317  0.745159  0.245159  1
  Ir  Ir12  1  0.509683  0.254841  0.754841  1
  Ir  Ir13  1  0.745159  0.254841  0.500000  1
  Ir  Ir14  1  0.254841  0.745159  0.500000  1
  Ir  Ir15  1  0.254841  0.509683  0.754841  1
  Ir  Ir16  1  0.000000  0.000000  0.000000  1
