# generated using pymatgen
data_RbSmSiSe4
_symmetry_space_group_name_H-M   'P 1'
_cell_length_a   7.06496600
_cell_length_b   6.77747948
_cell_length_c   18.94879876
_cell_angle_alpha   71.93265891
_cell_angle_beta   90.00000000
_cell_angle_gamma   90.00000000
_symmetry_Int_Tables_number   1
_chemical_formula_structural   RbSmSiSe4
_chemical_formula_sum   'Rb4 Sm4 Si4 Se16'
_cell_volume   862.58144968
_cell_formula_units_Z   4
loop_
 _symmetry_equiv_pos_site_id
 _symmetry_equiv_pos_as_xyz
  1  'x, y, z'
loop_
 _atom_site_type_symbol
 _atom_site_label
 _atom_site_symmetry_multiplicity
 _atom_site_fract_x
 _atom_site_fract_y
 _atom_site_fract_z
 _atom_site_occupancy
  Rb  Rb0  1  0.252165  0.723432  0.034358  1
  Rb  Rb1  1  0.247835  0.723432  0.534358  1
  Rb  Rb2  1  0.752165  0.276568  0.465642  1
  Rb  Rb3  1  0.747835  0.276568  0.965642  1
  Sm  Sm4  1  0.774056  0.227406  0.226654  1
  Sm  Sm5  1  0.225944  0.772594  0.773346  1
  Sm  Sm6  1  0.725944  0.227406  0.726654  1
  Sm  Sm7  1  0.274056  0.772594  0.273346  1
  Si  Si8  1  0.260862  0.215669  0.836508  1
  Si  Si9  1  0.239138  0.215669  0.336508  1
  Si  Si10  1  0.760862  0.784331  0.663492  1
  Si  Si11  1  0.739138  0.784331  0.163492  1
  Se  Se12  1  0.492190  0.985045  0.649371  1
  Se  Se13  1  0.179053  0.417845  0.217466  1
  Se  Se14  1  0.507810  0.014955  0.350629  1
  Se  Se15  1  0.992190  0.014955  0.850629  1
  Se  Se16  1  0.320947  0.417845  0.717466  1
  Se  Se17  1  0.254441  0.416765  0.912333  1
  Se  Se18  1  0.745559  0.583235  0.087667  1
  Se  Se19  1  0.820947  0.582155  0.782534  1
  Se  Se20  1  0.754441  0.583235  0.587667  1
  Se  Se21  1  0.245559  0.416765  0.412333  1
  Se  Se22  1  0.497010  0.970837  0.859807  1
  Se  Se23  1  0.997010  0.029163  0.640193  1
  Se  Se24  1  0.502990  0.029163  0.140193  1
  Se  Se25  1  0.007810  0.985045  0.149371  1
  Se  Se26  1  0.002990  0.970837  0.359807  1
  Se  Se27  1  0.679053  0.582155  0.282534  1
