# generated using pymatgen
data_Nd4Er13(LuBi4)3
_symmetry_space_group_name_H-M   'P 1'
_cell_length_a   8.30788444
_cell_length_b   9.47219900
_cell_length_c   12.10943564
_cell_angle_alpha   90.00000000
_cell_angle_beta   89.96273976
_cell_angle_gamma   90.00000000
_symmetry_Int_Tables_number   1
_chemical_formula_structural   Nd4Er13(LuBi4)3
_chemical_formula_sum   'Nd4 Er13 Lu3 Bi12'
_cell_volume   952.93893574
_cell_formula_units_Z   1
loop_
 _symmetry_equiv_pos_site_id
 _symmetry_equiv_pos_as_xyz
  1  'x, y, z'
loop_
 _atom_site_type_symbol
 _atom_site_label
 _atom_site_symmetry_multiplicity
 _atom_site_fract_x
 _atom_site_fract_y
 _atom_site_fract_z
 _atom_site_occupancy
  Nd  Nd0  1  0.168701  0.750000  0.222990  1
  Nd  Nd1  1  0.331464  0.750000  0.722811  1
  Nd  Nd2  1  0.831311  0.250000  0.777121  1
  Nd  Nd3  1  0.668538  0.250000  0.277135  1
  Er  Er4  1  0.812326  0.565168  0.063248  1
  Er  Er5  1  0.687543  0.934860  0.563165  1
  Er  Er6  1  0.187608  0.065153  0.936764  1
  Er  Er7  1  0.312651  0.435030  0.436837  1
  Er  Er8  1  0.187608  0.434847  0.936764  1
  Er  Er9  1  0.312651  0.064970  0.436837  1
  Er  Er10  1  0.812326  0.934832  0.063248  1
  Er  Er11  1  0.687543  0.565140  0.563165  1
  Er  Er12  1  0.978634  0.250000  0.496665  1
  Er  Er13  1  0.668871  0.750000  0.288491  1
  Er  Er14  1  0.831185  0.750000  0.788332  1
  Er  Er15  1  0.331200  0.250000  0.711520  1
  Er  Er16  1  0.168886  0.250000  0.211522  1
  Lu  Lu17  1  0.478940  0.750000  0.003377  1
  Lu  Lu18  1  0.020964  0.750000  0.503382  1
  Lu  Lu19  1  0.521082  0.250000  0.996595  1
  Bi  Bi20  1  0.400169  0.750000  0.462071  1
  Bi  Bi21  1  0.099755  0.750000  0.962097  1
  Bi  Bi22  1  0.599209  0.250000  0.537924  1
  Bi  Bi23  1  0.900286  0.250000  0.037985  1
  Bi  Bi24  1  0.936197  0.506058  0.328794  1
  Bi  Bi25  1  0.563819  0.994356  0.828996  1
  Bi  Bi26  1  0.064055  0.005396  0.671190  1
  Bi  Bi27  1  0.436204  0.494316  0.170997  1
  Bi  Bi28  1  0.064055  0.494604  0.671190  1
  Bi  Bi29  1  0.436204  0.005684  0.170997  1
  Bi  Bi30  1  0.936197  0.993942  0.328794  1
  Bi  Bi31  1  0.563819  0.505644  0.828996  1
