# generated using pymatgen
data_Tb12In2CuOs3
_symmetry_space_group_name_H-M   'P 1'
_cell_length_a   8.54047864
_cell_length_b   8.54057293
_cell_length_c   8.54047872
_cell_angle_alpha   113.10904571
_cell_angle_beta   111.21775259
_cell_angle_gamma   104.21714321
_symmetry_Int_Tables_number   1
_chemical_formula_structural   Tb12In2CuOs3
_chemical_formula_sum   'Tb12 In2 Cu1 Os3'
_cell_volume   476.41701827
_cell_formula_units_Z   1
loop_
 _symmetry_equiv_pos_site_id
 _symmetry_equiv_pos_as_xyz
  1  'x, y, z'
loop_
 _atom_site_type_symbol
 _atom_site_label
 _atom_site_symmetry_multiplicity
 _atom_site_fract_x
 _atom_site_fract_y
 _atom_site_fract_z
 _atom_site_occupancy
  Tb  Tb0  1  0.437690  0.239596  0.198004  1
  Tb  Tb1  1  0.556277  0.759965  0.796266  1
  Tb  Tb2  1  0.041592  0.239596  0.801906  1
  Tb  Tb3  1  0.963697  0.759965  0.203688  1
  Tb  Tb4  1  0.188398  0.286135  0.465592  1
  Tb  Tb5  1  0.820600  0.722867  0.534425  1
  Tb  Tb6  1  0.188442  0.722867  0.902267  1
  Tb  Tb7  1  0.820542  0.286135  0.097737  1
  Tb  Tb8  1  0.327898  0.641768  0.313870  1
  Tb  Tb9  1  0.663603  0.351895  0.688292  1
  Tb  Tb10  1  0.328053  0.013960  0.685906  1
  Tb  Tb11  1  0.663515  0.975406  0.311892  1
  In  In12  1  0.502098  0.502041  0.999943  1
  In  In13  1  0.996463  0.996462  0.999999  1
  Cu  Cu14  1  0.876678  0.376843  0.500165  1
  Os  Os15  1  0.334220  0.004033  0.330248  1
  Os  Os16  1  0.673784  0.004033  0.669813  1
  Os  Os17  1  0.116449  0.616435  0.499986  1
