# generated using pymatgen
data_Pm2SeO5
_symmetry_space_group_name_H-M   'P 1'
_cell_length_a   10.05006135
_cell_length_b   7.16790100
_cell_length_c   6.64722004
_cell_angle_alpha   90.00000000
_cell_angle_beta   101.77361457
_cell_angle_gamma   90.00000000
_symmetry_Int_Tables_number   1
_chemical_formula_structural   Pm2SeO5
_chemical_formula_sum   'Pm8 Se4 O20'
_cell_volume   468.77707038
_cell_formula_units_Z   4
loop_
 _symmetry_equiv_pos_site_id
 _symmetry_equiv_pos_as_xyz
  1  'x, y, z'
loop_
 _atom_site_type_symbol
 _atom_site_label
 _atom_site_symmetry_multiplicity
 _atom_site_fract_x
 _atom_site_fract_y
 _atom_site_fract_z
 _atom_site_occupancy
  Pm  Pm0  1  0.367615  0.374610  0.077753  1
  Pm  Pm1  1  0.033833  0.380109  0.251248  1
  Pm  Pm2  1  0.966166  0.880109  0.248753  1
  Pm  Pm3  1  0.632386  0.874610  0.422248  1
  Pm  Pm4  1  0.367614  0.125390  0.577753  1
  Pm  Pm5  1  0.033833  0.119891  0.751248  1
  Pm  Pm6  1  0.966167  0.619891  0.748753  1
  Pm  Pm7  1  0.632386  0.625391  0.922248  1
  Se  Se8  1  0.287043  0.905856  0.089195  1
  Se  Se9  1  0.712956  0.405856  0.410804  1
  Se  Se10  1  0.287043  0.594145  0.589195  1
  Se  Se11  1  0.712957  0.094144  0.910804  1
  O  O12  1  0.913604  0.151309  0.049415  1
  O  O13  1  0.627151  0.267546  0.005502  1
  O  O14  1  0.868629  0.603282  0.049663  1
  O  O15  1  0.716089  0.920341  0.109750  1
  O  O16  1  0.428776  0.065143  0.257000  1
  O  O17  1  0.571224  0.565143  0.242999  1
  O  O18  1  0.283912  0.420341  0.390250  1
  O  O19  1  0.131372  0.103283  0.450337  1
  O  O20  1  0.372850  0.767546  0.494499  1
  O  O21  1  0.086396  0.651309  0.450584  1
  O  O22  1  0.913604  0.348691  0.549415  1
  O  O23  1  0.627150  0.232454  0.505502  1
  O  O24  1  0.868629  0.896718  0.549663  1
  O  O25  1  0.716088  0.579660  0.609750  1
  O  O26  1  0.428776  0.434858  0.757001  1
  O  O27  1  0.571225  0.934858  0.742999  1
  O  O28  1  0.283912  0.079659  0.890250  1
  O  O29  1  0.131372  0.396718  0.950337  1
  O  O30  1  0.372850  0.732455  0.994499  1
  O  O31  1  0.086396  0.848691  0.950584  1
