# generated using pymatgen
data_Ce2(SiIr)3
_symmetry_space_group_name_H-M   'P 1'
_cell_length_a   4.07628000
_cell_length_b   4.11540800
_cell_length_c   17.39159300
_cell_angle_alpha   90.00000000
_cell_angle_beta   90.00000000
_cell_angle_gamma   90.00000000
_symmetry_Int_Tables_number   1
_chemical_formula_structural   Ce2(SiIr)3
_chemical_formula_sum   'Ce4 Si6 Ir6'
_cell_volume   291.75363051
_cell_formula_units_Z   2
loop_
 _symmetry_equiv_pos_site_id
 _symmetry_equiv_pos_as_xyz
  1  'x, y, z'
loop_
 _atom_site_type_symbol
 _atom_site_label
 _atom_site_symmetry_multiplicity
 _atom_site_fract_x
 _atom_site_fract_y
 _atom_site_fract_z
 _atom_site_occupancy
  Ce  Ce0  1  0.750001  0.250001  0.147171  1
  Ce  Ce1  1  0.750001  0.750000  0.348876  1
  Ce  Ce2  1  0.250001  0.250001  0.651124  1
  Ce  Ce3  1  0.250001  0.750000  0.852829  1
  Si  Si4  1  0.250001  0.750000  0.074346  1
  Si  Si5  1  0.250001  0.750000  0.212890  1
  Si  Si6  1  0.250001  0.250001  0.425697  1
  Si  Si7  1  0.750001  0.750000  0.574303  1
  Si  Si8  1  0.750001  0.250001  0.787110  1
  Si  Si9  1  0.750001  0.250001  0.925654  1
  Ir  Ir10  1  0.250001  0.250001  0.001728  1
  Ir  Ir11  1  0.250001  0.250001  0.287668  1
  Ir  Ir12  1  0.750001  0.250001  0.499185  1
  Ir  Ir13  1  0.250001  0.750000  0.500815  1
  Ir  Ir14  1  0.750001  0.750000  0.712332  1
  Ir  Ir15  1  0.750001  0.750000  0.998272  1
