# generated using pymatgen
data_Y6Ho7Th3(MgIr)4
_symmetry_space_group_name_H-M   'P 1'
_cell_length_a   9.77727157
_cell_length_b   9.77946928
_cell_length_c   9.77946900
_cell_angle_alpha   59.99999757
_cell_angle_beta   59.99256172
_cell_angle_gamma   59.99256351
_symmetry_Int_Tables_number   1
_chemical_formula_structural   Y6Ho7Th3(MgIr)4
_chemical_formula_sum   'Y6 Ho7 Th3 Mg4 Ir4'
_cell_volume   661.12625269
_cell_formula_units_Z   1
loop_
 _symmetry_equiv_pos_site_id
 _symmetry_equiv_pos_as_xyz
  1  'x, y, z'
loop_
 _atom_site_type_symbol
 _atom_site_label
 _atom_site_symmetry_multiplicity
 _atom_site_fract_x
 _atom_site_fract_y
 _atom_site_fract_z
 _atom_site_occupancy
  Y  Y0  1  0.186274  0.813757  0.813757  1
  Y  Y1  1  0.814581  0.185238  0.185238  1
  Y  Y2  1  0.814581  0.185238  0.814941  1
  Y  Y3  1  0.186274  0.813757  0.186214  1
  Y  Y4  1  0.814581  0.814941  0.185238  1
  Y  Y5  1  0.186274  0.186214  0.813757  1
  Ho  Ho6  1  0.206180  0.597940  0.597940  1
  Ho  Ho7  1  0.063156  0.437586  0.437586  1
  Ho  Ho8  1  0.436677  0.063813  0.063813  1
  Ho  Ho9  1  0.436677  0.063813  0.435697  1
  Ho  Ho10  1  0.063156  0.437586  0.061673  1
  Ho  Ho11  1  0.436677  0.435697  0.063813  1
  Ho  Ho12  1  0.063156  0.061673  0.437586  1
  Th  Th13  1  0.595926  0.598557  0.598557  1
  Th  Th14  1  0.595926  0.598557  0.206960  1
  Th  Th15  1  0.595926  0.206960  0.598557  1
  Mg  Mg16  1  0.831577  0.829726  0.829726  1
  Mg  Mg17  1  0.831577  0.829726  0.508972  1
  Mg  Mg18  1  0.831577  0.508972  0.829726  1
  Mg  Mg19  1  0.506701  0.831100  0.831100  1
  Ir  Ir20  1  0.393592  0.391539  0.391539  1
  Ir  Ir21  1  0.393592  0.391539  0.823332  1
  Ir  Ir22  1  0.393592  0.823332  0.391539  1
  Ir  Ir23  1  0.821771  0.392743  0.392743  1
