# generated using pymatgen
data_Y6Ni7P12Ir11
_symmetry_space_group_name_H-M   'P 1'
_cell_length_a   3.86320700
_cell_length_b   10.93451940
_cell_length_c   12.62467062
_cell_angle_alpha   89.86635818
_cell_angle_beta   90.00228046
_cell_angle_gamma   90.00095363
_symmetry_Int_Tables_number   1
_chemical_formula_structural   Y6Ni7P12Ir11
_chemical_formula_sum   'Y6 Ni7 P12 Ir11'
_cell_volume   533.29382318
_cell_formula_units_Z   1
loop_
 _symmetry_equiv_pos_site_id
 _symmetry_equiv_pos_as_xyz
  1  'x, y, z'
loop_
 _atom_site_type_symbol
 _atom_site_label
 _atom_site_symmetry_multiplicity
 _atom_site_fract_x
 _atom_site_fract_y
 _atom_site_fract_z
 _atom_site_occupancy
  Y  Y0  1  0.751871  0.000772  0.478178  1
  Y  Y1  1  0.251836  0.497945  0.522948  1
  Y  Y2  1  0.251825  0.679682  0.804903  1
  Y  Y3  1  0.251848  0.317287  0.803215  1
  Y  Y4  1  0.751766  0.819100  0.195643  1
  Y  Y5  1  0.751815  0.179570  0.195576  1
  Ni  Ni6  1  0.751696  0.001249  0.010424  1
  Ni  Ni7  1  0.252094  0.499455  0.990192  1
  Ni  Ni8  1  0.751920  0.131059  0.713966  1
  Ni  Ni9  1  0.251423  0.166017  0.002512  1
  Ni  Ni10  1  0.251757  0.833376  0.003531  1
  Ni  Ni11  1  0.751866  0.332172  0.996701  1
  Ni  Ni12  1  0.751677  0.667192  0.996276  1
  P  P13  1  0.251894  0.182467  0.379957  1
  P  P14  1  0.251873  0.815655  0.380210  1
  P  P15  1  0.751956  0.313972  0.621532  1
  P  P16  1  0.751846  0.685221  0.621703  1
  P  P17  1  0.251725  0.000247  0.111595  1
  P  P18  1  0.751969  0.499539  0.888509  1
  P  P19  1  0.251688  0.657717  0.098392  1
  P  P20  1  0.251946  0.340426  0.097548  1
  P  P21  1  0.751782  0.845304  0.899775  1
  P  P22  1  0.751663  0.156065  0.894389  1
  P  P23  1  0.251896  0.005787  0.654211  1
  P  P24  1  0.751794  0.499594  0.351592  1
  Ir  Ir25  1  0.251939  0.203130  0.572522  1
  Ir  Ir26  1  0.251828  0.794308  0.572579  1
  Ir  Ir27  1  0.751871  0.295074  0.428085  1
  Ir  Ir28  1  0.751839  0.705142  0.428638  1
  Ir  Ir29  1  0.251797  0.627560  0.282078  1
  Ir  Ir30  1  0.251810  0.369943  0.281010  1
  Ir  Ir31  1  0.751815  0.878951  0.716063  1
  Ir  Ir32  1  0.251802  0.001502  0.839793  1
  Ir  Ir33  1  0.751798  0.499042  0.165341  1
  Ir  Ir34  1  0.251798  0.998472  0.295167  1
  Ir  Ir35  1  0.751880  0.500009  0.705244  1
