# generated using pymatgen
data_Ce3ThBr16
_symmetry_space_group_name_H-M   'P 1'
_cell_length_a   7.60204132
_cell_length_b   7.59285624
_cell_length_c   13.33564135
_cell_angle_alpha   67.62700932
_cell_angle_beta   89.90993910
_cell_angle_gamma   89.90925193
_symmetry_Int_Tables_number   1
_chemical_formula_structural   Ce3ThBr16
_chemical_formula_sum   'Ce3 Th1 Br16'
_cell_volume   711.80558728
_cell_formula_units_Z   1
loop_
 _symmetry_equiv_pos_site_id
 _symmetry_equiv_pos_as_xyz
  1  'x, y, z'
loop_
 _atom_site_type_symbol
 _atom_site_label
 _atom_site_symmetry_multiplicity
 _atom_site_fract_x
 _atom_site_fract_y
 _atom_site_fract_z
 _atom_site_occupancy
  Ce  Ce0  1  0.515394  0.002820  0.320383  1
  Ce  Ce1  1  0.015803  0.997519  0.180475  1
  Ce  Ce2  1  0.485496  0.996322  0.679082  1
  Th  Th3  1  0.985643  0.003467  0.820634  1
  Br  Br4  1  0.853265  0.146862  0.344756  1
  Br  Br5  1  0.353393  0.853386  0.155400  1
  Br  Br6  1  0.146036  0.854748  0.654378  1
  Br  Br7  1  0.641513  0.149592  0.844259  1
  Br  Br8  1  0.081807  0.238614  0.946036  1
  Br  Br9  1  0.579342  0.765101  0.553589  1
  Br  Br10  1  0.918659  0.763797  0.055059  1
  Br  Br11  1  0.420370  0.234063  0.445990  1
  Br  Br12  1  0.744338  0.707419  0.811609  1
  Br  Br13  1  0.245559  0.292262  0.686596  1
  Br  Br14  1  0.254969  0.289143  0.189025  1
  Br  Br15  1  0.755657  0.710999  0.312631  1
  Br  Br16  1  0.313477  0.794836  0.897634  1
  Br  Br17  1  0.810808  0.199290  0.601950  1
  Br  Br18  1  0.689395  0.198184  0.103607  1
  Br  Br19  1  0.189076  0.801577  0.396906  1
