# generated using pymatgen
data_Tb12OsPd2Rh
_symmetry_space_group_name_H-M   'P 1'
_cell_length_a   6.39697906
_cell_length_b   7.17961978
_cell_length_c   9.52782600
_cell_angle_alpha   90.00000000
_cell_angle_beta   90.00000000
_cell_angle_gamma   90.14058359
_symmetry_Int_Tables_number   1
_chemical_formula_structural   Tb12OsPd2Rh
_chemical_formula_sum   'Tb12 Os1 Pd2 Rh1'
_cell_volume   437.59150742
_cell_formula_units_Z   1
loop_
 _symmetry_equiv_pos_site_id
 _symmetry_equiv_pos_as_xyz
  1  'x, y, z'
loop_
 _atom_site_type_symbol
 _atom_site_label
 _atom_site_symmetry_multiplicity
 _atom_site_fract_x
 _atom_site_fract_y
 _atom_site_fract_z
 _atom_site_occupancy
  Tb  Tb0  1  0.328099  0.684200  0.055789  1
  Tb  Tb1  1  0.168730  0.176286  0.437278  1
  Tb  Tb2  1  0.670062  0.324216  0.563274  1
  Tb  Tb3  1  0.821836  0.815026  0.938333  1
  Tb  Tb4  1  0.670062  0.324216  0.936726  1
  Tb  Tb5  1  0.821836  0.815026  0.561667  1
  Tb  Tb6  1  0.328099  0.684200  0.444211  1
  Tb  Tb7  1  0.168730  0.176286  0.062722  1
  Tb  Tb8  1  0.877212  0.533786  0.250000  1
  Tb  Tb9  1  0.636985  0.027521  0.250000  1
  Tb  Tb10  1  0.132704  0.475701  0.750000  1
  Tb  Tb11  1  0.377089  0.962839  0.750000  1
  Os  Os12  1  0.550687  0.613457  0.750000  1
  Pd  Pd13  1  0.440915  0.390459  0.250000  1
  Pd  Pd14  1  0.949130  0.112268  0.750000  1
  Rh  Rh15  1  0.057822  0.884510  0.250000  1
