# generated using pymatgen
data_Ho8Hf12Si15Ir
_symmetry_space_group_name_H-M   'P 1'
_cell_length_a   7.26861537
_cell_length_b   7.27318211
_cell_length_c   13.38080466
_cell_angle_alpha   89.89416620
_cell_angle_beta   89.90008868
_cell_angle_gamma   90.00404509
_symmetry_Int_Tables_number   1
_chemical_formula_structural   Ho8Hf12Si15Ir
_chemical_formula_sum   'Ho8 Hf12 Si15 Ir1'
_cell_volume   707.38684289
_cell_formula_units_Z   1
loop_
 _symmetry_equiv_pos_site_id
 _symmetry_equiv_pos_as_xyz
  1  'x, y, z'
loop_
 _atom_site_type_symbol
 _atom_site_label
 _atom_site_symmetry_multiplicity
 _atom_site_fract_x
 _atom_site_fract_y
 _atom_site_fract_z
 _atom_site_occupancy
  Ho  Ho0  1  0.995515  0.346773  0.214558  1
  Ho  Ho1  1  0.004241  0.655231  0.714690  1
  Ho  Ho2  1  0.157579  0.494430  0.463518  1
  Ho  Ho3  1  0.503610  0.842871  0.034248  1
  Ho  Ho4  1  0.844520  0.502966  0.965063  1
  Ho  Ho5  1  0.496283  0.156906  0.535369  1
  Ho  Ho6  1  0.343821  0.996998  0.785233  1
  Ho  Ho7  1  0.657373  0.000445  0.284633  1
  Hf  Hf8  1  0.174887  0.174919  0.998639  1
  Hf  Hf9  1  0.827167  0.825715  0.500434  1
  Hf  Hf10  1  0.325129  0.667708  0.252644  1
  Hf  Hf11  1  0.674267  0.325340  0.750329  1
  Hf  Hf12  1  0.153532  0.005888  0.373532  1
  Hf  Hf13  1  0.850680  0.003290  0.874783  1
  Hf  Hf14  1  0.503163  0.650386  0.625591  1
  Hf  Hf15  1  0.351584  0.496634  0.873787  1
  Hf  Hf16  1  0.495313  0.347067  0.126231  1
  Hf  Hf17  1  0.646098  0.501623  0.378887  1
  Hf  Hf18  1  0.997602  0.148320  0.626333  1
  Hf  Hf19  1  0.999875  0.848945  0.124268  1
  Si  Si20  1  0.638806  0.705335  0.818764  1
  Si  Si21  1  0.204957  0.861386  0.567138  1
  Si  Si22  1  0.138436  0.795086  0.932427  1
  Si  Si23  1  0.796463  0.137866  0.066479  1
  Si  Si24  1  0.860141  0.199886  0.435310  1
  Si  Si25  1  0.295796  0.361553  0.683008  1
  Si  Si26  1  0.703811  0.639990  0.182281  1
  Si  Si27  1  0.291634  0.045146  0.183547  1
  Si  Si28  1  0.704611  0.951435  0.685733  1
  Si  Si29  1  0.451956  0.798540  0.438076  1
  Si  Si30  1  0.204753  0.550264  0.061595  1
  Si  Si31  1  0.548098  0.203891  0.935142  1
  Si  Si32  1  0.796005  0.451423  0.566212  1
  Si  Si33  1  0.047893  0.296503  0.814602  1
  Si  Si34  1  0.949422  0.708470  0.313970  1
  Ir  Ir35  1  0.364976  0.300773  0.312950  1
