# generated using pymatgen
data_DyTm5TcBi2
_symmetry_space_group_name_H-M   'P 1'
_cell_length_a   8.22923900
_cell_length_b   8.21915433
_cell_length_c   4.27554700
_cell_angle_alpha   90.00000000
_cell_angle_beta   90.00000000
_cell_angle_gamma   120.04060830
_symmetry_Int_Tables_number   1
_chemical_formula_structural   DyTm5TcBi2
_chemical_formula_sum   'Dy1 Tm5 Tc1 Bi2'
_cell_volume   250.34058924
_cell_formula_units_Z   1
loop_
 _symmetry_equiv_pos_site_id
 _symmetry_equiv_pos_as_xyz
  1  'x, y, z'
loop_
 _atom_site_type_symbol
 _atom_site_label
 _atom_site_symmetry_multiplicity
 _atom_site_fract_x
 _atom_site_fract_y
 _atom_site_fract_z
 _atom_site_occupancy
  Dy  Dy0  1  0.610612  0.000000  0.000000  1
  Tm  Tm1  1  0.232111  0.000000  0.500000  1
  Tm  Tm2  1  0.000695  0.231700  0.500000  1
  Tm  Tm3  1  0.768995  0.768300  0.500000  1
  Tm  Tm4  1  0.999772  0.612781  0.000000  1
  Tm  Tm5  1  0.386991  0.387219  0.000000  1
  Tc  Tc6  1  0.001904  0.000000  0.000000  1
  Bi  Bi7  1  0.332163  0.665409  0.500000  1
  Bi  Bi8  1  0.666756  0.334591  0.500000  1
