# generated using pymatgen
data_Cd4P6PtN12
_symmetry_space_group_name_H-M   'P 1'
_cell_length_a   7.46554153
_cell_length_b   7.46554146
_cell_length_c   7.46554200
_cell_angle_alpha   109.47122210
_cell_angle_beta   109.47122191
_cell_angle_gamma   109.47121955
_symmetry_Int_Tables_number   1
_chemical_formula_structural   Cd4P6PtN12
_chemical_formula_sum   'Cd4 P6 Pt1 N12'
_cell_volume   320.30378512
_cell_formula_units_Z   1
loop_
 _symmetry_equiv_pos_site_id
 _symmetry_equiv_pos_as_xyz
  1  'x, y, z'
loop_
 _atom_site_type_symbol
 _atom_site_label
 _atom_site_symmetry_multiplicity
 _atom_site_fract_x
 _atom_site_fract_y
 _atom_site_fract_z
 _atom_site_occupancy
  Cd  Cd0  1  0.648986  0.000000  0.000000  1
  Cd  Cd1  1  0.000000  0.000000  0.648986  1
  Cd  Cd2  1  0.000000  0.648986  0.000000  1
  Cd  Cd3  1  0.351014  0.351014  0.351014  1
  P  P4  1  0.250000  0.750000  0.500000  1
  P  P5  1  0.750000  0.250000  0.500000  1
  P  P6  1  0.750000  0.500000  0.250000  1
  P  P7  1  0.250000  0.500000  0.750000  1
  P  P8  1  0.500000  0.750000  0.250000  1
  P  P9  1  0.500000  0.250000  0.750000  1
  Pt  Pt10  1  0.000000  0.000000  0.000000  1
  N  N11  1  0.708506  0.288484  0.288484  1
  N  N12  1  0.288484  0.708506  0.288484  1
  N  N13  1  0.291494  0.579978  0.579978  1
  N  N14  1  0.579978  0.579978  0.291494  1
  N  N15  1  0.420022  0.711516  0.000000  1
  N  N16  1  0.000000  0.711516  0.420022  1
  N  N17  1  0.579978  0.291494  0.579978  1
  N  N18  1  0.711516  0.000000  0.420022  1
  N  N19  1  0.420022  0.000000  0.711516  1
  N  N20  1  0.711516  0.420022  0.000000  1
  N  N21  1  0.288484  0.288484  0.708506  1
  N  N22  1  0.000000  0.420022  0.711516  1
