# generated using pymatgen
data_La5Pr2Nd3(Tl3Br)2
_symmetry_space_group_name_H-M   'P 1'
_cell_length_a   9.84370708
_cell_length_b   9.80848591
_cell_length_c   6.78784806
_cell_angle_alpha   90.00800409
_cell_angle_beta   89.98536207
_cell_angle_gamma   120.12244371
_symmetry_Int_Tables_number   1
_chemical_formula_structural   La5Pr2Nd3(Tl3Br)2
_chemical_formula_sum   'La5 Pr2 Nd3 Tl6 Br2'
_cell_volume   566.87358196
_cell_formula_units_Z   1
loop_
 _symmetry_equiv_pos_site_id
 _symmetry_equiv_pos_as_xyz
  1  'x, y, z'
loop_
 _atom_site_type_symbol
 _atom_site_label
 _atom_site_symmetry_multiplicity
 _atom_site_fract_x
 _atom_site_fract_y
 _atom_site_fract_z
 _atom_site_occupancy
  La  La0  1  0.999039  0.266939  0.249693  1
  La  La1  1  0.732507  0.732529  0.249673  1
  La  La2  1  0.266584  0.000415  0.249753  1
  La  La3  1  0.267897  0.267192  0.750308  1
  La  La4  1  0.999833  0.732213  0.750254  1
  Pr  Pr5  1  0.732739  0.000534  0.750372  1
  Pr  Pr6  1  0.334385  0.667610  0.500768  1
  Nd  Nd7  1  0.334434  0.667628  0.999264  1
  Nd  Nd8  1  0.666738  0.332226  0.500690  1
  Nd  Nd9  1  0.666731  0.332316  0.999319  1
  Tl  Tl10  1  0.393115  0.001046  0.750303  1
  Tl  Tl11  1  0.609735  0.000859  0.249671  1
  Tl  Tl12  1  0.999441  0.608782  0.249624  1
  Tl  Tl13  1  0.609576  0.610149  0.750356  1
  Tl  Tl14  1  0.997782  0.389033  0.750314  1
  Tl  Tl15  1  0.391481  0.390487  0.249678  1
  Br  Br16  1  0.998989  0.999981  0.500561  1
  Br  Br17  1  0.998996  0.000058  0.999400  1
