# generated using pymatgen
data_Th4Ga18PdRu5
_symmetry_space_group_name_H-M   'P 1'
_cell_length_a   7.68367768
_cell_length_b   7.68367732
_cell_length_c   9.63785226
_cell_angle_alpha   90.13942919
_cell_angle_beta   90.13942682
_cell_angle_gamma   119.48841877
_symmetry_Int_Tables_number   1
_chemical_formula_structural   Th4Ga18PdRu5
_chemical_formula_sum   'Th4 Ga18 Pd1 Ru5'
_cell_volume   495.29037242
_cell_formula_units_Z   1
loop_
 _symmetry_equiv_pos_site_id
 _symmetry_equiv_pos_as_xyz
  1  'x, y, z'
loop_
 _atom_site_type_symbol
 _atom_site_label
 _atom_site_symmetry_multiplicity
 _atom_site_fract_x
 _atom_site_fract_y
 _atom_site_fract_z
 _atom_site_occupancy
  Th  Th0  1  0.998211  0.670785  0.252321  1
  Th  Th1  1  0.001789  0.329215  0.747679  1
  Th  Th2  1  0.670785  0.998211  0.252321  1
  Th  Th3  1  0.329215  0.001789  0.747679  1
  Ga  Ga4  1  0.133219  0.133219  0.252971  1
  Ga  Ga5  1  0.866781  0.866781  0.747029  1
  Ga  Ga6  1  0.007806  0.340465  0.078240  1
  Ga  Ga7  1  0.992194  0.659535  0.921760  1
  Ga  Ga8  1  0.992133  0.663549  0.577636  1
  Ga  Ga9  1  0.336451  0.007867  0.422364  1
  Ga  Ga10  1  0.007867  0.336451  0.422364  1
  Ga  Ga11  1  0.663549  0.992133  0.577636  1
  Ga  Ga12  1  0.659535  0.992194  0.921760  1
  Ga  Ga13  1  0.340465  0.007806  0.078240  1
  Ga  Ga14  1  0.338611  0.338611  0.556659  1
  Ga  Ga15  1  0.661389  0.661389  0.443341  1
  Ga  Ga16  1  0.655471  0.655471  0.061455  1
  Ga  Ga17  1  0.344529  0.344529  0.938545  1
  Ga  Ga18  1  0.336585  0.546303  0.250393  1
  Ga  Ga19  1  0.663415  0.453697  0.749607  1
  Ga  Ga20  1  0.546303  0.336585  0.250393  1
  Ga  Ga21  1  0.453697  0.663415  0.749607  1
  Pd  Pd22  1  0.000000  0.000000  0.000000  1
  Ru  Ru23  1  0.673343  0.326657  0.000000  1
  Ru  Ru24  1  0.326657  0.673343  0.000000  1
  Ru  Ru25  1  0.326471  0.673529  0.500000  1
  Ru  Ru26  1  0.673529  0.326471  0.500000  1
  Ru  Ru27  1  0.000000  0.000000  0.500000  1
