# generated using pymatgen
data_Pr10CuSn5BiP
_symmetry_space_group_name_H-M   'P 1'
_cell_length_a   9.55513222
_cell_length_b   9.54118445
_cell_length_c   6.88407703
_cell_angle_alpha   89.90828757
_cell_angle_beta   90.04579254
_cell_angle_gamma   119.95172908
_symmetry_Int_Tables_number   1
_chemical_formula_structural   Pr10CuSn5BiP
_chemical_formula_sum   'Pr10 Cu1 Sn5 Bi1 P1'
_cell_volume   543.78325349
_cell_formula_units_Z   1
loop_
 _symmetry_equiv_pos_site_id
 _symmetry_equiv_pos_as_xyz
  1  'x, y, z'
loop_
 _atom_site_type_symbol
 _atom_site_label
 _atom_site_symmetry_multiplicity
 _atom_site_fract_x
 _atom_site_fract_y
 _atom_site_fract_z
 _atom_site_occupancy
  Pr  Pr0  1  0.663076  0.332399  0.998142  1
  Pr  Pr1  1  0.336924  0.669324  0.998142  1
  Pr  Pr2  1  0.338281  0.670631  0.502161  1
  Pr  Pr3  1  0.661719  0.332349  0.502161  1
  Pr  Pr4  1  0.750390  0.750005  0.760723  1
  Pr  Pr5  1  0.249610  0.999615  0.760723  1
  Pr  Pr6  1  0.000000  0.249366  0.759008  1
  Pr  Pr7  1  0.251994  0.247943  0.239848  1
  Pr  Pr8  1  0.748006  0.995950  0.239848  1
  Pr  Pr9  1  0.000000  0.752293  0.239256  1
  Cu  Cu10  1  0.000000  0.999434  0.500757  1
  Sn  Sn11  1  0.391132  0.392382  0.749191  1
  Sn  Sn12  1  0.608868  0.001250  0.749191  1
  Sn  Sn13  1  0.000000  0.607918  0.749462  1
  Sn  Sn14  1  0.607201  0.606978  0.250059  1
  Sn  Sn15  1  0.392799  0.999777  0.250059  1
  Bi  Bi16  1  0.000000  0.391382  0.251389  1
  P  P17  1  0.000000  0.001007  0.999878  1
