# generated using pymatgen
data_Cs6In(AsBr6)3
_symmetry_space_group_name_H-M   'P 1'
_cell_length_a   7.90939600
_cell_length_b   7.90939662
_cell_length_c   19.90755200
_cell_angle_alpha   90.00000000
_cell_angle_beta   90.00000000
_cell_angle_gamma   120.00000578
_symmetry_Int_Tables_number   1
_chemical_formula_structural   Cs6In(AsBr6)3
_chemical_formula_sum   'Cs6 In1 As3 Br18'
_cell_volume   1078.53722463
_cell_formula_units_Z   1
loop_
 _symmetry_equiv_pos_site_id
 _symmetry_equiv_pos_as_xyz
  1  'x, y, z'
loop_
 _atom_site_type_symbol
 _atom_site_label
 _atom_site_symmetry_multiplicity
 _atom_site_fract_x
 _atom_site_fract_y
 _atom_site_fract_z
 _atom_site_occupancy
  Cs  Cs0  1  0.333333  0.666667  0.072144  1
  Cs  Cs1  1  0.666667  0.333333  0.924763  1
  Cs  Cs2  1  0.666667  0.333333  0.573089  1
  Cs  Cs3  1  0.333333  0.666667  0.418632  1
  Cs  Cs4  1  0.000000  0.000000  0.250371  1
  Cs  Cs5  1  0.000000  0.000000  0.756878  1
  In  In6  1  0.333333  0.666667  0.841633  1
  As  As7  1  0.333333  0.666667  0.655134  1
  As  As8  1  0.666667  0.333333  0.342198  1
  As  As9  1  0.666667  0.333333  0.157527  1
  Br  Br10  1  0.176893  0.353786  0.587423  1
  Br  Br11  1  0.823914  0.647826  0.412046  1
  Br  Br12  1  0.646214  0.823107  0.587423  1
  Br  Br13  1  0.823158  0.646316  0.089111  1
  Br  Br14  1  0.352174  0.176086  0.412046  1
  Br  Br15  1  0.169356  0.338713  0.911695  1
  Br  Br16  1  0.176893  0.823107  0.587423  1
  Br  Br17  1  0.353684  0.176842  0.089111  1
  Br  Br18  1  0.823914  0.176086  0.412046  1
  Br  Br19  1  0.661287  0.830644  0.911695  1
  Br  Br20  1  0.823158  0.176842  0.089111  1
  Br  Br21  1  0.169356  0.830644  0.911695  1
  Br  Br22  1  0.505936  0.011875  0.251376  1
  Br  Br23  1  0.491767  0.983534  0.750894  1
  Br  Br24  1  0.988125  0.494064  0.251376  1
  Br  Br25  1  0.016466  0.508233  0.750894  1
  Br  Br26  1  0.505936  0.494064  0.251376  1
  Br  Br27  1  0.491767  0.508233  0.750894  1
