# generated using pymatgen
data_Mn2GaP6IN12
_symmetry_space_group_name_H-M   'P 1'
_cell_length_a   7.28579946
_cell_length_b   7.27875061
_cell_length_c   7.28579891
_cell_angle_alpha   109.48546926
_cell_angle_beta   109.58917558
_cell_angle_gamma   109.48543423
_symmetry_Int_Tables_number   1
_chemical_formula_structural   Mn2GaP6IN12
_chemical_formula_sum   'Mn2 Ga1 P6 I1 N12'
_cell_volume   296.89421454
_cell_formula_units_Z   1
loop_
 _symmetry_equiv_pos_site_id
 _symmetry_equiv_pos_as_xyz
  1  'x, y, z'
loop_
 _atom_site_type_symbol
 _atom_site_label
 _atom_site_symmetry_multiplicity
 _atom_site_fract_x
 _atom_site_fract_y
 _atom_site_fract_z
 _atom_site_occupancy
  Mn  Mn0  1  0.003739  0.999100  0.369386  1
  Mn  Mn1  1  0.369386  0.999100  0.003739  1
  Ga  Ga2  1  0.002548  0.397822  0.002548  1
  P  P3  1  0.500037  0.253947  0.751814  1
  P  P4  1  0.260438  0.747731  0.501815  1
  P  P5  1  0.746453  0.495537  0.252347  1
  P  P6  1  0.751814  0.253947  0.500037  1
  P  P7  1  0.501815  0.747731  0.260438  1
  P  P8  1  0.252347  0.495537  0.746453  1
  I  I9  1  0.974939  0.006147  0.974939  1
  N  N10  1  0.432141  0.702717  0.432141  1
  N  N11  1  0.717403  0.431657  0.432859  1
  N  N12  1  0.432859  0.431657  0.717403  1
  N  N13  1  0.731492  0.292516  0.731492  1
  N  N14  1  0.000766  0.563975  0.271332  1
  N  N15  1  0.271332  0.563975  0.000766  1
  N  N16  1  0.285150  0.997956  0.562774  1
  N  N17  1  0.999249  0.273861  0.567367  1
  N  N18  1  0.718817  0.716632  0.277128  1
  N  N19  1  0.562774  0.997956  0.285150  1
  N  N20  1  0.277128  0.716632  0.718817  1
  N  N21  1  0.567367  0.273861  0.999249  1
