# generated using pymatgen
data_LaY2U2P12Ru19
_symmetry_space_group_name_H-M   'P 1'
_cell_length_a   12.60811721
_cell_length_b   12.61934366
_cell_length_c   3.95109500
_cell_angle_alpha   90.00000000
_cell_angle_beta   90.00000000
_cell_angle_gamma   120.02946364
_symmetry_Int_Tables_number   1
_chemical_formula_structural   LaY2U2P12Ru19
_chemical_formula_sum   'La1 Y2 U2 P12 Ru19'
_cell_volume   544.25959258
_cell_formula_units_Z   1
loop_
 _symmetry_equiv_pos_site_id
 _symmetry_equiv_pos_as_xyz
  1  'x, y, z'
loop_
 _atom_site_type_symbol
 _atom_site_label
 _atom_site_symmetry_multiplicity
 _atom_site_fract_x
 _atom_site_fract_y
 _atom_site_fract_z
 _atom_site_occupancy
  La  La0  1  0.000000  0.810840  0.500000  1
  Y  Y1  1  0.334926  0.665276  0.000000  1
  Y  Y2  1  0.665074  0.330349  0.000000  1
  U  U3  1  0.185135  0.183795  0.500000  1
  U  U4  1  0.814865  0.998660  0.500000  1
  P  P5  1  0.815632  0.814167  0.000000  1
  P  P6  1  0.184368  0.998536  0.000000  1
  P  P7  1  0.000000  0.185009  0.000000  1
  P  P8  1  0.170582  0.478510  0.500000  1
  P  P9  1  0.519381  0.692863  0.500000  1
  P  P10  1  0.307297  0.827933  0.500000  1
  P  P11  1  0.692703  0.520637  0.500000  1
  P  P12  1  0.829418  0.307929  0.500000  1
  P  P13  1  0.480619  0.173484  0.500000  1
  P  P14  1  0.373951  0.375580  0.000000  1
  P  P15  1  0.626049  0.001630  0.000000  1
  P  P16  1  0.000000  0.622477  0.000000  1
  Ru  Ru17  1  0.552112  0.558944  0.000000  1
  Ru  Ru18  1  0.447888  0.006832  0.000000  1
  Ru  Ru19  1  0.000000  0.441491  0.000000  1
  Ru  Ru20  1  0.713453  0.717923  0.500000  1
  Ru  Ru21  1  0.286547  0.004470  0.500000  1
  Ru  Ru22  1  0.000000  0.281418  0.500000  1
  Ru  Ru23  1  0.183180  0.369700  0.000000  1
  Ru  Ru24  1  0.630968  0.816544  0.000000  1
  Ru  Ru25  1  0.198754  0.817009  0.000000  1
  Ru  Ru26  1  0.801246  0.618255  0.000000  1
  Ru  Ru27  1  0.816820  0.186521  0.000000  1
  Ru  Ru28  1  0.369032  0.185576  0.000000  1
  Ru  Ru29  1  0.362687  0.490920  0.500000  1
  Ru  Ru30  1  0.509292  0.875704  0.500000  1
  Ru  Ru31  1  0.125548  0.633046  0.500000  1
  Ru  Ru32  1  0.874452  0.507497  0.500000  1
  Ru  Ru33  1  0.637313  0.128233  0.500000  1
  Ru  Ru34  1  0.490708  0.366411  0.500000  1
  Ru  Ru35  1  0.000000  0.005834  0.000000  1
