# generated using pymatgen
data_Tb2Pr4Si3Ge
_symmetry_space_group_name_H-M   'P 1'
_cell_length_a   7.70161788
_cell_length_b   7.70161793
_cell_length_c   4.44492900
_cell_angle_alpha   90.00000000
_cell_angle_beta   90.00000000
_cell_angle_gamma   90.60433970
_symmetry_Int_Tables_number   1
_chemical_formula_structural   Tb2Pr4Si3Ge
_chemical_formula_sum   'Tb2 Pr4 Si3 Ge1'
_cell_volume   263.63593472
_cell_formula_units_Z   1
loop_
 _symmetry_equiv_pos_site_id
 _symmetry_equiv_pos_as_xyz
  1  'x, y, z'
loop_
 _atom_site_type_symbol
 _atom_site_label
 _atom_site_symmetry_multiplicity
 _atom_site_fract_x
 _atom_site_fract_y
 _atom_site_fract_z
 _atom_site_occupancy
  Tb  Tb0  1  0.002612  0.001039  0.000000  1
  Tb  Tb1  1  0.498961  0.497388  0.000000  1
  Pr  Pr2  1  0.320933  0.823577  0.500000  1
  Pr  Pr3  1  0.825075  0.674925  0.500000  1
  Pr  Pr4  1  0.176352  0.323648  0.500000  1
  Pr  Pr5  1  0.676423  0.179067  0.500000  1
  Si  Si6  1  0.384127  0.115873  0.000000  1
  Si  Si7  1  0.887142  0.387725  0.000000  1
  Si  Si8  1  0.112275  0.612858  0.000000  1
  Ge  Ge9  1  0.616101  0.883899  0.000000  1
