# generated using pymatgen
data_Nb2CoTcP2
_symmetry_space_group_name_H-M   'P 1'
_cell_length_a   3.66167900
_cell_length_b   6.32325200
_cell_length_c   7.18308600
_cell_angle_alpha   90.00000000
_cell_angle_beta   90.00000000
_cell_angle_gamma   90.00000000
_symmetry_Int_Tables_number   1
_chemical_formula_structural   Nb2CoTcP2
_chemical_formula_sum   'Nb4 Co2 Tc2 P4'
_cell_volume   166.31515523
_cell_formula_units_Z   2
loop_
 _symmetry_equiv_pos_site_id
 _symmetry_equiv_pos_as_xyz
  1  'x, y, z'
loop_
 _atom_site_type_symbol
 _atom_site_label
 _atom_site_symmetry_multiplicity
 _atom_site_fract_x
 _atom_site_fract_y
 _atom_site_fract_z
 _atom_site_occupancy
  Nb  Nb0  1  0.250000  0.028155  0.823628  1
  Nb  Nb1  1  0.250000  0.528155  0.676372  1
  Nb  Nb2  1  0.750000  0.975886  0.168777  1
  Nb  Nb3  1  0.750000  0.475886  0.331223  1
  Co  Co4  1  0.750000  0.850771  0.563204  1
  Co  Co5  1  0.750000  0.350771  0.936796  1
  Tc  Tc6  1  0.250000  0.140038  0.441555  1
  Tc  Tc7  1  0.250000  0.640038  0.058445  1
  P  P8  1  0.250000  0.773118  0.381754  1
  P  P9  1  0.250000  0.273118  0.118246  1
  P  P10  1  0.750000  0.232032  0.632251  1
  P  P11  1  0.750000  0.732032  0.867749  1
