# generated using pymatgen
data_Ba3PrHfS6
_symmetry_space_group_name_H-M   'P 1'
_cell_length_a   8.49598849
_cell_length_b   8.49598711
_cell_length_c   8.49598839
_cell_angle_alpha   92.75140086
_cell_angle_beta   92.75141636
_cell_angle_gamma   92.75142164
_symmetry_Int_Tables_number   1
_chemical_formula_structural   Ba3PrHfS6
_chemical_formula_sum   'Ba6 Pr2 Hf2 S12'
_cell_volume   611.06440468
_cell_formula_units_Z   2
loop_
 _symmetry_equiv_pos_site_id
 _symmetry_equiv_pos_as_xyz
  1  'x, y, z'
loop_
 _atom_site_type_symbol
 _atom_site_label
 _atom_site_symmetry_multiplicity
 _atom_site_fract_x
 _atom_site_fract_y
 _atom_site_fract_z
 _atom_site_occupancy
  Ba  Ba0  1  0.879198  0.620802  0.250000  1
  Ba  Ba1  1  0.250000  0.879198  0.620802  1
  Ba  Ba2  1  0.620802  0.250000  0.879198  1
  Ba  Ba3  1  0.750000  0.120802  0.379198  1
  Ba  Ba4  1  0.379198  0.750000  0.120802  1
  Ba  Ba5  1  0.120802  0.379198  0.750000  1
  Pr  Pr6  1  0.250000  0.250000  0.250000  1
  Pr  Pr7  1  0.750000  0.750000  0.750000  1
  Hf  Hf8  1  0.500000  0.500000  0.500000  1
  Hf  Hf9  1  0.000000  0.000000  0.000000  1
  S  S10  1  0.209555  0.547664  0.416601  1
  S  S11  1  0.416601  0.209555  0.547664  1
  S  S12  1  0.547664  0.416601  0.209555  1
  S  S13  1  0.916601  0.047664  0.709555  1
  S  S14  1  0.709555  0.916601  0.047664  1
  S  S15  1  0.047664  0.709555  0.916601  1
  S  S16  1  0.790445  0.452336  0.583399  1
  S  S17  1  0.583399  0.790445  0.452336  1
  S  S18  1  0.452336  0.583399  0.790445  1
  S  S19  1  0.083399  0.952336  0.290445  1
  S  S20  1  0.290445  0.083399  0.952336  1
  S  S21  1  0.952336  0.290445  0.083399  1
