# generated using pymatgen
data_Dy16InHg3Ir3Rh
_symmetry_space_group_name_H-M   'P 1'
_cell_length_a   9.61931519
_cell_length_b   9.59201762
_cell_length_c   9.61931509
_cell_angle_alpha   59.95761999
_cell_angle_beta   60.08685399
_cell_angle_gamma   59.95762162
_symmetry_Int_Tables_number   1
_chemical_formula_structural   Dy16InHg3Ir3Rh
_chemical_formula_sum   'Dy16 In1 Hg3 Ir3 Rh1'
_cell_volume   627.60830201
_cell_formula_units_Z   1
loop_
 _symmetry_equiv_pos_site_id
 _symmetry_equiv_pos_as_xyz
  1  'x, y, z'
loop_
 _atom_site_type_symbol
 _atom_site_label
 _atom_site_symmetry_multiplicity
 _atom_site_fract_x
 _atom_site_fract_y
 _atom_site_fract_z
 _atom_site_occupancy
  Dy  Dy0  1  0.690296  0.310288  0.309469  1
  Dy  Dy1  1  0.691539  0.690574  0.310828  1
  Dy  Dy2  1  0.309892  0.690479  0.309892  1
  Dy  Dy3  1  0.935992  0.938148  0.559758  1
  Dy  Dy4  1  0.147923  0.148865  0.551738  1
  Dy  Dy5  1  0.561172  0.939701  0.561172  1
  Dy  Dy6  1  0.150146  0.150201  0.150146  1
  Dy  Dy7  1  0.309469  0.310288  0.690296  1
  Dy  Dy8  1  0.939643  0.560689  0.560680  1
  Dy  Dy9  1  0.560680  0.560689  0.939643  1
  Dy  Dy10  1  0.559758  0.938148  0.935992  1
  Dy  Dy11  1  0.938084  0.559061  0.938084  1
  Dy  Dy12  1  0.148495  0.550514  0.148495  1
  Dy  Dy13  1  0.310828  0.690574  0.691539  1
  Dy  Dy14  1  0.691486  0.310539  0.691486  1
  Dy  Dy15  1  0.551738  0.148865  0.147923  1
  In  In16  1  0.919638  0.920016  0.919638  1
  Hg  Hg17  1  0.914312  0.914705  0.257416  1
  Hg  Hg18  1  0.257416  0.914705  0.914312  1
  Hg  Hg19  1  0.914434  0.257284  0.914434  1
  Ir  Ir20  1  0.357400  0.357267  0.357400  1
  Ir  Ir21  1  0.925131  0.356661  0.357540  1
  Ir  Ir22  1  0.357540  0.356661  0.925131  1
  Rh  Rh23  1  0.356986  0.925075  0.356986  1
