# generated using pymatgen
data_Zr4Al18RuRh5
_symmetry_space_group_name_H-M   'P 1'
_cell_length_a   7.45834127
_cell_length_b   7.45834068
_cell_length_c   9.28133755
_cell_angle_alpha   90.03324739
_cell_angle_beta   90.03324479
_cell_angle_gamma   119.78609313
_symmetry_Int_Tables_number   1
_chemical_formula_structural   Zr4Al18RuRh5
_chemical_formula_sum   'Zr4 Al18 Ru1 Rh5'
_cell_volume   448.08195535
_cell_formula_units_Z   1
loop_
 _symmetry_equiv_pos_site_id
 _symmetry_equiv_pos_as_xyz
  1  'x, y, z'
loop_
 _atom_site_type_symbol
 _atom_site_label
 _atom_site_symmetry_multiplicity
 _atom_site_fract_x
 _atom_site_fract_y
 _atom_site_fract_z
 _atom_site_occupancy
  Zr  Zr0  1  0.993508  0.670971  0.249629  1
  Zr  Zr1  1  0.006435  0.328673  0.750400  1
  Zr  Zr2  1  0.671327  0.993565  0.249600  1
  Zr  Zr3  1  0.329029  0.006492  0.750371  1
  Al  Al4  1  0.122151  0.122655  0.250105  1
  Al  Al5  1  0.877345  0.877849  0.749895  1
  Al  Al6  1  0.996477  0.334565  0.076049  1
  Al  Al7  1  0.001076  0.663900  0.924240  1
  Al  Al8  1  0.002961  0.665980  0.576631  1
  Al  Al9  1  0.334020  0.997039  0.423369  1
  Al  Al10  1  0.997320  0.334517  0.423532  1
  Al  Al11  1  0.665483  0.002680  0.576468  1
  Al  Al12  1  0.665435  0.003523  0.923951  1
  Al  Al13  1  0.336100  0.998924  0.075760  1
  Al  Al14  1  0.331540  0.331772  0.557907  1
  Al  Al15  1  0.668228  0.668460  0.442093  1
  Al  Al16  1  0.668366  0.666176  0.056743  1
  Al  Al17  1  0.333824  0.331634  0.943257  1
  Al  Al18  1  0.337664  0.554095  0.250008  1
  Al  Al19  1  0.661888  0.445750  0.750954  1
  Al  Al20  1  0.554250  0.338112  0.249046  1
  Al  Al21  1  0.445905  0.662336  0.749992  1
  Ru  Ru22  1  0.672361  0.327639  0.000000  1
  Rh  Rh23  1  0.327525  0.672475  0.000000  1
  Rh  Rh24  1  0.327357  0.672643  0.500000  1
  Rh  Rh25  1  0.672424  0.327576  0.500000  1
  Rh  Rh26  1  0.000125  0.999875  0.000000  1
  Rh  Rh27  1  0.999876  0.000124  0.500000  1
