# generated using pymatgen
data_ErTmScB2Ir5
_symmetry_space_group_name_H-M   'P 1'
_cell_length_a   3.16043500
_cell_length_b   9.75413753
_cell_length_c   9.75413753
_cell_angle_alpha   89.96213621
_cell_angle_beta   90.00000000
_cell_angle_gamma   90.00000000
_symmetry_Int_Tables_number   1
_chemical_formula_structural   ErTmScB2Ir5
_chemical_formula_sum   'Er2 Tm2 Sc2 B4 Ir10'
_cell_volume   300.69383048
_cell_formula_units_Z   2
loop_
 _symmetry_equiv_pos_site_id
 _symmetry_equiv_pos_as_xyz
  1  'x, y, z'
loop_
 _atom_site_type_symbol
 _atom_site_label
 _atom_site_symmetry_multiplicity
 _atom_site_fract_x
 _atom_site_fract_y
 _atom_site_fract_z
 _atom_site_occupancy
  Er  Er0  1  0.000000  0.177067  0.677067  1
  Er  Er1  1  0.000000  0.822933  0.322933  1
  Tm  Tm2  1  0.000000  0.322895  0.177105  1
  Tm  Tm3  1  0.000000  0.677105  0.822895  1
  Sc  Sc4  1  0.000000  0.000000  0.000000  1
  Sc  Sc5  1  0.000000  0.500000  0.500000  1
  B  B6  1  0.000000  0.620260  0.120260  1
  B  B7  1  0.000000  0.379740  0.879740  1
  B  B8  1  0.000000  0.879624  0.620376  1
  B  B9  1  0.000000  0.120376  0.379624  1
  Ir  Ir10  1  0.500000  0.069378  0.224994  1
  Ir  Ir11  1  0.500000  0.930622  0.775006  1
  Ir  Ir12  1  0.500000  0.774745  0.068670  1
  Ir  Ir13  1  0.500000  0.431330  0.725255  1
  Ir  Ir14  1  0.500000  0.225255  0.931330  1
  Ir  Ir15  1  0.500000  0.568670  0.274745  1
  Ir  Ir16  1  0.500000  0.724994  0.569378  1
  Ir  Ir17  1  0.500000  0.275006  0.430622  1
  Ir  Ir18  1  0.500000  0.000000  0.500000  1
  Ir  Ir19  1  0.500000  0.500000  0.000000  1
