# generated using pymatgen
data_Ho7LuSc12Tl15Sn
_symmetry_space_group_name_H-M   'P 1'
_cell_length_a   7.66405596
_cell_length_b   8.00285749
_cell_length_c   15.09062172
_cell_angle_alpha   90.07076977
_cell_angle_beta   90.05585919
_cell_angle_gamma   90.00861275
_symmetry_Int_Tables_number   1
_chemical_formula_structural   Ho7LuSc12Tl15Sn
_chemical_formula_sum   'Ho7 Lu1 Sc12 Tl15 Sn1'
_cell_volume   925.57228262
_cell_formula_units_Z   1
loop_
 _symmetry_equiv_pos_site_id
 _symmetry_equiv_pos_as_xyz
  1  'x, y, z'
loop_
 _atom_site_type_symbol
 _atom_site_label
 _atom_site_symmetry_multiplicity
 _atom_site_fract_x
 _atom_site_fract_y
 _atom_site_fract_z
 _atom_site_occupancy
  Ho  Ho0  1  0.000807  0.817696  0.907334  1
  Ho  Ho1  1  0.500852  0.681791  0.907432  1
  Ho  Ho2  1  0.002518  0.816964  0.592536  1
  Ho  Ho3  1  0.497718  0.317138  0.093542  1
  Ho  Ho4  1  0.999540  0.182599  0.407661  1
  Ho  Ho5  1  0.497914  0.316424  0.407706  1
  Ho  Ho6  1  0.500088  0.682438  0.592712  1
  Lu  Lu7  1  0.997788  0.184426  0.093547  1
  Sc  Sc8  1  0.167090  0.496881  0.749058  1
  Sc  Sc9  1  0.834516  0.502684  0.248941  1
  Sc  Sc10  1  0.333485  0.998626  0.250053  1
  Sc  Sc11  1  0.667195  0.003076  0.750165  1
  Sc  Sc12  1  0.335424  0.160478  0.624823  1
  Sc  Sc13  1  0.665844  0.840268  0.374412  1
  Sc  Sc14  1  0.166933  0.661374  0.374318  1
  Sc  Sc15  1  0.664951  0.838844  0.125273  1
  Sc  Sc16  1  0.832897  0.339244  0.625584  1
  Sc  Sc17  1  0.334170  0.160811  0.874510  1
  Sc  Sc18  1  0.835483  0.338880  0.874881  1
  Sc  Sc19  1  0.167018  0.659078  0.125584  1
  Tl  Tl20  1  0.027522  0.123840  0.749098  1
  Tl  Tl21  1  0.973564  0.877226  0.248941  1
  Tl  Tl22  1  0.473992  0.622939  0.250954  1
  Tl  Tl23  1  0.527479  0.376717  0.750536  1
  Tl  Tl24  1  0.300695  0.853738  0.750579  1
  Tl  Tl25  1  0.699956  0.146210  0.249494  1
  Tl  Tl26  1  0.198249  0.354165  0.250304  1
  Tl  Tl27  1  0.801205  0.645879  0.749961  1
  Tl  Tl28  1  0.817961  0.541413  0.457108  1
  Tl  Tl29  1  0.318856  0.959152  0.458368  1
  Tl  Tl30  1  0.818259  0.539050  0.042386  1
  Tl  Tl31  1  0.683181  0.041108  0.541592  1
  Tl  Tl32  1  0.180841  0.458733  0.958068  1
  Tl  Tl33  1  0.681449  0.040790  0.958220  1
  Tl  Tl34  1  0.316511  0.960303  0.042614  1
  Sn  Sn35  1  0.178052  0.459019  0.541700  1
