# generated using pymatgen
data_Ho3Co4Ni4P6W
_symmetry_space_group_name_H-M   'P 1'
_cell_length_a   3.73029100
_cell_length_b   10.52572400
_cell_length_c   12.26517300
_cell_angle_alpha   90.00000000
_cell_angle_beta   90.00000000
_cell_angle_gamma   90.00000000
_symmetry_Int_Tables_number   1
_chemical_formula_structural   Ho3Co4Ni4P6W
_chemical_formula_sum   'Ho6 Co8 Ni8 P12 W2'
_cell_volume   481.57991832
_cell_formula_units_Z   2
loop_
 _symmetry_equiv_pos_site_id
 _symmetry_equiv_pos_as_xyz
  1  'x, y, z'
loop_
 _atom_site_type_symbol
 _atom_site_label
 _atom_site_symmetry_multiplicity
 _atom_site_fract_x
 _atom_site_fract_y
 _atom_site_fract_z
 _atom_site_occupancy
  Ho  Ho0  1  0.000000  0.500000  0.522504  1
  Ho  Ho1  1  0.500000  0.000000  0.475435  1
  Ho  Ho2  1  0.500000  0.818017  0.205006  1
  Ho  Ho3  1  0.500000  0.181983  0.205006  1
  Ho  Ho4  1  0.000000  0.680646  0.795202  1
  Ho  Ho5  1  0.000000  0.319354  0.795202  1
  Co  Co6  1  0.000000  0.500000  0.986852  1
  Co  Co7  1  0.500000  0.000000  0.014543  1
  Co  Co8  1  0.000000  0.620297  0.288445  1
  Co  Co9  1  0.000000  0.379703  0.288445  1
  Co  Co10  1  0.500000  0.333175  0.989720  1
  Co  Co11  1  0.500000  0.666825  0.989720  1
  Co  Co12  1  0.000000  0.166912  0.011186  1
  Co  Co13  1  0.000000  0.833088  0.011186  1
  Ni  Ni14  1  0.500000  0.302495  0.428315  1
  Ni  Ni15  1  0.500000  0.697505  0.428315  1
  Ni  Ni16  1  0.000000  0.199233  0.569844  1
  Ni  Ni17  1  0.000000  0.800767  0.569844  1
  Ni  Ni18  1  0.500000  0.879099  0.711354  1
  Ni  Ni19  1  0.500000  0.120901  0.711354  1
  Ni  Ni20  1  0.500000  0.500000  0.702417  1
  Ni  Ni21  1  0.000000  0.000000  0.298821  1
  P  P22  1  0.500000  0.314684  0.615807  1
  P  P23  1  0.500000  0.685316  0.615807  1
  P  P24  1  0.000000  0.188297  0.382712  1
  P  P25  1  0.000000  0.811703  0.382712  1
  P  P26  1  0.500000  0.500000  0.880413  1
  P  P27  1  0.000000  0.000000  0.120733  1
  P  P28  1  0.500000  0.843626  0.895596  1
  P  P29  1  0.500000  0.156374  0.895596  1
  P  P30  1  0.000000  0.655996  0.106975  1
  P  P31  1  0.000000  0.344004  0.106975  1
  P  P32  1  0.500000  0.500000  0.346397  1
  P  P33  1  0.000000  0.000000  0.650707  1
  W  W34  1  0.500000  0.500000  0.153239  1
  W  W35  1  0.000000  0.000000  0.847616  1
