# generated using pymatgen
data_Sr4Yb3Er3Pt8
_symmetry_space_group_name_H-M   'P 1'
_cell_length_a   7.67383200
_cell_length_b   7.81944117
_cell_length_c   14.83813823
_cell_angle_alpha   90.06276264
_cell_angle_beta   90.00000000
_cell_angle_gamma   90.00000000
_symmetry_Int_Tables_number   1
_chemical_formula_structural   Sr4Yb3Er3Pt8
_chemical_formula_sum   'Sr8 Yb6 Er6 Pt16'
_cell_volume   890.36310585
_cell_formula_units_Z   2
loop_
 _symmetry_equiv_pos_site_id
 _symmetry_equiv_pos_as_xyz
  1  'x, y, z'
loop_
 _atom_site_type_symbol
 _atom_site_label
 _atom_site_symmetry_multiplicity
 _atom_site_fract_x
 _atom_site_fract_y
 _atom_site_fract_z
 _atom_site_occupancy
  Sr  Sr0  1  0.500345  0.325755  0.903386  1
  Sr  Sr1  1  0.000345  0.174245  0.596614  1
  Sr  Sr2  1  0.499889  0.676809  0.405256  1
  Sr  Sr3  1  0.999889  0.823191  0.094744  1
  Sr  Sr4  1  0.499836  0.675690  0.095601  1
  Sr  Sr5  1  0.999836  0.824310  0.404399  1
  Sr  Sr6  1  0.500213  0.323880  0.596996  1
  Sr  Sr7  1  0.000213  0.176120  0.903004  1
  Yb  Yb8  1  0.339901  0.832836  0.622860  1
  Yb  Yb9  1  0.839901  0.667164  0.877140  1
  Yb  Yb10  1  0.177750  0.495436  0.750018  1
  Yb  Yb11  1  0.677750  0.004564  0.749982  1
  Yb  Yb12  1  0.821390  0.507520  0.250145  1
  Yb  Yb13  1  0.321390  0.992480  0.249855  1
  Er  Er14  1  0.340248  0.833799  0.875816  1
  Er  Er15  1  0.840248  0.666201  0.624184  1
  Er  Er16  1  0.659190  0.167611  0.375776  1
  Er  Er17  1  0.159190  0.332389  0.124224  1
  Er  Er18  1  0.660423  0.166999  0.123981  1
  Er  Er19  1  0.160423  0.333001  0.376019  1
  Pt  Pt20  1  0.333499  0.047175  0.044171  1
  Pt  Pt21  1  0.833499  0.452825  0.455829  1
  Pt  Pt22  1  0.669072  0.954998  0.541627  1
  Pt  Pt23  1  0.169072  0.545002  0.958373  1
  Pt  Pt24  1  0.659942  0.961627  0.958176  1
  Pt  Pt25  1  0.159942  0.538373  0.541824  1
  Pt  Pt26  1  0.338863  0.049984  0.453570  1
  Pt  Pt27  1  0.838863  0.450016  0.046430  1
  Pt  Pt28  1  0.545934  0.634731  0.752048  1
  Pt  Pt29  1  0.045934  0.865269  0.747952  1
  Pt  Pt30  1  0.455108  0.362282  0.249433  1
  Pt  Pt31  1  0.955108  0.137718  0.250567  1
  Pt  Pt32  1  0.302678  0.119576  0.753204  1
  Pt  Pt33  1  0.802678  0.380424  0.746796  1
  Pt  Pt34  1  0.695718  0.884591  0.249904  1
  Pt  Pt35  1  0.195718  0.615409  0.250096  1
