# generated using pymatgen
data_Zr5Ga6Ru12W
_symmetry_space_group_name_H-M   'P 1'
_cell_length_a   4.44500700
_cell_length_b   6.30690900
_cell_length_c   13.31799800
_cell_angle_alpha   90.00000000
_cell_angle_beta   89.99971624
_cell_angle_gamma   90.00000000
_symmetry_Int_Tables_number   1
_chemical_formula_structural   Zr5Ga6Ru12W
_chemical_formula_sum   'Zr5 Ga6 Ru12 W1'
_cell_volume   373.36014740
_cell_formula_units_Z   1
loop_
 _symmetry_equiv_pos_site_id
 _symmetry_equiv_pos_as_xyz
  1  'x, y, z'
loop_
 _atom_site_type_symbol
 _atom_site_label
 _atom_site_symmetry_multiplicity
 _atom_site_fract_x
 _atom_site_fract_y
 _atom_site_fract_z
 _atom_site_occupancy
  Zr  Zr0  1  0.499926  0.500001  0.165290  1
  Zr  Zr1  1  0.999925  0.000000  0.332822  1
  Zr  Zr2  1  0.499998  0.500001  0.500000  1
  Zr  Zr3  1  0.000075  0.000000  0.667177  1
  Zr  Zr4  1  0.500075  0.500001  0.834710  1
  Ga  Ga5  1  0.000000  0.500001  0.000000  1
  Ga  Ga6  1  0.499915  0.000000  0.168773  1
  Ga  Ga7  1  0.999928  0.500001  0.331315  1
  Ga  Ga8  1  0.499998  0.000000  0.500000  1
  Ga  Ga9  1  0.000073  0.500001  0.668686  1
  Ga  Ga10  1  0.500086  0.000000  0.831227  1
  Ru  Ru11  1  0.499998  0.234017  0.000000  1
  Ru  Ru12  1  0.499998  0.765983  0.000000  1
  Ru  Ru13  1  0.999912  0.244002  0.159248  1
  Ru  Ru14  1  0.999912  0.755997  0.159248  1
  Ru  Ru15  1  0.499919  0.250123  0.331520  1
  Ru  Ru16  1  0.499919  0.749879  0.331520  1
  Ru  Ru17  1  0.000000  0.251197  0.500000  1
  Ru  Ru18  1  0.000000  0.748802  0.500000  1
  Ru  Ru19  1  0.500079  0.250123  0.668480  1
  Ru  Ru20  1  0.500079  0.749879  0.668480  1
  Ru  Ru21  1  0.000089  0.244002  0.840753  1
  Ru  Ru22  1  0.000089  0.755997  0.840753  1
  W  W23  1  0.000000  0.000000  0.000000  1
