# generated using pymatgen
data_Sm(ThTe2)6
_symmetry_space_group_name_H-M   'P 1'
_cell_length_a   12.54892625
_cell_length_b   12.58767690
_cell_length_c   4.34780700
_cell_angle_alpha   90.00000000
_cell_angle_beta   90.00000000
_cell_angle_gamma   119.80433341
_symmetry_Int_Tables_number   1
_chemical_formula_structural   Sm(ThTe2)6
_chemical_formula_sum   'Sm1 Th6 Te12'
_cell_volume   595.94468976
_cell_formula_units_Z   1
loop_
 _symmetry_equiv_pos_site_id
 _symmetry_equiv_pos_as_xyz
  1  'x, y, z'
loop_
 _atom_site_type_symbol
 _atom_site_label
 _atom_site_symmetry_multiplicity
 _atom_site_fract_x
 _atom_site_fract_y
 _atom_site_fract_z
 _atom_site_occupancy
  Sm  Sm0  1  0.723852  0.159846  0.000000  1
  Th  Th1  1  0.842343  0.564746  0.000000  1
  Th  Th2  1  0.435418  0.275915  0.000000  1
  Th  Th3  1  0.549296  0.712409  0.500000  1
  Th  Th4  1  0.289218  0.837947  0.500000  1
  Th  Th5  1  0.161536  0.449913  0.500000  1
  Th  Th6  1  0.997029  0.000521  0.000000  1
  Te  Te7  1  0.745245  0.751927  0.000000  1
  Te  Te8  1  0.246138  0.992316  0.000000  1
  Te  Te9  1  0.006647  0.255185  0.000000  1
  Te  Te10  1  0.492308  0.867187  0.000000  1
  Te  Te11  1  0.133903  0.625469  0.000000  1
  Te  Te12  1  0.375225  0.508560  0.000000  1
  Te  Te13  1  0.863270  0.385848  0.500000  1
  Te  Te14  1  0.216652  0.213136  0.500000  1
  Te  Te15  1  0.996998  0.783741  0.500000  1
  Te  Te16  1  0.788091  0.001538  0.500000  1
  Te  Te17  1  0.522321  0.136076  0.500000  1
  Te  Te18  1  0.614513  0.477716  0.500000  1
