# generated using pymatgen
data_DyY3(Al3Rh)6
_symmetry_space_group_name_H-M   'P 1'
_cell_length_a   7.54951088
_cell_length_b   7.55063886
_cell_length_c   9.48570900
_cell_angle_alpha   90.00000000
_cell_angle_beta   90.00000000
_cell_angle_gamma   119.36861511
_symmetry_Int_Tables_number   1
_chemical_formula_structural   DyY3(Al3Rh)6
_chemical_formula_sum   'Dy1 Y3 Al18 Rh6'
_cell_volume   471.22792981
_cell_formula_units_Z   1
loop_
 _symmetry_equiv_pos_site_id
 _symmetry_equiv_pos_as_xyz
  1  'x, y, z'
loop_
 _atom_site_type_symbol
 _atom_site_label
 _atom_site_symmetry_multiplicity
 _atom_site_fract_x
 _atom_site_fract_y
 _atom_site_fract_z
 _atom_site_occupancy
  Dy  Dy0  1  0.329075  0.005356  0.250000  1
  Y  Y1  1  0.994549  0.670822  0.750000  1
  Y  Y2  1  0.005403  0.329155  0.250000  1
  Y  Y3  1  0.670745  0.994419  0.750000  1
  Al  Al4  1  0.127910  0.127860  0.750000  1
  Al  Al5  1  0.872483  0.872280  0.250000  1
  Al  Al6  1  0.001202  0.335323  0.574089  1
  Al  Al7  1  0.999003  0.664754  0.425383  1
  Al  Al8  1  0.999003  0.664754  0.074617  1
  Al  Al9  1  0.335319  0.001246  0.926049  1
  Al  Al10  1  0.001202  0.335323  0.925911  1
  Al  Al11  1  0.664554  0.998891  0.074611  1
  Al  Al12  1  0.664554  0.998891  0.425389  1
  Al  Al13  1  0.335319  0.001246  0.573951  1
  Al  Al14  1  0.333253  0.333192  0.050683  1
  Al  Al15  1  0.666762  0.666734  0.949970  1
  Al  Al16  1  0.666762  0.666734  0.550030  1
  Al  Al17  1  0.333253  0.333192  0.449317  1
  Al  Al18  1  0.338798  0.548834  0.750000  1
  Al  Al19  1  0.660681  0.450629  0.250000  1
  Al  Al20  1  0.548882  0.338729  0.750000  1
  Al  Al21  1  0.450862  0.661227  0.250000  1
  Rh  Rh22  1  0.671984  0.328120  0.499951  1
  Rh  Rh23  1  0.328150  0.672047  0.500009  1
  Rh  Rh24  1  0.328150  0.672047  0.999991  1
  Rh  Rh25  1  0.671984  0.328120  0.000049  1
  Rh  Rh26  1  0.000079  0.000038  0.499867  1
  Rh  Rh27  1  0.000079  0.000038  0.000133  1
