# generated using pymatgen
data_YbMgIn3Ir
_symmetry_space_group_name_H-M   'P 1'
_cell_length_a   4.19414400
_cell_length_b   7.53634200
_cell_length_c   8.68053900
_cell_angle_alpha   90.00000000
_cell_angle_beta   90.00000000
_cell_angle_gamma   90.00000000
_symmetry_Int_Tables_number   1
_chemical_formula_structural   YbMgIn3Ir
_chemical_formula_sum   'Yb2 Mg2 In6 Ir2'
_cell_volume   274.37884807
_cell_formula_units_Z   2
loop_
 _symmetry_equiv_pos_site_id
 _symmetry_equiv_pos_as_xyz
  1  'x, y, z'
loop_
 _atom_site_type_symbol
 _atom_site_label
 _atom_site_symmetry_multiplicity
 _atom_site_fract_x
 _atom_site_fract_y
 _atom_site_fract_z
 _atom_site_occupancy
  Yb  Yb0  1  0.000000  0.403739  0.250000  1
  Yb  Yb1  1  0.000000  0.596261  0.750000  1
  Mg  Mg2  1  0.000000  0.000000  0.000000  1
  Mg  Mg3  1  0.000000  0.000000  0.500000  1
  In  In4  1  0.500000  0.311756  0.560954  1
  In  In5  1  0.500000  0.059537  0.250000  1
  In  In6  1  0.500000  0.940463  0.750000  1
  In  In7  1  0.500000  0.311756  0.939046  1
  In  In8  1  0.500000  0.688244  0.060954  1
  In  In9  1  0.500000  0.688244  0.439046  1
  Ir  Ir10  1  0.000000  0.800131  0.250000  1
  Ir  Ir11  1  0.000000  0.199869  0.750000  1
