# generated using pymatgen
data_LuGaNi3Ag
_symmetry_space_group_name_H-M   'P 1'
_cell_length_a   5.04456488
_cell_length_b   5.04456385
_cell_length_c   4.91133489
_cell_angle_alpha   59.09851513
_cell_angle_beta   59.09851314
_cell_angle_gamma   59.99999161
_symmetry_Int_Tables_number   1
_chemical_formula_structural   LuGaNi3Ag
_chemical_formula_sum   'Lu1 Ga1 Ni3 Ag1'
_cell_volume   87.15208736
_cell_formula_units_Z   1
loop_
 _symmetry_equiv_pos_site_id
 _symmetry_equiv_pos_as_xyz
  1  'x, y, z'
loop_
 _atom_site_type_symbol
 _atom_site_label
 _atom_site_symmetry_multiplicity
 _atom_site_fract_x
 _atom_site_fract_y
 _atom_site_fract_z
 _atom_site_occupancy
  Lu  Lu0  1  0.003622  0.003622  0.989132  1
  Ga  Ga1  1  0.622719  0.622719  0.131840  1
  Ni  Ni2  1  0.623311  0.125728  0.627649  1
  Ni  Ni3  1  0.125728  0.623311  0.627649  1
  Ni  Ni4  1  0.623311  0.623311  0.627649  1
  Ag  Ag5  1  0.251307  0.251307  0.246080  1
