# generated using pymatgen
data_PrYCoSi5Rh2
_symmetry_space_group_name_H-M   'P 1'
_cell_length_a   8.17817839
_cell_length_b   8.15146522
_cell_length_c   8.14314485
_cell_angle_alpha   138.42576009
_cell_angle_beta   105.64680830
_cell_angle_gamma   89.01808769
_symmetry_Int_Tables_number   1
_chemical_formula_structural   PrYCoSi5Rh2
_chemical_formula_sum   'Pr2 Y2 Co2 Si10 Rh4'
_cell_volume   332.08909360
_cell_formula_units_Z   2
loop_
 _symmetry_equiv_pos_site_id
 _symmetry_equiv_pos_as_xyz
  1  'x, y, z'
loop_
 _atom_site_type_symbol
 _atom_site_label
 _atom_site_symmetry_multiplicity
 _atom_site_fract_x
 _atom_site_fract_y
 _atom_site_fract_z
 _atom_site_occupancy
  Pr  Pr0  1  0.864676  0.624983  0.226052  1
  Pr  Pr1  1  0.135278  0.363912  0.762353  1
  Y  Y2  1  0.602030  0.871557  0.738318  1
  Y  Y3  1  0.398798  0.139456  0.273181  1
  Co  Co4  1  0.004539  0.752519  0.752617  1
  Co  Co5  1  0.244183  0.856988  0.382104  1
  Si  Si6  1  0.056754  0.886538  0.145462  1
  Si  Si7  1  0.952381  0.089713  0.835858  1
  Si  Si8  1  0.260975  0.620129  0.667449  1
  Si  Si9  1  0.747581  0.411073  0.364040  1
  Si  Si10  1  0.227633  0.969506  0.737775  1
  Si  Si11  1  0.778882  0.531814  0.751865  1
  Si  Si12  1  0.780744  0.030185  0.246279  1
  Si  Si13  1  0.484617  0.223481  0.730449  1
  Si  Si14  1  0.482428  0.752615  0.260765  1
  Si  Si15  1  0.228027  0.489739  0.259261  1
  Rh  Rh16  1  0.004544  0.252188  0.251607  1
  Rh  Rh17  1  0.739938  0.128401  0.595110  1
  Rh  Rh18  1  0.532402  0.643785  0.903454  1
  Rh  Rh19  1  0.473594  0.361418  0.116001  1
