# generated using pymatgen
data_DyTm11Co4BiIr
_symmetry_space_group_name_H-M   'P 1'
_cell_length_a   8.23123333
_cell_length_b   8.23123341
_cell_length_c   8.22810129
_cell_angle_alpha   110.82155059
_cell_angle_beta   111.31530642
_cell_angle_gamma   106.33869013
_symmetry_Int_Tables_number   1
_chemical_formula_structural   DyTm11Co4BiIr
_chemical_formula_sum   'Dy1 Tm11 Co4 Bi1 Ir1'
_cell_volume   428.09324810
_cell_formula_units_Z   1
loop_
 _symmetry_equiv_pos_site_id
 _symmetry_equiv_pos_as_xyz
  1  'x, y, z'
loop_
 _atom_site_type_symbol
 _atom_site_label
 _atom_site_symmetry_multiplicity
 _atom_site_fract_x
 _atom_site_fract_y
 _atom_site_fract_z
 _atom_site_occupancy
  Dy  Dy0  1  0.284295  0.183025  0.467319  1
  Tm  Tm1  1  0.716102  0.817703  0.533807  1
  Tm  Tm2  1  0.283897  0.816975  0.100872  1
  Tm  Tm3  1  0.716240  0.182543  0.898784  1
  Tm  Tm4  1  0.620667  0.311591  0.308732  1
  Tm  Tm5  1  0.379711  0.689033  0.691207  1
  Tm  Tm6  1  0.002175  0.311496  0.691207  1
  Tm  Tm7  1  0.997141  0.688065  0.308732  1
  Tm  Tm8  1  0.213236  0.411921  0.197741  1
  Tm  Tm9  1  0.786967  0.588633  0.802087  1
  Tm  Tm10  1  0.213455  0.015119  0.802087  1
  Tm  Tm11  1  0.785820  0.984506  0.197741  1
  Co  Co12  1  0.999857  0.376379  0.376235  1
  Co  Co13  1  0.999920  0.623789  0.623709  1
  Co  Co14  1  0.388950  0.888127  0.500199  1
  Co  Co15  1  0.612072  0.111250  0.500199  1
  Bi  Bi16  1  0.500004  0.500024  0.000028  1
  Ir  Ir17  1  0.999491  0.999823  0.999314  1
