# generated using pymatgen
data_NpP2O7
_symmetry_space_group_name_H-M   'P 1'
_cell_length_a   8.88960600
_cell_length_b   5.32054548
_cell_length_c   7.50837994
_cell_angle_alpha   71.10759637
_cell_angle_beta   90.00000000
_cell_angle_gamma   90.00000000
_symmetry_Int_Tables_number   1
_chemical_formula_structural   NpP2O7
_chemical_formula_sum   'Np2 P4 O14'
_cell_volume   335.99664804
_cell_formula_units_Z   2
loop_
 _symmetry_equiv_pos_site_id
 _symmetry_equiv_pos_as_xyz
  1  'x, y, z'
loop_
 _atom_site_type_symbol
 _atom_site_label
 _atom_site_symmetry_multiplicity
 _atom_site_fract_x
 _atom_site_fract_y
 _atom_site_fract_z
 _atom_site_occupancy
  Np  Np0  1  0.546901  0.797463  0.721835  1
  Np  Np1  1  0.046901  0.202537  0.278165  1
  P  P2  1  0.867128  0.591275  0.526534  1
  P  P3  1  0.278292  0.770080  0.101464  1
  P  P4  1  0.778292  0.229920  0.898536  1
  P  P5  1  0.367128  0.408725  0.473466  1
  O  O6  1  0.727731  0.989808  0.843601  1
  O  O7  1  0.371237  0.850502  0.920734  1
  O  O8  1  0.990711  0.803184  0.485275  1
  O  O9  1  0.710035  0.713518  0.521206  1
  O  O10  1  0.378096  0.583606  0.599573  1
  O  O11  1  0.644885  0.411027  0.903654  1
  O  O12  1  0.896588  0.400582  0.740190  1
  O  O13  1  0.396588  0.599418  0.259810  1
  O  O14  1  0.144885  0.588973  0.096346  1
  O  O15  1  0.878096  0.416394  0.400427  1
  O  O16  1  0.210035  0.286482  0.478794  1
  O  O17  1  0.490711  0.196816  0.514725  1
  O  O18  1  0.871237  0.149498  0.079266  1
  O  O19  1  0.227731  0.010192  0.156399  1
