# generated using pymatgen
data_Dy3Si3Os2
_symmetry_space_group_name_H-M   'P 1'
_cell_length_a   5.75796150
_cell_length_b   5.75796110
_cell_length_c   13.70581700
_cell_angle_alpha   90.00000000
_cell_angle_beta   90.00000000
_cell_angle_gamma   137.29380147
_symmetry_Int_Tables_number   1
_chemical_formula_structural   Dy3Si3Os2
_chemical_formula_sum   'Dy6 Si6 Os4'
_cell_volume   308.19478173
_cell_formula_units_Z   2
loop_
 _symmetry_equiv_pos_site_id
 _symmetry_equiv_pos_as_xyz
  1  'x, y, z'
loop_
 _atom_site_type_symbol
 _atom_site_label
 _atom_site_symmetry_multiplicity
 _atom_site_fract_x
 _atom_site_fract_y
 _atom_site_fract_z
 _atom_site_occupancy
  Dy  Dy0  1  0.576736  0.423264  0.615603  1
  Dy  Dy1  1  0.423264  0.576736  0.384397  1
  Dy  Dy2  1  0.423264  0.576736  0.115603  1
  Dy  Dy3  1  0.576736  0.423264  0.884397  1
  Dy  Dy4  1  0.139140  0.860860  0.250000  1
  Dy  Dy5  1  0.860860  0.139140  0.750000  1
  Si  Si6  1  0.882412  0.117588  0.538088  1
  Si  Si7  1  0.117588  0.882412  0.461912  1
  Si  Si8  1  0.117588  0.882412  0.038088  1
  Si  Si9  1  0.882412  0.117588  0.961912  1
  Si  Si10  1  0.823778  0.176222  0.250000  1
  Si  Si11  1  0.176222  0.823778  0.750000  1
  Os  Os12  1  0.286355  0.713645  0.918094  1
  Os  Os13  1  0.713645  0.286355  0.081906  1
  Os  Os14  1  0.713645  0.286355  0.418094  1
  Os  Os15  1  0.286355  0.713645  0.581906  1
