# generated using pymatgen
data_CaAu2(SO4)4
_symmetry_space_group_name_H-M   'P 1'
_cell_length_a   6.50345253
_cell_length_b   6.50345262
_cell_length_c   8.97718238
_cell_angle_alpha   74.05533760
_cell_angle_beta   74.05533887
_cell_angle_gamma   87.96115983
_symmetry_Int_Tables_number   1
_chemical_formula_structural   CaAu2(SO4)4
_chemical_formula_sum   'Ca1 Au2 S4 O16'
_cell_volume   350.70892779
_cell_formula_units_Z   1
loop_
 _symmetry_equiv_pos_site_id
 _symmetry_equiv_pos_as_xyz
  1  'x, y, z'
loop_
 _atom_site_type_symbol
 _atom_site_label
 _atom_site_symmetry_multiplicity
 _atom_site_fract_x
 _atom_site_fract_y
 _atom_site_fract_z
 _atom_site_occupancy
  Ca  Ca0  1  0.000000  0.000000  0.000000  1
  Au  Au1  1  0.000000  0.000000  0.500000  1
  Au  Au2  1  0.500000  0.500000  0.500000  1
  S  S3  1  0.086618  0.589301  0.744840  1
  S  S4  1  0.589301  0.086618  0.744840  1
  S  S5  1  0.913382  0.410699  0.255160  1
  S  S6  1  0.410699  0.913382  0.255160  1
  O  O7  1  0.330618  0.633698  0.674364  1
  O  O8  1  0.633698  0.330618  0.674364  1
  O  O9  1  0.669382  0.366302  0.325636  1
  O  O10  1  0.366302  0.669382  0.325636  1
  O  O11  1  0.024000  0.708630  0.863619  1
  O  O12  1  0.708630  0.024000  0.863619  1
  O  O13  1  0.976000  0.291370  0.136381  1
  O  O14  1  0.291370  0.976000  0.136381  1
  O  O15  1  0.983546  0.677547  0.604716  1
  O  O16  1  0.677547  0.983546  0.604716  1
  O  O17  1  0.016454  0.322453  0.395284  1
  O  O18  1  0.322453  0.016454  0.395284  1
  O  O19  1  0.031990  0.361684  0.798562  1
  O  O20  1  0.361684  0.031990  0.798562  1
  O  O21  1  0.968010  0.638316  0.201438  1
  O  O22  1  0.638316  0.968010  0.201438  1
