# generated using pymatgen
data_Dy16MgIn3Ru4
_symmetry_space_group_name_H-M   'P 1'
_cell_length_a   9.65573041
_cell_length_b   9.62598759
_cell_length_c   9.62598700
_cell_angle_alpha   59.99999173
_cell_angle_beta   60.10183598
_cell_angle_gamma   60.10184109
_symmetry_Int_Tables_number   1
_chemical_formula_structural   Dy16MgIn3Ru4
_chemical_formula_sum   'Dy16 Mg1 In3 Ru4'
_cell_volume   633.61794332
_cell_formula_units_Z   1
loop_
 _symmetry_equiv_pos_site_id
 _symmetry_equiv_pos_as_xyz
  1  'x, y, z'
loop_
 _atom_site_type_symbol
 _atom_site_label
 _atom_site_symmetry_multiplicity
 _atom_site_fract_x
 _atom_site_fract_y
 _atom_site_fract_z
 _atom_site_occupancy
  Dy  Dy0  1  0.347817  0.346446  0.346446  1
  Dy  Dy1  1  0.347817  0.346446  0.959289  1
  Dy  Dy2  1  0.347817  0.959289  0.346446  1
  Dy  Dy3  1  0.954313  0.348562  0.348562  1
  Dy  Dy4  1  0.808201  0.191573  0.191573  1
  Dy  Dy5  1  0.189995  0.810878  0.810878  1
  Dy  Dy6  1  0.189995  0.810878  0.188249  1
  Dy  Dy7  1  0.808201  0.191573  0.808653  1
  Dy  Dy8  1  0.189995  0.188249  0.810878  1
  Dy  Dy9  1  0.808201  0.808653  0.191573  1
  Dy  Dy10  1  0.940049  0.560098  0.560098  1
  Dy  Dy11  1  0.560738  0.939380  0.939380  1
  Dy  Dy12  1  0.560738  0.939380  0.560500  1
  Dy  Dy13  1  0.940049  0.560098  0.939755  1
  Dy  Dy14  1  0.560738  0.560500  0.939380  1
  Dy  Dy15  1  0.940049  0.939755  0.560098  1
  Mg  Mg16  1  0.270233  0.576589  0.576589  1
  In  In17  1  0.580097  0.582392  0.582392  1
  In  In18  1  0.580097  0.582392  0.255119  1
  In  In19  1  0.580097  0.255119  0.582392  1
  Ru  Ru20  1  0.137769  0.140451  0.140451  1
  Ru  Ru21  1  0.137769  0.140451  0.581327  1
  Ru  Ru22  1  0.137769  0.581327  0.140451  1
  Ru  Ru23  1  0.581454  0.139515  0.139515  1
