# generated using pymatgen
data_LaNd4P12Pd2Ru17
_symmetry_space_group_name_H-M   'P 1'
_cell_length_a   12.77180738
_cell_length_b   12.64919606
_cell_length_c   4.02573700
_cell_angle_alpha   90.00000000
_cell_angle_beta   90.00000000
_cell_angle_gamma   120.18181072
_symmetry_Int_Tables_number   1
_chemical_formula_structural   LaNd4P12Pd2Ru17
_chemical_formula_sum   'La1 Nd4 P12 Pd2 Ru17'
_cell_volume   562.20246948
_cell_formula_units_Z   1
loop_
 _symmetry_equiv_pos_site_id
 _symmetry_equiv_pos_as_xyz
  1  'x, y, z'
loop_
 _atom_site_type_symbol
 _atom_site_label
 _atom_site_symmetry_multiplicity
 _atom_site_fract_x
 _atom_site_fract_y
 _atom_site_fract_z
 _atom_site_occupancy
  La  La0  1  0.001555  0.181522  0.500000  1
  Nd  Nd1  1  0.818167  0.816514  0.500000  1
  Nd  Nd2  1  0.184577  0.999875  0.500000  1
  Nd  Nd3  1  0.664375  0.328190  0.000000  1
  Nd  Nd4  1  0.335572  0.672607  0.000000  1
  P  P5  1  0.998076  0.809306  0.000000  1
  P  P6  1  0.191348  0.191141  0.000000  1
  P  P7  1  0.813381  0.997901  0.000000  1
  P  P8  1  0.694374  0.169368  0.500000  1
  P  P9  1  0.818199  0.519118  0.500000  1
  P  P10  1  0.476276  0.298201  0.500000  1
  P  P11  1  0.177076  0.702482  0.500000  1
  P  P12  1  0.523708  0.830398  0.500000  1
  P  P13  1  0.299239  0.481363  0.500000  1
  P  P14  1  0.999657  0.369373  0.000000  1
  P  P15  1  0.631649  0.631582  0.000000  1
  P  P16  1  0.376564  0.000045  0.000000  1
  Pd  Pd17  1  0.998669  0.553087  0.000000  1
  Pd  Pd18  1  0.447182  0.447746  0.000000  1
  Ru  Ru19  1  0.555113  0.999023  0.000000  1
  Ru  Ru20  1  0.997401  0.709503  0.500000  1
  Ru  Ru21  1  0.289960  0.291376  0.500000  1
  Ru  Ru22  1  0.715422  0.998859  0.500000  1
  Ru  Ru23  1  0.806329  0.184103  0.000000  1
  Ru  Ru24  1  0.812442  0.617345  0.000000  1
  Ru  Ru25  1  0.378517  0.193332  0.000000  1
  Ru  Ru26  1  0.183985  0.807241  0.000000  1
  Ru  Ru27  1  0.621738  0.814494  0.000000  1
  Ru  Ru28  1  0.196025  0.383516  0.000000  1
  Ru  Ru29  1  0.873592  0.366471  0.500000  1
  Ru  Ru30  1  0.628892  0.508071  0.500000  1
  Ru  Ru31  1  0.492116  0.122889  0.500000  1
  Ru  Ru32  1  0.368003  0.877460  0.500000  1
  Ru  Ru33  1  0.506373  0.633645  0.500000  1
  Ru  Ru34  1  0.121149  0.492985  0.500000  1
  Ru  Ru35  1  0.003299  0.999866  0.000000  1
