# generated using pymatgen
data_Y5TmLu14(Cd3Ru)2
_symmetry_space_group_name_H-M   'P 1'
_cell_length_a   9.46263102
_cell_length_b   9.46424600
_cell_length_c   9.68296600
_cell_angle_alpha   90.00000000
_cell_angle_beta   90.00000000
_cell_angle_gamma   119.90010797
_symmetry_Int_Tables_number   1
_chemical_formula_structural   Y5TmLu14(Cd3Ru)2
_chemical_formula_sum   'Y5 Tm1 Lu14 Cd6 Ru2'
_cell_volume   751.74965336
_cell_formula_units_Z   1
loop_
 _symmetry_equiv_pos_site_id
 _symmetry_equiv_pos_as_xyz
  1  'x, y, z'
loop_
 _atom_site_type_symbol
 _atom_site_label
 _atom_site_symmetry_multiplicity
 _atom_site_fract_x
 _atom_site_fract_y
 _atom_site_fract_z
 _atom_site_occupancy
  Y  Y0  1  0.540206  0.080919  0.250000  1
  Y  Y1  1  0.919058  0.459823  0.250000  1
  Y  Y2  1  0.459933  0.540137  0.750000  1
  Y  Y3  1  0.459999  0.920166  0.750000  1
  Y  Y4  1  0.079799  0.540030  0.750000  1
  Tm  Tm5  1  0.539702  0.460371  0.250000  1
  Lu  Lu6  1  0.000113  0.999802  0.499992  1
  Lu  Lu7  1  0.000113  0.999801  0.000008  1
  Lu  Lu8  1  0.210232  0.789769  0.440070  1
  Lu  Lu9  1  0.210909  0.420182  0.439876  1
  Lu  Lu10  1  0.579817  0.789084  0.439878  1
  Lu  Lu11  1  0.789815  0.210129  0.559840  1
  Lu  Lu12  1  0.789045  0.579390  0.559292  1
  Lu  Lu13  1  0.420639  0.210929  0.559347  1
  Lu  Lu14  1  0.789815  0.210129  0.940161  1
  Lu  Lu15  1  0.789044  0.579390  0.940708  1
  Lu  Lu16  1  0.420639  0.210929  0.940653  1
  Lu  Lu17  1  0.210233  0.789769  0.059930  1
  Lu  Lu18  1  0.210909  0.420182  0.060124  1
  Lu  Lu19  1  0.579817  0.789084  0.060122  1
  Cd  Cd20  1  0.886220  0.113679  0.250000  1
  Cd  Cd21  1  0.884724  0.771569  0.250000  1
  Cd  Cd22  1  0.228400  0.115255  0.250000  1
  Cd  Cd23  1  0.113650  0.886417  0.750000  1
  Cd  Cd24  1  0.113862  0.227104  0.750000  1
  Cd  Cd25  1  0.772810  0.886104  0.750000  1
  Ru  Ru26  1  0.333703  0.666703  0.250000  1
  Ru  Ru27  1  0.666800  0.333154  0.750000  1
