# generated using pymatgen
data_Dy2Ho3P12Ir6Ru13
_symmetry_space_group_name_H-M   'P 1'
_cell_length_a   12.58649200
_cell_length_b   12.54863832
_cell_length_c   3.97262400
_cell_angle_alpha   90.00000000
_cell_angle_beta   90.00000000
_cell_angle_gamma   119.84792757
_symmetry_Int_Tables_number   1
_chemical_formula_structural   Dy2Ho3P12Ir6Ru13
_chemical_formula_sum   'Dy2 Ho3 P12 Ir6 Ru13'
_cell_volume   544.21795744
_cell_formula_units_Z   1
loop_
 _symmetry_equiv_pos_site_id
 _symmetry_equiv_pos_as_xyz
  1  'x, y, z'
loop_
 _atom_site_type_symbol
 _atom_site_label
 _atom_site_symmetry_multiplicity
 _atom_site_fract_x
 _atom_site_fract_y
 _atom_site_fract_z
 _atom_site_occupancy
  Dy  Dy0  1  0.185829  0.186714  0.500000  1
  Dy  Dy1  1  0.000059  0.813327  0.500000  1
  Ho  Ho2  1  0.666673  0.332993  0.000000  1
  Ho  Ho3  1  0.332968  0.666435  0.000000  1
  Ho  Ho4  1  0.813376  0.001515  0.500000  1
  P  P5  1  0.630288  0.003358  0.000000  1
  P  P6  1  0.372058  0.371671  0.000000  1
  P  P7  1  0.999912  0.628051  0.000000  1
  P  P8  1  0.688843  0.517491  0.500000  1
  P  P9  1  0.828221  0.307489  0.500000  1
  P  P10  1  0.312096  0.830075  0.500000  1
  P  P11  1  0.518132  0.687790  0.500000  1
  P  P12  1  0.181772  0.000651  0.000000  1
  P  P13  1  0.817076  0.818147  0.000000  1
  P  P14  1  0.997178  0.183149  0.000000  1
  P  P15  1  0.481836  0.169264  0.500000  1
  P  P16  1  0.170426  0.482278  0.500000  1
  Ir  Ir17  1  0.624641  0.808474  0.000000  1
  Ir  Ir18  1  0.184458  0.375522  0.000000  1
  Ir  Ir19  1  0.375096  0.182936  0.000000  1
  Ir  Ir20  1  0.191327  0.817411  0.000000  1
  Ir  Ir21  1  0.807722  0.624492  0.000000  1
  Ir  Ir22  1  0.999066  0.000404  0.000000  1
  Ru  Ru23  1  0.872201  0.508584  0.500000  1
  Ru  Ru24  1  0.490795  0.361724  0.500000  1
  Ru  Ru25  1  0.636042  0.124593  0.500000  1
  Ru  Ru26  1  0.128741  0.638936  0.500000  1
  Ru  Ru27  1  0.362331  0.489981  0.500000  1
  Ru  Ru28  1  0.509016  0.870264  0.500000  1
  Ru  Ru29  1  0.715785  0.715802  0.500000  1
  Ru  Ru30  1  0.002008  0.285383  0.500000  1
  Ru  Ru31  1  0.446058  0.997898  0.000000  1
  Ru  Ru32  1  0.552638  0.552207  0.000000  1
  Ru  Ru33  1  0.003283  0.449103  0.000000  1
  Ru  Ru34  1  0.817866  0.195731  0.000000  1
  Ru  Ru35  1  0.284183  0.000156  0.500000  1
