# generated using pymatgen
data_Y7Ho3Tm10Cd3Hg3Ru2
_symmetry_space_group_name_H-M   'P 1'
_cell_length_a   9.53854586
_cell_length_b   9.55869771
_cell_length_c   9.69945115
_cell_angle_alpha   89.99999722
_cell_angle_beta   90.05954760
_cell_angle_gamma   120.06990640
_symmetry_Int_Tables_number   1
_chemical_formula_structural   Y7Ho3Tm10Cd3Hg3Ru2
_chemical_formula_sum   'Y7 Ho3 Tm10 Cd3 Hg3 Ru2'
_cell_volume   765.33578399
_cell_formula_units_Z   1
loop_
 _symmetry_equiv_pos_site_id
 _symmetry_equiv_pos_as_xyz
  1  'x, y, z'
loop_
 _atom_site_type_symbol
 _atom_site_label
 _atom_site_symmetry_multiplicity
 _atom_site_fract_x
 _atom_site_fract_y
 _atom_site_fract_z
 _atom_site_occupancy
  Y  Y0  1  0.582650  0.791326  0.060207  1
  Y  Y1  1  0.540623  0.459153  0.251300  1
  Y  Y2  1  0.540623  0.081471  0.251300  1
  Y  Y3  1  0.918636  0.459318  0.250795  1
  Y  Y4  1  0.459813  0.540679  0.748531  1
  Y  Y5  1  0.459813  0.919134  0.748531  1
  Y  Y6  1  0.080828  0.540413  0.749232  1
  Ho  Ho7  1  0.420044  0.210022  0.939863  1
  Ho  Ho8  1  0.208681  0.790637  0.061201  1
  Ho  Ho9  1  0.208681  0.418045  0.061201  1
  Tm  Tm10  1  0.999829  0.999915  0.490043  1
  Tm  Tm11  1  0.000229  0.000115  0.009112  1
  Tm  Tm12  1  0.209565  0.790371  0.439853  1
  Tm  Tm13  1  0.209565  0.419195  0.439853  1
  Tm  Tm14  1  0.580350  0.790175  0.439964  1
  Tm  Tm15  1  0.790346  0.210034  0.559886  1
  Tm  Tm16  1  0.790346  0.580313  0.559886  1
  Tm  Tm17  1  0.419793  0.209896  0.559383  1
  Tm  Tm18  1  0.790707  0.210342  0.939618  1
  Tm  Tm19  1  0.790707  0.580364  0.939618  1
  Cd  Cd20  1  0.111115  0.887498  0.749187  1
  Cd  Cd21  1  0.111115  0.223617  0.749187  1
  Cd  Cd22  1  0.776705  0.888353  0.749510  1
  Hg  Hg23  1  0.881182  0.119849  0.250316  1
  Hg  Hg24  1  0.881182  0.761335  0.250316  1
  Hg  Hg25  1  0.238439  0.119221  0.250603  1
  Ru  Ru26  1  0.331553  0.665776  0.251906  1
  Ru  Ru27  1  0.666876  0.333438  0.749596  1
