# generated using pymatgen
data_YLu4(In2Pt)2
_symmetry_space_group_name_H-M   'P 1'
_cell_length_a   3.55397700
_cell_length_b   8.10788900
_cell_length_c   18.11216500
_cell_angle_alpha   90.00000000
_cell_angle_beta   90.00000000
_cell_angle_gamma   90.00000000
_symmetry_Int_Tables_number   1
_chemical_formula_structural   YLu4(In2Pt)2
_chemical_formula_sum   'Y2 Lu8 In8 Pt4'
_cell_volume   521.90658107
_cell_formula_units_Z   2
loop_
 _symmetry_equiv_pos_site_id
 _symmetry_equiv_pos_as_xyz
  1  'x, y, z'
loop_
 _atom_site_type_symbol
 _atom_site_label
 _atom_site_symmetry_multiplicity
 _atom_site_fract_x
 _atom_site_fract_y
 _atom_site_fract_z
 _atom_site_occupancy
  Y  Y0  1  0.000000  0.000000  0.000000  1
  Y  Y1  1  0.000000  0.500000  0.500000  1
  Lu  Lu2  1  0.000000  0.116236  0.414067  1
  Lu  Lu3  1  0.000000  0.883764  0.585933  1
  Lu  Lu4  1  0.000000  0.383764  0.914067  1
  Lu  Lu5  1  0.000000  0.616236  0.085933  1
  Lu  Lu6  1  0.000000  0.244089  0.221101  1
  Lu  Lu7  1  0.000000  0.755911  0.778899  1
  Lu  Lu8  1  0.000000  0.255911  0.721101  1
  Lu  Lu9  1  0.000000  0.744089  0.278899  1
  In  In10  1  0.500000  0.423055  0.351129  1
  In  In11  1  0.500000  0.576945  0.648871  1
  In  In12  1  0.500000  0.076945  0.851129  1
  In  In13  1  0.500000  0.923055  0.148871  1
  In  In14  1  0.500000  0.294554  0.066306  1
  In  In15  1  0.500000  0.705446  0.933694  1
  In  In16  1  0.500000  0.205446  0.566306  1
  In  In17  1  0.500000  0.794554  0.433694  1
  Pt  Pt18  1  0.500000  0.025791  0.303505  1
  Pt  Pt19  1  0.500000  0.974209  0.696495  1
  Pt  Pt20  1  0.500000  0.474209  0.803505  1
  Pt  Pt21  1  0.500000  0.525791  0.196495  1
