# generated using pymatgen
data_Zr6Al4CuPtC2
_symmetry_space_group_name_H-M   'P 1'
_cell_length_a   8.67795874
_cell_length_b   8.68121826
_cell_length_c   8.68121770
_cell_angle_alpha   60.01998710
_cell_angle_beta   60.01240781
_cell_angle_gamma   60.01241074
_symmetry_Int_Tables_number   1
_chemical_formula_structural   Zr6Al4CuPtC2
_chemical_formula_sum   'Zr12 Al8 Cu2 Pt2 C4'
_cell_volume   462.60563875
_cell_formula_units_Z   2
loop_
 _symmetry_equiv_pos_site_id
 _symmetry_equiv_pos_as_xyz
  1  'x, y, z'
loop_
 _atom_site_type_symbol
 _atom_site_label
 _atom_site_symmetry_multiplicity
 _atom_site_fract_x
 _atom_site_fract_y
 _atom_site_fract_z
 _atom_site_occupancy
  Zr  Zr0  1  0.940839  0.939681  0.558168  1
  Zr  Zr1  1  0.689502  0.310498  0.310498  1
  Zr  Zr2  1  0.309137  0.690863  0.690863  1
  Zr  Zr3  1  0.688687  0.691832  0.310319  1
  Zr  Zr4  1  0.688687  0.310319  0.691832  1
  Zr  Zr5  1  0.309161  0.691832  0.310319  1
  Zr  Zr6  1  0.561313  0.939681  0.558168  1
  Zr  Zr7  1  0.560498  0.939502  0.939502  1
  Zr  Zr8  1  0.940863  0.559137  0.559137  1
  Zr  Zr9  1  0.940839  0.558168  0.939681  1
  Zr  Zr10  1  0.309161  0.310319  0.691832  1
  Zr  Zr11  1  0.561313  0.558168  0.939681  1
  Al  Al12  1  0.919295  0.241722  0.919687  1
  Al  Al13  1  0.330705  0.330313  0.008278  1
  Al  Al14  1  0.009977  0.329995  0.329995  1
  Al  Al15  1  0.330033  0.329995  0.329995  1
  Al  Al16  1  0.240023  0.920005  0.920005  1
  Al  Al17  1  0.919967  0.920005  0.920005  1
  Al  Al18  1  0.919295  0.919687  0.241722  1
  Al  Al19  1  0.330705  0.008278  0.330313  1
  Cu  Cu20  1  0.125000  0.625000  0.125000  1
  Cu  Cu21  1  0.125000  0.125000  0.625000  1
  Pt  Pt22  1  0.625000  0.125000  0.125000  1
  Pt  Pt23  1  0.125000  0.125000  0.125000  1
  C  C24  1  0.625000  0.125000  0.625000  1
  C  C25  1  0.625000  0.625000  0.125000  1
  C  C26  1  0.125000  0.625000  0.625000  1
  C  C27  1  0.625000  0.625000  0.625000  1
