# generated using pymatgen
data_Y3ThAl17GaIr6
_symmetry_space_group_name_H-M   'P 1'
_cell_length_a   7.57789825
_cell_length_b   7.58630485
_cell_length_c   9.50195500
_cell_angle_alpha   90.00000000
_cell_angle_beta   90.00000000
_cell_angle_gamma   119.40438122
_symmetry_Int_Tables_number   1
_chemical_formula_structural   Y3ThAl17GaIr6
_chemical_formula_sum   'Y3 Th1 Al17 Ga1 Ir6'
_cell_volume   475.88067304
_cell_formula_units_Z   1
loop_
 _symmetry_equiv_pos_site_id
 _symmetry_equiv_pos_as_xyz
  1  'x, y, z'
loop_
 _atom_site_type_symbol
 _atom_site_label
 _atom_site_symmetry_multiplicity
 _atom_site_fract_x
 _atom_site_fract_y
 _atom_site_fract_z
 _atom_site_occupancy
  Y  Y0  1  0.004180  0.328505  0.750000  1
  Y  Y1  1  0.674409  0.994334  0.250000  1
  Y  Y2  1  0.327794  0.004887  0.750000  1
  Th  Th3  1  0.994197  0.673577  0.250000  1
  Al  Al4  1  0.870289  0.872492  0.750000  1
  Al  Al5  1  0.001706  0.331651  0.072114  1
  Al  Al6  1  0.998662  0.663876  0.919567  1
  Al  Al7  1  0.998662  0.663876  0.580433  1
  Al  Al8  1  0.340432  0.005012  0.428172  1
  Al  Al9  1  0.001706  0.331651  0.427886  1
  Al  Al10  1  0.664322  0.999806  0.575334  1
  Al  Al11  1  0.664322  0.999806  0.924666  1
  Al  Al12  1  0.340432  0.005012  0.071828  1
  Al  Al13  1  0.332406  0.332428  0.555429  1
  Al  Al14  1  0.662467  0.665812  0.454769  1
  Al  Al15  1  0.662467  0.665812  0.045231  1
  Al  Al16  1  0.332406  0.332428  0.944571  1
  Al  Al17  1  0.342917  0.549116  0.250000  1
  Al  Al18  1  0.658088  0.449458  0.750000  1
  Al  Al19  1  0.544966  0.336349  0.250000  1
  Al  Al20  1  0.450043  0.660586  0.750000  1
  Ga  Ga21  1  0.135737  0.137545  0.250000  1
  Ir  Ir22  1  0.672418  0.329459  0.000762  1
  Ir  Ir23  1  0.326394  0.670641  0.000765  1
  Ir  Ir24  1  0.326394  0.670641  0.499235  1
  Ir  Ir25  1  0.672418  0.329459  0.499238  1
  Ir  Ir26  1  0.999882  0.997889  0.998845  1
  Ir  Ir27  1  0.999882  0.997889  0.501155  1
