# generated using pymatgen
data_YNp3(ReB6)2
_symmetry_space_group_name_H-M   'P 1'
_cell_length_a   3.62730600
_cell_length_b   9.28805923
_cell_length_c   11.35224123
_cell_angle_alpha   89.99893768
_cell_angle_beta   90.00000000
_cell_angle_gamma   90.00000000
_symmetry_Int_Tables_number   1
_chemical_formula_structural   YNp3(ReB6)2
_chemical_formula_sum   'Y2 Np6 Re4 B24'
_cell_volume   382.46419262
_cell_formula_units_Z   2
loop_
 _symmetry_equiv_pos_site_id
 _symmetry_equiv_pos_as_xyz
  1  'x, y, z'
loop_
 _atom_site_type_symbol
 _atom_site_label
 _atom_site_symmetry_multiplicity
 _atom_site_fract_x
 _atom_site_fract_y
 _atom_site_fract_z
 _atom_site_occupancy
  Y  Y0  1  0.000000  0.337722  0.407433  1
  Y  Y1  1  0.000000  0.662278  0.592567  1
  Np  Np2  1  0.000000  0.837399  0.093379  1
  Np  Np3  1  0.000000  0.162601  0.906621  1
  Np  Np4  1  0.000000  0.959037  0.400399  1
  Np  Np5  1  0.000000  0.040963  0.599601  1
  Np  Np6  1  0.000000  0.459259  0.099068  1
  Np  Np7  1  0.000000  0.540741  0.900932  1
  Re  Re8  1  0.000000  0.647975  0.316898  1
  Re  Re9  1  0.000000  0.352025  0.683102  1
  Re  Re10  1  0.000000  0.144807  0.179785  1
  Re  Re11  1  0.000000  0.855193  0.820215  1
  B  B12  1  0.500000  0.552771  0.430831  1
  B  B13  1  0.500000  0.447229  0.569169  1
  B  B14  1  0.500000  0.051962  0.068109  1
  B  B15  1  0.500000  0.948038  0.931891  1
  B  B16  1  0.500000  0.744463  0.422898  1
  B  B17  1  0.500000  0.255537  0.577102  1
  B  B18  1  0.500000  0.243675  0.076412  1
  B  B19  1  0.500000  0.756325  0.923588  1
  B  B20  1  0.500000  0.805444  0.273914  1
  B  B21  1  0.500000  0.194556  0.726086  1
  B  B22  1  0.500000  0.304451  0.224845  1
  B  B23  1  0.500000  0.695549  0.775155  1
  B  B24  1  0.500000  0.645586  0.187850  1
  B  B25  1  0.500000  0.354414  0.812150  1
  B  B26  1  0.500000  0.144862  0.311920  1
  B  B27  1  0.500000  0.855138  0.688080  1
  B  B28  1  0.500000  0.988219  0.220355  1
  B  B29  1  0.500000  0.011781  0.779645  1
  B  B30  1  0.500000  0.489102  0.279229  1
  B  B31  1  0.500000  0.510898  0.720771  1
  B  B32  1  0.500000  0.642234  0.039234  1
  B  B33  1  0.500000  0.357766  0.960766  1
  B  B34  1  0.500000  0.139553  0.461414  1
  B  B35  1  0.500000  0.860447  0.538586  1
