# generated using pymatgen
data_Er4TmMn3(P3Ir4)4
_symmetry_space_group_name_H-M   'P 1'
_cell_length_a   12.55731500
_cell_length_b   12.55731451
_cell_length_c   3.94475600
_cell_angle_alpha   90.00000000
_cell_angle_beta   90.00000000
_cell_angle_gamma   120.00142697
_symmetry_Int_Tables_number   1
_chemical_formula_structural   Er4TmMn3(P3Ir4)4
_chemical_formula_sum   'Er4 Tm1 Mn3 P12 Ir16'
_cell_volume   538.68898183
_cell_formula_units_Z   1
loop_
 _symmetry_equiv_pos_site_id
 _symmetry_equiv_pos_as_xyz
  1  'x, y, z'
loop_
 _atom_site_type_symbol
 _atom_site_label
 _atom_site_symmetry_multiplicity
 _atom_site_fract_x
 _atom_site_fract_y
 _atom_site_fract_z
 _atom_site_occupancy
  Er  Er0  1  0.666679  0.333319  0.000000  1
  Er  Er1  1  0.333319  0.666679  0.000000  1
  Er  Er2  1  0.180219  0.999910  0.500000  1
  Er  Er3  1  0.999910  0.180219  0.500000  1
  Tm  Tm4  1  0.819815  0.819815  0.500000  1
  Mn  Mn5  1  0.289770  0.289770  0.500000  1
  Mn  Mn6  1  0.710266  0.999952  0.500000  1
  Mn  Mn7  1  0.999952  0.710266  0.500000  1
  P  P8  1  0.688539  0.164745  0.500000  1
  P  P9  1  0.835251  0.523774  0.500000  1
  P  P10  1  0.476227  0.311486  0.500000  1
  P  P11  1  0.164745  0.688539  0.500000  1
  P  P12  1  0.523774  0.835251  0.500000  1
  P  P13  1  0.311486  0.476227  0.500000  1
  P  P14  1  0.641196  0.641196  0.000000  1
  P  P15  1  0.358906  0.999999  0.000000  1
  P  P16  1  0.999999  0.358906  0.000000  1
  P  P17  1  0.182354  0.182354  0.000000  1
  P  P18  1  0.817634  0.999924  0.000000  1
  P  P19  1  0.999924  0.817634  0.000000  1
  Ir  Ir20  1  0.805173  0.179499  0.000000  1
  Ir  Ir21  1  0.820462  0.625843  0.000000  1
  Ir  Ir22  1  0.374345  0.194841  0.000000  1
  Ir  Ir23  1  0.179499  0.805173  0.000000  1
  Ir  Ir24  1  0.625843  0.820462  0.000000  1
  Ir  Ir25  1  0.194841  0.374345  0.000000  1
  Ir  Ir26  1  0.455076  0.455076  0.000000  1
  Ir  Ir27  1  0.544973  0.000000  0.000000  1
  Ir  Ir28  1  0.000000  0.544973  0.000000  1
  Ir  Ir29  1  0.868216  0.361065  0.500000  1
  Ir  Ir30  1  0.638917  0.507171  0.500000  1
  Ir  Ir31  1  0.492865  0.131801  0.500000  1
  Ir  Ir32  1  0.361065  0.868216  0.500000  1
  Ir  Ir33  1  0.507171  0.638917  0.500000  1
  Ir  Ir34  1  0.131801  0.492865  0.500000  1
  Ir  Ir35  1  0.999788  0.999788  0.000000  1
