# generated using pymatgen
data_TbDy7Re3B24Ru
_symmetry_space_group_name_H-M   'P 1'
_cell_length_a   3.68343100
_cell_length_b   9.17471022
_cell_length_c   11.56029801
_cell_angle_alpha   90.10498001
_cell_angle_beta   90.00000000
_cell_angle_gamma   90.00000000
_symmetry_Int_Tables_number   1
_chemical_formula_structural   TbDy7Re3B24Ru
_chemical_formula_sum   'Tb1 Dy7 Re3 B24 Ru1'
_cell_volume   390.67281845
_cell_formula_units_Z   1
loop_
 _symmetry_equiv_pos_site_id
 _symmetry_equiv_pos_as_xyz
  1  'x, y, z'
loop_
 _atom_site_type_symbol
 _atom_site_label
 _atom_site_symmetry_multiplicity
 _atom_site_fract_x
 _atom_site_fract_y
 _atom_site_fract_z
 _atom_site_occupancy
  Tb  Tb0  1  0.000000  0.322221  0.414153  1
  Dy  Dy1  1  0.000000  0.677034  0.587702  1
  Dy  Dy2  1  0.000000  0.825080  0.084164  1
  Dy  Dy3  1  0.000000  0.176415  0.913706  1
  Dy  Dy4  1  0.000000  0.941657  0.369493  1
  Dy  Dy5  1  0.000000  0.056355  0.629475  1
  Dy  Dy6  1  0.000000  0.443118  0.130586  1
  Dy  Dy7  1  0.000000  0.556954  0.870950  1
  Re  Re8  1  0.000000  0.362054  0.678322  1
  Re  Re9  1  0.000000  0.138268  0.179427  1
  Re  Re10  1  0.000000  0.861599  0.820848  1
  B  B11  1  0.500000  0.554202  0.432587  1
  B  B12  1  0.500000  0.447062  0.567070  1
  B  B13  1  0.500000  0.053241  0.066791  1
  B  B14  1  0.500000  0.946953  0.932819  1
  B  B15  1  0.500000  0.748187  0.418428  1
  B  B16  1  0.500000  0.250950  0.581441  1
  B  B17  1  0.500000  0.249136  0.081393  1
  B  B18  1  0.500000  0.751654  0.918686  1
  B  B19  1  0.500000  0.790688  0.265622  1
  B  B20  1  0.500000  0.208146  0.734146  1
  B  B21  1  0.500000  0.291475  0.234595  1
  B  B22  1  0.500000  0.708079  0.765993  1
  B  B23  1  0.500000  0.631779  0.186016  1
  B  B24  1  0.500000  0.369184  0.813892  1
  B  B25  1  0.500000  0.131012  0.314498  1
  B  B26  1  0.500000  0.868521  0.685802  1
  B  B27  1  0.500000  0.982745  0.211678  1
  B  B28  1  0.500000  0.017228  0.787770  1
  B  B29  1  0.500000  0.484190  0.288232  1
  B  B30  1  0.500000  0.517847  0.712015  1
  B  B31  1  0.500000  0.602461  0.029047  1
  B  B32  1  0.500000  0.398168  0.972034  1
  B  B33  1  0.500000  0.100702  0.471320  1
  B  B34  1  0.500000  0.897060  0.528295  1
  Ru  Ru35  1  0.000000  0.638579  0.321004  1
