# generated using pymatgen
data_Yb3Bi2Pb3O14
_symmetry_space_group_name_H-M   'P 1'
_cell_length_a   7.62583930
_cell_length_b   7.68005268
_cell_length_c   7.60936900
_cell_angle_alpha   60.30394787
_cell_angle_beta   60.07141566
_cell_angle_gamma   60.12427567
_symmetry_Int_Tables_number   1
_chemical_formula_structural   Yb3Bi2Pb3O14
_chemical_formula_sum   'Yb3 Bi2 Pb3 O14'
_cell_volume   316.31273182
_cell_formula_units_Z   1
loop_
 _symmetry_equiv_pos_site_id
 _symmetry_equiv_pos_as_xyz
  1  'x, y, z'
loop_
 _atom_site_type_symbol
 _atom_site_label
 _atom_site_symmetry_multiplicity
 _atom_site_fract_x
 _atom_site_fract_y
 _atom_site_fract_z
 _atom_site_occupancy
  Yb  Yb0  1  0.499983  0.499999  0.000019  1
  Yb  Yb1  1  0.499992  0.499997  0.499991  1
  Yb  Yb2  1  0.499993  0.000028  0.499989  1
  Bi  Bi3  1  0.500012  0.000011  0.999984  1
  Bi  Bi4  1  0.000021  0.500023  0.999988  1
  Pb  Pb5  1  0.999967  0.999903  0.000057  1
  Pb  Pb6  1  0.999952  0.999980  0.500088  1
  Pb  Pb7  1  0.000220  0.499942  0.499913  1
  O  O8  1  0.662527  0.662711  0.087379  1
  O  O9  1  0.653839  0.096434  0.089431  1
  O  O10  1  0.094162  0.657276  0.083876  1
  O  O11  1  0.905830  0.342739  0.335321  1
  O  O12  1  0.346176  0.903568  0.339697  1
  O  O13  1  0.907336  0.901599  0.345524  1
  O  O14  1  0.337390  0.390665  0.385969  1
  O  O15  1  0.662462  0.609391  0.614072  1
  O  O16  1  0.092664  0.098416  0.654452  1
  O  O17  1  0.653842  0.096432  0.660299  1
  O  O18  1  0.094166  0.657266  0.664674  1
  O  O19  1  0.337474  0.337297  0.912613  1
  O  O20  1  0.905821  0.342744  0.916106  1
  O  O21  1  0.346174  0.903572  0.910561  1
