# generated using pymatgen
data_LaPdAu(SO4)4
_symmetry_space_group_name_H-M   'P 1'
_cell_length_a   6.48542526
_cell_length_b   6.48542422
_cell_length_c   8.87411900
_cell_angle_alpha   74.72848921
_cell_angle_beta   74.72848257
_cell_angle_gamma   88.13766666
_symmetry_Int_Tables_number   1
_chemical_formula_structural   LaPdAu(SO4)4
_chemical_formula_sum   'La1 Pd1 Au1 S4 O16'
_cell_volume   347.08435040
_cell_formula_units_Z   1
loop_
 _symmetry_equiv_pos_site_id
 _symmetry_equiv_pos_as_xyz
  1  'x, y, z'
loop_
 _atom_site_type_symbol
 _atom_site_label
 _atom_site_symmetry_multiplicity
 _atom_site_fract_x
 _atom_site_fract_y
 _atom_site_fract_z
 _atom_site_occupancy
  La  La0  1  0.000000  0.000000  0.000000  1
  Pd  Pd1  1  0.500000  0.500000  0.500000  1
  Au  Au2  1  0.000000  0.000000  0.500000  1
  S  S3  1  0.088994  0.589548  0.740359  1
  S  S4  1  0.589548  0.088994  0.740359  1
  S  S5  1  0.911006  0.410452  0.259641  1
  S  S6  1  0.410452  0.911006  0.259641  1
  O  O7  1  0.325862  0.629881  0.675971  1
  O  O8  1  0.629881  0.325862  0.675971  1
  O  O9  1  0.674138  0.370119  0.324029  1
  O  O10  1  0.370119  0.674138  0.324029  1
  O  O11  1  0.016211  0.704195  0.865473  1
  O  O12  1  0.704195  0.016211  0.865473  1
  O  O13  1  0.983789  0.295805  0.134527  1
  O  O14  1  0.295805  0.983789  0.134527  1
  O  O15  1  0.980769  0.677907  0.601638  1
  O  O16  1  0.677907  0.980769  0.601638  1
  O  O17  1  0.019231  0.322093  0.398362  1
  O  O18  1  0.322093  0.019231  0.398362  1
  O  O19  1  0.027171  0.361227  0.795203  1
  O  O20  1  0.361227  0.027171  0.795203  1
  O  O21  1  0.972829  0.638773  0.204797  1
  O  O22  1  0.638773  0.972829  0.204797  1
