# generated using pymatgen
data_TbPr15CdHg3Rh4
_symmetry_space_group_name_H-M   'P 1'
_cell_length_a   9.97266984
_cell_length_b   9.97266992
_cell_length_c   9.94426732
_cell_angle_alpha   60.14148133
_cell_angle_beta   60.14148560
_cell_angle_gamma   60.12082116
_symmetry_Int_Tables_number   1
_chemical_formula_structural   TbPr15CdHg3Rh4
_chemical_formula_sum   'Tb1 Pr15 Cd1 Hg3 Rh4'
_cell_volume   701.45982579
_cell_formula_units_Z   1
loop_
 _symmetry_equiv_pos_site_id
 _symmetry_equiv_pos_as_xyz
  1  'x, y, z'
loop_
 _atom_site_type_symbol
 _atom_site_label
 _atom_site_symmetry_multiplicity
 _atom_site_fract_x
 _atom_site_fract_y
 _atom_site_fract_z
 _atom_site_occupancy
  Tb  Tb0  1  0.059823  0.059823  0.439971  1
  Pr  Pr1  1  0.300159  0.899775  0.899569  1
  Pr  Pr2  1  0.688761  0.311123  0.686247  1
  Pr  Pr3  1  0.310640  0.689966  0.312551  1
  Pr  Pr4  1  0.060605  0.438674  0.440277  1
  Pr  Pr5  1  0.689966  0.310640  0.312551  1
  Pr  Pr6  1  0.438674  0.060605  0.440277  1
  Pr  Pr7  1  0.438603  0.059154  0.061536  1
  Pr  Pr8  1  0.900312  0.900312  0.897460  1
  Pr  Pr9  1  0.059154  0.438603  0.061536  1
  Pr  Pr10  1  0.899775  0.300159  0.899569  1
  Pr  Pr11  1  0.311123  0.688761  0.686247  1
  Pr  Pr12  1  0.900343  0.900343  0.301191  1
  Pr  Pr13  1  0.440322  0.440322  0.060908  1
  Pr  Pr14  1  0.311890  0.311890  0.688282  1
  Pr  Pr15  1  0.687770  0.687770  0.311655  1
  Cd  Cd16  1  0.670912  0.670912  0.671262  1
  Hg  Hg17  1  0.003078  0.665903  0.664183  1
  Hg  Hg18  1  0.665903  0.003078  0.664183  1
  Hg  Hg19  1  0.664991  0.664991  0.002662  1
  Rh  Rh20  1  0.106211  0.106211  0.673930  1
  Rh  Rh21  1  0.107294  0.676510  0.106586  1
  Rh  Rh22  1  0.107181  0.107181  0.110780  1
  Rh  Rh23  1  0.676510  0.107294  0.106586  1
