# generated using pymatgen
data_Li8Ca3TbIn4
_symmetry_space_group_name_H-M   'P 1'
_cell_length_a   7.03661000
_cell_length_b   4.94462600
_cell_length_c   9.94763800
_cell_angle_alpha   90.00000000
_cell_angle_beta   89.99946259
_cell_angle_gamma   90.00000000
_symmetry_Int_Tables_number   1
_chemical_formula_structural   Li8Ca3TbIn4
_chemical_formula_sum   'Li8 Ca3 Tb1 In4'
_cell_volume   346.11219532
_cell_formula_units_Z   1
loop_
 _symmetry_equiv_pos_site_id
 _symmetry_equiv_pos_as_xyz
  1  'x, y, z'
loop_
 _atom_site_type_symbol
 _atom_site_label
 _atom_site_symmetry_multiplicity
 _atom_site_fract_x
 _atom_site_fract_y
 _atom_site_fract_z
 _atom_site_occupancy
  Li  Li0  1  0.002552  0.750000  0.127571  1
  Li  Li1  1  0.497338  0.750000  0.127585  1
  Li  Li2  1  0.999186  0.249999  0.373245  1
  Li  Li3  1  0.500786  0.249999  0.373260  1
  Li  Li4  1  0.500068  0.750000  0.627792  1
  Li  Li5  1  0.999843  0.750000  0.627750  1
  Li  Li6  1  0.500736  0.249999  0.871274  1
  Li  Li7  1  0.999196  0.249999  0.871345  1
  Ca  Ca8  1  0.250387  0.750000  0.377024  1
  Ca  Ca9  1  0.750186  0.249999  0.621916  1
  Ca  Ca10  1  0.249769  0.750000  0.878877  1
  Tb  Tb11  1  0.749957  0.249999  0.122071  1
  In  In12  1  0.249944  0.249999  0.124936  1
  In  In13  1  0.750056  0.750000  0.365113  1
  In  In14  1  0.250007  0.249999  0.624600  1
  In  In15  1  0.749993  0.750000  0.885644  1
