# generated using pymatgen
data_Tm12ZnCo3CuSn
_symmetry_space_group_name_H-M   'P 1'
_cell_length_a   8.24867376
_cell_length_b   8.24867313
_cell_length_c   8.24867324
_cell_angle_alpha   112.03122935
_cell_angle_beta   109.65139111
_cell_angle_gamma   106.77366311
_symmetry_Int_Tables_number   1
_chemical_formula_structural   Tm12ZnCo3CuSn
_chemical_formula_sum   'Tm12 Zn1 Co3 Cu1 Sn1'
_cell_volume   431.13669413
_cell_formula_units_Z   1
loop_
 _symmetry_equiv_pos_site_id
 _symmetry_equiv_pos_as_xyz
  1  'x, y, z'
loop_
 _atom_site_type_symbol
 _atom_site_label
 _atom_site_symmetry_multiplicity
 _atom_site_fract_x
 _atom_site_fract_y
 _atom_site_fract_z
 _atom_site_occupancy
  Tm  Tm0  1  0.432166  0.234290  0.197876  1
  Tm  Tm1  1  0.570949  0.771272  0.799677  1
  Tm  Tm2  1  0.028406  0.228728  0.799677  1
  Tm  Tm3  1  0.963586  0.765710  0.197876  1
  Tm  Tm4  1  0.178836  0.288675  0.467511  1
  Tm  Tm5  1  0.816661  0.718492  0.535154  1
  Tm  Tm6  1  0.178836  0.711325  0.890160  1
  Tm  Tm7  1  0.816661  0.281508  0.098170  1
  Tm  Tm8  1  0.321621  0.628076  0.312897  1
  Tm  Tm9  1  0.684823  0.371924  0.693547  1
  Tm  Tm10  1  0.321621  0.008724  0.693547  1
  Tm  Tm11  1  0.684823  0.991276  0.312897  1
  Zn  Zn12  1  0.999235  0.000000  0.999235  1
  Co  Co13  1  0.651542  0.000000  0.651542  1
  Co  Co14  1  0.113517  0.614583  0.498934  1
  Co  Co15  1  0.884351  0.385417  0.498934  1
  Cu  Cu16  1  0.354895  0.000000  0.354895  1
  Sn  Sn17  1  0.497470  0.500000  0.997470  1
