# generated using pymatgen
data_Gd4In2PdAu3
_symmetry_space_group_name_H-M   'P 1'
_cell_length_a   7.94570000
_cell_length_b   7.94570019
_cell_length_c   7.37256900
_cell_angle_alpha   90.00000000
_cell_angle_beta   90.00000000
_cell_angle_gamma   89.86459329
_symmetry_Int_Tables_number   1
_chemical_formula_structural   Gd4In2PdAu3
_chemical_formula_sum   'Gd8 In4 Pd2 Au6'
_cell_volume   465.45957723
_cell_formula_units_Z   2
loop_
 _symmetry_equiv_pos_site_id
 _symmetry_equiv_pos_as_xyz
  1  'x, y, z'
loop_
 _atom_site_type_symbol
 _atom_site_label
 _atom_site_symmetry_multiplicity
 _atom_site_fract_x
 _atom_site_fract_y
 _atom_site_fract_z
 _atom_site_occupancy
  Gd  Gd0  1  0.170315  0.158767  0.000000  1
  Gd  Gd1  1  0.841233  0.829685  0.000000  1
  Gd  Gd2  1  0.665829  0.334171  0.500000  1
  Gd  Gd3  1  0.325628  0.674372  0.500000  1
  Gd  Gd4  1  0.675751  0.324249  0.000000  1
  Gd  Gd5  1  0.316913  0.683087  0.000000  1
  Gd  Gd6  1  0.832009  0.820946  0.500000  1
  Gd  Gd7  1  0.179054  0.167991  0.500000  1
  In  In8  1  0.497446  0.998369  0.250805  1
  In  In9  1  0.497446  0.998369  0.749195  1
  In  In10  1  0.001631  0.502554  0.250805  1
  In  In11  1  0.001631  0.502554  0.749195  1
  Pd  Pd12  1  0.128608  0.871392  0.257719  1
  Pd  Pd13  1  0.128608  0.871392  0.742281  1
  Au  Au14  1  0.369697  0.374106  0.239910  1
  Au  Au15  1  0.625894  0.630303  0.760090  1
  Au  Au16  1  0.625894  0.630303  0.239910  1
  Au  Au17  1  0.873360  0.126640  0.740729  1
  Au  Au18  1  0.873360  0.126640  0.259271  1
  Au  Au19  1  0.369697  0.374106  0.760090  1
