# generated using pymatgen
data_SmHo15(ErPb4)4
_symmetry_space_group_name_H-M   'P 1'
_cell_length_a   8.19874719
_cell_length_b   8.26672068
_cell_length_c   15.60333009
_cell_angle_alpha   90.04807627
_cell_angle_beta   89.66096194
_cell_angle_gamma   89.87368498
_symmetry_Int_Tables_number   1
_chemical_formula_structural   SmHo15(ErPb4)4
_chemical_formula_sum   'Sm1 Ho15 Er4 Pb16'
_cell_volume   1057.52158056
_cell_formula_units_Z   1
loop_
 _symmetry_equiv_pos_site_id
 _symmetry_equiv_pos_as_xyz
  1  'x, y, z'
loop_
 _atom_site_type_symbol
 _atom_site_label
 _atom_site_symmetry_multiplicity
 _atom_site_fract_x
 _atom_site_fract_y
 _atom_site_fract_z
 _atom_site_occupancy
  Sm  Sm0  1  0.966255  0.822233  0.598240  1
  Ho  Ho1  1  0.623993  0.157661  0.621431  1
  Ho  Ho2  1  0.121599  0.341435  0.879605  1
  Ho  Ho3  1  0.377802  0.842550  0.121110  1
  Ho  Ho4  1  0.875443  0.657558  0.377596  1
  Ho  Ho5  1  0.375966  0.842738  0.378427  1
  Ho  Ho6  1  0.878582  0.657970  0.121259  1
  Ho  Ho7  1  0.621553  0.157835  0.879202  1
  Ho  Ho8  1  0.122858  0.341980  0.621619  1
  Ho  Ho9  1  0.462829  0.675173  0.599529  1
  Ho  Ho10  1  0.959475  0.825005  0.898978  1
  Ho  Ho11  1  0.539398  0.324493  0.100571  1
  Ho  Ho12  1  0.037817  0.176431  0.399660  1
  Ho  Ho13  1  0.536324  0.324238  0.400357  1
  Ho  Ho14  1  0.039666  0.175268  0.100817  1
  Ho  Ho15  1  0.461259  0.675206  0.900589  1
  Er  Er16  1  0.790191  0.495832  0.750662  1
  Er  Er17  1  0.290912  0.004716  0.750805  1
  Er  Er18  1  0.209227  0.503963  0.249829  1
  Er  Er19  1  0.708951  0.995693  0.249182  1
  Pb  Pb20  1  0.717292  0.968124  0.455473  1
  Pb  Pb21  1  0.220166  0.532020  0.043432  1
  Pb  Pb22  1  0.279273  0.031639  0.957114  1
  Pb  Pb23  1  0.780188  0.464587  0.542347  1
  Pb  Pb24  1  0.285437  0.037630  0.542280  1
  Pb  Pb25  1  0.780046  0.467520  0.957278  1
  Pb  Pb26  1  0.720117  0.967467  0.042860  1
  Pb  Pb27  1  0.217473  0.534742  0.457187  1
  Pb  Pb28  1  0.428207  0.373973  0.750197  1
  Pb  Pb29  1  0.927761  0.126534  0.750389  1
  Pb  Pb30  1  0.571133  0.625769  0.249741  1
  Pb  Pb31  1  0.071840  0.874123  0.249821  1
  Pb  Pb32  1  0.649129  0.844545  0.750131  1
  Pb  Pb33  1  0.152445  0.653055  0.751527  1
  Pb  Pb34  1  0.349880  0.155529  0.250430  1
  Pb  Pb35  1  0.849512  0.344768  0.250326  1
