# generated using pymatgen
data_Tm4Al18(OsPt)3
_symmetry_space_group_name_H-M   'P 1'
_cell_length_a   7.55134812
_cell_length_b   7.55134594
_cell_length_c   9.46099700
_cell_angle_alpha   89.94493626
_cell_angle_beta   89.94495554
_cell_angle_gamma   119.00701731
_symmetry_Int_Tables_number   1
_chemical_formula_structural   Tm4Al18(OsPt)3
_chemical_formula_sum   'Tm4 Al18 Os3 Pt3'
_cell_volume   471.81827173
_cell_formula_units_Z   1
loop_
 _symmetry_equiv_pos_site_id
 _symmetry_equiv_pos_as_xyz
  1  'x, y, z'
loop_
 _atom_site_type_symbol
 _atom_site_label
 _atom_site_symmetry_multiplicity
 _atom_site_fract_x
 _atom_site_fract_y
 _atom_site_fract_z
 _atom_site_occupancy
  Tm  Tm0  1  0.993084  0.675191  0.252564  1
  Tm  Tm1  1  0.005035  0.323760  0.747893  1
  Tm  Tm2  1  0.676239  0.994965  0.252107  1
  Tm  Tm3  1  0.324809  0.006915  0.747436  1
  Al  Al4  1  0.127190  0.128617  0.250047  1
  Al  Al5  1  0.871383  0.872810  0.749953  1
  Al  Al6  1  0.000265  0.333310  0.075786  1
  Al  Al7  1  0.998584  0.668639  0.923037  1
  Al  Al8  1  0.995304  0.662185  0.575548  1
  Al  Al9  1  0.337815  0.004696  0.424452  1
  Al  Al10  1  0.997289  0.331649  0.424745  1
  Al  Al11  1  0.668351  0.002712  0.575255  1
  Al  Al12  1  0.666690  0.999735  0.924214  1
  Al  Al13  1  0.331361  0.001416  0.076963  1
  Al  Al14  1  0.333373  0.327147  0.548418  1
  Al  Al15  1  0.672853  0.666628  0.451582  1
  Al  Al16  1  0.670935  0.672115  0.054961  1
  Al  Al17  1  0.327885  0.329065  0.945038  1
  Al  Al18  1  0.341220  0.547874  0.250330  1
  Al  Al19  1  0.658027  0.449583  0.746685  1
  Al  Al20  1  0.550417  0.341973  0.253315  1
  Al  Al21  1  0.452126  0.658780  0.749670  1
  Os  Os22  1  0.672359  0.327641  0.500000  1
  Os  Os23  1  0.999299  0.000702  0.000000  1
  Os  Os24  1  0.001027  0.998973  0.500000  1
  Pt  Pt25  1  0.671302  0.328698  0.000000  1
  Pt  Pt26  1  0.327541  0.672459  0.000000  1
  Pt  Pt27  1  0.328238  0.671762  0.500000  1
