# generated using pymatgen
data_Lu3AlGa2Si2Rh
_symmetry_space_group_name_H-M   'P 1'
_cell_length_a   6.80173571
_cell_length_b   6.74988845
_cell_length_c   4.17236200
_cell_angle_alpha   90.00000000
_cell_angle_beta   90.00000000
_cell_angle_gamma   119.74815363
_symmetry_Int_Tables_number   1
_chemical_formula_structural   Lu3AlGa2Si2Rh
_chemical_formula_sum   'Lu3 Al1 Ga2 Si2 Rh1'
_cell_volume   166.31273929
_cell_formula_units_Z   1
loop_
 _symmetry_equiv_pos_site_id
 _symmetry_equiv_pos_as_xyz
  1  'x, y, z'
loop_
 _atom_site_type_symbol
 _atom_site_label
 _atom_site_symmetry_multiplicity
 _atom_site_fract_x
 _atom_site_fract_y
 _atom_site_fract_z
 _atom_site_occupancy
  Lu  Lu0  1  0.416381  0.000410  0.000000  1
  Lu  Lu1  1  0.000000  0.415546  0.000000  1
  Lu  Lu2  1  0.583619  0.584029  0.000000  1
  Al  Al3  1  0.000000  0.764843  0.500001  1
  Ga  Ga4  1  0.758481  0.997861  0.500001  1
  Ga  Ga5  1  0.241518  0.239379  0.500001  1
  Si  Si6  1  0.668829  0.335596  0.500001  1
  Si  Si7  1  0.331171  0.666768  0.500001  1
  Rh  Rh8  1  0.000000  0.995569  0.000000  1
