# generated using pymatgen
data_Ho4As6Ir3Ru4
_symmetry_space_group_name_H-M   'P 1'
_cell_length_a   7.24499578
_cell_length_b   7.24809628
_cell_length_c   7.24809587
_cell_angle_alpha   109.47987724
_cell_angle_beta   109.46255791
_cell_angle_gamma   109.46256421
_symmetry_Int_Tables_number   1
_chemical_formula_structural   Ho4As6Ir3Ru4
_chemical_formula_sum   'Ho4 As6 Ir3 Ru4'
_cell_volume   293.02895754
_cell_formula_units_Z   1
loop_
 _symmetry_equiv_pos_site_id
 _symmetry_equiv_pos_as_xyz
  1  'x, y, z'
loop_
 _atom_site_type_symbol
 _atom_site_label
 _atom_site_symmetry_multiplicity
 _atom_site_fract_x
 _atom_site_fract_y
 _atom_site_fract_z
 _atom_site_occupancy
  Ho  Ho0  1  0.000045  0.000089  0.500045  1
  Ho  Ho1  1  0.500000  0.000000  0.000000  1
  Ho  Ho2  1  0.999955  0.499955  0.999911  1
  Ho  Ho3  1  0.500000  0.499955  0.500045  1
  As  As4  1  0.679044  0.678854  0.993913  1
  As  As5  1  0.314870  0.315058  0.993913  1
  As  As6  1  0.999812  0.678854  0.684942  1
  As  As7  1  0.000188  0.315058  0.321146  1
  As  As8  1  0.685130  0.006087  0.684942  1
  As  As9  1  0.320956  0.006087  0.321146  1
  Ir  Ir10  1  0.500000  0.750417  0.249583  1
  Ir  Ir11  1  0.749583  0.499166  0.249583  1
  Ir  Ir12  1  0.250417  0.750417  0.500834  1
  Ru  Ru13  1  0.000000  0.000000  0.000000  1
  Ru  Ru14  1  0.249966  0.499932  0.749966  1
  Ru  Ru15  1  0.750034  0.250034  0.500068  1
  Ru  Ru16  1  0.500000  0.250034  0.749966  1
