# generated using pymatgen
data_La4Al14NiPt
_symmetry_space_group_name_H-M   'P 1'
_cell_length_a   6.15849949
_cell_length_b   6.16235157
_cell_length_c   11.69139533
_cell_angle_alpha   74.71965059
_cell_angle_beta   74.72943917
_cell_angle_gamma   89.99999410
_symmetry_Int_Tables_number   1
_chemical_formula_structural   La4Al14NiPt
_chemical_formula_sum   'La4 Al14 Ni1 Pt1'
_cell_volume   411.75051665
_cell_formula_units_Z   1
loop_
 _symmetry_equiv_pos_site_id
 _symmetry_equiv_pos_as_xyz
  1  'x, y, z'
loop_
 _atom_site_type_symbol
 _atom_site_label
 _atom_site_symmetry_multiplicity
 _atom_site_fract_x
 _atom_site_fract_y
 _atom_site_fract_z
 _atom_site_occupancy
  La  La0  1  0.997592  0.997592  0.004815  1
  La  La1  1  0.498500  0.498500  0.002999  1
  La  La2  1  0.747678  0.247678  0.504644  1
  La  La3  1  0.244963  0.744963  0.510075  1
  Al  Al4  1  0.200528  0.200528  0.598945  1
  Al  Al5  1  0.808984  0.808984  0.382032  1
  Al  Al6  1  0.612029  0.123158  0.250600  1
  Al  Al7  1  0.137371  0.626241  0.250600  1
  Al  Al8  1  0.612029  0.626241  0.250600  1
  Al  Al9  1  0.137371  0.123158  0.250600  1
  Al  Al10  1  0.861761  0.351051  0.756264  1
  Al  Al11  1  0.381975  0.892684  0.756264  1
  Al  Al12  1  0.861761  0.892684  0.756264  1
  Al  Al13  1  0.381975  0.351051  0.756264  1
  Al  Al14  1  0.691688  0.691688  0.616623  1
  Al  Al15  1  0.061603  0.561603  0.876793  1
  Al  Al16  1  0.455325  0.955325  0.089349  1
  Al  Al17  1  0.944053  0.444053  0.111895  1
  Ni  Ni18  1  0.563701  0.063701  0.872599  1
  Pt  Pt19  1  0.313945  0.313945  0.372110  1
