# generated using pymatgen
data_TbHo11In2(CoTc)2
_symmetry_space_group_name_H-M   'P 1'
_cell_length_a   8.42751060
_cell_length_b   8.42583335
_cell_length_c   8.42750986
_cell_angle_alpha   112.89255991
_cell_angle_beta   110.93523921
_cell_angle_gamma   104.70314527
_symmetry_Int_Tables_number   1
_chemical_formula_structural   TbHo11In2(CoTc)2
_chemical_formula_sum   'Tb1 Ho11 In2 Co2 Tc2'
_cell_volume   458.11006617
_cell_formula_units_Z   1
loop_
 _symmetry_equiv_pos_site_id
 _symmetry_equiv_pos_as_xyz
  1  'x, y, z'
loop_
 _atom_site_type_symbol
 _atom_site_label
 _atom_site_symmetry_multiplicity
 _atom_site_fract_x
 _atom_site_fract_y
 _atom_site_fract_z
 _atom_site_occupancy
  Tb  Tb0  1  0.673251  0.992117  0.318866  1
  Ho  Ho1  1  0.444372  0.243978  0.200721  1
  Ho  Ho2  1  0.555307  0.756269  0.798903  1
  Ho  Ho3  1  0.043256  0.243978  0.799606  1
  Ho  Ho4  1  0.957367  0.756269  0.200963  1
  Ho  Ho5  1  0.185249  0.287375  0.472360  1
  Ho  Ho6  1  0.815143  0.712520  0.527860  1
  Ho  Ho7  1  0.184659  0.712520  0.897377  1
  Ho  Ho8  1  0.815016  0.287375  0.102126  1
  Ho  Ho9  1  0.326664  0.646261  0.319597  1
  Ho  Ho10  1  0.673053  0.353877  0.680824  1
  Ho  Ho11  1  0.326906  0.007376  0.680468  1
  In  In12  1  0.499835  0.499673  0.999838  1
  In  In13  1  0.999926  0.999924  0.999998  1
  Co  Co14  1  0.110248  0.610182  0.499934  1
  Co  Co15  1  0.890095  0.390338  0.500243  1
  Tc  Tc16  1  0.322738  0.999983  0.323069  1
  Tc  Tc17  1  0.676914  0.999983  0.677245  1
