# generated using pymatgen
data_Pr2(SnPd3)3
_symmetry_space_group_name_H-M   'P 1'
_cell_length_a   8.09963154
_cell_length_b   8.09963083
_cell_length_c   9.46320600
_cell_angle_alpha   90.00000000
_cell_angle_beta   90.00000000
_cell_angle_gamma   120.01468057
_symmetry_Int_Tables_number   1
_chemical_formula_structural   Pr2(SnPd3)3
_chemical_formula_sum   'Pr4 Sn6 Pd18'
_cell_volume   537.57015417
_cell_formula_units_Z   2
loop_
 _symmetry_equiv_pos_site_id
 _symmetry_equiv_pos_as_xyz
  1  'x, y, z'
loop_
 _atom_site_type_symbol
 _atom_site_label
 _atom_site_symmetry_multiplicity
 _atom_site_fract_x
 _atom_site_fract_y
 _atom_site_fract_z
 _atom_site_occupancy
  Pr  Pr0  1  0.328064  0.013951  0.750000  1
  Pr  Pr1  1  0.671936  0.986049  0.250000  1
  Pr  Pr2  1  0.013951  0.328064  0.750000  1
  Pr  Pr3  1  0.986049  0.671936  0.250000  1
  Sn  Sn4  1  0.000000  0.000000  0.500000  1
  Sn  Sn5  1  0.679075  0.320925  0.000000  1
  Sn  Sn6  1  0.320925  0.679075  0.500000  1
  Sn  Sn7  1  0.320925  0.679075  0.000000  1
  Sn  Sn8  1  0.000000  0.000000  0.000000  1
  Sn  Sn9  1  0.679075  0.320925  0.500000  1
  Pd  Pd10  1  0.334406  0.334406  0.962855  1
  Pd  Pd11  1  0.448524  0.644610  0.750000  1
  Pd  Pd12  1  0.551476  0.355390  0.250000  1
  Pd  Pd13  1  0.644610  0.448524  0.750000  1
  Pd  Pd14  1  0.004408  0.340216  0.085203  1
  Pd  Pd15  1  0.995592  0.659784  0.585203  1
  Pd  Pd16  1  0.340216  0.004408  0.414797  1
  Pd  Pd17  1  0.659784  0.995592  0.914797  1
  Pd  Pd18  1  0.995592  0.659784  0.914797  1
  Pd  Pd19  1  0.004408  0.340216  0.414797  1
  Pd  Pd20  1  0.659784  0.995592  0.585203  1
  Pd  Pd21  1  0.858854  0.858854  0.750000  1
  Pd  Pd22  1  0.334406  0.334406  0.537145  1
  Pd  Pd23  1  0.665594  0.665594  0.037145  1
  Pd  Pd24  1  0.340216  0.004408  0.085203  1
  Pd  Pd25  1  0.665594  0.665594  0.462855  1
  Pd  Pd26  1  0.141146  0.141146  0.250000  1
  Pd  Pd27  1  0.355390  0.551476  0.250000  1
