# generated using pymatgen
data_Dy2HoNb3(B2Ru5)2
_symmetry_space_group_name_H-M   'P 1'
_cell_length_a   9.60515511
_cell_length_b   9.60515520
_cell_length_c   3.12415900
_cell_angle_alpha   90.00000000
_cell_angle_beta   90.00000000
_cell_angle_gamma   90.40634629
_symmetry_Int_Tables_number   1
_chemical_formula_structural   Dy2HoNb3(B2Ru5)2
_chemical_formula_sum   'Dy2 Ho1 Nb3 B4 Ru10'
_cell_volume   288.22455405
_cell_formula_units_Z   1
loop_
 _symmetry_equiv_pos_site_id
 _symmetry_equiv_pos_as_xyz
  1  'x, y, z'
loop_
 _atom_site_type_symbol
 _atom_site_label
 _atom_site_symmetry_multiplicity
 _atom_site_fract_x
 _atom_site_fract_y
 _atom_site_fract_z
 _atom_site_occupancy
  Dy  Dy0  1  0.823990  0.675227  0.000000  1
  Dy  Dy1  1  0.175227  0.323990  0.000000  1
  Ho  Ho2  1  0.325543  0.825543  0.000000  1
  Nb  Nb3  1  0.675747  0.175747  0.000000  1
  Nb  Nb4  1  0.498374  0.502737  0.000000  1
  Nb  Nb5  1  0.002737  0.998374  0.000000  1
  B  B6  1  0.622925  0.881288  0.000000  1
  B  B7  1  0.381288  0.122925  0.000000  1
  B  B8  1  0.119016  0.619016  0.000000  1
  B  B9  1  0.876271  0.376271  0.000000  1
  Ru  Ru10  1  0.570603  0.722425  0.500000  1
  Ru  Ru11  1  0.441226  0.279959  0.500000  1
  Ru  Ru12  1  0.069539  0.780338  0.500000  1
  Ru  Ru13  1  0.915796  0.213631  0.500000  1
  Ru  Ru14  1  0.280338  0.569539  0.500000  1
  Ru  Ru15  1  0.713631  0.415796  0.500000  1
  Ru  Ru16  1  0.222425  0.070603  0.500000  1
  Ru  Ru17  1  0.779959  0.941226  0.500000  1
  Ru  Ru18  1  0.509286  0.009286  0.500000  1
  Ru  Ru19  1  0.996076  0.496076  0.500000  1
