# generated using pymatgen
data_Rb2Hg3S4
_symmetry_space_group_name_H-M   'P 1'
_cell_length_a   6.45997501
_cell_length_b   9.72497521
_cell_length_c   9.72497499
_cell_angle_alpha   72.65253424
_cell_angle_beta   70.60168936
_cell_angle_gamma   70.60169484
_symmetry_Int_Tables_number   1
_chemical_formula_structural   Rb2Hg3S4
_chemical_formula_sum   'Rb4 Hg6 S8'
_cell_volume   531.30262531
_cell_formula_units_Z   2
loop_
 _symmetry_equiv_pos_site_id
 _symmetry_equiv_pos_as_xyz
  1  'x, y, z'
loop_
 _atom_site_type_symbol
 _atom_site_label
 _atom_site_symmetry_multiplicity
 _atom_site_fract_x
 _atom_site_fract_y
 _atom_site_fract_z
 _atom_site_occupancy
  Rb  Rb0  1  0.741098  0.620587  0.379413  1
  Rb  Rb1  1  0.258902  0.379413  0.620587  1
  Rb  Rb2  1  0.758902  0.120587  0.879413  1
  Rb  Rb3  1  0.241098  0.879413  0.120587  1
  Hg  Hg4  1  0.750000  0.750000  0.750000  1
  Hg  Hg5  1  0.250000  0.250000  0.250000  1
  Hg  Hg6  1  0.250000  0.908038  0.591962  1
  Hg  Hg7  1  0.250000  0.591962  0.908038  1
  Hg  Hg8  1  0.750000  0.091962  0.408038  1
  Hg  Hg9  1  0.750000  0.408038  0.091962  1
  S  S10  1  0.088834  0.769939  0.507268  1
  S  S11  1  0.633960  0.507268  0.769939  1
  S  S12  1  0.411166  0.992732  0.730061  1
  S  S13  1  0.866040  0.730061  0.992732  1
  S  S14  1  0.911166  0.230061  0.492732  1
  S  S15  1  0.366040  0.492732  0.230061  1
  S  S16  1  0.588834  0.007268  0.269939  1
  S  S17  1  0.133960  0.269939  0.007268  1
