# generated using pymatgen
data_ThAl2AgPt
_symmetry_space_group_name_H-M   'P 1'
_cell_length_a   4.26195000
_cell_length_b   4.26195000
_cell_length_c   10.68884600
_cell_angle_alpha   90.00000000
_cell_angle_beta   90.00000000
_cell_angle_gamma   90.00000000
_symmetry_Int_Tables_number   1
_chemical_formula_structural   ThAl2AgPt
_chemical_formula_sum   'Th2 Al4 Ag2 Pt2'
_cell_volume   194.15452680
_cell_formula_units_Z   2
loop_
 _symmetry_equiv_pos_site_id
 _symmetry_equiv_pos_as_xyz
  1  'x, y, z'
loop_
 _atom_site_type_symbol
 _atom_site_label
 _atom_site_symmetry_multiplicity
 _atom_site_fract_x
 _atom_site_fract_y
 _atom_site_fract_z
 _atom_site_occupancy
  Th  Th0  1  0.000000  0.500000  0.259553  1
  Th  Th1  1  0.500000  0.000000  0.740447  1
  Al  Al2  1  0.000000  0.000000  0.500000  1
  Al  Al3  1  0.500000  0.500000  0.500000  1
  Al  Al4  1  0.000000  0.500000  0.858556  1
  Al  Al5  1  0.500000  0.000000  0.141444  1
  Ag  Ag6  1  0.000000  0.000000  0.000000  1
  Ag  Ag7  1  0.500000  0.500000  0.000000  1
  Pt  Pt8  1  0.000000  0.500000  0.629161  1
  Pt  Pt9  1  0.500000  0.000000  0.370839  1
