# generated using pymatgen
data_Tb12Tc2OsRh
_symmetry_space_group_name_H-M   'P 1'
_cell_length_a   6.33086899
_cell_length_b   7.40023483
_cell_length_c   9.25218800
_cell_angle_alpha   90.00000000
_cell_angle_beta   90.00000000
_cell_angle_gamma   90.07345234
_symmetry_Int_Tables_number   1
_chemical_formula_structural   Tb12Tc2OsRh
_chemical_formula_sum   'Tb12 Tc2 Os1 Rh1'
_cell_volume   433.46388588
_cell_formula_units_Z   1
loop_
 _symmetry_equiv_pos_site_id
 _symmetry_equiv_pos_as_xyz
  1  'x, y, z'
loop_
 _atom_site_type_symbol
 _atom_site_label
 _atom_site_symmetry_multiplicity
 _atom_site_fract_x
 _atom_site_fract_y
 _atom_site_fract_z
 _atom_site_occupancy
  Tb  Tb0  1  0.335000  0.673296  0.061959  1
  Tb  Tb1  1  0.167550  0.178757  0.437756  1
  Tb  Tb2  1  0.666096  0.323715  0.564080  1
  Tb  Tb3  1  0.831333  0.824045  0.933148  1
  Tb  Tb4  1  0.666096  0.323715  0.935920  1
  Tb  Tb5  1  0.831333  0.824045  0.566852  1
  Tb  Tb6  1  0.335000  0.673296  0.438041  1
  Tb  Tb7  1  0.167550  0.178757  0.062244  1
  Tb  Tb8  1  0.864641  0.540395  0.250000  1
  Tb  Tb9  1  0.635698  0.042642  0.250000  1
  Tb  Tb10  1  0.126234  0.460487  0.750000  1
  Tb  Tb11  1  0.371300  0.959451  0.750000  1
  Tc  Tc12  1  0.960873  0.113771  0.750000  1
  Tc  Tc13  1  0.539759  0.614419  0.750000  1
  Os  Os14  1  0.456176  0.383961  0.250000  1
  Rh  Rh15  1  0.045363  0.885249  0.250000  1
