# generated using pymatgen
data_Tm11In9(NiAu)2
_symmetry_space_group_name_H-M   'P 1'
_cell_length_a   12.96433598
_cell_length_b   13.03102473
_cell_length_c   3.59792000
_cell_angle_alpha   90.00000000
_cell_angle_beta   90.00000000
_cell_angle_gamma   109.98947233
_symmetry_Int_Tables_number   1
_chemical_formula_structural   Tm11In9(NiAu)2
_chemical_formula_sum   'Tm11 In9 Ni2 Au2'
_cell_volume   571.20921050
_cell_formula_units_Z   1
loop_
 _symmetry_equiv_pos_site_id
 _symmetry_equiv_pos_as_xyz
  1  'x, y, z'
loop_
 _atom_site_type_symbol
 _atom_site_label
 _atom_site_symmetry_multiplicity
 _atom_site_fract_x
 _atom_site_fract_y
 _atom_site_fract_z
 _atom_site_occupancy
  Tm  Tm0  1  0.500000  0.500000  0.500000  1
  Tm  Tm1  1  0.817596  0.801070  0.500000  1
  Tm  Tm2  1  0.182404  0.198930  0.500000  1
  Tm  Tm3  1  0.570225  0.918786  0.500000  1
  Tm  Tm4  1  0.429775  0.081214  0.500000  1
  Tm  Tm5  1  0.921999  0.578109  0.500000  1
  Tm  Tm6  1  0.078001  0.421891  0.500000  1
  Tm  Tm7  1  0.118238  0.859598  0.500000  1
  Tm  Tm8  1  0.881762  0.140402  0.500000  1
  Tm  Tm9  1  0.342513  0.656840  0.500000  1
  Tm  Tm10  1  0.657487  0.343160  0.500000  1
  In  In11  1  0.344193  0.863993  0.000000  1
  In  In12  1  0.655807  0.136007  0.000000  1
  In  In13  1  0.866925  0.346976  0.000000  1
  In  In14  1  0.133075  0.653024  0.000000  1
  In  In15  1  0.570160  0.715272  0.000000  1
  In  In16  1  0.429840  0.284728  0.000000  1
  In  In17  1  0.718534  0.570858  0.000000  1
  In  In18  1  0.281466  0.429142  0.000000  1
  In  In19  1  0.000000  0.000000  0.000000  1
  Ni  Ni20  1  0.952388  0.745086  0.000000  1
  Ni  Ni21  1  0.047612  0.254914  0.000000  1
  Au  Au22  1  0.755210  0.953533  0.000000  1
  Au  Au23  1  0.244790  0.046467  0.000000  1
