# generated using pymatgen
data_Tb3YAl18Rh5Au
_symmetry_space_group_name_H-M   'P 1'
_cell_length_a   7.59608462
_cell_length_b   7.59605339
_cell_length_c   9.48918400
_cell_angle_alpha   89.94459676
_cell_angle_beta   89.94294395
_cell_angle_gamma   119.49900635
_symmetry_Int_Tables_number   1
_chemical_formula_structural   Tb3YAl18Rh5Au
_chemical_formula_sum   'Tb3 Y1 Al18 Rh5 Au1'
_cell_volume   476.54825463
_cell_formula_units_Z   1
loop_
 _symmetry_equiv_pos_site_id
 _symmetry_equiv_pos_as_xyz
  1  'x, y, z'
loop_
 _atom_site_type_symbol
 _atom_site_label
 _atom_site_symmetry_multiplicity
 _atom_site_fract_x
 _atom_site_fract_y
 _atom_site_fract_z
 _atom_site_occupancy
  Tb  Tb0  1  0.004446  0.326190  0.749435  1
  Tb  Tb1  1  0.673817  0.995545  0.250568  1
  Tb  Tb2  1  0.326187  0.004443  0.749436  1
  Y  Y3  1  0.995544  0.673812  0.250579  1
  Al  Al4  1  0.135055  0.135057  0.257128  1
  Al  Al5  1  0.864938  0.864933  0.742875  1
  Al  Al6  1  0.001465  0.344279  0.078959  1
  Al  Al7  1  0.998537  0.655737  0.921042  1
  Al  Al8  1  0.000368  0.664240  0.573871  1
  Al  Al9  1  0.335741  0.999619  0.426118  1
  Al  Al10  1  0.999633  0.335771  0.426121  1
  Al  Al11  1  0.664240  0.000366  0.573883  1
  Al  Al12  1  0.655733  0.998535  0.921034  1
  Al  Al13  1  0.344253  0.001455  0.078956  1
  Al  Al14  1  0.333305  0.333303  0.550636  1
  Al  Al15  1  0.666710  0.666698  0.449360  1
  Al  Al16  1  0.658425  0.658416  0.055552  1
  Al  Al17  1  0.341585  0.341584  0.944448  1
  Al  Al18  1  0.339448  0.550698  0.251260  1
  Al  Al19  1  0.660553  0.449317  0.748739  1
  Al  Al20  1  0.550700  0.339447  0.251262  1
  Al  Al21  1  0.449314  0.660552  0.748739  1
  Rh  Rh22  1  0.671750  0.328256  0.000011  1
  Rh  Rh23  1  0.328249  0.671745  0.000008  1
  Rh  Rh24  1  0.328227  0.671773  0.499993  1
  Rh  Rh25  1  0.671775  0.328225  0.499992  1
  Rh  Rh26  1  0.000002  0.000005  0.499994  1
  Au  Au27  1  0.000001  0.999998  0.000002  1
