# generated using pymatgen
data_ErGaCu3Au
_symmetry_space_group_name_H-M   'P 1'
_cell_length_a   5.09148444
_cell_length_b   5.09148464
_cell_length_c   5.03686390
_cell_angle_alpha   59.64062098
_cell_angle_beta   59.64061831
_cell_angle_gamma   60.00000319
_symmetry_Int_Tables_number   1
_chemical_formula_structural   ErGaCu3Au
_chemical_formula_sum   'Er1 Ga1 Cu3 Au1'
_cell_volume   91.82342819
_cell_formula_units_Z   1
loop_
 _symmetry_equiv_pos_site_id
 _symmetry_equiv_pos_as_xyz
  1  'x, y, z'
loop_
 _atom_site_type_symbol
 _atom_site_label
 _atom_site_symmetry_multiplicity
 _atom_site_fract_x
 _atom_site_fract_y
 _atom_site_fract_z
 _atom_site_occupancy
  Er  Er0  1  0.001777  0.001777  0.994669  1
  Ga  Ga1  1  0.623066  0.623066  0.130801  1
  Cu  Cu2  1  0.623917  0.126295  0.625871  1
  Cu  Cu3  1  0.126295  0.623917  0.625871  1
  Cu  Cu4  1  0.623917  0.623917  0.625871  1
  Au  Au5  1  0.251028  0.251028  0.246917  1
