# generated using pymatgen
data_Li4As6Ir4Rh3
_symmetry_space_group_name_H-M   'P 1'
_cell_length_a   6.97360670
_cell_length_b   6.97341942
_cell_length_c   6.97360652
_cell_angle_alpha   109.44531747
_cell_angle_beta   109.33627581
_cell_angle_gamma   109.63329777
_symmetry_Int_Tables_number   1
_chemical_formula_structural   Li4As6Ir4Rh3
_chemical_formula_sum   'Li4 As6 Ir4 Rh3'
_cell_volume   261.05376271
_cell_formula_units_Z   1
loop_
 _symmetry_equiv_pos_site_id
 _symmetry_equiv_pos_as_xyz
  1  'x, y, z'
loop_
 _atom_site_type_symbol
 _atom_site_label
 _atom_site_symmetry_multiplicity
 _atom_site_fract_x
 _atom_site_fract_y
 _atom_site_fract_z
 _atom_site_occupancy
  Li  Li0  1  0.500107  0.499503  0.500605  1
  Li  Li1  1  0.998898  0.499503  0.999396  1
  Li  Li2  1  0.499904  0.000500  0.999418  1
  Li  Li3  1  0.001082  0.000500  0.500595  1
  As  As4  1  0.687804  0.999983  0.687772  1
  As  As5  1  0.687209  0.687050  0.999841  1
  As  As6  1  0.312796  0.312721  0.999924  1
  As  As7  1  0.999912  0.687393  0.687481  1
  As  As8  1  0.000034  0.312443  0.312409  1
  As  As9  1  0.312212  0.999983  0.312180  1
  Ir  Ir10  1  0.499989  0.749115  0.249126  1
  Ir  Ir11  1  0.750580  0.249958  0.499378  1
  Ir  Ir12  1  0.249419  0.748748  0.499329  1
  Ir  Ir13  1  0.000011  0.999936  0.999925  1
  Rh  Rh14  1  0.250465  0.500898  0.751328  1
  Rh  Rh15  1  0.500006  0.250867  0.750861  1
  Rh  Rh16  1  0.749571  0.500898  0.250433  1
