# generated using pymatgen
data_Ho12TlTc3Ni2
_symmetry_space_group_name_H-M   'P 1'
_cell_length_a   8.40047515
_cell_length_b   8.40463032
_cell_length_c   8.40047500
_cell_angle_alpha   113.38745303
_cell_angle_beta   109.55624293
_cell_angle_gamma   105.54481988
_symmetry_Int_Tables_number   1
_chemical_formula_structural   Ho12TlTc3Ni2
_chemical_formula_sum   'Ho12 Tl1 Tc3 Ni2'
_cell_volume   454.54327770
_cell_formula_units_Z   1
loop_
 _symmetry_equiv_pos_site_id
 _symmetry_equiv_pos_as_xyz
  1  'x, y, z'
loop_
 _atom_site_type_symbol
 _atom_site_label
 _atom_site_symmetry_multiplicity
 _atom_site_fract_x
 _atom_site_fract_y
 _atom_site_fract_z
 _atom_site_occupancy
  Ho  Ho0  1  0.824167  0.731387  0.555629  1
  Ho  Ho1  1  0.175833  0.268613  0.444371  1
  Ho  Ho2  1  0.175759  0.731387  0.907220  1
  Ho  Ho3  1  0.824241  0.268613  0.092780  1
  Ho  Ho4  1  0.670724  0.354592  0.683868  1
  Ho  Ho5  1  0.329276  0.645408  0.316132  1
  Ho  Ho6  1  0.670627  0.986571  0.315945  1
  Ho  Ho7  1  0.329373  0.013429  0.684055  1
  Ho  Ho8  1  0.576352  0.764599  0.811811  1
  Ho  Ho9  1  0.423648  0.235401  0.188189  1
  Ho  Ho10  1  0.952789  0.764599  0.188246  1
  Ho  Ho11  1  0.047211  0.235401  0.811754  1
  Tl  Tl12  1  0.500000  0.500000  0.000000  1
  Tc  Tc13  1  0.668175  0.000000  0.668175  1
  Tc  Tc14  1  0.331825  0.000000  0.331825  1
  Tc  Tc15  1  0.000000  0.000000  0.000000  1
  Ni  Ni16  1  0.114071  0.614482  0.500412  1
  Ni  Ni17  1  0.885929  0.385518  0.499588  1
