# generated using pymatgen
data_Ho2TmAl12Os3Rh
_symmetry_space_group_name_H-M   'P 1'
_cell_length_a   8.76385900
_cell_length_b   8.76386039
_cell_length_c   9.57993200
_cell_angle_alpha   90.00000000
_cell_angle_beta   90.00000000
_cell_angle_gamma   119.65589837
_symmetry_Int_Tables_number   1
_chemical_formula_structural   Ho2TmAl12Os3Rh
_chemical_formula_sum   'Ho4 Tm2 Al24 Os6 Rh2'
_cell_volume   639.40987990
_cell_formula_units_Z   2
loop_
 _symmetry_equiv_pos_site_id
 _symmetry_equiv_pos_as_xyz
  1  'x, y, z'
loop_
 _atom_site_type_symbol
 _atom_site_label
 _atom_site_symmetry_multiplicity
 _atom_site_fract_x
 _atom_site_fract_y
 _atom_site_fract_z
 _atom_site_occupancy
  Ho  Ho0  1  0.185920  0.386379  0.250000  1
  Ho  Ho1  1  0.814080  0.613621  0.750000  1
  Ho  Ho2  1  0.613621  0.814080  0.250000  1
  Ho  Ho3  1  0.386379  0.185920  0.750000  1
  Tm  Tm4  1  0.194540  0.805460  0.250000  1
  Tm  Tm5  1  0.805460  0.194540  0.750000  1
  Al  Al6  1  0.333028  0.666972  0.023519  1
  Al  Al7  1  0.666972  0.333028  0.976481  1
  Al  Al8  1  0.666972  0.333028  0.523519  1
  Al  Al9  1  0.333028  0.666972  0.476481  1
  Al  Al10  1  0.162439  0.326023  0.577115  1
  Al  Al11  1  0.837561  0.673977  0.422885  1
  Al  Al12  1  0.673977  0.837561  0.577115  1
  Al  Al13  1  0.837561  0.673977  0.077115  1
  Al  Al14  1  0.326023  0.162439  0.422885  1
  Al  Al15  1  0.162439  0.326023  0.922885  1
  Al  Al16  1  0.164233  0.835767  0.575593  1
  Al  Al17  1  0.326023  0.162439  0.077115  1
  Al  Al18  1  0.835767  0.164233  0.424407  1
  Al  Al19  1  0.673977  0.837561  0.922885  1
  Al  Al20  1  0.835767  0.164233  0.075593  1
  Al  Al21  1  0.164233  0.835767  0.924407  1
  Al  Al22  1  0.560858  0.126542  0.250000  1
  Al  Al23  1  0.439142  0.873458  0.750000  1
  Al  Al24  1  0.873458  0.439142  0.250000  1
  Al  Al25  1  0.126542  0.560858  0.750000  1
  Al  Al26  1  0.559582  0.440418  0.250000  1
  Al  Al27  1  0.440418  0.559582  0.750000  1
  Al  Al28  1  0.998732  0.001268  0.250000  1
  Al  Al29  1  0.001268  0.998732  0.750000  1
  Os  Os30  1  0.500000  0.000000  0.000000  1
  Os  Os31  1  0.000000  0.500000  0.000000  1
  Os  Os32  1  0.500000  0.000000  0.500000  1
  Os  Os33  1  0.000000  0.500000  0.500000  1
  Os  Os34  1  0.000000  0.000000  0.000000  1
  Os  Os35  1  0.000000  0.000000  0.500000  1
  Rh  Rh36  1  0.500000  0.500000  0.000000  1
  Rh  Rh37  1  0.500000  0.500000  0.500000  1
