# generated using pymatgen
data_DyTm2GeSe2
_symmetry_space_group_name_H-M   'P 1'
_cell_length_a   7.07228744
_cell_length_b   7.07228778
_cell_length_c   7.07228700
_cell_angle_alpha   146.42491436
_cell_angle_beta   132.27751737
_cell_angle_gamma   59.60995037
_symmetry_Int_Tables_number   1
_chemical_formula_structural   DyTm2GeSe2
_chemical_formula_sum   'Dy1 Tm2 Ge1 Se2'
_cell_volume   143.44864792
_cell_formula_units_Z   1
loop_
 _symmetry_equiv_pos_site_id
 _symmetry_equiv_pos_as_xyz
  1  'x, y, z'
loop_
 _atom_site_type_symbol
 _atom_site_label
 _atom_site_symmetry_multiplicity
 _atom_site_fract_x
 _atom_site_fract_y
 _atom_site_fract_z
 _atom_site_occupancy
  Dy  Dy0  1  0.000000  0.000000  0.000000  1
  Tm  Tm1  1  0.343534  0.343534  0.000000  1
  Tm  Tm2  1  0.656466  0.656466  0.000000  1
  Ge  Ge3  1  0.500000  0.000000  0.500000  1
  Se  Se4  1  0.171707  0.671707  0.500000  1
  Se  Se5  1  0.828293  0.328293  0.500000  1
