# generated using pymatgen
data_Ho5Bi2Ir
_symmetry_space_group_name_H-M   'P 1'
_cell_length_a   7.98645300
_cell_length_b   8.99564000
_cell_length_c   12.46539500
_cell_angle_alpha   90.00000000
_cell_angle_beta   90.00000000
_cell_angle_gamma   90.00000000
_symmetry_Int_Tables_number   1
_chemical_formula_structural   Ho5Bi2Ir
_chemical_formula_sum   'Ho20 Bi8 Ir4'
_cell_volume   895.55456494
_cell_formula_units_Z   4
loop_
 _symmetry_equiv_pos_site_id
 _symmetry_equiv_pos_as_xyz
  1  'x, y, z'
loop_
 _atom_site_type_symbol
 _atom_site_label
 _atom_site_symmetry_multiplicity
 _atom_site_fract_x
 _atom_site_fract_y
 _atom_site_fract_z
 _atom_site_occupancy
  Ho  Ho0  1  0.342262  0.750000  0.705251  1
  Ho  Ho1  1  0.657738  0.250000  0.294749  1
  Ho  Ho2  1  0.842262  0.250000  0.794749  1
  Ho  Ho3  1  0.157738  0.750000  0.205251  1
  Ho  Ho4  1  0.880435  0.750000  0.806649  1
  Ho  Ho5  1  0.119565  0.250000  0.193351  1
  Ho  Ho6  1  0.380435  0.250000  0.693351  1
  Ho  Ho7  1  0.619565  0.750000  0.306649  1
  Ho  Ho8  1  0.677192  0.541838  0.564892  1
  Ho  Ho9  1  0.322808  0.458162  0.435108  1
  Ho  Ho10  1  0.177192  0.458162  0.935108  1
  Ho  Ho11  1  0.322808  0.041838  0.435108  1
  Ho  Ho12  1  0.822808  0.541838  0.064892  1
  Ho  Ho13  1  0.677192  0.958162  0.564892  1
  Ho  Ho14  1  0.822808  0.958162  0.064892  1
  Ho  Ho15  1  0.177192  0.041838  0.935108  1
  Ho  Ho16  1  0.053281  0.750000  0.498853  1
  Ho  Ho17  1  0.946719  0.250000  0.501147  1
  Ho  Ho18  1  0.553281  0.250000  0.001147  1
  Ho  Ho19  1  0.446719  0.750000  0.998853  1
  Bi  Bi20  1  0.570593  0.509931  0.827141  1
  Bi  Bi21  1  0.429407  0.490069  0.172859  1
  Bi  Bi22  1  0.070593  0.490069  0.672859  1
  Bi  Bi23  1  0.429407  0.009931  0.172859  1
  Bi  Bi24  1  0.929407  0.509931  0.327141  1
  Bi  Bi25  1  0.570593  0.990069  0.827141  1
  Bi  Bi26  1  0.929407  0.990069  0.327141  1
  Bi  Bi27  1  0.070593  0.009931  0.672859  1
  Ir  Ir28  1  0.069951  0.750000  0.990930  1
  Ir  Ir29  1  0.930049  0.250000  0.009070  1
  Ir  Ir30  1  0.569951  0.250000  0.509070  1
  Ir  Ir31  1  0.430049  0.750000  0.490930  1
