# generated using pymatgen
data_Er3Al12FeCo3
_symmetry_space_group_name_H-M   'P 1'
_cell_length_a   8.63859300
_cell_length_b   8.63859189
_cell_length_c   9.25724000
_cell_angle_alpha   90.00000000
_cell_angle_beta   90.00000000
_cell_angle_gamma   120.00000041
_symmetry_Int_Tables_number   1
_chemical_formula_structural   Er3Al12FeCo3
_chemical_formula_sum   'Er6 Al24 Fe2 Co6'
_cell_volume   598.27123662
_cell_formula_units_Z   2
loop_
 _symmetry_equiv_pos_site_id
 _symmetry_equiv_pos_as_xyz
  1  'x, y, z'
loop_
 _atom_site_type_symbol
 _atom_site_label
 _atom_site_symmetry_multiplicity
 _atom_site_fract_x
 _atom_site_fract_y
 _atom_site_fract_z
 _atom_site_occupancy
  Er  Er0  1  0.193939  0.387880  0.250000  1
  Er  Er1  1  0.806061  0.612120  0.750000  1
  Er  Er2  1  0.612120  0.806061  0.250000  1
  Er  Er3  1  0.387880  0.193939  0.750000  1
  Er  Er4  1  0.193939  0.806061  0.250000  1
  Er  Er5  1  0.806061  0.193939  0.750000  1
  Al  Al6  1  0.333333  0.666667  0.018068  1
  Al  Al7  1  0.666667  0.333333  0.981932  1
  Al  Al8  1  0.666667  0.333333  0.518068  1
  Al  Al9  1  0.333333  0.666667  0.481932  1
  Al  Al10  1  0.161910  0.323821  0.575448  1
  Al  Al11  1  0.838090  0.676179  0.424552  1
  Al  Al12  1  0.676179  0.838090  0.575448  1
  Al  Al13  1  0.838090  0.676179  0.075448  1
  Al  Al14  1  0.323821  0.161910  0.424552  1
  Al  Al15  1  0.161910  0.323821  0.924552  1
  Al  Al16  1  0.161910  0.838090  0.575448  1
  Al  Al17  1  0.323821  0.161910  0.075448  1
  Al  Al18  1  0.838090  0.161910  0.424552  1
  Al  Al19  1  0.676179  0.838090  0.924552  1
  Al  Al20  1  0.838090  0.161910  0.075448  1
  Al  Al21  1  0.161910  0.838090  0.924552  1
  Al  Al22  1  0.559544  0.119088  0.250000  1
  Al  Al23  1  0.440456  0.880912  0.750000  1
  Al  Al24  1  0.880912  0.440456  0.250000  1
  Al  Al25  1  0.119088  0.559544  0.750000  1
  Al  Al26  1  0.559544  0.440456  0.250000  1
  Al  Al27  1  0.440456  0.559544  0.750000  1
  Al  Al28  1  0.000000  0.000000  0.250000  1
  Al  Al29  1  0.000000  0.000000  0.750000  1
  Fe  Fe30  1  0.000000  0.000000  0.000000  1
  Fe  Fe31  1  0.000000  0.000000  0.500000  1
  Co  Co32  1  0.500000  0.000000  0.000000  1
  Co  Co33  1  0.000000  0.500000  0.000000  1
  Co  Co34  1  0.500000  0.000000  0.500000  1
  Co  Co35  1  0.500000  0.500000  0.000000  1
  Co  Co36  1  0.000000  0.500000  0.500000  1
  Co  Co37  1  0.500000  0.500000  0.500000  1
