# generated using pymatgen
data_CeBeInF6
_symmetry_space_group_name_H-M   'P 1'
_cell_length_a   6.15338600
_cell_length_b   6.61839574
_cell_length_c   7.52921700
_cell_angle_alpha   66.38233569
_cell_angle_beta   90.00000000
_cell_angle_gamma   90.00000000
_symmetry_Int_Tables_number   1
_chemical_formula_structural   CeBeInF6
_chemical_formula_sum   'Ce2 Be2 In2 F12'
_cell_volume   280.94777752
_cell_formula_units_Z   2
loop_
 _symmetry_equiv_pos_site_id
 _symmetry_equiv_pos_as_xyz
  1  'x, y, z'
loop_
 _atom_site_type_symbol
 _atom_site_label
 _atom_site_symmetry_multiplicity
 _atom_site_fract_x
 _atom_site_fract_y
 _atom_site_fract_z
 _atom_site_occupancy
  Ce  Ce0  1  0.250000  0.387539  0.191892  1
  Ce  Ce1  1  0.750000  0.612461  0.808108  1
  Be  Be2  1  0.250000  0.767064  0.467989  1
  Be  Be3  1  0.750000  0.232936  0.532011  1
  In  In4  1  0.250000  0.070403  0.812467  1
  In  In5  1  0.750000  0.929597  0.187533  1
  F  F6  1  0.454800  0.758825  0.594190  1
  F  F7  1  0.545200  0.241175  0.405810  1
  F  F8  1  0.954800  0.241175  0.405810  1
  F  F9  1  0.045200  0.758825  0.594190  1
  F  F10  1  0.250000  0.570769  0.405264  1
  F  F11  1  0.750000  0.429231  0.594736  1
  F  F12  1  0.497274  0.689778  0.025282  1
  F  F13  1  0.502726  0.310222  0.974718  1
  F  F14  1  0.997274  0.310222  0.974718  1
  F  F15  1  0.002726  0.689778  0.025282  1
  F  F16  1  0.250000  0.986798  0.279749  1
  F  F17  1  0.750000  0.013202  0.720251  1
