# generated using pymatgen
data_Tb2Nd3Er5(In2Pd)4
_symmetry_space_group_name_H-M   'P 1'
_cell_length_a   3.65304500
_cell_length_b   8.22755627
_cell_length_c   18.34096203
_cell_angle_alpha   90.06120612
_cell_angle_beta   90.00000000
_cell_angle_gamma   90.00000000
_symmetry_Int_Tables_number   1
_chemical_formula_structural   Tb2Nd3Er5(In2Pd)4
_chemical_formula_sum   'Tb2 Nd3 Er5 In8 Pd4'
_cell_volume   551.24891462
_cell_formula_units_Z   1
loop_
 _symmetry_equiv_pos_site_id
 _symmetry_equiv_pos_as_xyz
  1  'x, y, z'
loop_
 _atom_site_type_symbol
 _atom_site_label
 _atom_site_symmetry_multiplicity
 _atom_site_fract_x
 _atom_site_fract_y
 _atom_site_fract_z
 _atom_site_occupancy
  Tb  Tb0  1  0.000000  0.262239  0.715979  1
  Tb  Tb1  1  0.000000  0.761521  0.784094  1
  Nd  Nd2  1  0.000000  0.502127  0.499146  1
  Nd  Nd3  1  0.000000  0.997847  0.998892  1
  Nd  Nd4  1  0.000000  0.737334  0.284957  1
  Er  Er5  1  0.000000  0.236924  0.215949  1
  Er  Er6  1  0.000000  0.618043  0.084882  1
  Er  Er7  1  0.000000  0.378755  0.914728  1
  Er  Er8  1  0.000000  0.881434  0.586338  1
  Er  Er9  1  0.000000  0.122881  0.415684  1
  In  In10  1  0.500000  0.695184  0.934566  1
  In  In11  1  0.500000  0.299206  0.065605  1
  In  In12  1  0.500000  0.809711  0.437690  1
  In  In13  1  0.500000  0.198706  0.565670  1
  In  In14  1  0.500000  0.585704  0.653155  1
  In  In15  1  0.500000  0.408728  0.345853  1
  In  In16  1  0.500000  0.918990  0.151750  1
  In  In17  1  0.500000  0.085214  0.846628  1
  Pd  Pd18  1  0.500000  0.514292  0.193337  1
  Pd  Pd19  1  0.500000  0.474637  0.805003  1
  Pd  Pd20  1  0.500000  0.975869  0.695838  1
  Pd  Pd21  1  0.500000  0.034655  0.304256  1
