# generated using pymatgen
data_Dy3Lu9Ni4
_symmetry_space_group_name_H-M   'P 1'
_cell_length_a   6.24792887
_cell_length_b   6.71183295
_cell_length_c   9.36807100
_cell_angle_alpha   90.00000000
_cell_angle_beta   90.00000000
_cell_angle_gamma   90.00017054
_symmetry_Int_Tables_number   1
_chemical_formula_structural   Dy3Lu9Ni4
_chemical_formula_sum   'Dy3 Lu9 Ni4'
_cell_volume   392.85057121
_cell_formula_units_Z   1
loop_
 _symmetry_equiv_pos_site_id
 _symmetry_equiv_pos_as_xyz
  1  'x, y, z'
loop_
 _atom_site_type_symbol
 _atom_site_label
 _atom_site_symmetry_multiplicity
 _atom_site_fract_x
 _atom_site_fract_y
 _atom_site_fract_z
 _atom_site_occupancy
  Dy  Dy0  1  0.635740  0.030363  0.250000  1
  Dy  Dy1  1  0.364845  0.969862  0.750000  1
  Dy  Dy2  1  0.135703  0.468678  0.750000  1
  Lu  Lu3  1  0.864593  0.532085  0.250000  1
  Lu  Lu4  1  0.179539  0.178709  0.066876  1
  Lu  Lu5  1  0.820325  0.821003  0.934769  1
  Lu  Lu6  1  0.680704  0.322360  0.934914  1
  Lu  Lu7  1  0.820325  0.821003  0.565231  1
  Lu  Lu8  1  0.318478  0.677850  0.066324  1
  Lu  Lu9  1  0.179539  0.178709  0.433124  1
  Lu  Lu10  1  0.318478  0.677850  0.433676  1
  Lu  Lu11  1  0.680704  0.322360  0.565086  1
  Ni  Ni12  1  0.448930  0.394766  0.250000  1
  Ni  Ni13  1  0.555318  0.606778  0.750000  1
  Ni  Ni14  1  0.943538  0.106556  0.750000  1
  Ni  Ni15  1  0.053244  0.891070  0.250000  1
