# generated using pymatgen
data_Tb2NdHo5(CdPt)2
_symmetry_space_group_name_H-M   'P 1'
_cell_length_a   9.70962318
_cell_length_b   9.70962384
_cell_length_c   9.69092500
_cell_angle_alpha   60.06368127
_cell_angle_beta   60.06367905
_cell_angle_gamma   59.87263710
_symmetry_Int_Tables_number   1
_chemical_formula_structural   Tb2NdHo5(CdPt)2
_chemical_formula_sum   'Tb4 Nd2 Ho10 Cd4 Pt4'
_cell_volume   646.02867051
_cell_formula_units_Z   2
loop_
 _symmetry_equiv_pos_site_id
 _symmetry_equiv_pos_as_xyz
  1  'x, y, z'
loop_
 _atom_site_type_symbol
 _atom_site_label
 _atom_site_symmetry_multiplicity
 _atom_site_fract_x
 _atom_site_fract_y
 _atom_site_fract_z
 _atom_site_occupancy
  Tb  Tb0  1  0.938175  0.561825  0.561825  1
  Tb  Tb1  1  0.561825  0.938175  0.938175  1
  Tb  Tb2  1  0.561825  0.938175  0.561825  1
  Tb  Tb3  1  0.938175  0.561825  0.938175  1
  Nd  Nd4  1  0.565463  0.565463  0.934537  1
  Nd  Nd5  1  0.934537  0.934537  0.565463  1
  Ho  Ho6  1  0.351214  0.351214  0.351581  1
  Ho  Ho7  1  0.351214  0.351214  0.945990  1
  Ho  Ho8  1  0.351581  0.945990  0.351214  1
  Ho  Ho9  1  0.945990  0.351581  0.351214  1
  Ho  Ho10  1  0.811185  0.188815  0.188815  1
  Ho  Ho11  1  0.188815  0.811185  0.811185  1
  Ho  Ho12  1  0.188815  0.811185  0.188815  1
  Ho  Ho13  1  0.811185  0.188815  0.811185  1
  Ho  Ho14  1  0.188914  0.188914  0.811086  1
  Ho  Ho15  1  0.811086  0.811086  0.188914  1
  Cd  Cd16  1  0.581665  0.581665  0.578929  1
  Cd  Cd17  1  0.581665  0.581665  0.257744  1
  Cd  Cd18  1  0.578929  0.257744  0.581665  1
  Cd  Cd19  1  0.257744  0.578929  0.581665  1
  Pt  Pt20  1  0.143908  0.143908  0.141408  1
  Pt  Pt21  1  0.143908  0.143908  0.570777  1
  Pt  Pt22  1  0.141408  0.570777  0.143908  1
  Pt  Pt23  1  0.570777  0.141408  0.143908  1
