# generated using pymatgen
data_Tb2Dy3NbRuO12
_symmetry_space_group_name_H-M   'P 1'
_cell_length_a   6.83909947
_cell_length_b   6.84143252
_cell_length_c   7.51189210
_cell_angle_alpha   73.96224940
_cell_angle_beta   73.95560932
_cell_angle_gamma   50.62550021
_symmetry_Int_Tables_number   1
_chemical_formula_structural   Tb2Dy3NbRuO12
_chemical_formula_sum   'Tb2 Dy3 Nb1 Ru1 O12'
_cell_volume   258.69184200
_cell_formula_units_Z   1
loop_
 _symmetry_equiv_pos_site_id
 _symmetry_equiv_pos_as_xyz
  1  'x, y, z'
loop_
 _atom_site_type_symbol
 _atom_site_label
 _atom_site_symmetry_multiplicity
 _atom_site_fract_x
 _atom_site_fract_y
 _atom_site_fract_z
 _atom_site_occupancy
  Tb  Tb0  1  0.309373  0.298545  0.860727  1
  Tb  Tb1  1  0.318415  0.305321  0.325233  1
  Dy  Dy2  1  0.694547  0.681590  0.675293  1
  Dy  Dy3  1  0.701447  0.690698  0.138944  1
  Dy  Dy4  1  0.000992  0.998841  0.000026  1
  Nb  Nb5  1  0.208233  0.791898  0.499964  1
  Ru  Ru6  1  0.753172  0.246992  0.499977  1
  O  O7  1  0.409423  0.896789  0.924905  1
  O  O8  1  0.580898  0.089442  0.584361  1
  O  O9  1  0.908483  0.420876  0.415704  1
  O  O10  1  0.100499  0.592417  0.075171  1
  O  O11  1  0.991926  0.007724  0.299241  1
  O  O12  1  0.495915  0.504713  0.683795  1
  O  O13  1  0.906129  0.402888  0.925647  1
  O  O14  1  0.100126  0.568947  0.583482  1
  O  O15  1  0.432747  0.897985  0.416572  1
  O  O16  1  0.599033  0.091054  0.074455  1
  O  O17  1  0.496174  0.505019  0.315846  1
  O  O18  1  0.992466  0.008263  0.700657  1
