# generated using pymatgen
data_Ho11Er9(Bi2Ir)4
_symmetry_space_group_name_H-M   'P 1'
_cell_length_a   7.93626405
_cell_length_b   8.97436800
_cell_length_c   12.49028607
_cell_angle_alpha   90.00000000
_cell_angle_beta   89.98750012
_cell_angle_gamma   90.00000000
_symmetry_Int_Tables_number   1
_chemical_formula_structural   Ho11Er9(Bi2Ir)4
_chemical_formula_sum   'Ho11 Er9 Bi8 Ir4'
_cell_volume   889.59505066
_cell_formula_units_Z   1
loop_
 _symmetry_equiv_pos_site_id
 _symmetry_equiv_pos_as_xyz
  1  'x, y, z'
loop_
 _atom_site_type_symbol
 _atom_site_label
 _atom_site_symmetry_multiplicity
 _atom_site_fract_x
 _atom_site_fract_y
 _atom_site_fract_z
 _atom_site_occupancy
  Ho  Ho0  1  0.661365  0.750000  0.706492  1
  Ho  Ho1  1  0.338726  0.250000  0.293443  1
  Ho  Ho2  1  0.161315  0.250000  0.793417  1
  Ho  Ho3  1  0.838700  0.750000  0.206638  1
  Ho  Ho4  1  0.128333  0.750000  0.811114  1
  Ho  Ho5  1  0.871660  0.250000  0.188895  1
  Ho  Ho6  1  0.628300  0.250000  0.688858  1
  Ho  Ho7  1  0.371730  0.750000  0.311168  1
  Ho  Ho8  1  0.555224  0.750000  0.997987  1
  Ho  Ho9  1  0.444833  0.250000  0.001998  1
  Ho  Ho10  1  0.055261  0.250000  0.502019  1
  Er  Er11  1  0.944273  0.750000  0.497982  1
  Er  Er12  1  0.826843  0.459046  0.932060  1
  Er  Er13  1  0.173179  0.541012  0.067953  1
  Er  Er14  1  0.326611  0.540997  0.567981  1
  Er  Er15  1  0.173179  0.958988  0.067953  1
  Er  Er16  1  0.673410  0.459198  0.432016  1
  Er  Er17  1  0.826843  0.040954  0.932060  1
  Er  Er18  1  0.673410  0.040802  0.432016  1
  Er  Er19  1  0.326611  0.959003  0.567981  1
  Bi  Bi20  1  0.936742  0.006886  0.672699  1
  Bi  Bi21  1  0.063192  0.992880  0.327287  1
  Bi  Bi22  1  0.436755  0.992981  0.827180  1
  Bi  Bi23  1  0.063192  0.507120  0.327287  1
  Bi  Bi24  1  0.563272  0.006991  0.172822  1
  Bi  Bi25  1  0.936742  0.493114  0.672699  1
  Bi  Bi26  1  0.563272  0.493009  0.172822  1
  Bi  Bi27  1  0.436755  0.507019  0.827180  1
  Ir  Ir28  1  0.930452  0.750000  0.992431  1
  Ir  Ir29  1  0.069564  0.250000  0.007601  1
  Ir  Ir30  1  0.430473  0.250000  0.507531  1
  Ir  Ir31  1  0.569782  0.750000  0.492430  1
