# generated using pymatgen
data_Sm6Zn23S
_symmetry_space_group_name_H-M   'P 1'
_cell_length_a   9.12366194
_cell_length_b   9.12366040
_cell_length_c   9.12366000
_cell_angle_alpha   59.99999421
_cell_angle_beta   59.99999979
_cell_angle_gamma   59.99999638
_symmetry_Int_Tables_number   1
_chemical_formula_structural   Sm6Zn23S
_chemical_formula_sum   'Sm6 Zn23 S1'
_cell_volume   537.02234919
_cell_formula_units_Z   1
loop_
 _symmetry_equiv_pos_site_id
 _symmetry_equiv_pos_as_xyz
  1  'x, y, z'
loop_
 _atom_site_type_symbol
 _atom_site_label
 _atom_site_symmetry_multiplicity
 _atom_site_fract_x
 _atom_site_fract_y
 _atom_site_fract_z
 _atom_site_occupancy
  Sm  Sm0  1  0.714907  0.285093  0.285093  1
  Sm  Sm1  1  0.285093  0.714907  0.714907  1
  Sm  Sm2  1  0.285093  0.714907  0.285093  1
  Sm  Sm3  1  0.714907  0.285093  0.714907  1
  Sm  Sm4  1  0.285093  0.285093  0.714907  1
  Sm  Sm5  1  0.714907  0.714907  0.285093  1
  Zn  Zn6  1  0.125194  0.125194  0.125194  1
  Zn  Zn7  1  0.874806  0.874806  0.874806  1
  Zn  Zn8  1  0.125194  0.125194  0.624420  1
  Zn  Zn9  1  0.125194  0.624420  0.125194  1
  Zn  Zn10  1  0.874806  0.874806  0.375580  1
  Zn  Zn11  1  0.874806  0.375580  0.874806  1
  Zn  Zn12  1  0.624420  0.125194  0.125194  1
  Zn  Zn13  1  0.375580  0.874806  0.874806  1
  Zn  Zn14  1  0.500000  0.000000  0.000000  1
  Zn  Zn15  1  0.000000  0.500000  0.500000  1
  Zn  Zn16  1  0.000000  0.500000  0.000000  1
  Zn  Zn17  1  0.500000  0.000000  0.500000  1
  Zn  Zn18  1  0.000000  0.000000  0.500000  1
  Zn  Zn19  1  0.500000  0.500000  0.000000  1
  Zn  Zn20  1  0.327633  0.327633  0.327633  1
  Zn  Zn21  1  0.672367  0.672367  0.672367  1
  Zn  Zn22  1  0.327633  0.327633  0.017101  1
  Zn  Zn23  1  0.327633  0.017101  0.327633  1
  Zn  Zn24  1  0.672367  0.672367  0.982899  1
  Zn  Zn25  1  0.672367  0.982899  0.672367  1
  Zn  Zn26  1  0.017101  0.327633  0.327633  1
  Zn  Zn27  1  0.982899  0.672367  0.672367  1
  Zn  Zn28  1  0.000000  0.000000  0.000000  1
  S  S29  1  0.500000  0.500000  0.500000  1
