# generated using pymatgen
data_Ta3BrO7
_symmetry_space_group_name_H-M   'P 1'
_cell_length_a   3.90802600
_cell_length_b   11.07918000
_cell_length_c   15.86173600
_cell_angle_alpha   90.00000000
_cell_angle_beta   90.00000000
_cell_angle_gamma   90.00000000
_symmetry_Int_Tables_number   1
_chemical_formula_structural   Ta3BrO7
_chemical_formula_sum   'Ta12 Br4 O28'
_cell_volume   686.77705954
_cell_formula_units_Z   4
loop_
 _symmetry_equiv_pos_site_id
 _symmetry_equiv_pos_as_xyz
  1  'x, y, z'
loop_
 _atom_site_type_symbol
 _atom_site_label
 _atom_site_symmetry_multiplicity
 _atom_site_fract_x
 _atom_site_fract_y
 _atom_site_fract_z
 _atom_site_occupancy
  Ta  Ta0  1  0.500775  0.030962  0.164515  1
  Ta  Ta1  1  0.031758  0.250000  0.475667  1
  Ta  Ta2  1  0.468242  0.250000  0.975667  1
  Ta  Ta3  1  0.968242  0.750000  0.524333  1
  Ta  Ta4  1  0.531758  0.750000  0.024333  1
  Ta  Ta5  1  0.000775  0.969038  0.335485  1
  Ta  Ta6  1  0.499225  0.530962  0.835485  1
  Ta  Ta7  1  0.999225  0.469038  0.664515  1
  Ta  Ta8  1  0.499225  0.969038  0.835485  1
  Ta  Ta9  1  0.999225  0.030962  0.664515  1
  Ta  Ta10  1  0.500775  0.469038  0.164515  1
  Ta  Ta11  1  0.000775  0.530962  0.335485  1
  Br  Br12  1  0.009409  0.750000  0.253994  1
  Br  Br13  1  0.509409  0.250000  0.246006  1
  Br  Br14  1  0.990591  0.250000  0.746006  1
  Br  Br15  1  0.490591  0.750000  0.753994  1
  O  O16  1  0.007309  0.125284  0.568962  1
  O  O17  1  0.511891  0.250000  0.476651  1
  O  O18  1  0.988109  0.250000  0.976651  1
  O  O19  1  0.488109  0.750000  0.523349  1
  O  O20  1  0.493218  0.117049  0.889937  1
  O  O21  1  0.993218  0.882951  0.610063  1
  O  O22  1  0.506782  0.617049  0.110063  1
  O  O23  1  0.006782  0.382951  0.389937  1
  O  O24  1  0.506782  0.882951  0.110063  1
  O  O25  1  0.006782  0.117049  0.389937  1
  O  O26  1  0.493218  0.382951  0.889937  1
  O  O27  1  0.993218  0.617049  0.610063  1
  O  O28  1  0.002291  0.474864  0.200116  1
  O  O29  1  0.502291  0.525136  0.299884  1
  O  O30  1  0.997709  0.974864  0.799884  1
  O  O31  1  0.492691  0.125284  0.068962  1
  O  O32  1  0.997709  0.525136  0.799884  1
  O  O33  1  0.497709  0.474864  0.700116  1
  O  O34  1  0.002291  0.025136  0.200116  1
  O  O35  1  0.502291  0.974864  0.299884  1
  O  O36  1  0.992691  0.625284  0.431038  1
  O  O37  1  0.492691  0.374716  0.068962  1
  O  O38  1  0.497709  0.025136  0.700116  1
  O  O39  1  0.507309  0.874716  0.931038  1
  O  O40  1  0.007309  0.374716  0.568962  1
  O  O41  1  0.507309  0.625284  0.931038  1
  O  O42  1  0.992691  0.874716  0.431038  1
  O  O43  1  0.011891  0.750000  0.023349  1
