# generated using pymatgen
data_HoTm2Mn5(Co2P3)2
_symmetry_space_group_name_H-M   'P 1'
_cell_length_a   3.63017000
_cell_length_b   10.75491900
_cell_length_c   12.30472200
_cell_angle_alpha   90.00000000
_cell_angle_beta   90.00000000
_cell_angle_gamma   90.00000000
_symmetry_Int_Tables_number   1
_chemical_formula_structural   HoTm2Mn5(Co2P3)2
_chemical_formula_sum   'Ho2 Tm4 Mn10 Co8 P12'
_cell_volume   480.40322416
_cell_formula_units_Z   2
loop_
 _symmetry_equiv_pos_site_id
 _symmetry_equiv_pos_as_xyz
  1  'x, y, z'
loop_
 _atom_site_type_symbol
 _atom_site_label
 _atom_site_symmetry_multiplicity
 _atom_site_fract_x
 _atom_site_fract_y
 _atom_site_fract_z
 _atom_site_occupancy
  Ho  Ho0  1  0.000000  0.500000  0.532033  1
  Ho  Ho1  1  0.500000  0.000000  0.467967  1
  Tm  Tm2  1  0.500000  0.822452  0.200660  1
  Tm  Tm3  1  0.500000  0.177548  0.200660  1
  Tm  Tm4  1  0.000000  0.677548  0.799340  1
  Tm  Tm5  1  0.000000  0.322452  0.799340  1
  Mn  Mn6  1  0.500000  0.297628  0.430942  1
  Mn  Mn7  1  0.500000  0.702372  0.430942  1
  Mn  Mn8  1  0.000000  0.202372  0.569058  1
  Mn  Mn9  1  0.000000  0.797628  0.569058  1
  Mn  Mn10  1  0.500000  0.881811  0.707402  1
  Mn  Mn11  1  0.500000  0.118189  0.707402  1
  Mn  Mn12  1  0.000000  0.618189  0.292598  1
  Mn  Mn13  1  0.000000  0.381811  0.292598  1
  Mn  Mn14  1  0.500000  0.500000  0.159453  1
  Mn  Mn15  1  0.000000  0.000000  0.840547  1
  Co  Co16  1  0.000000  0.500000  0.989839  1
  Co  Co17  1  0.500000  0.000000  0.010161  1
  Co  Co18  1  0.500000  0.333199  0.995568  1
  Co  Co19  1  0.500000  0.666801  0.995568  1
  Co  Co20  1  0.000000  0.166801  0.004432  1
  Co  Co21  1  0.000000  0.833199  0.004432  1
  Co  Co22  1  0.500000  0.500000  0.710719  1
  Co  Co23  1  0.000000  0.000000  0.289281  1
  P  P24  1  0.500000  0.317799  0.621852  1
  P  P25  1  0.500000  0.682201  0.621852  1
  P  P26  1  0.000000  0.182201  0.378148  1
  P  P27  1  0.000000  0.817799  0.378148  1
  P  P28  1  0.500000  0.500000  0.886999  1
  P  P29  1  0.000000  0.000000  0.113001  1
  P  P30  1  0.500000  0.844297  0.892668  1
  P  P31  1  0.500000  0.155703  0.892668  1
  P  P32  1  0.000000  0.655703  0.107332  1
  P  P33  1  0.000000  0.344297  0.107332  1
  P  P34  1  0.500000  0.500000  0.356450  1
  P  P35  1  0.000000  0.000000  0.643550  1
