# generated using pymatgen
data_DyY(CoH4)2
_symmetry_space_group_name_H-M   'P 1'
_cell_length_a   6.03305622
_cell_length_b   6.03305691
_cell_length_c   4.71781300
_cell_angle_alpha   90.00000000
_cell_angle_beta   90.00000000
_cell_angle_gamma   145.49870830
_symmetry_Int_Tables_number   1
_chemical_formula_structural   DyY(CoH4)2
_chemical_formula_sum   'Dy1 Y1 Co2 H8'
_cell_volume   97.26526825
_cell_formula_units_Z   1
loop_
 _symmetry_equiv_pos_site_id
 _symmetry_equiv_pos_as_xyz
  1  'x, y, z'
loop_
 _atom_site_type_symbol
 _atom_site_label
 _atom_site_symmetry_multiplicity
 _atom_site_fract_x
 _atom_site_fract_y
 _atom_site_fract_z
 _atom_site_occupancy
  Dy  Dy0  1  0.867635  0.132365  0.750000  1
  Y  Y1  1  0.132636  0.867364  0.250000  1
  Co  Co2  1  0.597373  0.402627  0.750000  1
  Co  Co3  1  0.402494  0.597506  0.250000  1
  H  H4  1  0.088955  0.911045  0.750000  1
  H  H5  1  0.910717  0.089283  0.250000  1
  H  H6  1  0.692908  0.307092  0.502256  1
  H  H7  1  0.307425  0.692575  0.498490  1
  H  H8  1  0.692908  0.307092  0.997744  1
  H  H9  1  0.307425  0.692575  0.001510  1
  H  H10  1  0.499762  0.500238  0.999802  1
  H  H11  1  0.499762  0.500238  0.500198  1
