# generated using pymatgen
data_RbIn6Ag3Au
_symmetry_space_group_name_H-M   'P 1'
_cell_length_a   8.32460700
_cell_length_b   8.32460800
_cell_length_c   4.62392700
_cell_angle_alpha   90.00000000
_cell_angle_beta   90.00000000
_cell_angle_gamma   120.00000002
_symmetry_Int_Tables_number   1
_chemical_formula_structural   RbIn6Ag3Au
_chemical_formula_sum   'Rb1 In6 Ag3 Au1'
_cell_volume   277.50392644
_cell_formula_units_Z   1
loop_
 _symmetry_equiv_pos_site_id
 _symmetry_equiv_pos_as_xyz
  1  'x, y, z'
loop_
 _atom_site_type_symbol
 _atom_site_label
 _atom_site_symmetry_multiplicity
 _atom_site_fract_x
 _atom_site_fract_y
 _atom_site_fract_z
 _atom_site_occupancy
  Rb  Rb0  1  0.000000  0.000000  0.000000  1
  In  In1  1  0.533212  0.466788  0.000000  1
  In  In2  1  0.200413  0.799587  0.500000  1
  In  In3  1  0.533212  0.066424  0.000000  1
  In  In4  1  0.200413  0.400825  0.500000  1
  In  In5  1  0.933576  0.466788  0.000000  1
  In  In6  1  0.599175  0.799587  0.500000  1
  Ag  Ag7  1  0.791390  0.208610  0.500000  1
  Ag  Ag8  1  0.791390  0.582780  0.500000  1
  Ag  Ag9  1  0.417220  0.208610  0.500000  1
  Au  Au10  1  0.333333  0.666667  0.000000  1
