# generated using pymatgen
data_Er6Lu2Ti11Si16Hg
_symmetry_space_group_name_H-M   'P 1'
_cell_length_a   7.04354793
_cell_length_b   7.04452488
_cell_length_c   12.85065964
_cell_angle_alpha   90.13530608
_cell_angle_beta   89.90887808
_cell_angle_gamma   89.64629988
_symmetry_Int_Tables_number   1
_chemical_formula_structural   Er6Lu2Ti11Si16Hg
_chemical_formula_sum   'Er6 Lu2 Ti11 Si16 Hg1'
_cell_volume   637.61504624
_cell_formula_units_Z   1
loop_
 _symmetry_equiv_pos_site_id
 _symmetry_equiv_pos_as_xyz
  1  'x, y, z'
loop_
 _atom_site_type_symbol
 _atom_site_label
 _atom_site_symmetry_multiplicity
 _atom_site_fract_x
 _atom_site_fract_y
 _atom_site_fract_z
 _atom_site_occupancy
  Er  Er0  1  0.501601  0.156554  0.215170  1
  Er  Er1  1  0.840556  0.497887  0.284091  1
  Er  Er2  1  0.156776  0.501819  0.784834  1
  Er  Er3  1  0.656976  0.001002  0.968381  1
  Er  Er4  1  0.001556  0.340838  0.533070  1
  Er  Er5  1  0.001057  0.657174  0.031466  1
  Lu  Lu6  1  0.341509  0.000364  0.467048  1
  Lu  Lu7  1  0.498835  0.841079  0.715697  1
  Ti  Ti8  1  0.173824  0.826291  0.250878  1
  Ti  Ti9  1  0.826027  0.173518  0.749199  1
  Ti  Ti10  1  0.671985  0.672782  0.500193  1
  Ti  Ti11  1  0.146779  0.008625  0.876524  1
  Ti  Ti12  1  0.496806  0.650031  0.122975  1
  Ti  Ti13  1  0.505599  0.351898  0.623726  1
  Ti  Ti14  1  0.649629  0.496857  0.876842  1
  Ti  Ti15  1  0.351651  0.506148  0.376399  1
  Ti  Ti16  1  0.850406  0.991307  0.374492  1
  Ti  Ti17  1  0.009030  0.146543  0.123274  1
  Ti  Ti18  1  0.991462  0.850545  0.625619  1
  Si  Si19  1  0.202736  0.132192  0.683018  1
  Si  Si20  1  0.373715  0.726252  0.925525  1
  Si  Si21  1  0.631399  0.292381  0.431839  1
  Si  Si22  1  0.725686  0.373582  0.073747  1
  Si  Si23  1  0.294024  0.633962  0.568653  1
  Si  Si24  1  0.798330  0.866173  0.182627  1
  Si  Si25  1  0.133707  0.201060  0.317176  1
  Si  Si26  1  0.865018  0.798642  0.817147  1
  Si  Si27  1  0.286999  0.933056  0.067368  1
  Si  Si28  1  0.545954  0.791633  0.315151  1
  Si  Si29  1  0.458579  0.204457  0.805109  1
  Si  Si30  1  0.790409  0.547152  0.685313  1
  Si  Si31  1  0.205896  0.458308  0.194653  1
  Si  Si32  1  0.706840  0.046603  0.563982  1
  Si  Si33  1  0.933154  0.286845  0.932487  1
  Si  Si34  1  0.048288  0.709054  0.436263  1
  Hg  Hg35  1  0.327202  0.327388  0.000063  1
