# generated using pymatgen
data_Ac6Sn9Au
_symmetry_space_group_name_H-M   'P 1'
_cell_length_a   6.88785230
_cell_length_b   6.88785378
_cell_length_c   10.92378115
_cell_angle_alpha   90.15242204
_cell_angle_beta   90.15242128
_cell_angle_gamma   102.53614053
_symmetry_Int_Tables_number   1
_chemical_formula_structural   Ac6Sn9Au
_chemical_formula_sum   'Ac6 Sn9 Au1'
_cell_volume   505.89163791
_cell_formula_units_Z   1
loop_
 _symmetry_equiv_pos_site_id
 _symmetry_equiv_pos_as_xyz
  1  'x, y, z'
loop_
 _atom_site_type_symbol
 _atom_site_label
 _atom_site_symmetry_multiplicity
 _atom_site_fract_x
 _atom_site_fract_y
 _atom_site_fract_z
 _atom_site_occupancy
  Ac  Ac0  1  0.799794  0.207231  0.000896  1
  Ac  Ac1  1  0.207231  0.799794  0.000896  1
  Ac  Ac2  1  0.203676  0.796076  0.498747  1
  Ac  Ac3  1  0.796076  0.203676  0.498747  1
  Ac  Ac4  1  0.630890  0.630890  0.249080  1
  Ac  Ac5  1  0.363549  0.363549  0.757528  1
  Sn  Sn6  1  0.082209  0.485878  0.246301  1
  Sn  Sn7  1  0.918668  0.511517  0.750089  1
  Sn  Sn8  1  0.485878  0.082208  0.246301  1
  Sn  Sn9  1  0.511517  0.918668  0.750089  1
  Sn  Sn10  1  0.033631  0.033631  0.249705  1
  Sn  Sn11  1  0.969384  0.969384  0.751596  1
  Sn  Sn12  1  0.687443  0.687443  0.951486  1
  Sn  Sn13  1  0.688077  0.688077  0.551968  1
  Sn  Sn14  1  0.311426  0.311426  0.451750  1
  Au  Au15  1  0.310548  0.310548  0.044821  1
