# generated using pymatgen
data_DyTm(NiP)2
_symmetry_space_group_name_H-M   'P 1'
_cell_length_a   3.88493600
_cell_length_b   3.88493713
_cell_length_c   15.33893900
_cell_angle_alpha   90.00000000
_cell_angle_beta   90.00000000
_cell_angle_gamma   120.00000738
_symmetry_Int_Tables_number   1
_chemical_formula_structural   DyTm(NiP)2
_chemical_formula_sum   'Dy2 Tm2 Ni4 P4'
_cell_volume   200.49049305
_cell_formula_units_Z   2
loop_
 _symmetry_equiv_pos_site_id
 _symmetry_equiv_pos_as_xyz
  1  'x, y, z'
loop_
 _atom_site_type_symbol
 _atom_site_label
 _atom_site_symmetry_multiplicity
 _atom_site_fract_x
 _atom_site_fract_y
 _atom_site_fract_z
 _atom_site_occupancy
  Dy  Dy0  1  0.000000  0.000000  0.500000  1
  Dy  Dy1  1  0.000000  0.000000  0.000000  1
  Tm  Tm2  1  0.000000  0.000000  0.250000  1
  Tm  Tm3  1  0.000000  0.000000  0.750000  1
  Ni  Ni4  1  0.333333  0.666667  0.368893  1
  Ni  Ni5  1  0.666667  0.333333  0.631107  1
  Ni  Ni6  1  0.666667  0.333333  0.868893  1
  Ni  Ni7  1  0.333333  0.666667  0.131107  1
  P  P8  1  0.333333  0.666667  0.876306  1
  P  P9  1  0.666667  0.333333  0.123694  1
  P  P10  1  0.666667  0.333333  0.376306  1
  P  P11  1  0.333333  0.666667  0.623694  1
