# generated using pymatgen
data_ErMg(Si7Ir3)2
_symmetry_space_group_name_H-M   'P 1'
_cell_length_a   8.00320636
_cell_length_b   8.00320668
_cell_length_c   8.00320649
_cell_angle_alpha   56.66816957
_cell_angle_beta   56.66816480
_cell_angle_gamma   56.66817159
_symmetry_Int_Tables_number   1
_chemical_formula_structural   ErMg(Si7Ir3)2
_chemical_formula_sum   'Er1 Mg1 Si14 Ir6'
_cell_volume   334.58222816
_cell_formula_units_Z   1
loop_
 _symmetry_equiv_pos_site_id
 _symmetry_equiv_pos_as_xyz
  1  'x, y, z'
loop_
 _atom_site_type_symbol
 _atom_site_label
 _atom_site_symmetry_multiplicity
 _atom_site_fract_x
 _atom_site_fract_y
 _atom_site_fract_z
 _atom_site_occupancy
  Er  Er0  1  0.000000  0.000000  0.000000  1
  Mg  Mg1  1  0.500000  0.500000  0.500000  1
  Si  Si2  1  0.849079  0.065874  0.671726  1
  Si  Si3  1  0.671726  0.849079  0.065874  1
  Si  Si4  1  0.065874  0.671726  0.849079  1
  Si  Si5  1  0.648426  0.825692  0.436293  1
  Si  Si6  1  0.249834  0.249834  0.249834  1
  Si  Si7  1  0.750166  0.750166  0.750166  1
  Si  Si8  1  0.174308  0.563707  0.351574  1
  Si  Si9  1  0.563707  0.351574  0.174308  1
  Si  Si10  1  0.351574  0.174308  0.563707  1
  Si  Si11  1  0.934126  0.328274  0.150921  1
  Si  Si12  1  0.328274  0.150921  0.934126  1
  Si  Si13  1  0.150921  0.934126  0.328274  1
  Si  Si14  1  0.825692  0.436293  0.648426  1
  Si  Si15  1  0.436293  0.648426  0.825692  1
  Ir  Ir16  1  0.749940  0.072653  0.427118  1
  Ir  Ir17  1  0.427118  0.749940  0.072653  1
  Ir  Ir18  1  0.072653  0.427118  0.749940  1
  Ir  Ir19  1  0.250060  0.927347  0.572882  1
  Ir  Ir20  1  0.572882  0.250060  0.927347  1
  Ir  Ir21  1  0.927347  0.572882  0.250060  1
