# generated using pymatgen
data_Pr2CoSi2Os
_symmetry_space_group_name_H-M   'P 1'
_cell_length_a   4.09789400
_cell_length_b   4.09789400
_cell_length_c   7.24653900
_cell_angle_alpha   90.00000000
_cell_angle_beta   90.00000000
_cell_angle_gamma   90.00000000
_symmetry_Int_Tables_number   1
_chemical_formula_structural   Pr2CoSi2Os
_chemical_formula_sum   'Pr2 Co1 Si2 Os1'
_cell_volume   121.68921080
_cell_formula_units_Z   1
loop_
 _symmetry_equiv_pos_site_id
 _symmetry_equiv_pos_as_xyz
  1  'x, y, z'
loop_
 _atom_site_type_symbol
 _atom_site_label
 _atom_site_symmetry_multiplicity
 _atom_site_fract_x
 _atom_site_fract_y
 _atom_site_fract_z
 _atom_site_occupancy
  Pr  Pr0  1  0.000000  0.500000  0.320139  1
  Pr  Pr1  1  0.500000  0.000000  0.679861  1
  Co  Co2  1  0.500000  0.500000  0.000000  1
  Si  Si3  1  0.000000  0.500000  0.829190  1
  Si  Si4  1  0.500000  0.000000  0.170810  1
  Os  Os5  1  0.000000  0.000000  0.000000  1
