# generated using pymatgen
data_La12Tc2I17
_symmetry_space_group_name_H-M   'P 1'
_cell_length_a   10.14623471
_cell_length_b   12.13997003
_cell_length_c   12.26146490
_cell_angle_alpha   73.28676265
_cell_angle_beta   73.86744652
_cell_angle_gamma   66.16147083
_symmetry_Int_Tables_number   1
_chemical_formula_structural   La12Tc2I17
_chemical_formula_sum   'La12 Tc2 I17'
_cell_volume   1300.38603257
_cell_formula_units_Z   1
loop_
 _symmetry_equiv_pos_site_id
 _symmetry_equiv_pos_as_xyz
  1  'x, y, z'
loop_
 _atom_site_type_symbol
 _atom_site_label
 _atom_site_symmetry_multiplicity
 _atom_site_fract_x
 _atom_site_fract_y
 _atom_site_fract_z
 _atom_site_occupancy
  La  La0  1  0.451590  0.481285  0.326721  1
  La  La1  1  0.557745  0.673263  0.005058  1
  La  La2  1  0.289088  0.000762  0.090197  1
  La  La3  1  0.860470  0.285509  0.850277  1
  La  La4  1  0.403102  0.236548  0.724567  1
  La  La5  1  0.710912  0.999238  0.909803  1
  La  La6  1  0.548410  0.518715  0.673279  1
  La  La7  1  0.442255  0.326737  0.994942  1
  La  La8  1  0.596898  0.763452  0.275433  1
  La  La9  1  0.822965  0.188898  0.583164  1
  La  La10  1  0.177035  0.811102  0.416836  1
  La  La11  1  0.139530  0.714491  0.149723  1
  Tc  Tc12  1  0.367283  0.737234  0.212337  1
  Tc  Tc13  1  0.632717  0.262766  0.787663  1
  I  I14  1  0.057037  0.105759  0.319088  1
  I  I15  1  0.463111  0.940635  0.824607  1
  I  I16  1  0.426893  0.822693  0.530828  1
  I  I17  1  0.573107  0.177307  0.469172  1
  I  I18  1  0.855445  0.693505  0.047041  1
  I  I19  1  0.215110  0.418487  0.246754  1
  I  I20  1  0.687735  0.365822  0.105477  1
  I  I21  1  0.536889  0.059365  0.175393  1
  I  I22  1  0.743228  0.472629  0.413571  1
  I  I23  1  0.886666  0.786223  0.370760  1
  I  I24  1  0.942963  0.894241  0.680912  1
  I  I25  1  0.144555  0.306495  0.952959  1
  I  I26  1  0.312265  0.634178  0.894523  1
  I  I27  1  0.000000  0.000000  0.000000  1
  I  I28  1  0.113334  0.213777  0.629240  1
  I  I29  1  0.784890  0.581513  0.753246  1
  I  I30  1  0.256772  0.527371  0.586429  1
