# generated using pymatgen
data_Nd16Cd4Co3Au
_symmetry_space_group_name_H-M   'P 1'
_cell_length_a   9.89378661
_cell_length_b   9.86207861
_cell_length_c   9.86207900
_cell_angle_alpha   60.00000205
_cell_angle_beta   60.10596076
_cell_angle_gamma   60.10595757
_symmetry_Int_Tables_number   1
_chemical_formula_structural   Nd16Cd4Co3Au
_chemical_formula_sum   'Nd16 Cd4 Co3 Au1'
_cell_volume   681.51934136
_cell_formula_units_Z   1
loop_
 _symmetry_equiv_pos_site_id
 _symmetry_equiv_pos_as_xyz
  1  'x, y, z'
loop_
 _atom_site_type_symbol
 _atom_site_label
 _atom_site_symmetry_multiplicity
 _atom_site_fract_x
 _atom_site_fract_y
 _atom_site_fract_z
 _atom_site_occupancy
  Nd  Nd0  1  0.333949  0.355447  0.355447  1
  Nd  Nd1  1  0.333949  0.355447  0.955157  1
  Nd  Nd2  1  0.333949  0.955157  0.355447  1
  Nd  Nd3  1  0.967387  0.344204  0.344204  1
  Nd  Nd4  1  0.825859  0.190215  0.190215  1
  Nd  Nd5  1  0.190032  0.811095  0.811095  1
  Nd  Nd6  1  0.190032  0.811095  0.187778  1
  Nd  Nd7  1  0.825859  0.190215  0.793711  1
  Nd  Nd8  1  0.190032  0.187778  0.811095  1
  Nd  Nd9  1  0.825859  0.793711  0.190215  1
  Nd  Nd10  1  0.932493  0.564725  0.564725  1
  Nd  Nd11  1  0.559776  0.938306  0.938306  1
  Nd  Nd12  1  0.559776  0.938306  0.563611  1
  Nd  Nd13  1  0.932493  0.564725  0.938055  1
  Nd  Nd14  1  0.559776  0.563611  0.938306  1
  Nd  Nd15  1  0.932493  0.938055  0.564725  1
  Cd  Cd16  1  0.579962  0.578982  0.578982  1
  Cd  Cd17  1  0.579962  0.578982  0.262076  1
  Cd  Cd18  1  0.579962  0.262076  0.578982  1
  Cd  Cd19  1  0.259360  0.580213  0.580213  1
  Co  Co20  1  0.143738  0.140236  0.140236  1
  Co  Co21  1  0.143738  0.140236  0.575788  1
  Co  Co22  1  0.143738  0.575788  0.140236  1
  Au  Au23  1  0.575825  0.141391  0.141391  1
