# generated using pymatgen
data_Pr4Al7Ga11Ir6
_symmetry_space_group_name_H-M   'P 1'
_cell_length_a   7.64185266
_cell_length_b   7.63969670
_cell_length_c   9.67610069
_cell_angle_alpha   90.04171487
_cell_angle_beta   89.98979592
_cell_angle_gamma   119.51788556
_symmetry_Int_Tables_number   1
_chemical_formula_structural   Pr4Al7Ga11Ir6
_chemical_formula_sum   'Pr4 Al7 Ga11 Ir6'
_cell_volume   491.58098741
_cell_formula_units_Z   1
loop_
 _symmetry_equiv_pos_site_id
 _symmetry_equiv_pos_as_xyz
  1  'x, y, z'
loop_
 _atom_site_type_symbol
 _atom_site_label
 _atom_site_symmetry_multiplicity
 _atom_site_fract_x
 _atom_site_fract_y
 _atom_site_fract_z
 _atom_site_occupancy
  Pr  Pr0  1  0.000131  0.667731  0.251825  1
  Pr  Pr1  1  0.002671  0.334355  0.749958  1
  Pr  Pr2  1  0.671614  0.000015  0.251172  1
  Pr  Pr3  1  0.326182  0.999604  0.745613  1
  Al  Al4  1  0.664708  0.995125  0.573409  1
  Al  Al5  1  0.663171  0.996186  0.927801  1
  Al  Al6  1  0.336244  0.004599  0.070132  1
  Al  Al7  1  0.332798  0.333087  0.546727  1
  Al  Al8  1  0.667099  0.666047  0.452531  1
  Al  Al9  1  0.667616  0.666714  0.047803  1
  Al  Al10  1  0.332993  0.333955  0.951567  1
  Ga  Ga11  1  0.129680  0.125549  0.250069  1
  Ga  Ga12  1  0.868677  0.875562  0.750985  1
  Ga  Ga13  1  0.001412  0.333697  0.076441  1
  Ga  Ga14  1  0.998843  0.667087  0.924189  1
  Ga  Ga15  1  0.994551  0.663891  0.577854  1
  Ga  Ga16  1  0.337712  0.003227  0.421100  1
  Ga  Ga17  1  0.002558  0.333684  0.423789  1
  Ga  Ga18  1  0.345869  0.548332  0.250725  1
  Ga  Ga19  1  0.652389  0.449056  0.750698  1
  Ga  Ga20  1  0.547316  0.345983  0.250068  1
  Ga  Ga21  1  0.455798  0.658106  0.750751  1
  Ir  Ir22  1  0.666096  0.327370  0.000163  1
  Ir  Ir23  1  0.333839  0.672727  0.001156  1
  Ir  Ir24  1  0.333488  0.669799  0.501090  1
  Ir  Ir25  1  0.668419  0.329041  0.501155  1
  Ir  Ir26  1  0.000374  0.000086  0.000420  1
  Ir  Ir27  1  0.997750  0.999387  0.500809  1
