# generated using pymatgen
data_La8Y12Si15Hg
_symmetry_space_group_name_H-M   'P 1'
_cell_length_a   7.61304831
_cell_length_b   7.90265670
_cell_length_c   15.08080657
_cell_angle_alpha   89.92692906
_cell_angle_beta   89.43322724
_cell_angle_gamma   90.18363283
_symmetry_Int_Tables_number   1
_chemical_formula_structural   La8Y12Si15Hg
_chemical_formula_sum   'La8 Y12 Si15 Hg1'
_cell_volume   907.26137370
_cell_formula_units_Z   1
loop_
 _symmetry_equiv_pos_site_id
 _symmetry_equiv_pos_as_xyz
  1  'x, y, z'
loop_
 _atom_site_type_symbol
 _atom_site_label
 _atom_site_symmetry_multiplicity
 _atom_site_fract_x
 _atom_site_fract_y
 _atom_site_fract_z
 _atom_site_occupancy
  La  La0  1  0.019905  0.178668  0.099339  1
  La  La1  1  0.979955  0.822824  0.902544  1
  La  La2  1  0.480424  0.678410  0.902043  1
  La  La3  1  0.982116  0.828479  0.599515  1
  La  La4  1  0.518553  0.321027  0.098106  1
  La  La5  1  0.014119  0.174171  0.397783  1
  La  La6  1  0.518176  0.321418  0.398075  1
  La  La7  1  0.489897  0.684391  0.601419  1
  Y  Y8  1  0.158889  0.508066  0.753908  1
  Y  Y9  1  0.839817  0.491103  0.250318  1
  Y  Y10  1  0.341638  0.007073  0.249216  1
  Y  Y11  1  0.661633  0.990169  0.751262  1
  Y  Y12  1  0.334407  0.170145  0.627115  1
  Y  Y13  1  0.670464  0.823435  0.375266  1
  Y  Y14  1  0.171627  0.678505  0.373083  1
  Y  Y15  1  0.675879  0.822163  0.122468  1
  Y  Y16  1  0.822126  0.325670  0.623496  1
  Y  Y17  1  0.323311  0.176292  0.877720  1
  Y  Y18  1  0.823268  0.320709  0.878233  1
  Y  Y19  1  0.175139  0.677661  0.122838  1
  Si  Si20  1  0.032228  0.118383  0.752061  1
  Si  Si21  1  0.966966  0.885921  0.248113  1
  Si  Si22  1  0.467258  0.614337  0.247838  1
  Si  Si23  1  0.532706  0.386591  0.752242  1
  Si  Si24  1  0.276021  0.879163  0.751637  1
  Si  Si25  1  0.721244  0.120051  0.247622  1
  Si  Si26  1  0.221984  0.378237  0.248503  1
  Si  Si27  1  0.780148  0.619897  0.752489  1
  Si  Si28  1  0.839906  0.536459  0.458064  1
  Si  Si29  1  0.348819  0.966665  0.460664  1
  Si  Si30  1  0.853815  0.531547  0.038662  1
  Si  Si31  1  0.650056  0.035126  0.537219  1
  Si  Si32  1  0.145287  0.467521  0.962105  1
  Si  Si33  1  0.644945  0.030865  0.960979  1
  Si  Si34  1  0.353618  0.967978  0.039271  1
  Hg  Hg35  1  0.163659  0.460883  0.538781  1
