# generated using pymatgen
data_Ho8Zr2IrRh5
_symmetry_space_group_name_H-M   'P 1'
_cell_length_a   10.83562756
_cell_length_b   10.83705500
_cell_length_c   6.21854537
_cell_angle_alpha   90.00000000
_cell_angle_beta   90.29344713
_cell_angle_gamma   90.00000000
_symmetry_Int_Tables_number   1
_chemical_formula_structural   Ho8Zr2IrRh5
_chemical_formula_sum   'Ho16 Zr4 Ir2 Rh10'
_cell_volume   730.21114639
_cell_formula_units_Z   2
loop_
 _symmetry_equiv_pos_site_id
 _symmetry_equiv_pos_as_xyz
  1  'x, y, z'
loop_
 _atom_site_type_symbol
 _atom_site_label
 _atom_site_symmetry_multiplicity
 _atom_site_fract_x
 _atom_site_fract_y
 _atom_site_fract_z
 _atom_site_occupancy
  Ho  Ho0  1  0.289740  0.088730  0.373576  1
  Ho  Ho1  1  0.289740  0.911270  0.873576  1
  Ho  Ho2  1  0.710594  0.087339  0.873909  1
  Ho  Ho3  1  0.710594  0.912661  0.373909  1
  Ho  Ho4  1  0.585875  0.788966  0.874232  1
  Ho  Ho5  1  0.585875  0.211034  0.374232  1
  Ho  Ho6  1  0.412286  0.789186  0.374599  1
  Ho  Ho7  1  0.412286  0.210814  0.874599  1
  Ho  Ho8  1  0.211389  0.413897  0.625484  1
  Ho  Ho9  1  0.211389  0.586103  0.125484  1
  Ho  Ho10  1  0.789541  0.412522  0.125747  1
  Ho  Ho11  1  0.789541  0.587478  0.625747  1
  Ho  Ho12  1  0.912866  0.710644  0.126102  1
  Ho  Ho13  1  0.912866  0.289356  0.626102  1
  Ho  Ho14  1  0.089010  0.710182  0.626500  1
  Ho  Ho15  1  0.089010  0.289818  0.126500  1
  Zr  Zr16  1  0.000183  0.000197  0.500010  1
  Zr  Zr17  1  0.000183  0.999803  0.000010  1
  Zr  Zr18  1  0.499129  0.500091  0.000032  1
  Zr  Zr19  1  0.499129  0.499909  0.500032  1
  Ir  Ir20  1  0.353835  0.352409  0.249442  1
  Ir  Ir21  1  0.353835  0.647591  0.749442  1
  Rh  Rh22  1  0.853253  0.146355  0.250072  1
  Rh  Rh23  1  0.853253  0.853645  0.750072  1
  Rh  Rh24  1  0.145641  0.145997  0.749998  1
  Rh  Rh25  1  0.145641  0.854003  0.249998  1
  Rh  Rh26  1  0.647306  0.353581  0.750208  1
  Rh  Rh27  1  0.647306  0.646419  0.250208  1
  Rh  Rh28  1  0.500548  0.999713  0.119907  1
  Rh  Rh29  1  0.500548  0.000287  0.619907  1
  Rh  Rh30  1  0.998804  0.499984  0.880180  1
  Rh  Rh31  1  0.998804  0.500016  0.380180  1
