# generated using pymatgen
data_Sc8Ti7Tc5Ge16
_symmetry_space_group_name_H-M   'P 1'
_cell_length_a   6.68167872
_cell_length_b   6.89707332
_cell_length_c   13.07529441
_cell_angle_alpha   90.01379942
_cell_angle_beta   90.22057714
_cell_angle_gamma   90.01997990
_symmetry_Int_Tables_number   1
_chemical_formula_structural   Sc8Ti7Tc5Ge16
_chemical_formula_sum   'Sc8 Ti7 Tc5 Ge16'
_cell_volume   602.55771503
_cell_formula_units_Z   1
loop_
 _symmetry_equiv_pos_site_id
 _symmetry_equiv_pos_as_xyz
  1  'x, y, z'
loop_
 _atom_site_type_symbol
 _atom_site_label
 _atom_site_symmetry_multiplicity
 _atom_site_fract_x
 _atom_site_fract_y
 _atom_site_fract_z
 _atom_site_occupancy
  Sc  Sc0  1  0.491616  0.673423  0.591277  1
  Sc  Sc1  1  0.990958  0.824176  0.909900  1
  Sc  Sc2  1  0.507190  0.323108  0.092004  1
  Sc  Sc3  1  0.007844  0.176142  0.408095  1
  Sc  Sc4  1  0.510324  0.321717  0.407835  1
  Sc  Sc5  1  0.007745  0.175799  0.091395  1
  Sc  Sc6  1  0.491417  0.675277  0.908842  1
  Sc  Sc7  1  0.991912  0.818785  0.590449  1
  Ti  Ti8  1  0.657161  0.163420  0.627092  1
  Ti  Ti9  1  0.162775  0.336525  0.871824  1
  Ti  Ti10  1  0.336733  0.837248  0.126847  1
  Ti  Ti11  1  0.839562  0.660774  0.374247  1
  Ti  Ti12  1  0.335378  0.840429  0.376186  1
  Ti  Ti13  1  0.835559  0.662366  0.126225  1
  Ti  Ti14  1  0.664148  0.162095  0.872253  1
  Tc  Tc15  1  0.169571  0.342960  0.622823  1
  Tc  Tc16  1  0.832037  0.490086  0.749575  1
  Tc  Tc17  1  0.339794  0.006909  0.748574  1
  Tc  Tc18  1  0.162534  0.509112  0.250916  1
  Tc  Tc19  1  0.662467  0.989929  0.250771  1
  Ge  Ge20  1  0.683211  0.958313  0.458364  1
  Ge  Ge21  1  0.181084  0.541315  0.042553  1
  Ge  Ge22  1  0.318409  0.040906  0.956952  1
  Ge  Ge23  1  0.826005  0.456957  0.544457  1
  Ge  Ge24  1  0.314960  0.044400  0.543893  1
  Ge  Ge25  1  0.819140  0.459280  0.956825  1
  Ge  Ge26  1  0.680426  0.960330  0.042685  1
  Ge  Ge27  1  0.183084  0.544339  0.457555  1
  Ge  Ge28  1  0.464035  0.382590  0.751211  1
  Ge  Ge29  1  0.971393  0.121828  0.746406  1
  Ge  Ge30  1  0.532145  0.617915  0.251520  1
  Ge  Ge31  1  0.033168  0.882592  0.250508  1
  Ge  Ge32  1  0.695374  0.849042  0.749325  1
  Ge  Ge33  1  0.189302  0.650098  0.751842  1
  Ge  Ge34  1  0.305500  0.151166  0.249763  1
  Ge  Ge35  1  0.806037  0.348648  0.249015  1
