# generated using pymatgen
data_Dy5Tm7(TcIr)2
_symmetry_space_group_name_H-M   'P 1'
_cell_length_a   6.28234091
_cell_length_b   7.32402176
_cell_length_c   9.04458938
_cell_angle_alpha   89.92658551
_cell_angle_beta   90.19082367
_cell_angle_gamma   90.02938039
_symmetry_Int_Tables_number   1
_chemical_formula_structural   Dy5Tm7(TcIr)2
_chemical_formula_sum   'Dy5 Tm7 Tc2 Ir2'
_cell_volume   416.15695687
_cell_formula_units_Z   1
loop_
 _symmetry_equiv_pos_site_id
 _symmetry_equiv_pos_as_xyz
  1  'x, y, z'
loop_
 _atom_site_type_symbol
 _atom_site_label
 _atom_site_symmetry_multiplicity
 _atom_site_fract_x
 _atom_site_fract_y
 _atom_site_fract_z
 _atom_site_occupancy
  Dy  Dy0  1  0.331302  0.676587  0.065403  1
  Dy  Dy1  1  0.874294  0.538458  0.250723  1
  Dy  Dy2  1  0.625579  0.039142  0.250513  1
  Dy  Dy3  1  0.132431  0.459722  0.749343  1
  Dy  Dy4  1  0.367439  0.960149  0.749341  1
  Tm  Tm5  1  0.167992  0.176711  0.434602  1
  Tm  Tm6  1  0.666509  0.323665  0.561028  1
  Tm  Tm7  1  0.833846  0.824387  0.938617  1
  Tm  Tm8  1  0.666396  0.323565  0.938195  1
  Tm  Tm9  1  0.834581  0.824228  0.561150  1
  Tm  Tm10  1  0.332017  0.676074  0.435527  1
  Tm  Tm11  1  0.167031  0.176264  0.065706  1
  Tc  Tc12  1  0.036632  0.885697  0.250594  1
  Tc  Tc13  1  0.463062  0.384636  0.250372  1
  Ir  Ir14  1  0.953463  0.115554  0.750464  1
  Ir  Ir15  1  0.547427  0.615161  0.748422  1
