# generated using pymatgen
data_LaPrCu2(PdO4)2
_symmetry_space_group_name_H-M   'P 1'
_cell_length_a   6.53480407
_cell_length_b   6.53480352
_cell_length_c   6.58569186
_cell_angle_alpha   126.81809056
_cell_angle_beta   125.01370052
_cell_angle_gamma   79.50303078
_symmetry_Int_Tables_number   1
_chemical_formula_structural   LaPrCu2(PdO4)2
_chemical_formula_sum   'La1 Pr1 Cu2 Pd2 O8'
_cell_volume   178.69910888
_cell_formula_units_Z   1
loop_
 _symmetry_equiv_pos_site_id
 _symmetry_equiv_pos_as_xyz
  1  'x, y, z'
loop_
 _atom_site_type_symbol
 _atom_site_label
 _atom_site_symmetry_multiplicity
 _atom_site_fract_x
 _atom_site_fract_y
 _atom_site_fract_z
 _atom_site_occupancy
  La  La0  1  0.999218  0.999218  0.000000  1
  Pr  Pr1  1  0.750206  0.250206  0.500000  1
  Cu  Cu2  1  0.874545  0.624617  0.249292  1
  Cu  Cu3  1  0.375324  0.625253  0.750708  1
  Pd  Pd4  1  0.375441  0.625000  0.250311  1
  Pd  Pd5  1  0.374690  0.125130  0.749689  1
  O  O6  1  0.588320  0.938060  0.937512  1
  O  O7  1  0.402689  0.834402  0.126820  1
  O  O8  1  0.707583  0.275869  0.873180  1
  O  O9  1  0.000547  0.650810  0.062488  1
  O  O10  1  0.160349  0.313675  0.564606  1
  O  O11  1  0.352168  0.417545  0.377697  1
  O  O12  1  0.749070  0.595742  0.435394  1
  O  O13  1  0.039849  0.974472  0.622303  1
