# generated using pymatgen
data_Tb2Er6Ti3Si16W9
_symmetry_space_group_name_H-M   'P 1'
_cell_length_a   6.89253123
_cell_length_b   6.89295384
_cell_length_c   12.78408264
_cell_angle_alpha   89.96070618
_cell_angle_beta   89.99705698
_cell_angle_gamma   89.84785392
_symmetry_Int_Tables_number   1
_chemical_formula_structural   Tb2Er6Ti3Si16W9
_chemical_formula_sum   'Tb2 Er6 Ti3 Si16 W9'
_cell_volume   607.36819751
_cell_formula_units_Z   1
loop_
 _symmetry_equiv_pos_site_id
 _symmetry_equiv_pos_as_xyz
  1  'x, y, z'
loop_
 _atom_site_type_symbol
 _atom_site_label
 _atom_site_symmetry_multiplicity
 _atom_site_fract_x
 _atom_site_fract_y
 _atom_site_fract_z
 _atom_site_occupancy
  Tb  Tb0  1  0.338766  0.002526  0.468437  1
  Tb  Tb1  1  0.496580  0.837429  0.719254  1
  Er  Er2  1  0.499139  0.161851  0.217361  1
  Er  Er3  1  0.838109  0.497432  0.280559  1
  Er  Er4  1  0.161568  0.498955  0.782661  1
  Er  Er5  1  0.660085  0.999749  0.969209  1
  Er  Er6  1  0.001257  0.339583  0.531171  1
  Er  Er7  1  0.999460  0.659841  0.031119  1
  Ti  Ti8  1  0.170073  0.831726  0.248199  1
  Ti  Ti9  1  0.831951  0.170382  0.751662  1
  Ti  Ti10  1  0.669155  0.668540  0.499828  1
  Si  Si11  1  0.199523  0.130793  0.683257  1
  Si  Si12  1  0.372429  0.698526  0.933404  1
  Si  Si13  1  0.630310  0.299530  0.432847  1
  Si  Si14  1  0.698888  0.372507  0.067190  1
  Si  Si15  1  0.297585  0.626959  0.566601  1
  Si  Si16  1  0.796730  0.871037  0.183265  1
  Si  Si17  1  0.128821  0.201595  0.316564  1
  Si  Si18  1  0.872515  0.796577  0.817061  1
  Si  Si19  1  0.289739  0.963094  0.062466  1
  Si  Si20  1  0.540202  0.791713  0.313319  1
  Si  Si21  1  0.459500  0.209966  0.814631  1
  Si  Si22  1  0.793259  0.538795  0.686185  1
  Si  Si23  1  0.208369  0.459519  0.185673  1
  Si  Si24  1  0.711048  0.041695  0.563755  1
  Si  Si25  1  0.962953  0.289873  0.937853  1
  Si  Si26  1  0.039763  0.708147  0.435812  1
  W  W27  1  0.331658  0.331746  0.000084  1
  W  W28  1  0.157421  0.002812  0.873836  1
  W  W29  1  0.494967  0.664688  0.124769  1
  W  W30  1  0.506049  0.340830  0.625029  1
  W  W31  1  0.665556  0.494828  0.875531  1
  W  W32  1  0.340493  0.505269  0.374888  1
  W  W33  1  0.840084  0.994273  0.373770  1
  W  W34  1  0.001961  0.157647  0.126644  1
  W  W35  1  0.994034  0.839570  0.626105  1
