# generated using pymatgen
data_YbHo(Si2Ni9)2
_symmetry_space_group_name_H-M   'P 1'
_cell_length_a   7.53826388
_cell_length_b   7.53826349
_cell_length_c   7.53826475
_cell_angle_alpha   99.57430216
_cell_angle_beta   99.57431395
_cell_angle_gamma   131.86261995
_symmetry_Int_Tables_number   1
_chemical_formula_structural   YbHo(Si2Ni9)2
_chemical_formula_sum   'Yb1 Ho1 Si4 Ni18'
_cell_volume   291.28680853
_cell_formula_units_Z   1
loop_
 _symmetry_equiv_pos_site_id
 _symmetry_equiv_pos_as_xyz
  1  'x, y, z'
loop_
 _atom_site_type_symbol
 _atom_site_label
 _atom_site_symmetry_multiplicity
 _atom_site_fract_x
 _atom_site_fract_y
 _atom_site_fract_z
 _atom_site_occupancy
  Yb  Yb0  1  0.500000  0.500000  0.000000  1
  Ho  Ho1  1  0.750000  0.250000  0.500000  1
  Si  Si2  1  0.624499  0.874712  0.749787  1
  Si  Si3  1  0.125288  0.375501  0.250213  1
  Si  Si4  1  0.125288  0.875075  0.749787  1
  Si  Si5  1  0.124925  0.874712  0.250213  1
  Ni  Ni6  1  0.250000  0.750000  0.500000  1
  Ni  Ni7  1  0.000000  0.000000  0.000000  1
  Ni  Ni8  1  0.686098  0.012257  0.079652  1
  Ni  Ni9  1  0.686098  0.606447  0.673841  1
  Ni  Ni10  1  0.261684  0.435272  0.579191  1
  Ni  Ni11  1  0.261684  0.682493  0.826412  1
  Ni  Ni12  1  0.932605  0.012257  0.326159  1
  Ni  Ni13  1  0.932605  0.606447  0.920348  1
  Ni  Ni14  1  0.856082  0.435272  0.173588  1
  Ni  Ni15  1  0.856082  0.682493  0.420809  1
  Ni  Ni16  1  0.564728  0.738316  0.420809  1
  Ni  Ni17  1  0.564728  0.143918  0.826412  1
  Ni  Ni18  1  0.987743  0.313902  0.920348  1
  Ni  Ni19  1  0.987743  0.067395  0.673841  1
  Ni  Ni20  1  0.317507  0.738316  0.173588  1
  Ni  Ni21  1  0.317507  0.143918  0.579191  1
  Ni  Ni22  1  0.393553  0.313902  0.326159  1
  Ni  Ni23  1  0.393553  0.067395  0.079652  1
