# generated using pymatgen
data_LiAlBPd6
_symmetry_space_group_name_H-M   'P 1'
_cell_length_a   5.66988436
_cell_length_b   5.66988422
_cell_length_c   5.66988500
_cell_angle_alpha   60.00000127
_cell_angle_beta   60.00000212
_cell_angle_gamma   59.99999720
_symmetry_Int_Tables_number   1
_chemical_formula_structural   LiAlBPd6
_chemical_formula_sum   'Li1 Al1 B1 Pd6'
_cell_volume   128.88656417
_cell_formula_units_Z   1
loop_
 _symmetry_equiv_pos_site_id
 _symmetry_equiv_pos_as_xyz
  1  'x, y, z'
loop_
 _atom_site_type_symbol
 _atom_site_label
 _atom_site_symmetry_multiplicity
 _atom_site_fract_x
 _atom_site_fract_y
 _atom_site_fract_z
 _atom_site_occupancy
  Li  Li0  1  0.250000  0.250000  0.250000  1
  Al  Al1  1  0.750000  0.750000  0.750000  1
  B  B2  1  0.499999  0.499999  0.499999  1
  Pd  Pd3  1  0.756488  0.243511  0.243511  1
  Pd  Pd4  1  0.243511  0.756488  0.243511  1
  Pd  Pd5  1  0.756488  0.756488  0.243511  1
  Pd  Pd6  1  0.243511  0.243511  0.756488  1
  Pd  Pd7  1  0.756488  0.243511  0.756488  1
  Pd  Pd8  1  0.243511  0.756488  0.756488  1
