# generated using pymatgen
data_Ho3PaZn4PtRh3
_symmetry_space_group_name_H-M   'P 1'
_cell_length_a   3.85224500
_cell_length_b   7.14783774
_cell_length_c   8.32077046
_cell_angle_alpha   90.79257997
_cell_angle_beta   90.00000000
_cell_angle_gamma   90.00000000
_symmetry_Int_Tables_number   1
_chemical_formula_structural   Ho3PaZn4PtRh3
_chemical_formula_sum   'Ho3 Pa1 Zn4 Pt1 Rh3'
_cell_volume   229.09234279
_cell_formula_units_Z   1
loop_
 _symmetry_equiv_pos_site_id
 _symmetry_equiv_pos_as_xyz
  1  'x, y, z'
loop_
 _atom_site_type_symbol
 _atom_site_label
 _atom_site_symmetry_multiplicity
 _atom_site_fract_x
 _atom_site_fract_y
 _atom_site_fract_z
 _atom_site_occupancy
  Ho  Ho0  1  0.750000  0.444357  0.809426  1
  Ho  Ho1  1  0.250000  0.053900  0.315164  1
  Ho  Ho2  1  0.750000  0.934964  0.689624  1
  Pa  Pa3  1  0.250000  0.555845  0.179085  1
  Zn  Zn4  1  0.250000  0.126859  0.938051  1
  Zn  Zn5  1  0.750000  0.893278  0.063093  1
  Zn  Zn6  1  0.250000  0.623642  0.564024  1
  Zn  Zn7  1  0.750000  0.371845  0.439089  1
  Pt  Pt8  1  0.250000  0.233121  0.625857  1
  Rh  Rh9  1  0.750000  0.742742  0.358426  1
  Rh  Rh10  1  0.750000  0.282410  0.128140  1
  Rh  Rh11  1  0.250000  0.737039  0.890021  1
