# generated using pymatgen
data_Nd5PuMgO12
_symmetry_space_group_name_H-M   'P 1'
_cell_length_a   7.26218123
_cell_length_b   7.26218088
_cell_length_c   7.79724400
_cell_angle_alpha   74.26231738
_cell_angle_beta   74.26231817
_cell_angle_gamma   50.52126164
_symmetry_Int_Tables_number   1
_chemical_formula_structural   Nd5PuMgO12
_chemical_formula_sum   'Nd5 Pu1 Mg1 O12'
_cell_volume   302.79407166
_cell_formula_units_Z   1
loop_
 _symmetry_equiv_pos_site_id
 _symmetry_equiv_pos_as_xyz
  1  'x, y, z'
loop_
 _atom_site_type_symbol
 _atom_site_label
 _atom_site_symmetry_multiplicity
 _atom_site_fract_x
 _atom_site_fract_y
 _atom_site_fract_z
 _atom_site_occupancy
  Nd  Nd0  1  0.321142  0.278268  0.359885  1
  Nd  Nd1  1  0.721732  0.678858  0.640115  1
  Nd  Nd2  1  0.693798  0.698028  0.165624  1
  Nd  Nd3  1  0.301972  0.306202  0.834376  1
  Nd  Nd4  1  0.016070  0.983930  0.500000  1
  Pu  Pu5  1  0.236070  0.763930  0.000000  1
  Mg  Mg6  1  0.745979  0.254021  0.000000  1
  O  O7  1  0.106275  0.592617  0.571284  1
  O  O8  1  0.006463  0.994730  0.180317  1
  O  O9  1  0.407383  0.893725  0.428716  1
  O  O10  1  0.475560  0.527625  0.178594  1
  O  O11  1  0.096688  0.583289  0.083431  1
  O  O12  1  0.917845  0.397893  0.420701  1
  O  O13  1  0.005270  0.993537  0.819683  1
  O  O14  1  0.602107  0.082154  0.579299  1
  O  O15  1  0.472375  0.524440  0.821406  1
  O  O16  1  0.559266  0.102707  0.084691  1
  O  O17  1  0.416711  0.903312  0.916569  1
  O  O18  1  0.897293  0.440734  0.915309  1
