# generated using pymatgen
data_Gd3Zn3Pt2Au
_symmetry_space_group_name_H-M   'P 1'
_cell_length_a   7.44279100
_cell_length_b   7.44279068
_cell_length_c   4.03178000
_cell_angle_alpha   90.00000000
_cell_angle_beta   90.00000000
_cell_angle_gamma   119.99999698
_symmetry_Int_Tables_number   1
_chemical_formula_structural   Gd3Zn3Pt2Au
_chemical_formula_sum   'Gd3 Zn3 Pt2 Au1'
_cell_volume   193.41898503
_cell_formula_units_Z   1
loop_
 _symmetry_equiv_pos_site_id
 _symmetry_equiv_pos_as_xyz
  1  'x, y, z'
loop_
 _atom_site_type_symbol
 _atom_site_label
 _atom_site_symmetry_multiplicity
 _atom_site_fract_x
 _atom_site_fract_y
 _atom_site_fract_z
 _atom_site_occupancy
  Gd  Gd0  1  0.590395  0.000000  0.000000  1
  Gd  Gd1  1  0.000000  0.590395  0.000000  1
  Gd  Gd2  1  0.409605  0.409605  0.000000  1
  Zn  Zn3  1  0.261474  0.000000  0.500000  1
  Zn  Zn4  1  0.000000  0.261474  0.500000  1
  Zn  Zn5  1  0.738526  0.738526  0.500000  1
  Pt  Pt6  1  0.333333  0.666667  0.500000  1
  Pt  Pt7  1  0.666667  0.333333  0.500000  1
  Au  Au8  1  0.000000  0.000000  0.000000  1
