# generated using pymatgen
data_Er3Tm9Co4IrPb
_symmetry_space_group_name_H-M   'P 1'
_cell_length_a   8.22102299
_cell_length_b   8.22102325
_cell_length_c   8.22040508
_cell_angle_alpha   110.76172471
_cell_angle_beta   111.24384996
_cell_angle_gamma   106.45327417
_symmetry_Int_Tables_number   1
_chemical_formula_structural   Er3Tm9Co4IrPb
_chemical_formula_sum   'Er3 Tm9 Co4 Ir1 Pb1'
_cell_volume   426.77422010
_cell_formula_units_Z   1
loop_
 _symmetry_equiv_pos_site_id
 _symmetry_equiv_pos_as_xyz
  1  'x, y, z'
loop_
 _atom_site_type_symbol
 _atom_site_label
 _atom_site_symmetry_multiplicity
 _atom_site_fract_x
 _atom_site_fract_y
 _atom_site_fract_z
 _atom_site_occupancy
  Er  Er0  1  0.285083  0.183941  0.469022  1
  Er  Er1  1  0.715061  0.816224  0.531286  1
  Er  Er2  1  0.284948  0.815967  0.100914  1
  Tm  Tm3  1  0.715397  0.183706  0.899104  1
  Tm  Tm4  1  0.620061  0.312615  0.307186  1
  Tm  Tm5  1  0.380068  0.687583  0.692719  1
  Tm  Tm6  1  0.005136  0.312651  0.692719  1
  Tm  Tm7  1  0.994570  0.687125  0.307186  1
  Tm  Tm8  1  0.214515  0.411617  0.196700  1
  Tm  Tm9  1  0.785241  0.588149  0.803098  1
  Tm  Tm10  1  0.214950  0.017857  0.803098  1
  Tm  Tm11  1  0.785081  0.982185  0.196700  1
  Co  Co12  1  0.999904  0.377080  0.376984  1
  Co  Co13  1  0.999939  0.622927  0.622867  1
  Co  Co14  1  0.388616  0.888577  0.500333  1
  Co  Co15  1  0.611756  0.111717  0.500333  1
  Ir  Ir16  1  0.999697  0.000052  0.999750  1
  Pb  Pb17  1  0.499975  0.500025  0.000000  1
