# generated using pymatgen
data_Ba2NbTcF14
_symmetry_space_group_name_H-M   'P 1'
_cell_length_a   7.59518700
_cell_length_b   5.11041542
_cell_length_c   7.08086150
_cell_angle_alpha   85.59117893
_cell_angle_beta   90.00000000
_cell_angle_gamma   90.00000000
_symmetry_Int_Tables_number   1
_chemical_formula_structural   Ba2NbTcF14
_chemical_formula_sum   'Ba2 Nb1 Tc1 F14'
_cell_volume   274.02725632
_cell_formula_units_Z   1
loop_
 _symmetry_equiv_pos_site_id
 _symmetry_equiv_pos_as_xyz
  1  'x, y, z'
loop_
 _atom_site_type_symbol
 _atom_site_label
 _atom_site_symmetry_multiplicity
 _atom_site_fract_x
 _atom_site_fract_y
 _atom_site_fract_z
 _atom_site_occupancy
  Ba  Ba0  1  0.250000  0.035344  0.688153  1
  Ba  Ba1  1  0.750000  0.970134  0.309145  1
  Nb  Nb2  1  0.250000  0.463436  0.217669  1
  Tc  Tc3  1  0.750000  0.542069  0.775912  1
  F  F4  1  0.250000  0.637978  0.957122  1
  F  F5  1  0.466041  0.669607  0.213578  1
  F  F6  1  0.961981  0.329016  0.790649  1
  F  F7  1  0.579778  0.794826  0.648472  1
  F  F8  1  0.750000  0.415941  0.519344  1
  F  F9  1  0.250000  0.583328  0.483363  1
  F  F10  1  0.750000  0.368812  0.033905  1
  F  F11  1  0.920222  0.794826  0.648472  1
  F  F12  1  0.420840  0.201215  0.354422  1
  F  F13  1  0.250000  0.170963  0.054616  1
  F  F14  1  0.079160  0.201215  0.354422  1
  F  F15  1  0.538019  0.329016  0.790649  1
  F  F16  1  0.750000  0.822668  0.946530  1
  F  F17  1  0.033959  0.669607  0.213578  1
