# generated using pymatgen
data_CeSn6(IrRu)2
_symmetry_space_group_name_H-M   'P 1'
_cell_length_a   7.00446915
_cell_length_b   7.00446901
_cell_length_c   6.95278910
_cell_angle_alpha   119.81984912
_cell_angle_beta   119.81984019
_cell_angle_gamma   90.73277766
_symmetry_Int_Tables_number   1
_chemical_formula_structural   CeSn6(IrRu)2
_chemical_formula_sum   'Ce1 Sn6 Ir2 Ru2'
_cell_volume   240.95557473
_cell_formula_units_Z   1
loop_
 _symmetry_equiv_pos_site_id
 _symmetry_equiv_pos_as_xyz
  1  'x, y, z'
loop_
 _atom_site_type_symbol
 _atom_site_label
 _atom_site_symmetry_multiplicity
 _atom_site_fract_x
 _atom_site_fract_y
 _atom_site_fract_z
 _atom_site_occupancy
  Ce  Ce0  1  0.996610  0.996610  0.000000  1
  Sn  Sn1  1  0.505636  0.005636  0.500000  1
  Sn  Sn2  1  0.533033  0.872881  0.000000  1
  Sn  Sn3  1  0.123657  0.123657  0.654615  1
  Sn  Sn4  1  0.469041  0.469041  0.345385  1
  Sn  Sn5  1  0.872881  0.533033  0.000000  1
  Sn  Sn6  1  0.005636  0.505636  0.500000  1
  Ir  Ir7  1  0.605086  0.237443  0.000000  1
  Ir  Ir8  1  0.237443  0.605086  0.000000  1
  Ru  Ru9  1  0.400875  0.400875  0.650772  1
  Ru  Ru10  1  0.750102  0.750102  0.349228  1
