# generated using pymatgen
data_Ho3Cd5Ru
_symmetry_space_group_name_H-M   'P 1'
_cell_length_a   3.68989600
_cell_length_b   8.11938367
_cell_length_c   8.11938400
_cell_angle_alpha   119.99999321
_cell_angle_beta   90.00000000
_cell_angle_gamma   90.00000000
_symmetry_Int_Tables_number   1
_chemical_formula_structural   Ho3Cd5Ru
_chemical_formula_sum   'Ho3 Cd5 Ru1'
_cell_volume   210.66429406
_cell_formula_units_Z   1
loop_
 _symmetry_equiv_pos_site_id
 _symmetry_equiv_pos_as_xyz
  1  'x, y, z'
loop_
 _atom_site_type_symbol
 _atom_site_label
 _atom_site_symmetry_multiplicity
 _atom_site_fract_x
 _atom_site_fract_y
 _atom_site_fract_z
 _atom_site_occupancy
  Ho  Ho0  1  0.000000  0.425735  0.378878  1
  Ho  Ho1  1  0.000000  0.953143  0.574265  1
  Ho  Ho2  1  0.000000  0.621122  0.046857  1
  Cd  Cd3  1  0.500000  0.718016  0.724929  1
  Cd  Cd4  1  0.500000  0.006913  0.281984  1
  Cd  Cd5  1  0.500000  0.275071  0.993087  1
  Cd  Cd6  1  0.500000  0.333333  0.666667  1
  Cd  Cd7  1  0.000000  0.000000  0.000000  1
  Ru  Ru8  1  0.500000  0.666667  0.333333  1
