# generated using pymatgen
data_EuPd2F12
_symmetry_space_group_name_H-M   'P 1'
_cell_length_a   11.06256540
_cell_length_b   5.81649394
_cell_length_c   5.82956100
_cell_angle_alpha   57.33676685
_cell_angle_beta   55.09419093
_cell_angle_gamma   55.82920707
_symmetry_Int_Tables_number   1
_chemical_formula_structural   EuPd2F12
_chemical_formula_sum   'Eu1 Pd2 F12'
_cell_volume   240.98339346
_cell_formula_units_Z   1
loop_
 _symmetry_equiv_pos_site_id
 _symmetry_equiv_pos_as_xyz
  1  'x, y, z'
loop_
 _atom_site_type_symbol
 _atom_site_label
 _atom_site_symmetry_multiplicity
 _atom_site_fract_x
 _atom_site_fract_y
 _atom_site_fract_z
 _atom_site_occupancy
  Eu  Eu0  1  0.750000  0.500000  0.500000  1
  Pd  Pd1  1  0.022699  0.988055  0.984106  1
  Pd  Pd2  1  0.477301  0.011945  0.015894  1
  F  F3  1  0.201991  0.093317  0.754940  1
  F  F4  1  0.673315  0.105383  0.778379  1
  F  F5  1  0.069541  0.779663  0.325141  1
  F  F6  1  0.542159  0.782376  0.356626  1
  F  F7  1  0.134208  0.648952  0.873730  1
  F  F8  1  0.606084  0.649200  0.902144  1
  F  F9  1  0.430459  0.220337  0.674859  1
  F  F10  1  0.957841  0.217624  0.643374  1
  F  F11  1  0.298009  0.906683  0.245060  1
  F  F12  1  0.826685  0.894617  0.221621  1
  F  F13  1  0.365792  0.351048  0.126270  1
  F  F14  1  0.893916  0.350800  0.097856  1
