# generated using pymatgen
data_HfSc2BC3
_symmetry_space_group_name_H-M   'P 1'
_cell_length_a   3.33052341
_cell_length_b   3.33052287
_cell_length_c   15.20945900
_cell_angle_alpha   90.00000000
_cell_angle_beta   90.00000000
_cell_angle_gamma   90.02895313
_symmetry_Int_Tables_number   1
_chemical_formula_structural   HfSc2BC3
_chemical_formula_sum   'Hf2 Sc4 B2 C6'
_cell_volume   168.70914371
_cell_formula_units_Z   2
loop_
 _symmetry_equiv_pos_site_id
 _symmetry_equiv_pos_as_xyz
  1  'x, y, z'
loop_
 _atom_site_type_symbol
 _atom_site_label
 _atom_site_symmetry_multiplicity
 _atom_site_fract_x
 _atom_site_fract_y
 _atom_site_fract_z
 _atom_site_occupancy
  Hf  Hf0  1  0.031106  0.968895  0.250000  1
  Hf  Hf1  1  0.968895  0.031106  0.750000  1
  Sc  Sc2  1  0.529022  0.470979  0.105108  1
  Sc  Sc3  1  0.529022  0.470979  0.394892  1
  Sc  Sc4  1  0.470979  0.529022  0.605108  1
  Sc  Sc5  1  0.470979  0.529022  0.894892  1
  B  B6  1  0.000000  0.000000  0.000000  1
  B  B7  1  0.000000  0.000000  0.500000  1
  C  C8  1  0.026523  0.973478  0.096734  1
  C  C9  1  0.531800  0.468201  0.250000  1
  C  C10  1  0.026523  0.973478  0.403266  1
  C  C11  1  0.973478  0.026523  0.596733  1
  C  C12  1  0.468201  0.531800  0.750000  1
  C  C13  1  0.973478  0.026523  0.903267  1
