# generated using pymatgen
data_Yb11Mg(AgGe)12
_symmetry_space_group_name_H-M   'P 1'
_cell_length_a   4.56916200
_cell_length_b   7.84517354
_cell_length_c   21.31535465
_cell_angle_alpha   89.56648060
_cell_angle_beta   90.00000000
_cell_angle_gamma   90.00000000
_symmetry_Int_Tables_number   1
_chemical_formula_structural   Yb11Mg(AgGe)12
_chemical_formula_sum   'Yb11 Mg1 Ag12 Ge12'
_cell_volume   764.04553543
_cell_formula_units_Z   1
loop_
 _symmetry_equiv_pos_site_id
 _symmetry_equiv_pos_as_xyz
  1  'x, y, z'
loop_
 _atom_site_type_symbol
 _atom_site_label
 _atom_site_symmetry_multiplicity
 _atom_site_fract_x
 _atom_site_fract_y
 _atom_site_fract_z
 _atom_site_occupancy
  Yb  Yb0  1  0.250000  0.221524  0.999453  1
  Yb  Yb1  1  0.250000  0.278137  0.500201  1
  Yb  Yb2  1  0.750000  0.779202  0.998189  1
  Yb  Yb3  1  0.750000  0.722460  0.500170  1
  Yb  Yb4  1  0.250000  0.210353  0.333669  1
  Yb  Yb5  1  0.250000  0.293583  0.833328  1
  Yb  Yb6  1  0.750000  0.790636  0.667909  1
  Yb  Yb7  1  0.750000  0.711386  0.165836  1
  Yb  Yb8  1  0.250000  0.208154  0.668003  1
  Yb  Yb9  1  0.250000  0.288267  0.166411  1
  Yb  Yb10  1  0.750000  0.788270  0.332925  1
  Mg  Mg11  1  0.750000  0.707680  0.835851  1
  Ag  Ag12  1  0.250000  0.903176  0.766073  1
  Ag  Ag13  1  0.250000  0.586873  0.262093  1
  Ag  Ag14  1  0.750000  0.087486  0.237607  1
  Ag  Ag15  1  0.750000  0.416871  0.740171  1
  Ag  Ag16  1  0.250000  0.917631  0.903363  1
  Ag  Ag17  1  0.250000  0.580696  0.405922  1
  Ag  Ag18  1  0.750000  0.081801  0.093370  1
  Ag  Ag19  1  0.750000  0.418986  0.595373  1
  Ag  Ag20  1  0.250000  0.918065  0.564704  1
  Ag  Ag21  1  0.250000  0.584967  0.066003  1
  Ag  Ag22  1  0.750000  0.082305  0.434966  1
  Ag  Ag23  1  0.750000  0.420371  0.931736  1
  Ge  Ge24  1  0.250000  0.579724  0.727385  1
  Ge  Ge25  1  0.250000  0.917677  0.228364  1
  Ge  Ge26  1  0.750000  0.417777  0.271379  1
  Ge  Ge27  1  0.750000  0.079386  0.772520  1
  Ge  Ge28  1  0.250000  0.912722  0.102366  1
  Ge  Ge29  1  0.250000  0.588657  0.602085  1
  Ge  Ge30  1  0.750000  0.089564  0.897643  1
  Ge  Ge31  1  0.750000  0.411572  0.397288  1
  Ge  Ge32  1  0.250000  0.591815  0.927295  1
  Ge  Ge33  1  0.250000  0.909292  0.427018  1
  Ge  Ge34  1  0.750000  0.411974  0.070163  1
  Ge  Ge35  1  0.750000  0.090962  0.573167  1
