# generated using pymatgen
data_TcBiI18
_symmetry_space_group_name_H-M   'P 1'
_cell_length_a   10.28305524
_cell_length_b   10.28305602
_cell_length_c   10.28305747
_cell_angle_alpha   94.17425833
_cell_angle_beta   94.17425333
_cell_angle_gamma   94.17426362
_symmetry_Int_Tables_number   1
_chemical_formula_structural   TcBiI18
_chemical_formula_sum   'Tc1 Bi1 I18'
_cell_volume   1078.24397630
_cell_formula_units_Z   1
loop_
 _symmetry_equiv_pos_site_id
 _symmetry_equiv_pos_as_xyz
  1  'x, y, z'
loop_
 _atom_site_type_symbol
 _atom_site_label
 _atom_site_symmetry_multiplicity
 _atom_site_fract_x
 _atom_site_fract_y
 _atom_site_fract_z
 _atom_site_occupancy
  Tc  Tc0  1  0.500000  0.500000  0.500000  1
  Bi  Bi1  1  0.000000  0.000000  0.000000  1
  I  I2  1  0.732410  0.136704  0.598175  1
  I  I3  1  0.971539  0.019850  0.698036  1
  I  I4  1  0.598175  0.732410  0.136704  1
  I  I5  1  0.980150  0.301964  0.028461  1
  I  I6  1  0.698036  0.971539  0.019850  1
  I  I7  1  0.019850  0.698036  0.971539  1
  I  I8  1  0.028461  0.980150  0.301964  1
  I  I9  1  0.863296  0.401825  0.267590  1
  I  I10  1  0.301964  0.028461  0.980150  1
  I  I11  1  0.267590  0.863296  0.401825  1
  I  I12  1  0.136704  0.598175  0.732410  1
  I  I13  1  0.401825  0.267590  0.863296  1
  I  I14  1  0.765213  0.538444  0.496266  1
  I  I15  1  0.538444  0.496266  0.765213  1
  I  I16  1  0.234787  0.461556  0.503734  1
  I  I17  1  0.461556  0.503734  0.234787  1
  I  I18  1  0.496266  0.765213  0.538444  1
  I  I19  1  0.503734  0.234787  0.461556  1
