# generated using pymatgen
data_YTmVPtF14
_symmetry_space_group_name_H-M   'P 1'
_cell_length_a   5.50627178
_cell_length_b   8.84106478
_cell_length_c   11.84569751
_cell_angle_alpha   62.83787903
_cell_angle_beta   90.36132098
_cell_angle_gamma   90.14762331
_symmetry_Int_Tables_number   1
_chemical_formula_structural   YTmVPtF14
_chemical_formula_sum   'Y2 Tm2 V2 Pt2 F28'
_cell_volume   513.05834097
_cell_formula_units_Z   2
loop_
 _symmetry_equiv_pos_site_id
 _symmetry_equiv_pos_as_xyz
  1  'x, y, z'
loop_
 _atom_site_type_symbol
 _atom_site_label
 _atom_site_symmetry_multiplicity
 _atom_site_fract_x
 _atom_site_fract_y
 _atom_site_fract_z
 _atom_site_occupancy
  Y  Y0  1  0.761719  0.183309  0.232741  1
  Y  Y1  1  0.238281  0.816691  0.767259  1
  Tm  Tm2  1  0.258790  0.809203  0.264791  1
  Tm  Tm3  1  0.741210  0.190797  0.735209  1
  V  V4  1  0.753882  0.727137  0.044049  1
  V  V5  1  0.246118  0.272863  0.955951  1
  Pt  Pt6  1  0.259883  0.274439  0.455608  1
  Pt  Pt7  1  0.740117  0.725561  0.544392  1
  F  F8  1  0.933234  0.699847  0.414909  1
  F  F9  1  0.066766  0.300153  0.585091  1
  F  F10  1  0.454642  0.289427  0.077504  1
  F  F11  1  0.545358  0.710573  0.922496  1
  F  F12  1  0.480829  0.737836  0.137217  1
  F  F13  1  0.519171  0.262164  0.862783  1
  F  F14  1  0.963300  0.279023  0.360545  1
  F  F15  1  0.036700  0.720977  0.639455  1
  F  F16  1  0.961634  0.750671  0.165631  1
  F  F17  1  0.038366  0.249329  0.834369  1
  F  F18  1  0.446281  0.257578  0.320174  1
  F  F19  1  0.553719  0.742422  0.679826  1
  F  F20  1  0.765804  0.494749  0.135461  1
  F  F21  1  0.234196  0.505251  0.864539  1
  F  F22  1  0.275235  0.523968  0.354929  1
  F  F23  1  0.724765  0.476032  0.645071  1
  F  F24  1  0.965305  0.282646  0.047466  1
  F  F25  1  0.034695  0.717354  0.952534  1
  F  F26  1  0.435030  0.720577  0.457737  1
  F  F27  1  0.564970  0.279423  0.542263  1
  F  F28  1  0.744205  0.974643  0.451383  1
  F  F29  1  0.255795  0.025357  0.548617  1
  F  F30  1  0.240534  0.040411  0.049622  1
  F  F31  1  0.759466  0.959589  0.950378  1
  F  F32  1  0.580767  0.963970  0.232976  1
  F  F33  1  0.419233  0.036030  0.767024  1
  F  F34  1  0.086579  0.021009  0.270917  1
  F  F35  1  0.913421  0.978991  0.729083  1
