# generated using pymatgen
data_Pr10Co2PtAu3
_symmetry_space_group_name_H-M   'P 1'
_cell_length_a   8.85624457
_cell_length_b   8.29948049
_cell_length_c   12.09255648
_cell_angle_alpha   90.21062559
_cell_angle_beta   89.92067038
_cell_angle_gamma   90.62152772
_symmetry_Int_Tables_number   1
_chemical_formula_structural   Pr10Co2PtAu3
_chemical_formula_sum   'Pr20 Co4 Pt2 Au6'
_cell_volume   888.77075202
_cell_formula_units_Z   2
loop_
 _symmetry_equiv_pos_site_id
 _symmetry_equiv_pos_as_xyz
  1  'x, y, z'
loop_
 _atom_site_type_symbol
 _atom_site_label
 _atom_site_symmetry_multiplicity
 _atom_site_fract_x
 _atom_site_fract_y
 _atom_site_fract_z
 _atom_site_occupancy
  Pr  Pr0  1  0.834665  0.741390  0.794325  1
  Pr  Pr1  1  0.165335  0.258610  0.205675  1
  Pr  Pr2  1  0.343027  0.255518  0.712995  1
  Pr  Pr3  1  0.656973  0.744482  0.287005  1
  Pr  Pr4  1  0.390123  0.745723  0.701372  1
  Pr  Pr5  1  0.609877  0.254277  0.298628  1
  Pr  Pr6  1  0.882042  0.250284  0.801319  1
  Pr  Pr7  1  0.117958  0.749716  0.198681  1
  Pr  Pr8  1  0.954399  0.749853  0.490365  1
  Pr  Pr9  1  0.045601  0.250147  0.509635  1
  Pr  Pr10  1  0.461991  0.266994  0.005622  1
  Pr  Pr11  1  0.538009  0.733006  0.994378  1
  Pr  Pr12  1  0.673503  0.035202  0.573518  1
  Pr  Pr13  1  0.326497  0.964798  0.426482  1
  Pr  Pr14  1  0.175499  0.968199  0.926859  1
  Pr  Pr15  1  0.327992  0.538417  0.422002  1
  Pr  Pr16  1  0.824501  0.031801  0.073141  1
  Pr  Pr17  1  0.672008  0.461583  0.577998  1
  Pr  Pr18  1  0.826155  0.459701  0.074572  1
  Pr  Pr19  1  0.173845  0.540299  0.925428  1
  Co  Co20  1  0.562962  0.750306  0.506079  1
  Co  Co21  1  0.437038  0.249694  0.493921  1
  Co  Co22  1  0.058289  0.251901  0.990690  1
  Co  Co23  1  0.941711  0.748099  0.009310  1
  Pt  Pt24  1  0.574688  0.475397  0.822514  1
  Pt  Pt25  1  0.425312  0.524603  0.177486  1
  Au  Au26  1  0.079979  0.532453  0.673732  1
  Au  Au27  1  0.419739  0.974551  0.170659  1
  Au  Au28  1  0.920021  0.467547  0.326268  1
  Au  Au29  1  0.580261  0.025449  0.829341  1
  Au  Au30  1  0.920402  0.031624  0.324844  1
  Au  Au31  1  0.079598  0.968376  0.675156  1
