# generated using pymatgen
data_Ba2Li4ThP4
_symmetry_space_group_name_H-M   'P 1'
_cell_length_a   8.50534043
_cell_length_b   8.50534106
_cell_length_c   8.50534174
_cell_angle_alpha   151.01587584
_cell_angle_beta   125.05260169
_cell_angle_gamma   63.31518960
_symmetry_Int_Tables_number   1
_chemical_formula_structural   Ba2Li4ThP4
_chemical_formula_sum   'Ba2 Li4 Th1 P4'
_cell_volume   241.85554255
_cell_formula_units_Z   1
loop_
 _symmetry_equiv_pos_site_id
 _symmetry_equiv_pos_as_xyz
  1  'x, y, z'
loop_
 _atom_site_type_symbol
 _atom_site_label
 _atom_site_symmetry_multiplicity
 _atom_site_fract_x
 _atom_site_fract_y
 _atom_site_fract_z
 _atom_site_occupancy
  Ba  Ba0  1  0.619440  0.119440  0.500000  1
  Ba  Ba1  1  0.380560  0.880560  0.500000  1
  Li  Li2  1  0.996855  0.671233  0.325622  1
  Li  Li3  1  0.003145  0.328767  0.674378  1
  Li  Li4  1  0.654389  0.328767  0.325622  1
  Li  Li5  1  0.345611  0.671233  0.674378  1
  Th  Th6  1  0.000000  0.000000  0.000000  1
  P  P7  1  0.792084  0.792084  0.000000  1
  P  P8  1  0.207916  0.207916  0.000000  1
  P  P9  1  0.748179  0.500000  0.248179  1
  P  P10  1  0.251821  0.500000  0.751821  1
