# generated using pymatgen
data_Co(S8F)3
_symmetry_space_group_name_H-M   'P 1'
_cell_length_a   14.72023150
_cell_length_b   14.72023118
_cell_length_c   14.72023035
_cell_angle_alpha   118.72672564
_cell_angle_beta   118.72672223
_cell_angle_gamma   118.72672615
_symmetry_Int_Tables_number   1
_chemical_formula_structural   Co(S8F)3
_chemical_formula_sum   'Co1 S24 F3'
_cell_volume   929.48440922
_cell_formula_units_Z   1
loop_
 _symmetry_equiv_pos_site_id
 _symmetry_equiv_pos_as_xyz
  1  'x, y, z'
loop_
 _atom_site_type_symbol
 _atom_site_label
 _atom_site_symmetry_multiplicity
 _atom_site_fract_x
 _atom_site_fract_y
 _atom_site_fract_z
 _atom_site_occupancy
  Co  Co0  1  0.934360  0.934360  0.934360  1
  S  S1  1  0.805386  0.527337  0.527337  1
  S  S2  1  0.527337  0.527337  0.805386  1
  S  S3  1  0.527337  0.805386  0.527337  1
  S  S4  1  0.243829  0.376256  0.631407  1
  S  S5  1  0.353338  0.956251  0.353338  1
  S  S6  1  0.353338  0.353338  0.956251  1
  S  S7  1  0.956251  0.353338  0.353338  1
  S  S8  1  0.121549  0.737413  0.253406  1
  S  S9  1  0.253406  0.121549  0.737413  1
  S  S10  1  0.737413  0.253406  0.121549  1
  S  S11  1  0.737413  0.121549  0.253406  1
  S  S12  1  0.253406  0.737413  0.121549  1
  S  S13  1  0.121549  0.253406  0.737413  1
  S  S14  1  0.349691  0.883344  0.536167  1
  S  S15  1  0.536167  0.349691  0.883344  1
  S  S16  1  0.883344  0.536167  0.349691  1
  S  S17  1  0.883344  0.349691  0.536167  1
  S  S18  1  0.536167  0.883344  0.349691  1
  S  S19  1  0.349691  0.536167  0.883344  1
  S  S20  1  0.243829  0.631407  0.376256  1
  S  S21  1  0.376256  0.243829  0.631407  1
  S  S22  1  0.631407  0.376256  0.243829  1
  S  S23  1  0.631407  0.243829  0.376256  1
  S  S24  1  0.376256  0.631407  0.243829  1
  F  F25  1  0.854557  0.973635  0.973635  1
  F  F26  1  0.973635  0.973635  0.854557  1
  F  F27  1  0.973635  0.854557  0.973635  1
