# generated using pymatgen
data_Yb5Ce3(Si4W3)4
_symmetry_space_group_name_H-M   'P 1'
_cell_length_a   6.78315124
_cell_length_b   6.95762184
_cell_length_c   12.99841780
_cell_angle_alpha   89.98546334
_cell_angle_beta   89.93116981
_cell_angle_gamma   90.09997100
_symmetry_Int_Tables_number   1
_chemical_formula_structural   Yb5Ce3(Si4W3)4
_chemical_formula_sum   'Yb5 Ce3 Si16 W12'
_cell_volume   613.45374858
_cell_formula_units_Z   1
loop_
 _symmetry_equiv_pos_site_id
 _symmetry_equiv_pos_as_xyz
  1  'x, y, z'
loop_
 _atom_site_type_symbol
 _atom_site_label
 _atom_site_symmetry_multiplicity
 _atom_site_fract_x
 _atom_site_fract_y
 _atom_site_fract_z
 _atom_site_occupancy
  Yb  Yb0  1  0.496738  0.664614  0.589757  1
  Yb  Yb1  1  0.996139  0.834903  0.908838  1
  Yb  Yb2  1  0.502283  0.333829  0.091248  1
  Yb  Yb3  1  0.002628  0.165813  0.408745  1
  Yb  Yb4  1  0.501927  0.333917  0.410475  1
  Ce  Ce5  1  0.999589  0.169218  0.094084  1
  Ce  Ce6  1  0.499180  0.666075  0.907472  1
  Ce  Ce7  1  0.999853  0.833572  0.590672  1
  Si  Si8  1  0.658582  0.958586  0.452617  1
  Si  Si9  1  0.160833  0.546340  0.046149  1
  Si  Si10  1  0.338813  0.045247  0.953583  1
  Si  Si11  1  0.838856  0.454692  0.545631  1
  Si  Si12  1  0.343947  0.042361  0.546336  1
  Si  Si13  1  0.841979  0.458661  0.953604  1
  Si  Si14  1  0.658862  0.957502  0.045831  1
  Si  Si15  1  0.160472  0.538772  0.453338  1
  Si  Si16  1  0.464483  0.371424  0.747325  1
  Si  Si17  1  0.964263  0.127132  0.751538  1
  Si  Si18  1  0.534637  0.624101  0.249855  1
  Si  Si19  1  0.036352  0.875403  0.250587  1
  Si  Si20  1  0.696710  0.868072  0.749562  1
  Si  Si21  1  0.197125  0.631485  0.749149  1
  Si  Si22  1  0.305320  0.133439  0.252717  1
  Si  Si23  1  0.797741  0.368533  0.252283  1
  W  W24  1  0.669790  0.163790  0.627233  1
  W  W25  1  0.167993  0.335745  0.872925  1
  W  W26  1  0.332435  0.835128  0.127067  1
  W  W27  1  0.836069  0.668690  0.372809  1
  W  W28  1  0.334264  0.831168  0.373459  1
  W  W29  1  0.834803  0.664915  0.126871  1
  W  W30  1  0.665839  0.165892  0.873657  1
  W  W31  1  0.164776  0.333126  0.626524  1
  W  W32  1  0.836425  0.494964  0.749169  1
  W  W33  1  0.336084  0.004192  0.750547  1
  W  W34  1  0.161490  0.507596  0.249167  1
  W  W35  1  0.662722  0.991106  0.249173  1
