# generated using pymatgen
data_Nd4Al9Ga15AgRh
_symmetry_space_group_name_H-M   'P 1'
_cell_length_a   6.10084184
_cell_length_b   6.10084268
_cell_length_c   15.80512145
_cell_angle_alpha   90.16024953
_cell_angle_beta   90.16024925
_cell_angle_gamma   90.03074616
_symmetry_Int_Tables_number   1
_chemical_formula_structural   Nd4Al9Ga15AgRh
_chemical_formula_sum   'Nd4 Al9 Ga15 Ag1 Rh1'
_cell_volume   588.26629810
_cell_formula_units_Z   1
loop_
 _symmetry_equiv_pos_site_id
 _symmetry_equiv_pos_as_xyz
  1  'x, y, z'
loop_
 _atom_site_type_symbol
 _atom_site_label
 _atom_site_symmetry_multiplicity
 _atom_site_fract_x
 _atom_site_fract_y
 _atom_site_fract_z
 _atom_site_occupancy
  Nd  Nd0  1  0.751941  0.251941  0.252076  1
  Nd  Nd1  1  0.251059  0.751059  0.249735  1
  Nd  Nd2  1  0.248374  0.748374  0.750391  1
  Nd  Nd3  1  0.748618  0.248618  0.747358  1
  Al  Al4  1  0.507071  0.007071  0.911498  1
  Al  Al5  1  0.992209  0.007472  0.911679  1
  Al  Al6  1  0.507472  0.492209  0.911679  1
  Al  Al7  1  0.991739  0.491739  0.911558  1
  Al  Al8  1  0.507988  0.007988  0.088224  1
  Al  Al9  1  0.992321  0.007659  0.088263  1
  Al  Al10  1  0.507659  0.492321  0.088263  1
  Al  Al11  1  0.992787  0.492787  0.088282  1
  Al  Al12  1  0.584249  0.084249  0.434126  1
  Ga  Ga13  1  0.250653  0.250757  0.187098  1
  Ga  Ga14  1  0.750757  0.750653  0.187098  1
  Ga  Ga15  1  0.749094  0.748596  0.812859  1
  Ga  Ga16  1  0.248596  0.249094  0.812859  1
  Ga  Ga17  1  0.255060  0.249834  0.344450  1
  Ga  Ga18  1  0.749834  0.755060  0.344450  1
  Ga  Ga19  1  0.749036  0.746839  0.655479  1
  Ga  Ga20  1  0.246839  0.249036  0.655479  1
  Ga  Ga21  1  0.080698  0.923235  0.431396  1
  Ga  Ga22  1  0.423235  0.580698  0.431396  1
  Ga  Ga23  1  0.920502  0.420502  0.430840  1
  Ga  Ga24  1  0.418481  0.918481  0.568972  1
  Ga  Ga25  1  0.918485  0.076050  0.568377  1
  Ga  Ga26  1  0.576050  0.418485  0.568377  1
  Ga  Ga27  1  0.079352  0.579352  0.567795  1
  Ag  Ag28  1  0.249929  0.749929  0.999939  1
  Rh  Rh29  1  0.749911  0.249911  0.000003  1
