# generated using pymatgen
data_Tb11Y4ErTl3InRh4
_symmetry_space_group_name_H-M   'P 1'
_cell_length_a   9.70010718
_cell_length_b   9.69614689
_cell_length_c   9.70204200
_cell_angle_alpha   59.94112118
_cell_angle_beta   59.90557716
_cell_angle_gamma   59.98661080
_symmetry_Int_Tables_number   1
_chemical_formula_structural   Tb11Y4ErTl3InRh4
_chemical_formula_sum   'Tb11 Y4 Er1 Tl3 In1 Rh4'
_cell_volume   644.43005828
_cell_formula_units_Z   1
loop_
 _symmetry_equiv_pos_site_id
 _symmetry_equiv_pos_as_xyz
  1  'x, y, z'
loop_
 _atom_site_type_symbol
 _atom_site_label
 _atom_site_symmetry_multiplicity
 _atom_site_fract_x
 _atom_site_fract_y
 _atom_site_fract_z
 _atom_site_occupancy
  Tb  Tb0  1  0.648511  0.049780  0.648579  1
  Tb  Tb1  1  0.189419  0.811663  0.812011  1
  Tb  Tb2  1  0.060441  0.059870  0.437826  1
  Tb  Tb3  1  0.812214  0.188609  0.188317  1
  Tb  Tb4  1  0.812040  0.811529  0.189265  1
  Tb  Tb5  1  0.647163  0.648332  0.052017  1
  Tb  Tb6  1  0.651818  0.652028  0.651605  1
  Tb  Tb7  1  0.062208  0.438626  0.436488  1
  Tb  Tb8  1  0.051529  0.648310  0.647251  1
  Tb  Tb9  1  0.811458  0.189639  0.811366  1
  Tb  Tb10  1  0.436778  0.438697  0.061746  1
  Y  Y11  1  0.189311  0.188805  0.811354  1
  Y  Y12  1  0.437650  0.060070  0.060576  1
  Y  Y13  1  0.437450  0.062386  0.437163  1
  Y  Y14  1  0.059802  0.439293  0.059659  1
  Er  Er15  1  0.189083  0.811589  0.188366  1
  Tl  Tl16  1  0.415330  0.755781  0.415366  1
  Tl  Tl17  1  0.415026  0.414967  0.755559  1
  Tl  Tl18  1  0.755055  0.415411  0.415513  1
  In  In19  1  0.415926  0.415615  0.417059  1
  Rh  Rh20  1  0.856514  0.428651  0.858584  1
  Rh  Rh21  1  0.860301  0.857617  0.426207  1
  Rh  Rh22  1  0.427311  0.855861  0.860647  1
  Rh  Rh23  1  0.857661  0.856871  0.857476  1
