# generated using pymatgen
data_Dy15Th(CdNi)4
_symmetry_space_group_name_H-M   'P 1'
_cell_length_a   9.55559110
_cell_length_b   9.55559097
_cell_length_c   9.55559053
_cell_angle_alpha   60.09113435
_cell_angle_beta   60.09113887
_cell_angle_gamma   60.09113322
_symmetry_Int_Tables_number   1
_chemical_formula_structural   Dy15Th(CdNi)4
_chemical_formula_sum   'Dy15 Th1 Cd4 Ni4'
_cell_volume   618.23497459
_cell_formula_units_Z   1
loop_
 _symmetry_equiv_pos_site_id
 _symmetry_equiv_pos_as_xyz
  1  'x, y, z'
loop_
 _atom_site_type_symbol
 _atom_site_label
 _atom_site_symmetry_multiplicity
 _atom_site_fract_x
 _atom_site_fract_y
 _atom_site_fract_z
 _atom_site_occupancy
  Dy  Dy0  1  0.598613  0.598613  0.201041  1
  Dy  Dy1  1  0.598613  0.201041  0.598613  1
  Dy  Dy2  1  0.201041  0.598613  0.598613  1
  Dy  Dy3  1  0.062566  0.439230  0.439230  1
  Dy  Dy4  1  0.439557  0.062066  0.062066  1
  Dy  Dy5  1  0.439230  0.062566  0.439230  1
  Dy  Dy6  1  0.062066  0.439557  0.062066  1
  Dy  Dy7  1  0.439230  0.439230  0.062566  1
  Dy  Dy8  1  0.062066  0.062066  0.439557  1
  Dy  Dy9  1  0.187881  0.814703  0.814703  1
  Dy  Dy10  1  0.812830  0.186228  0.186228  1
  Dy  Dy11  1  0.814703  0.187881  0.814703  1
  Dy  Dy12  1  0.186228  0.812830  0.186228  1
  Dy  Dy13  1  0.814703  0.814703  0.187881  1
  Dy  Dy14  1  0.186228  0.186228  0.812830  1
  Th  Th15  1  0.594143  0.594143  0.594143  1
  Cd  Cd16  1  0.830580  0.830580  0.830580  1
  Cd  Cd17  1  0.832082  0.832082  0.505699  1
  Cd  Cd18  1  0.832082  0.505699  0.832082  1
  Cd  Cd19  1  0.505699  0.832082  0.832082  1
  Ni  Ni20  1  0.392836  0.392836  0.392836  1
  Ni  Ni21  1  0.392979  0.392979  0.821065  1
  Ni  Ni22  1  0.392979  0.821065  0.392979  1
  Ni  Ni23  1  0.821065  0.392979  0.392979  1
