# generated using pymatgen
data_BeV3(Fe3Ge)2
_symmetry_space_group_name_H-M   'P 1'
_cell_length_a   3.99729300
_cell_length_b   5.66938200
_cell_length_c   11.98279200
_cell_angle_alpha   90.00000000
_cell_angle_beta   90.00028678
_cell_angle_gamma   90.00000000
_symmetry_Int_Tables_number   1
_chemical_formula_structural   BeV3(Fe3Ge)2
_chemical_formula_sum   'Be2 V6 Fe12 Ge4'
_cell_volume   271.55620098
_cell_formula_units_Z   2
loop_
 _symmetry_equiv_pos_site_id
 _symmetry_equiv_pos_as_xyz
  1  'x, y, z'
loop_
 _atom_site_type_symbol
 _atom_site_label
 _atom_site_symmetry_multiplicity
 _atom_site_fract_x
 _atom_site_fract_y
 _atom_site_fract_z
 _atom_site_occupancy
  Be  Be0  1  0.000200  0.000000  0.668822  1
  Be  Be1  1  0.500199  0.500000  0.831123  1
  V  V2  1  0.000022  0.500000  0.989715  1
  V  V3  1  0.499778  0.000000  0.164115  1
  V  V4  1  0.999780  0.500000  0.335892  1
  V  V5  1  0.500021  0.000000  0.510318  1
  V  V6  1  0.000202  0.500000  0.672749  1
  V  V7  1  0.500202  0.000000  0.827219  1
  Fe  Fe8  1  0.500019  0.254706  0.994887  1
  Fe  Fe9  1  0.500019  0.745294  0.994887  1
  Fe  Fe10  1  0.999795  0.249731  0.165178  1
  Fe  Fe11  1  0.999795  0.750269  0.165178  1
  Fe  Fe12  1  0.499794  0.250294  0.334903  1
  Fe  Fe13  1  0.499794  0.749706  0.334903  1
  Fe  Fe14  1  0.000019  0.245244  0.505115  1
  Fe  Fe15  1  0.000019  0.754756  0.505115  1
  Fe  Fe16  1  0.500186  0.245924  0.670680  1
  Fe  Fe17  1  0.500186  0.754076  0.670680  1
  Fe  Fe18  1  0.000187  0.254048  0.829260  1
  Fe  Fe19  1  0.000187  0.745952  0.829260  1
  Ge  Ge20  1  0.000011  0.000000  0.995467  1
  Ge  Ge21  1  0.499789  0.500000  0.164690  1
  Ge  Ge22  1  0.999789  0.000000  0.335349  1
  Ge  Ge23  1  0.500011  0.500000  0.504500  1
