# generated using pymatgen
data_Ho2LuGa5
_symmetry_space_group_name_H-M   'P 1'
_cell_length_a   6.06964400
_cell_length_b   9.60036700
_cell_length_c   11.40306700
_cell_angle_alpha   90.00000000
_cell_angle_beta   90.00000000
_cell_angle_gamma   90.00000000
_symmetry_Int_Tables_number   1
_chemical_formula_structural   Ho2LuGa5
_chemical_formula_sum   'Ho8 Lu4 Ga20'
_cell_volume   664.46595011
_cell_formula_units_Z   4
loop_
 _symmetry_equiv_pos_site_id
 _symmetry_equiv_pos_as_xyz
  1  'x, y, z'
loop_
 _atom_site_type_symbol
 _atom_site_label
 _atom_site_symmetry_multiplicity
 _atom_site_fract_x
 _atom_site_fract_y
 _atom_site_fract_z
 _atom_site_occupancy
  Ho  Ho0  1  0.889980  0.510001  0.352017  1
  Ho  Ho1  1  0.610020  0.989999  0.852017  1
  Ho  Ho2  1  0.110020  0.010001  0.647983  1
  Ho  Ho3  1  0.389980  0.489999  0.147983  1
  Ho  Ho4  1  0.110020  0.489999  0.647983  1
  Ho  Ho5  1  0.389980  0.010001  0.147983  1
  Ho  Ho6  1  0.889980  0.989999  0.352017  1
  Ho  Ho7  1  0.610020  0.510001  0.852017  1
  Lu  Lu8  1  0.848636  0.750000  0.073863  1
  Lu  Lu9  1  0.651364  0.750000  0.573863  1
  Lu  Lu10  1  0.151364  0.250000  0.926137  1
  Lu  Lu11  1  0.348636  0.250000  0.426137  1
  Ga  Ga12  1  0.874765  0.052077  0.090459  1
  Ga  Ga13  1  0.625235  0.447923  0.590459  1
  Ga  Ga14  1  0.125235  0.552077  0.909541  1
  Ga  Ga15  1  0.374765  0.947923  0.409541  1
  Ga  Ga16  1  0.125235  0.947923  0.909541  1
  Ga  Ga17  1  0.374765  0.552077  0.409541  1
  Ga  Ga18  1  0.874765  0.447923  0.090459  1
  Ga  Ga19  1  0.625235  0.052077  0.590459  1
  Ga  Ga20  1  0.173543  0.750000  0.251278  1
  Ga  Ga21  1  0.326457  0.750000  0.751278  1
  Ga  Ga22  1  0.826457  0.250000  0.748722  1
  Ga  Ga23  1  0.673543  0.250000  0.248722  1
  Ga  Ga24  1  0.372760  0.750000  0.005314  1
  Ga  Ga25  1  0.127240  0.750000  0.505314  1
  Ga  Ga26  1  0.627240  0.250000  0.994686  1
  Ga  Ga27  1  0.872760  0.250000  0.494686  1
  Ga  Ga28  1  0.604019  0.750000  0.298713  1
  Ga  Ga29  1  0.895981  0.750000  0.798713  1
  Ga  Ga30  1  0.395981  0.250000  0.701287  1
  Ga  Ga31  1  0.104019  0.250000  0.201287  1
