# generated using pymatgen
data_Th4ReTc6Os
_symmetry_space_group_name_H-M   'P 1'
_cell_length_a   5.25933978
_cell_length_b   5.25934039
_cell_length_c   9.70756511
_cell_angle_alpha   90.50152850
_cell_angle_beta   89.49847049
_cell_angle_gamma   118.62936927
_symmetry_Int_Tables_number   1
_chemical_formula_structural   Th4ReTc6Os
_chemical_formula_sum   'Th4 Re1 Tc6 Os1'
_cell_volume   235.67578972
_cell_formula_units_Z   1
loop_
 _symmetry_equiv_pos_site_id
 _symmetry_equiv_pos_as_xyz
  1  'x, y, z'
loop_
 _atom_site_type_symbol
 _atom_site_label
 _atom_site_symmetry_multiplicity
 _atom_site_fract_x
 _atom_site_fract_y
 _atom_site_fract_z
 _atom_site_occupancy
  Th  Th0  1  0.332860  0.667140  0.436231  1
  Th  Th1  1  0.666082  0.333918  0.564403  1
  Th  Th2  1  0.666258  0.333742  0.934582  1
  Th  Th3  1  0.332189  0.667811  0.064801  1
  Re  Re4  1  0.836362  0.163638  0.250490  1
  Tc  Tc5  1  0.994225  0.005775  0.001068  1
  Tc  Tc6  1  0.832386  0.654838  0.251552  1
  Tc  Tc7  1  0.345162  0.167614  0.251552  1
  Tc  Tc8  1  0.168775  0.831225  0.748745  1
  Tc  Tc9  1  0.169377  0.339514  0.748589  1
  Tc  Tc10  1  0.660486  0.830623  0.748589  1
  Os  Os11  1  0.995838  0.004162  0.499398  1
