# generated using pymatgen
data_CeDy3(ErSb5)4
_symmetry_space_group_name_H-M   'P 1'
_cell_length_a   4.23985000
_cell_length_b   13.14770504
_cell_length_c   14.63910500
_cell_angle_alpha   77.69793349
_cell_angle_beta   90.00000000
_cell_angle_gamma   90.00000000
_symmetry_Int_Tables_number   1
_chemical_formula_structural   CeDy3(ErSb5)4
_chemical_formula_sum   'Ce1 Dy3 Er4 Sb20'
_cell_volume   797.30846839
_cell_formula_units_Z   1
loop_
 _symmetry_equiv_pos_site_id
 _symmetry_equiv_pos_as_xyz
  1  'x, y, z'
loop_
 _atom_site_type_symbol
 _atom_site_label
 _atom_site_symmetry_multiplicity
 _atom_site_fract_x
 _atom_site_fract_y
 _atom_site_fract_z
 _atom_site_occupancy
  Ce  Ce0  1  0.250000  0.669676  0.574456  1
  Dy  Dy1  1  0.750000  0.329197  0.424304  1
  Dy  Dy2  1  0.250000  0.953124  0.357258  1
  Dy  Dy3  1  0.750000  0.049497  0.640819  1
  Er  Er4  1  0.250000  0.392791  0.772953  1
  Er  Er5  1  0.750000  0.604630  0.227528  1
  Er  Er6  1  0.250000  0.662347  0.857007  1
  Er  Er7  1  0.750000  0.337828  0.144206  1
  Sb  Sb8  1  0.250000  0.144254  0.779770  1
  Sb  Sb9  1  0.750000  0.855355  0.220374  1
  Sb  Sb10  1  0.250000  0.140967  0.482324  1
  Sb  Sb11  1  0.750000  0.857741  0.516174  1
  Sb  Sb12  1  0.250000  0.153651  0.170657  1
  Sb  Sb13  1  0.750000  0.848011  0.829763  1
  Sb  Sb14  1  0.250000  0.420198  0.976567  1
  Sb  Sb15  1  0.750000  0.579667  0.023264  1
  Sb  Sb16  1  0.750000  0.031499  0.909335  1
  Sb  Sb17  1  0.250000  0.970338  0.092125  1
  Sb  Sb18  1  0.750000  0.139254  0.320531  1
  Sb  Sb19  1  0.250000  0.862655  0.681082  1
  Sb  Sb20  1  0.750000  0.278860  0.938834  1
  Sb  Sb21  1  0.250000  0.720864  0.061007  1
  Sb  Sb22  1  0.750000  0.286515  0.655419  1
  Sb  Sb23  1  0.250000  0.713073  0.344772  1
  Sb  Sb24  1  0.750000  0.576382  0.735262  1
  Sb  Sb25  1  0.250000  0.423623  0.264803  1
  Sb  Sb26  1  0.750000  0.571478  0.445824  1
  Sb  Sb27  1  0.250000  0.426528  0.553583  1
