# generated using pymatgen
data_Nd4CuRh2Au
_symmetry_space_group_name_H-M   'P 1'
_cell_length_a   4.49700100
_cell_length_b   5.82599543
_cell_length_c   7.41200949
_cell_angle_alpha   89.62465823
_cell_angle_beta   90.00000000
_cell_angle_gamma   90.00000000
_symmetry_Int_Tables_number   1
_chemical_formula_structural   Nd4CuRh2Au
_chemical_formula_sum   'Nd4 Cu1 Rh2 Au1'
_cell_volume   194.18682974
_cell_formula_units_Z   1
loop_
 _symmetry_equiv_pos_site_id
 _symmetry_equiv_pos_as_xyz
  1  'x, y, z'
loop_
 _atom_site_type_symbol
 _atom_site_label
 _atom_site_symmetry_multiplicity
 _atom_site_fract_x
 _atom_site_fract_y
 _atom_site_fract_z
 _atom_site_occupancy
  Nd  Nd0  1  0.000000  0.641450  0.320767  1
  Nd  Nd1  1  0.000000  0.863737  0.816876  1
  Nd  Nd2  1  0.500000  0.369747  0.687064  1
  Nd  Nd3  1  0.500000  0.140279  0.169960  1
  Cu  Cu4  1  0.500000  0.631458  0.038215  1
  Rh  Rh5  1  0.000000  0.370984  0.964739  1
  Rh  Rh6  1  0.500000  0.838591  0.546742  1
  Au  Au7  1  0.000000  0.143756  0.455638  1
