# generated using pymatgen
data_Dy2Hf2Co19CuP12
_symmetry_space_group_name_H-M   'P 1'
_cell_length_a   3.62556200
_cell_length_b   10.18745229
_cell_length_c   11.69246612
_cell_angle_alpha   89.77706073
_cell_angle_beta   90.00000000
_cell_angle_gamma   90.00000000
_symmetry_Int_Tables_number   1
_chemical_formula_structural   Dy2Hf2Co19CuP12
_chemical_formula_sum   'Dy2 Hf2 Co19 Cu1 P12'
_cell_volume   431.86077180
_cell_formula_units_Z   1
loop_
 _symmetry_equiv_pos_site_id
 _symmetry_equiv_pos_as_xyz
  1  'x, y, z'
loop_
 _atom_site_type_symbol
 _atom_site_label
 _atom_site_symmetry_multiplicity
 _atom_site_fract_x
 _atom_site_fract_y
 _atom_site_fract_z
 _atom_site_occupancy
  Dy  Dy0  1  0.750000  0.417947  0.296634  1
  Dy  Dy1  1  0.750000  0.081465  0.795821  1
  Hf  Hf2  1  0.250000  0.580400  0.699632  1
  Hf  Hf3  1  0.250000  0.920053  0.203706  1
  Co  Co4  1  0.250000  0.780309  0.494888  1
  Co  Co5  1  0.750000  0.285860  0.009204  1
  Co  Co6  1  0.750000  0.218109  0.507629  1
  Co  Co7  1  0.250000  0.409930  0.490674  1
  Co  Co8  1  0.250000  0.091118  0.990226  1
  Co  Co9  1  0.750000  0.592991  0.518515  1
  Co  Co10  1  0.750000  0.906434  0.020682  1
  Co  Co11  1  0.250000  0.222348  0.177484  1
  Co  Co12  1  0.250000  0.278089  0.677083  1
  Co  Co13  1  0.750000  0.775382  0.820723  1
  Co  Co14  1  0.750000  0.722551  0.327114  1
  Co  Co15  1  0.250000  0.880465  0.697514  1
  Co  Co16  1  0.250000  0.622085  0.199312  1
  Co  Co17  1  0.750000  0.113544  0.298312  1
  Co  Co18  1  0.750000  0.384361  0.798517  1
  Co  Co19  1  0.250000  0.468666  0.928194  1
  Co  Co20  1  0.250000  0.029363  0.427420  1
  Co  Co21  1  0.750000  0.538774  0.064731  1
  Co  Co22  1  0.750000  0.964886  0.565475  1
  Cu  Cu23  1  0.250000  0.713709  0.991159  1
  P  P24  1  0.250000  0.421273  0.110824  1
  P  P25  1  0.250000  0.080511  0.609385  1
  P  P26  1  0.750000  0.578246  0.878960  1
  P  P27  1  0.750000  0.918628  0.384049  1
  P  P28  1  0.250000  0.268574  0.870768  1
  P  P29  1  0.250000  0.230337  0.371699  1
  P  P30  1  0.750000  0.735136  0.139658  1
  P  P31  1  0.750000  0.767205  0.632010  1
  P  P32  1  0.250000  0.601304  0.392233  1
  P  P33  1  0.250000  0.900224  0.889445  1
  P  P34  1  0.750000  0.399520  0.610293  1
  P  P35  1  0.750000  0.100204  0.110030  1
