# generated using pymatgen
data_LaPr4In11Ir6
_symmetry_space_group_name_H-M   'P 1'
_cell_length_a   10.70813109
_cell_length_b   10.70813070
_cell_length_c   4.48087500
_cell_angle_alpha   90.00000000
_cell_angle_beta   90.00000000
_cell_angle_gamma   89.52874273
_symmetry_Int_Tables_number   1
_chemical_formula_structural   LaPr4In11Ir6
_chemical_formula_sum   'La1 Pr4 In11 Ir6'
_cell_volume   513.77797317
_cell_formula_units_Z   1
loop_
 _symmetry_equiv_pos_site_id
 _symmetry_equiv_pos_as_xyz
  1  'x, y, z'
loop_
 _atom_site_type_symbol
 _atom_site_label
 _atom_site_symmetry_multiplicity
 _atom_site_fract_x
 _atom_site_fract_y
 _atom_site_fract_z
 _atom_site_occupancy
  La  La0  1  0.500000  0.500000  0.500000  1
  Pr  Pr1  1  0.043504  0.308249  0.000000  1
  Pr  Pr2  1  0.956496  0.691751  0.000000  1
  Pr  Pr3  1  0.691751  0.956496  0.000000  1
  Pr  Pr4  1  0.308249  0.043504  0.000000  1
  In  In5  1  0.151362  0.541143  0.500000  1
  In  In6  1  0.848638  0.458857  0.500000  1
  In  In7  1  0.458857  0.848638  0.500000  1
  In  In8  1  0.541143  0.151362  0.500000  1
  In  In9  1  0.705908  0.294092  0.000000  1
  In  In10  1  0.294092  0.705908  0.000000  1
  In  In11  1  0.155781  0.844219  0.500000  1
  In  In12  1  0.844219  0.155781  0.500000  1
  In  In13  1  0.279623  0.279623  0.500000  1
  In  In14  1  0.720377  0.720377  0.500000  1
  In  In15  1  0.000000  0.000000  0.000000  1
  Ir  Ir16  1  0.275709  0.451085  0.000000  1
  Ir  Ir17  1  0.724291  0.548915  0.000000  1
  Ir  Ir18  1  0.548915  0.724291  0.000000  1
  Ir  Ir19  1  0.451085  0.275709  0.000000  1
  Ir  Ir20  1  0.101356  0.101356  0.500000  1
  Ir  Ir21  1  0.898644  0.898644  0.500000  1
