# generated using pymatgen
data_Tb6HoTmAl4
_symmetry_space_group_name_H-M   'P 1'
_cell_length_a   5.12082200
_cell_length_b   6.56112127
_cell_length_c   9.45897668
_cell_angle_alpha   90.39271854
_cell_angle_beta   90.00000000
_cell_angle_gamma   90.00000000
_symmetry_Int_Tables_number   1
_chemical_formula_structural   Tb6HoTmAl4
_chemical_formula_sum   'Tb6 Ho1 Tm1 Al4'
_cell_volume   317.79839382
_cell_formula_units_Z   1
loop_
 _symmetry_equiv_pos_site_id
 _symmetry_equiv_pos_as_xyz
  1  'x, y, z'
loop_
 _atom_site_type_symbol
 _atom_site_label
 _atom_site_symmetry_multiplicity
 _atom_site_fract_x
 _atom_site_fract_y
 _atom_site_fract_z
 _atom_site_occupancy
  Tb  Tb0  1  0.750000  0.690646  0.427701  1
  Tb  Tb1  1  0.250000  0.309027  0.573867  1
  Tb  Tb2  1  0.750000  0.186888  0.072736  1
  Tb  Tb3  1  0.250000  0.813206  0.925635  1
  Tb  Tb4  1  0.750000  0.527422  0.790989  1
  Tb  Tb5  1  0.250000  0.472514  0.209074  1
  Ho  Ho6  1  0.250000  0.971934  0.289370  1
  Tm  Tm7  1  0.750000  0.027598  0.709757  1
  Al  Al8  1  0.750000  0.206978  0.399409  1
  Al  Al9  1  0.250000  0.793705  0.601655  1
  Al  Al10  1  0.750000  0.708362  0.102947  1
  Al  Al11  1  0.250000  0.291720  0.896861  1
