# generated using pymatgen
data_HoTiGa4Mo
_symmetry_space_group_name_H-M   'P 1'
_cell_length_a   5.44534963
_cell_length_b   5.44534921
_cell_length_c   5.44534930
_cell_angle_alpha   104.18791654
_cell_angle_beta   104.18791498
_cell_angle_gamma   120.65011106
_symmetry_Int_Tables_number   1
_chemical_formula_structural   HoTiGa4Mo
_chemical_formula_sum   'Ho1 Ti1 Ga4 Mo1'
_cell_volume   120.68944632
_cell_formula_units_Z   1
loop_
 _symmetry_equiv_pos_site_id
 _symmetry_equiv_pos_as_xyz
  1  'x, y, z'
loop_
 _atom_site_type_symbol
 _atom_site_label
 _atom_site_symmetry_multiplicity
 _atom_site_fract_x
 _atom_site_fract_y
 _atom_site_fract_z
 _atom_site_occupancy
  Ho  Ho0  1  0.000000  0.000000  0.000000  1
  Ti  Ti1  1  0.750000  0.250000  0.500000  1
  Ga  Ga2  1  0.304461  0.304461  0.608922  1
  Ga  Ga3  1  0.695539  0.695539  0.391078  1
  Ga  Ga4  1  0.695539  0.304461  0.000000  1
  Ga  Ga5  1  0.304461  0.695539  0.000000  1
  Mo  Mo6  1  0.250000  0.750000  0.500000  1
