# generated using pymatgen
data_CsCdFeF6
_symmetry_space_group_name_H-M   'P 1'
_cell_length_a   7.69618500
_cell_length_b   7.72096800
_cell_length_c   10.73154400
_cell_angle_alpha   90.00000000
_cell_angle_beta   90.00000000
_cell_angle_gamma   90.00000000
_symmetry_Int_Tables_number   1
_chemical_formula_structural   CsCdFeF6
_chemical_formula_sum   'Cs4 Cd4 Fe4 F24'
_cell_volume   637.68978725
_cell_formula_units_Z   4
loop_
 _symmetry_equiv_pos_site_id
 _symmetry_equiv_pos_as_xyz
  1  'x, y, z'
loop_
 _atom_site_type_symbol
 _atom_site_label
 _atom_site_symmetry_multiplicity
 _atom_site_fract_x
 _atom_site_fract_y
 _atom_site_fract_z
 _atom_site_occupancy
  Cs  Cs0  1  0.250000  0.513160  0.125593  1
  Cs  Cs1  1  0.750000  0.486840  0.874407  1
  Cs  Cs2  1  0.750000  0.986840  0.625593  1
  Cs  Cs3  1  0.250000  0.013160  0.374407  1
  Cd  Cd4  1  0.250000  0.710798  0.758748  1
  Cd  Cd5  1  0.750000  0.289202  0.241252  1
  Cd  Cd6  1  0.750000  0.789202  0.258748  1
  Cd  Cd7  1  0.250000  0.210798  0.741252  1
  Fe  Fe8  1  0.000000  0.500000  0.500000  1
  Fe  Fe9  1  0.000000  0.000000  0.000000  1
  Fe  Fe10  1  0.500000  0.500000  0.500000  1
  Fe  Fe11  1  0.500000  0.000000  0.000000  1
  F  F12  1  0.052588  0.786695  0.910922  1
  F  F13  1  0.947412  0.213305  0.089078  1
  F  F14  1  0.947412  0.713305  0.410922  1
  F  F15  1  0.552588  0.213305  0.089078  1
  F  F16  1  0.052588  0.286695  0.589078  1
  F  F17  1  0.447412  0.786695  0.910922  1
  F  F18  1  0.447412  0.286695  0.589078  1
  F  F19  1  0.552588  0.713305  0.410922  1
  F  F20  1  0.250000  0.058447  0.016711  1
  F  F21  1  0.750000  0.941553  0.983289  1
  F  F22  1  0.750000  0.441553  0.516711  1
  F  F23  1  0.250000  0.558447  0.483289  1
  F  F24  1  0.504286  0.628541  0.656813  1
  F  F25  1  0.495714  0.371459  0.343187  1
  F  F26  1  0.495714  0.871459  0.156813  1
  F  F27  1  0.004286  0.371459  0.343187  1
  F  F28  1  0.504286  0.128541  0.843187  1
  F  F29  1  0.995714  0.628541  0.656813  1
  F  F30  1  0.995714  0.128541  0.843187  1
  F  F31  1  0.004286  0.871459  0.156813  1
  F  F32  1  0.250000  0.951705  0.652639  1
  F  F33  1  0.750000  0.048295  0.347361  1
  F  F34  1  0.750000  0.548295  0.152639  1
  F  F35  1  0.250000  0.451705  0.847361  1
