# generated using pymatgen
data_Sr2Ta4V3Fe(PO4)12
_symmetry_space_group_name_H-M   'P 1'
_cell_length_a   8.64129900
_cell_length_b   9.12446283
_cell_length_c   12.57703500
_cell_angle_alpha   86.41746430
_cell_angle_beta   90.00000000
_cell_angle_gamma   90.00000000
_symmetry_Int_Tables_number   1
_chemical_formula_structural   Sr2Ta4V3Fe(PO4)12
_chemical_formula_sum   'Sr2 Ta4 V3 Fe1 P12 O48'
_cell_volume   989.72625021
_cell_formula_units_Z   1
loop_
 _symmetry_equiv_pos_site_id
 _symmetry_equiv_pos_as_xyz
  1  'x, y, z'
loop_
 _atom_site_type_symbol
 _atom_site_label
 _atom_site_symmetry_multiplicity
 _atom_site_fract_x
 _atom_site_fract_y
 _atom_site_fract_z
 _atom_site_occupancy
  Sr  Sr0  1  0.000530  0.000061  0.500930  1
  Sr  Sr1  1  0.500335  0.499777  0.500128  1
  Ta  Ta2  1  0.499695  0.214434  0.853650  1
  Ta  Ta3  1  0.999744  0.285305  0.146130  1
  Ta  Ta4  1  0.500199  0.785263  0.146001  1
  Ta  Ta5  1  0.000629  0.714956  0.853813  1
  V  V6  1  0.500100  0.798008  0.644751  1
  V  V7  1  0.000423  0.702452  0.354991  1
  V  V8  1  0.499571  0.202440  0.355050  1
  Fe  Fe9  1  0.998630  0.300502  0.646081  1
  P  P10  1  0.354572  0.856229  0.394983  1
  P  P11  1  0.284098  0.499454  0.741738  1
  P  P12  1  0.144835  0.356104  0.395663  1
  P  P13  1  0.860061  0.361006  0.890340  1
  P  P14  1  0.359850  0.138859  0.109265  1
  P  P15  1  0.784253  0.000272  0.257880  1
  P  P16  1  0.215074  0.000543  0.741585  1
  P  P17  1  0.640210  0.861028  0.890594  1
  P  P18  1  0.140249  0.638773  0.109322  1
  P  P19  1  0.854519  0.643412  0.605073  1
  P  P20  1  0.715641  0.500307  0.257825  1
  P  P21  1  0.646785  0.143704  0.604944  1
  O  O22  1  0.304858  0.907528  0.665733  1
  O  O23  1  0.178403  0.831665  0.397533  1
  O  O24  1  0.434471  0.769043  0.487927  1
  O  O25  1  0.422867  0.789434  0.292567  1
  O  O26  1  0.395738  0.596527  0.674271  1
  O  O27  1  0.119376  0.521473  0.395128  1
  O  O28  1  0.193500  0.407377  0.665990  1
  O  O29  1  0.380457  0.394313  0.819827  1
  O  O30  1  0.119991  0.469965  0.111765  1
  O  O31  1  0.820659  0.408317  0.187431  1
  O  O32  1  0.321078  0.330979  0.397831  1
  O  O33  1  0.065576  0.270410  0.489790  1
  O  O34  1  0.075912  0.288831  0.293532  1
  O  O35  1  0.683101  0.329414  0.891143  1
  O  O36  1  0.924419  0.294644  0.998309  1
  O  O37  1  0.941280  0.292654  0.799426  1
  O  O38  1  0.441658  0.207695  0.199159  1
  O  O39  1  0.423237  0.204620  0.000901  1
  O  O40  1  0.182625  0.170341  0.108757  1
  O  O41  1  0.880494  0.105347  0.179779  1
  O  O42  1  0.380554  0.021295  0.395018  1
  O  O43  1  0.103499  0.097765  0.674728  1
  O  O44  1  0.320738  0.091629  0.812200  1
  O  O45  1  0.620160  0.029726  0.888499  1
  O  O46  1  0.379902  0.970128  0.111425  1
  O  O47  1  0.679266  0.908408  0.187585  1
  O  O48  1  0.895398  0.903574  0.325949  1
  O  O49  1  0.620185  0.978378  0.604678  1
  O  O50  1  0.119632  0.894587  0.819943  1
  O  O51  1  0.817420  0.829492  0.891340  1
  O  O52  1  0.576851  0.795225  0.998965  1
  O  O53  1  0.558094  0.792569  0.800711  1
  O  O54  1  0.058126  0.707505  0.199071  1
  O  O55  1  0.076869  0.704357  0.000919  1
  O  O56  1  0.317432  0.669976  0.108464  1
  O  O57  1  0.923063  0.710152  0.707295  1
  O  O58  1  0.934672  0.729900  0.512004  1
  O  O59  1  0.678470  0.668274  0.602519  1
  O  O60  1  0.179223  0.591281  0.812255  1
  O  O61  1  0.880336  0.529530  0.888226  1
  O  O62  1  0.619756  0.605529  0.179669  1
  O  O63  1  0.805578  0.592992  0.333635  1
  O  O64  1  0.879302  0.477634  0.606113  1
  O  O65  1  0.604198  0.403697  0.325575  1
  O  O66  1  0.577584  0.210135  0.707287  1
  O  O67  1  0.566762  0.230664  0.511894  1
  O  O68  1  0.822818  0.168415  0.603176  1
  O  O69  1  0.694408  0.093715  0.333318  1
