# generated using pymatgen
data_Ho10TlCd3(InPd)4
_symmetry_space_group_name_H-M   'P 1'
_cell_length_a   3.59727500
_cell_length_b   8.11399200
_cell_length_c   18.33424725
_cell_angle_alpha   90.01131753
_cell_angle_beta   90.00000000
_cell_angle_gamma   90.00000000
_symmetry_Int_Tables_number   1
_chemical_formula_structural   Ho10TlCd3(InPd)4
_chemical_formula_sum   'Ho10 Tl1 Cd3 In4 Pd4'
_cell_volume   535.14477595
_cell_formula_units_Z   1
loop_
 _symmetry_equiv_pos_site_id
 _symmetry_equiv_pos_as_xyz
  1  'x, y, z'
loop_
 _atom_site_type_symbol
 _atom_site_label
 _atom_site_symmetry_multiplicity
 _atom_site_fract_x
 _atom_site_fract_y
 _atom_site_fract_z
 _atom_site_occupancy
  Ho  Ho0  1  0.000000  0.500991  0.499363  1
  Ho  Ho1  1  0.000000  0.999699  0.999890  1
  Ho  Ho2  1  0.000000  0.742129  0.280974  1
  Ho  Ho3  1  0.000000  0.260159  0.720359  1
  Ho  Ho4  1  0.000000  0.757200  0.780975  1
  Ho  Ho5  1  0.000000  0.241869  0.219089  1
  Ho  Ho6  1  0.000000  0.612048  0.083776  1
  Ho  Ho7  1  0.000000  0.387833  0.916877  1
  Ho  Ho8  1  0.000000  0.884420  0.583874  1
  Ho  Ho9  1  0.000000  0.112347  0.415393  1
  Tl  Tl10  1  0.500000  0.211057  0.568009  1
  Cd  Cd11  1  0.500000  0.712011  0.931376  1
  Cd  Cd12  1  0.500000  0.287969  0.068607  1
  Cd  Cd13  1  0.500000  0.787228  0.431401  1
  In  In14  1  0.500000  0.580883  0.648891  1
  In  In15  1  0.500000  0.423024  0.351373  1
  In  In16  1  0.500000  0.922636  0.147624  1
  In  In17  1  0.500000  0.077679  0.851886  1
  Pd  Pd18  1  0.500000  0.523968  0.196625  1
  Pd  Pd19  1  0.500000  0.475411  0.803353  1
  Pd  Pd20  1  0.500000  0.975141  0.696872  1
  Pd  Pd21  1  0.500000  0.024298  0.303413  1
