# generated using pymatgen
data_Nd19HoSi15Ru
_symmetry_space_group_name_H-M   'P 1'
_cell_length_a   7.77223156
_cell_length_b   7.91864292
_cell_length_c   15.10982408
_cell_angle_alpha   89.70163896
_cell_angle_beta   89.59211537
_cell_angle_gamma   89.96168031
_symmetry_Int_Tables_number   1
_chemical_formula_structural   Nd19HoSi15Ru
_chemical_formula_sum   'Nd19 Ho1 Si15 Ru1'
_cell_volume   929.90571985
_cell_formula_units_Z   1
loop_
 _symmetry_equiv_pos_site_id
 _symmetry_equiv_pos_as_xyz
  1  'x, y, z'
loop_
 _atom_site_type_symbol
 _atom_site_label
 _atom_site_symmetry_multiplicity
 _atom_site_fract_x
 _atom_site_fract_y
 _atom_site_fract_z
 _atom_site_occupancy
  Nd  Nd0  1  0.811769  0.334838  0.614069  1
  Nd  Nd1  1  0.457003  0.686083  0.897740  1
  Nd  Nd2  1  0.957475  0.815262  0.897724  1
  Nd  Nd3  1  0.185866  0.681425  0.120392  1
  Nd  Nd4  1  0.691262  0.818385  0.120743  1
  Nd  Nd5  1  0.306661  0.178383  0.877793  1
  Nd  Nd6  1  0.185799  0.678242  0.380565  1
  Nd  Nd7  1  0.044488  0.189301  0.103290  1
  Nd  Nd8  1  0.312153  0.180136  0.622524  1
  Nd  Nd9  1  0.859079  0.491947  0.261073  1
  Nd  Nd10  1  0.365532  0.006855  0.254955  1
  Nd  Nd11  1  0.537383  0.316651  0.398860  1
  Nd  Nd12  1  0.809672  0.317432  0.877738  1
  Nd  Nd13  1  0.963484  0.811975  0.598834  1
  Nd  Nd14  1  0.461901  0.685288  0.601983  1
  Nd  Nd15  1  0.038609  0.190036  0.401747  1
  Nd  Nd16  1  0.696315  0.809808  0.385137  1
  Nd  Nd17  1  0.639481  0.994237  0.747524  1
  Nd  Nd18  1  0.545717  0.311366  0.103145  1
  Ho  Ho19  1  0.137070  0.509673  0.747769  1
  Si  Si20  1  0.479051  0.602846  0.245508  1
  Si  Si21  1  0.252982  0.378349  0.247368  1
  Si  Si22  1  0.512838  0.403279  0.751483  1
  Si  Si23  1  0.630760  0.025504  0.958257  1
  Si  Si24  1  0.016314  0.103430  0.748436  1
  Si  Si25  1  0.751817  0.621065  0.750431  1
  Si  Si26  1  0.751052  0.119720  0.247864  1
  Si  Si27  1  0.365045  0.969741  0.461995  1
  Si  Si28  1  0.982806  0.902698  0.248358  1
  Si  Si29  1  0.364595  0.974406  0.041187  1
  Si  Si30  1  0.634175  0.024297  0.542289  1
  Si  Si31  1  0.132588  0.476825  0.955319  1
  Si  Si32  1  0.144145  0.476675  0.543384  1
  Si  Si33  1  0.866058  0.525870  0.038504  1
  Si  Si34  1  0.245136  0.871736  0.750543  1
  Ru  Ru35  1  0.863922  0.516240  0.455467  1
