# generated using pymatgen
data_Rb2Gd(NbBr3)6
_symmetry_space_group_name_H-M   'P 1'
_cell_length_a   10.94474147
_cell_length_b   10.94474063
_cell_length_c   10.94474000
_cell_angle_alpha   55.04539587
_cell_angle_beta   55.04539256
_cell_angle_gamma   55.04539167
_symmetry_Int_Tables_number   1
_chemical_formula_structural   Rb2Gd(NbBr3)6
_chemical_formula_sum   'Rb2 Gd1 Nb6 Br18'
_cell_volume   820.19744092
_cell_formula_units_Z   1
loop_
 _symmetry_equiv_pos_site_id
 _symmetry_equiv_pos_as_xyz
  1  'x, y, z'
loop_
 _atom_site_type_symbol
 _atom_site_label
 _atom_site_symmetry_multiplicity
 _atom_site_fract_x
 _atom_site_fract_y
 _atom_site_fract_z
 _atom_site_occupancy
  Rb  Rb0  1  0.722969  0.722969  0.722969  1
  Rb  Rb1  1  0.277031  0.277031  0.277031  1
  Gd  Gd2  1  0.000000  0.000000  0.000000  1
  Nb  Nb3  1  0.582864  0.357022  0.690183  1
  Nb  Nb4  1  0.357022  0.690183  0.582864  1
  Nb  Nb5  1  0.690183  0.582864  0.357022  1
  Nb  Nb6  1  0.642978  0.309817  0.417136  1
  Nb  Nb7  1  0.417136  0.642978  0.309817  1
  Nb  Nb8  1  0.309817  0.417136  0.642978  1
  Br  Br9  1  0.910042  0.366944  0.223351  1
  Br  Br10  1  0.836442  0.426716  0.559194  1
  Br  Br11  1  0.776649  0.089958  0.633056  1
  Br  Br12  1  0.089958  0.633056  0.776649  1
  Br  Br13  1  0.695507  0.161521  0.963944  1
  Br  Br14  1  0.223351  0.910042  0.366944  1
  Br  Br15  1  0.440806  0.163558  0.573284  1
  Br  Br16  1  0.633056  0.776649  0.089958  1
  Br  Br17  1  0.573284  0.440806  0.163558  1
  Br  Br18  1  0.036056  0.304493  0.838479  1
  Br  Br19  1  0.559194  0.836442  0.426716  1
  Br  Br20  1  0.366944  0.223351  0.910042  1
  Br  Br21  1  0.963944  0.695507  0.161521  1
  Br  Br22  1  0.163558  0.573284  0.440806  1
  Br  Br23  1  0.838479  0.036056  0.304493  1
  Br  Br24  1  0.426716  0.559194  0.836442  1
  Br  Br25  1  0.161521  0.963944  0.695507  1
  Br  Br26  1  0.304493  0.838479  0.036056  1
