# generated using pymatgen
data_Ce8Ga3Si12Rh
_symmetry_space_group_name_H-M   'P 1'
_cell_length_a   8.19475900
_cell_length_b   8.19475921
_cell_length_c   8.38255200
_cell_angle_alpha   90.00000000
_cell_angle_beta   90.00000000
_cell_angle_gamma   119.99999513
_symmetry_Int_Tables_number   1
_chemical_formula_structural   Ce8Ga3Si12Rh
_chemical_formula_sum   'Ce8 Ga3 Si12 Rh1'
_cell_volume   487.50524439
_cell_formula_units_Z   1
loop_
 _symmetry_equiv_pos_site_id
 _symmetry_equiv_pos_as_xyz
  1  'x, y, z'
loop_
 _atom_site_type_symbol
 _atom_site_label
 _atom_site_symmetry_multiplicity
 _atom_site_fract_x
 _atom_site_fract_y
 _atom_site_fract_z
 _atom_site_occupancy
  Ce  Ce0  1  0.000000  0.000000  0.250939  1
  Ce  Ce1  1  0.000000  0.000000  0.748609  1
  Ce  Ce2  1  0.499060  0.500940  0.249947  1
  Ce  Ce3  1  0.499060  0.998118  0.249947  1
  Ce  Ce4  1  0.001882  0.500940  0.249947  1
  Ce  Ce5  1  0.497961  0.502039  0.750207  1
  Ce  Ce6  1  0.497961  0.995921  0.750207  1
  Ce  Ce7  1  0.004079  0.502039  0.750207  1
  Ga  Ga8  1  0.333333  0.666667  0.498715  1
  Ga  Ga9  1  0.666667  0.333333  0.502984  1
  Ga  Ga10  1  0.666667  0.333333  0.000652  1
  Si  Si11  1  0.164645  0.835355  0.500694  1
  Si  Si12  1  0.164645  0.329290  0.500694  1
  Si  Si13  1  0.670710  0.835355  0.500694  1
  Si  Si14  1  0.834819  0.165181  0.498375  1
  Si  Si15  1  0.834819  0.669637  0.498375  1
  Si  Si16  1  0.330363  0.165181  0.498375  1
  Si  Si17  1  0.836913  0.163087  0.999365  1
  Si  Si18  1  0.836913  0.673825  0.999365  1
  Si  Si19  1  0.326175  0.163087  0.999365  1
  Si  Si20  1  0.167290  0.832710  0.000552  1
  Si  Si21  1  0.167290  0.334581  0.000552  1
  Si  Si22  1  0.665419  0.832710  0.000552  1
  Rh  Rh23  1  0.333333  0.666667  0.000684  1
