# generated using pymatgen
data_Lu12ZnCo2Si2Pb
_symmetry_space_group_name_H-M   'P 1'
_cell_length_a   8.23475546
_cell_length_b   8.23475527
_cell_length_c   8.23475500
_cell_angle_alpha   113.54228957
_cell_angle_beta   111.21076257
_cell_angle_gamma   103.81422032
_symmetry_Int_Tables_number   1
_chemical_formula_structural   Lu12ZnCo2Si2Pb
_chemical_formula_sum   'Lu12 Zn1 Co2 Si2 Pb1'
_cell_volume   426.56535678
_cell_formula_units_Z   1
loop_
 _symmetry_equiv_pos_site_id
 _symmetry_equiv_pos_as_xyz
  1  'x, y, z'
loop_
 _atom_site_type_symbol
 _atom_site_label
 _atom_site_symmetry_multiplicity
 _atom_site_fract_x
 _atom_site_fract_y
 _atom_site_fract_z
 _atom_site_occupancy
  Lu  Lu0  1  0.434335  0.236935  0.197398  1
  Lu  Lu1  1  0.565665  0.763065  0.802602  1
  Lu  Lu2  1  0.039537  0.236935  0.802602  1
  Lu  Lu3  1  0.960463  0.763065  0.197398  1
  Lu  Lu4  1  0.182216  0.284235  0.466453  1
  Lu  Lu5  1  0.817784  0.715765  0.533547  1
  Lu  Lu6  1  0.182216  0.715765  0.897981  1
  Lu  Lu7  1  0.817784  0.284235  0.102019  1
  Lu  Lu8  1  0.305190  0.617500  0.312312  1
  Lu  Lu9  1  0.694810  0.382500  0.687688  1
  Lu  Lu10  1  0.305190  0.992877  0.687688  1
  Lu  Lu11  1  0.694810  0.007123  0.312312  1
  Zn  Zn12  1  0.000000  0.000000  0.000000  1
  Co  Co13  1  0.109529  0.609529  0.500000  1
  Co  Co14  1  0.890471  0.390471  0.500000  1
  Si  Si15  1  0.356035  0.000000  0.356035  1
  Si  Si16  1  0.643965  0.000000  0.643965  1
  Pb  Pb17  1  0.500000  0.500000  0.000000  1
