# generated using pymatgen
data_TbNdNi9Ir
_symmetry_space_group_name_H-M   'P 1'
_cell_length_a   3.97029300
_cell_length_b   4.93332800
_cell_length_c   8.71423300
_cell_angle_alpha   90.00000000
_cell_angle_beta   90.00000000
_cell_angle_gamma   90.00000000
_symmetry_Int_Tables_number   1
_chemical_formula_structural   TbNdNi9Ir
_chemical_formula_sum   'Tb1 Nd1 Ni9 Ir1'
_cell_volume   170.68356966
_cell_formula_units_Z   1
loop_
 _symmetry_equiv_pos_site_id
 _symmetry_equiv_pos_as_xyz
  1  'x, y, z'
loop_
 _atom_site_type_symbol
 _atom_site_label
 _atom_site_symmetry_multiplicity
 _atom_site_fract_x
 _atom_site_fract_y
 _atom_site_fract_z
 _atom_site_occupancy
  Tb  Tb0  1  0.000000  0.000000  0.000000  1
  Nd  Nd1  1  0.000000  0.500000  0.500000  1
  Ni  Ni2  1  0.000000  0.000000  0.331505  1
  Ni  Ni3  1  0.000000  0.500000  0.827745  1
  Ni  Ni4  1  0.000000  0.500000  0.172255  1
  Ni  Ni5  1  0.000000  0.000000  0.668495  1
  Ni  Ni6  1  0.500000  0.000000  0.500000  1
  Ni  Ni7  1  0.500000  0.245215  0.250085  1
  Ni  Ni8  1  0.500000  0.754785  0.749915  1
  Ni  Ni9  1  0.500000  0.754785  0.250085  1
  Ni  Ni10  1  0.500000  0.245215  0.749915  1
  Ir  Ir11  1  0.500000  0.500000  0.000000  1
