# generated using pymatgen
data_Tb8Cd2IrPt
_symmetry_space_group_name_H-M   'P 1'
_cell_length_a   9.70029787
_cell_length_b   9.70029887
_cell_length_c   9.67907400
_cell_angle_alpha   60.07235422
_cell_angle_beta   60.07235081
_cell_angle_gamma   60.20140719
_symmetry_Int_Tables_number   1
_chemical_formula_structural   Tb8Cd2IrPt
_chemical_formula_sum   'Tb16 Cd4 Ir2 Pt2'
_cell_volume   645.68578598
_cell_formula_units_Z   2
loop_
 _symmetry_equiv_pos_site_id
 _symmetry_equiv_pos_as_xyz
  1  'x, y, z'
loop_
 _atom_site_type_symbol
 _atom_site_label
 _atom_site_symmetry_multiplicity
 _atom_site_fract_x
 _atom_site_fract_y
 _atom_site_fract_z
 _atom_site_occupancy
  Tb  Tb0  1  0.600971  0.600971  0.596172  1
  Tb  Tb1  1  0.600971  0.600971  0.201887  1
  Tb  Tb2  1  0.605654  0.195262  0.599542  1
  Tb  Tb3  1  0.195262  0.605654  0.599542  1
  Tb  Tb4  1  0.056301  0.439907  0.441214  1
  Tb  Tb5  1  0.439907  0.056301  0.062578  1
  Tb  Tb6  1  0.439907  0.056301  0.441214  1
  Tb  Tb7  1  0.056301  0.439907  0.062578  1
  Tb  Tb8  1  0.441668  0.441668  0.058332  1
  Tb  Tb9  1  0.060723  0.060723  0.439277  1
  Tb  Tb10  1  0.187723  0.814223  0.811873  1
  Tb  Tb11  1  0.814223  0.187723  0.186182  1
  Tb  Tb12  1  0.814223  0.187723  0.811873  1
  Tb  Tb13  1  0.187723  0.814223  0.186182  1
  Tb  Tb14  1  0.813178  0.813178  0.186822  1
  Tb  Tb15  1  0.186829  0.186829  0.813171  1
  Cd  Cd16  1  0.831273  0.831273  0.831449  1
  Cd  Cd17  1  0.831273  0.831273  0.506006  1
  Cd  Cd18  1  0.831067  0.505614  0.831660  1
  Cd  Cd19  1  0.505614  0.831067  0.831660  1
  Ir  Ir20  1  0.391803  0.822601  0.392798  1
  Ir  Ir21  1  0.822601  0.391803  0.392798  1
  Pt  Pt22  1  0.392404  0.392404  0.394223  1
  Pt  Pt23  1  0.392404  0.392404  0.820970  1
