# generated using pymatgen
data_YHoCo4(SiC)2
_symmetry_space_group_name_H-M   'P 1'
_cell_length_a   5.56066707
_cell_length_b   5.56066843
_cell_length_c   6.70770800
_cell_angle_alpha   90.00000000
_cell_angle_beta   90.00000000
_cell_angle_gamma   141.02953202
_symmetry_Int_Tables_number   1
_chemical_formula_structural   YHoCo4(SiC)2
_chemical_formula_sum   'Y1 Ho1 Co4 Si2 C2'
_cell_volume   130.44374850
_cell_formula_units_Z   1
loop_
 _symmetry_equiv_pos_site_id
 _symmetry_equiv_pos_as_xyz
  1  'x, y, z'
loop_
 _atom_site_type_symbol
 _atom_site_label
 _atom_site_symmetry_multiplicity
 _atom_site_fract_x
 _atom_site_fract_y
 _atom_site_fract_z
 _atom_site_occupancy
  Y  Y0  1  0.551127  0.448873  0.250000  1
  Ho  Ho1  1  0.448742  0.551258  0.750000  1
  Co  Co2  1  0.836272  0.163728  0.055768  1
  Co  Co3  1  0.163868  0.836132  0.943296  1
  Co  Co4  1  0.163868  0.836132  0.556704  1
  Co  Co5  1  0.836272  0.163728  0.444232  1
  Si  Si6  1  0.272101  0.727899  0.250000  1
  Si  Si7  1  0.728091  0.271909  0.750000  1
  C  C8  1  0.999829  0.000171  0.998294  1
  C  C9  1  0.999829  0.000171  0.501706  1
