# generated using pymatgen
data_NaHf3(Co5As3)4
_symmetry_space_group_name_H-M   'P 1'
_cell_length_a   3.71348600
_cell_length_b   12.10008239
_cell_length_c   10.59390634
_cell_angle_alpha   89.97090849
_cell_angle_beta   90.00000000
_cell_angle_gamma   90.00000000
_symmetry_Int_Tables_number   1
_chemical_formula_structural   NaHf3(Co5As3)4
_chemical_formula_sum   'Na1 Hf3 Co20 As12'
_cell_volume   476.02108678
_cell_formula_units_Z   1
loop_
 _symmetry_equiv_pos_site_id
 _symmetry_equiv_pos_as_xyz
  1  'x, y, z'
loop_
 _atom_site_type_symbol
 _atom_site_label
 _atom_site_symmetry_multiplicity
 _atom_site_fract_x
 _atom_site_fract_y
 _atom_site_fract_z
 _atom_site_occupancy
  Na  Na0  1  0.750000  0.703767  0.081371  1
  Hf  Hf1  1  0.250000  0.299248  0.922318  1
  Hf  Hf2  1  0.250000  0.799629  0.578106  1
  Hf  Hf3  1  0.750000  0.201264  0.421638  1
  Co  Co4  1  0.750000  0.698692  0.390170  1
  Co  Co5  1  0.250000  0.300922  0.611900  1
  Co  Co6  1  0.250000  0.803770  0.878782  1
  Co  Co7  1  0.750000  0.199620  0.111919  1
  Co  Co8  1  0.750000  0.994297  0.215950  1
  Co  Co9  1  0.250000  0.008317  0.782824  1
  Co  Co10  1  0.250000  0.505733  0.717945  1
  Co  Co11  1  0.750000  0.494394  0.286637  1
  Co  Co12  1  0.750000  0.676808  0.782606  1
  Co  Co13  1  0.250000  0.318029  0.218568  1
  Co  Co14  1  0.250000  0.823295  0.288797  1
  Co  Co15  1  0.750000  0.179329  0.715884  1
  Co  Co16  1  0.750000  0.933763  0.967870  1
  Co  Co17  1  0.250000  0.070374  0.030642  1
  Co  Co18  1  0.250000  0.569992  0.468658  1
  Co  Co19  1  0.750000  0.429418  0.530062  1
  Co  Co20  1  0.750000  0.984292  0.591085  1
  Co  Co21  1  0.250000  0.016401  0.410472  1
  Co  Co22  1  0.250000  0.507026  0.089909  1
  Co  Co23  1  0.750000  0.481840  0.906228  1
  As  As24  1  0.750000  0.614590  0.586393  1
  As  As25  1  0.250000  0.384994  0.413373  1
  As  As26  1  0.250000  0.883561  0.084844  1
  As  As27  1  0.750000  0.116389  0.913488  1
  As  As28  1  0.750000  0.889265  0.401127  1
  As  As29  1  0.250000  0.111430  0.598731  1
  As  As30  1  0.250000  0.611762  0.904537  1
  As  As31  1  0.750000  0.389720  0.100005  1
  As  As32  1  0.750000  0.868882  0.765926  1
  As  As33  1  0.250000  0.128969  0.234460  1
  As  As34  1  0.250000  0.631114  0.263208  1
  As  As35  1  0.750000  0.369102  0.733569  1
