# generated using pymatgen
data_Ho9Lu3Co4SnRu
_symmetry_space_group_name_H-M   'P 1'
_cell_length_a   8.22307008
_cell_length_b   8.22783097
_cell_length_c   8.22783080
_cell_angle_alpha   111.19746826
_cell_angle_beta   111.02240186
_cell_angle_gamma   106.26337159
_symmetry_Int_Tables_number   1
_chemical_formula_structural   Ho9Lu3Co4SnRu
_chemical_formula_sum   'Ho9 Lu3 Co4 Sn1 Ru1'
_cell_volume   427.40683022
_cell_formula_units_Z   1
loop_
 _symmetry_equiv_pos_site_id
 _symmetry_equiv_pos_as_xyz
  1  'x, y, z'
loop_
 _atom_site_type_symbol
 _atom_site_label
 _atom_site_symmetry_multiplicity
 _atom_site_fract_x
 _atom_site_fract_y
 _atom_site_fract_z
 _atom_site_occupancy
  Ho  Ho0  1  0.978535  0.785867  0.192668  1
  Ho  Ho1  1  0.186668  0.287303  0.473267  1
  Ho  Ho2  1  0.813855  0.714930  0.529385  1
  Ho  Ho3  1  0.186668  0.713400  0.899363  1
  Ho  Ho4  1  0.813855  0.284470  0.098926  1
  Ho  Ho5  1  0.312341  0.617653  0.306855  1
  Ho  Ho6  1  0.686877  0.380969  0.691934  1
  Ho  Ho7  1  0.312341  0.005485  0.694688  1
  Ho  Ho8  1  0.686877  0.994945  0.305907  1
  Lu  Lu9  1  0.406918  0.214196  0.192722  1
  Lu  Lu10  1  0.591118  0.785480  0.805638  1
  Lu  Lu11  1  0.020873  0.214903  0.805970  1
  Co  Co12  1  0.378961  0.000704  0.378257  1
  Co  Co13  1  0.624354  0.999451  0.624903  1
  Co  Co14  1  0.112903  0.611087  0.501815  1
  Co  Co15  1  0.888605  0.388317  0.500290  1
  Sn  Sn16  1  0.498908  0.499111  0.999796  1
  Ru  Ru17  1  0.999345  0.001729  0.997616  1
