# generated using pymatgen
data_HfZrTa3Ir
_symmetry_space_group_name_H-M   'P 1'
_cell_length_a   5.41860030
_cell_length_b   5.41860011
_cell_length_c   5.41859922
_cell_angle_alpha   61.76541404
_cell_angle_beta   61.76542145
_cell_angle_gamma   61.76542241
_symmetry_Int_Tables_number   1
_chemical_formula_structural   HfZrTa3Ir
_chemical_formula_sum   'Hf1 Zr1 Ta3 Ir1'
_cell_volume   116.94822861
_cell_formula_units_Z   1
loop_
 _symmetry_equiv_pos_site_id
 _symmetry_equiv_pos_as_xyz
  1  'x, y, z'
loop_
 _atom_site_type_symbol
 _atom_site_label
 _atom_site_symmetry_multiplicity
 _atom_site_fract_x
 _atom_site_fract_y
 _atom_site_fract_z
 _atom_site_occupancy
  Hf  Hf0  1  0.250242  0.250242  0.250242  1
  Zr  Zr1  1  0.999335  0.999335  0.999335  1
  Ta  Ta2  1  0.625088  0.625088  0.125184  1
  Ta  Ta3  1  0.625088  0.125184  0.625088  1
  Ta  Ta4  1  0.125184  0.625088  0.625088  1
  Ir  Ir5  1  0.625064  0.625064  0.625064  1
