# generated using pymatgen
data_PrHo2Ga9Pd2
_symmetry_space_group_name_H-M   'P 1'
_cell_length_a   8.21894118
_cell_length_b   8.21894065
_cell_length_c   8.21894120
_cell_angle_alpha   149.43011122
_cell_angle_beta   109.35597516
_cell_angle_gamma   78.90445385
_symmetry_Int_Tables_number   1
_chemical_formula_structural   PrHo2Ga9Pd2
_chemical_formula_sum   'Pr1 Ho2 Ga9 Pd2'
_cell_volume   261.36411643
_cell_formula_units_Z   1
loop_
 _symmetry_equiv_pos_site_id
 _symmetry_equiv_pos_as_xyz
  1  'x, y, z'
loop_
 _atom_site_type_symbol
 _atom_site_label
 _atom_site_symmetry_multiplicity
 _atom_site_fract_x
 _atom_site_fract_y
 _atom_site_fract_z
 _atom_site_occupancy
  Pr  Pr0  1  0.500000  0.500000  0.000000  1
  Ho  Ho1  1  0.198156  0.198156  0.000000  1
  Ho  Ho2  1  0.801844  0.801844  0.000000  1
  Ga  Ga3  1  0.644387  0.360070  0.284317  1
  Ga  Ga4  1  0.355613  0.639930  0.715683  1
  Ga  Ga5  1  0.075752  0.360070  0.715683  1
  Ga  Ga6  1  0.924248  0.639930  0.284317  1
  Ga  Ga7  1  0.523469  0.158632  0.364837  1
  Ga  Ga8  1  0.476531  0.841368  0.635163  1
  Ga  Ga9  1  0.793794  0.158632  0.635163  1
  Ga  Ga10  1  0.206206  0.841368  0.364837  1
  Ga  Ga11  1  0.000000  0.500000  0.500000  1
  Pd  Pd12  1  0.183986  0.000000  0.183986  1
  Pd  Pd13  1  0.816014  0.000000  0.816014  1
