# generated using pymatgen
data_Li7Eu4(HgBi)3
_symmetry_space_group_name_H-M   'P 1'
_cell_length_a   9.05271111
_cell_length_b   9.05271090
_cell_length_c   12.75787015
_cell_angle_alpha   55.60711431
_cell_angle_beta   55.60711596
_cell_angle_gamma   30.76620422
_symmetry_Int_Tables_number   1
_chemical_formula_structural   Li7Eu4(HgBi)3
_chemical_formula_sum   'Li7 Eu4 Hg3 Bi3'
_cell_volume   433.43135172
_cell_formula_units_Z   1
loop_
 _symmetry_equiv_pos_site_id
 _symmetry_equiv_pos_as_xyz
  1  'x, y, z'
loop_
 _atom_site_type_symbol
 _atom_site_label
 _atom_site_symmetry_multiplicity
 _atom_site_fract_x
 _atom_site_fract_y
 _atom_site_fract_z
 _atom_site_occupancy
  Li  Li0  1  0.053540  0.053540  0.678883  1
  Li  Li1  1  0.947945  0.947945  0.320477  1
  Li  Li2  1  0.237275  0.237275  0.908822  1
  Li  Li3  1  0.763807  0.763807  0.089650  1
  Li  Li4  1  0.414545  0.414545  0.656430  1
  Li  Li5  1  0.586640  0.586640  0.343148  1
  Li  Li6  1  0.997078  0.997078  0.504795  1
  Eu  Eu7  1  0.259986  0.259986  0.336496  1
  Eu  Eu8  1  0.739462  0.739462  0.660660  1
  Eu  Eu9  1  0.436218  0.436218  0.910150  1
  Eu  Eu10  1  0.566014  0.566014  0.087017  1
  Hg  Hg11  1  0.093164  0.093164  0.871417  1
  Hg  Hg12  1  0.905851  0.905851  0.132304  1
  Hg  Hg13  1  0.154606  0.154606  0.184024  1
  Bi  Bi14  1  0.841752  0.841752  0.819485  1
  Bi  Bi15  1  0.387678  0.387678  0.456403  1
  Bi  Bi16  1  0.614440  0.614440  0.539840  1
