# generated using pymatgen
data_Yb5IrPd
_symmetry_space_group_name_H-M   'P 1'
_cell_length_a   8.59221489
_cell_length_b   8.59221466
_cell_length_c   7.51334113
_cell_angle_alpha   82.89313406
_cell_angle_beta   82.89313528
_cell_angle_gamma   44.20182033
_symmetry_Int_Tables_number   1
_chemical_formula_structural   Yb5IrPd
_chemical_formula_sum   'Yb10 Ir2 Pd2'
_cell_volume   383.25368888
_cell_formula_units_Z   2
loop_
 _symmetry_equiv_pos_site_id
 _symmetry_equiv_pos_as_xyz
  1  'x, y, z'
loop_
 _atom_site_type_symbol
 _atom_site_label
 _atom_site_symmetry_multiplicity
 _atom_site_fract_x
 _atom_site_fract_y
 _atom_site_fract_z
 _atom_site_occupancy
  Yb  Yb0  1  0.034602  0.791962  0.917102  1
  Yb  Yb1  1  0.208038  0.965398  0.582898  1
  Yb  Yb2  1  0.979391  0.201359  0.076079  1
  Yb  Yb3  1  0.798641  0.020609  0.423921  1
  Yb  Yb4  1  0.360077  0.201580  0.814857  1
  Yb  Yb5  1  0.798420  0.639923  0.685143  1
  Yb  Yb6  1  0.630464  0.801116  0.174269  1
  Yb  Yb7  1  0.198884  0.369536  0.325731  1
  Yb  Yb8  1  0.569951  0.430049  0.750000  1
  Yb  Yb9  1  0.419322  0.580678  0.250000  1
  Ir  Ir10  1  0.179872  0.601278  0.580115  1
  Ir  Ir11  1  0.398722  0.820128  0.919885  1
  Pd  Pd12  1  0.823394  0.399778  0.419516  1
  Pd  Pd13  1  0.600222  0.176607  0.080484  1
