# generated using pymatgen
data_Tb3Ho(Ga3Ir)6
_symmetry_space_group_name_H-M   'P 1'
_cell_length_a   7.59720116
_cell_length_b   7.59804049
_cell_length_c   9.50552200
_cell_angle_alpha   90.00000000
_cell_angle_beta   90.00000000
_cell_angle_gamma   119.95964403
_symmetry_Int_Tables_number   1
_chemical_formula_structural   Tb3Ho(Ga3Ir)6
_chemical_formula_sum   'Tb3 Ho1 Ga18 Ir6'
_cell_volume   475.37714325
_cell_formula_units_Z   1
loop_
 _symmetry_equiv_pos_site_id
 _symmetry_equiv_pos_as_xyz
  1  'x, y, z'
loop_
 _atom_site_type_symbol
 _atom_site_label
 _atom_site_symmetry_multiplicity
 _atom_site_fract_x
 _atom_site_fract_y
 _atom_site_fract_z
 _atom_site_occupancy
  Tb  Tb0  1  0.997180  0.668010  0.250000  1
  Tb  Tb1  1  0.002895  0.332085  0.750000  1
  Tb  Tb2  1  0.668013  0.997212  0.250000  1
  Ho  Ho3  1  0.332068  0.002814  0.750000  1
  Ga  Ga4  1  0.126641  0.126641  0.250000  1
  Ga  Ga5  1  0.873520  0.873392  0.750000  1
  Ga  Ga6  1  0.999379  0.333888  0.079817  1
  Ga  Ga7  1  0.000841  0.666325  0.920090  1
  Ga  Ga8  1  0.000841  0.666325  0.579910  1
  Ga  Ga9  1  0.333881  0.999355  0.420341  1
  Ga  Ga10  1  0.999379  0.333888  0.420183  1
  Ga  Ga11  1  0.665807  0.000591  0.579910  1
  Ga  Ga12  1  0.665807  0.000591  0.920090  1
  Ga  Ga13  1  0.333881  0.999355  0.079659  1
  Ga  Ga14  1  0.332858  0.332641  0.563906  1
  Ga  Ga15  1  0.667152  0.667160  0.436289  1
  Ga  Ga16  1  0.667152  0.667160  0.063711  1
  Ga  Ga17  1  0.332858  0.332641  0.936094  1
  Ga  Ga18  1  0.338856  0.546298  0.250000  1
  Ga  Ga19  1  0.661021  0.453600  0.750000  1
  Ga  Ga20  1  0.546258  0.338827  0.250000  1
  Ga  Ga21  1  0.453766  0.661307  0.750000  1
  Ir  Ir22  1  0.671359  0.328412  0.999962  1
  Ir  Ir23  1  0.328462  0.671492  0.999957  1
  Ir  Ir24  1  0.328462  0.671492  0.500043  1
  Ir  Ir25  1  0.671359  0.328412  0.500038  1
  Ir  Ir26  1  0.000152  0.000043  0.999935  1
  Ir  Ir27  1  0.000152  0.000043  0.500065  1
