# generated using pymatgen
data_Tb3Dy3(Ho3Ir2)2
_symmetry_space_group_name_H-M   'P 1'
_cell_length_a   6.38661864
_cell_length_b   7.24391601
_cell_length_c   9.23283643
_cell_angle_alpha   89.99890745
_cell_angle_beta   90.15708509
_cell_angle_gamma   89.99543607
_symmetry_Int_Tables_number   1
_chemical_formula_structural   Tb3Dy3(Ho3Ir2)2
_chemical_formula_sum   'Tb3 Dy3 Ho6 Ir4'
_cell_volume   427.14752850
_cell_formula_units_Z   1
loop_
 _symmetry_equiv_pos_site_id
 _symmetry_equiv_pos_as_xyz
  1  'x, y, z'
loop_
 _atom_site_type_symbol
 _atom_site_label
 _atom_site_symmetry_multiplicity
 _atom_site_fract_x
 _atom_site_fract_y
 _atom_site_fract_z
 _atom_site_occupancy
  Tb  Tb0  1  0.630928  0.034129  0.249792  1
  Tb  Tb1  1  0.130337  0.465977  0.749902  1
  Tb  Tb2  1  0.369673  0.965889  0.750058  1
  Dy  Dy3  1  0.328015  0.676888  0.062688  1
  Dy  Dy4  1  0.171850  0.176991  0.437469  1
  Dy  Dy5  1  0.868929  0.534216  0.250227  1
  Ho  Ho6  1  0.671375  0.323420  0.563005  1
  Ho  Ho7  1  0.828714  0.823290  0.936956  1
  Ho  Ho8  1  0.671452  0.323217  0.936998  1
  Ho  Ho9  1  0.828638  0.823096  0.563033  1
  Ho  Ho10  1  0.328692  0.676537  0.437221  1
  Ho  Ho11  1  0.171126  0.176633  0.062638  1
  Ir  Ir12  1  0.048089  0.882556  0.249946  1
  Ir  Ir13  1  0.452094  0.383193  0.250023  1
  Ir  Ir14  1  0.950853  0.116995  0.750884  1
  Ir  Ir15  1  0.549234  0.616971  0.749161  1
