# generated using pymatgen
data_Sm2TmLu3(Co3P2)6
_symmetry_space_group_name_H-M   'P 1'
_cell_length_a   3.67769000
_cell_length_b   10.48034900
_cell_length_c   12.12868600
_cell_angle_alpha   89.99987123
_cell_angle_beta   90.00000000
_cell_angle_gamma   90.00000000
_symmetry_Int_Tables_number   1
_chemical_formula_structural   Sm2TmLu3(Co3P2)6
_chemical_formula_sum   'Sm2 Tm1 Lu3 Co18 P12'
_cell_volume   467.48170215
_cell_formula_units_Z   1
loop_
 _symmetry_equiv_pos_site_id
 _symmetry_equiv_pos_as_xyz
  1  'x, y, z'
loop_
 _atom_site_type_symbol
 _atom_site_label
 _atom_site_symmetry_multiplicity
 _atom_site_fract_x
 _atom_site_fract_y
 _atom_site_fract_z
 _atom_site_occupancy
  Sm  Sm0  1  0.000000  0.500093  0.522438  1
  Sm  Sm1  1  0.500000  0.999990  0.477252  1
  Tm  Tm2  1  0.000000  0.317965  0.794926  1
  Lu  Lu3  1  0.500000  0.818248  0.205298  1
  Lu  Lu4  1  0.500000  0.181687  0.205090  1
  Lu  Lu5  1  0.000000  0.682032  0.794846  1
  Co  Co6  1  0.500000  0.500151  0.157355  1
  Co  Co7  1  0.000000  0.000050  0.842676  1
  Co  Co8  1  0.500000  0.500592  0.706249  1
  Co  Co9  1  0.000000  0.999880  0.293693  1
  Co  Co10  1  0.000000  0.500176  0.986759  1
  Co  Co11  1  0.500000  0.999675  0.013955  1
  Co  Co12  1  0.500000  0.332973  0.995019  1
  Co  Co13  1  0.500000  0.667269  0.994804  1
  Co  Co14  1  0.000000  0.166596  0.005775  1
  Co  Co15  1  0.000000  0.833055  0.005425  1
  Co  Co16  1  0.500000  0.296850  0.428828  1
  Co  Co17  1  0.500000  0.703263  0.429182  1
  Co  Co18  1  0.000000  0.203146  0.570287  1
  Co  Co19  1  0.000000  0.796894  0.570777  1
  Co  Co20  1  0.500000  0.878339  0.712144  1
  Co  Co21  1  0.500000  0.121168  0.711767  1
  Co  Co22  1  0.000000  0.621677  0.287890  1
  Co  Co23  1  0.000000  0.378415  0.287721  1
  P  P24  1  0.500000  0.500364  0.883249  1
  P  P25  1  0.000000  0.999778  0.117181  1
  P  P26  1  0.500000  0.500024  0.341371  1
  P  P27  1  0.000000  0.000058  0.658471  1
  P  P28  1  0.500000  0.309319  0.617724  1
  P  P29  1  0.500000  0.690770  0.618330  1
  P  P30  1  0.000000  0.190513  0.381356  1
  P  P31  1  0.000000  0.809425  0.381667  1
  P  P32  1  0.500000  0.846033  0.892926  1
  P  P33  1  0.500000  0.153376  0.893180  1
  P  P34  1  0.000000  0.654342  0.107328  1
  P  P35  1  0.000000  0.345812  0.107058  1
