# generated using pymatgen
data_Tb7Pa(Ta3Si4)4
_symmetry_space_group_name_H-M   'P 1'
_cell_length_a   6.89265042
_cell_length_b   7.08304148
_cell_length_c   13.42849900
_cell_angle_alpha   89.94848020
_cell_angle_beta   90.04799690
_cell_angle_gamma   89.95076407
_symmetry_Int_Tables_number   1
_chemical_formula_structural   Tb7Pa(Ta3Si4)4
_chemical_formula_sum   'Tb7 Pa1 Ta12 Si16'
_cell_volume   655.59105660
_cell_formula_units_Z   1
loop_
 _symmetry_equiv_pos_site_id
 _symmetry_equiv_pos_as_xyz
  1  'x, y, z'
loop_
 _atom_site_type_symbol
 _atom_site_label
 _atom_site_symmetry_multiplicity
 _atom_site_fract_x
 _atom_site_fract_y
 _atom_site_fract_z
 _atom_site_occupancy
  Tb  Tb0  1  0.497473  0.328991  0.094738  1
  Tb  Tb1  1  0.502608  0.671316  0.597196  1
  Tb  Tb2  1  0.003468  0.829135  0.904086  1
  Tb  Tb3  1  0.002733  0.829681  0.596523  1
  Tb  Tb4  1  0.503237  0.671061  0.903987  1
  Tb  Tb5  1  0.499200  0.328429  0.404192  1
  Tb  Tb6  1  0.996888  0.171096  0.095305  1
  Pa  Pa7  1  0.996475  0.171719  0.404036  1
  Ta  Ta8  1  0.338257  0.824100  0.126140  1
  Ta  Ta9  1  0.838466  0.673562  0.373971  1
  Ta  Ta10  1  0.663381  0.173666  0.625237  1
  Ta  Ta11  1  0.162228  0.325270  0.873957  1
  Ta  Ta12  1  0.161076  0.324380  0.624613  1
  Ta  Ta13  1  0.662872  0.174262  0.874320  1
  Ta  Ta14  1  0.338208  0.010453  0.750317  1
  Ta  Ta15  1  0.836146  0.673651  0.125721  1
  Ta  Ta16  1  0.664394  0.991132  0.251014  1
  Ta  Ta17  1  0.161712  0.506585  0.251477  1
  Ta  Ta18  1  0.837334  0.490017  0.749519  1
  Ta  Ta19  1  0.333537  0.828991  0.374742  1
  Si  Si20  1  0.335228  0.038288  0.542277  1
  Si  Si21  1  0.837035  0.462862  0.957920  1
  Si  Si22  1  0.663242  0.962899  0.041336  1
  Si  Si23  1  0.165618  0.539343  0.458576  1
  Si  Si24  1  0.162467  0.536995  0.041504  1
  Si  Si25  1  0.662018  0.960363  0.458739  1
  Si  Si26  1  0.836505  0.463220  0.542273  1
  Si  Si27  1  0.337441  0.036874  0.958024  1
  Si  Si28  1  0.796395  0.374257  0.248912  1
  Si  Si29  1  0.297770  0.125721  0.248864  1
  Si  Si30  1  0.704318  0.874722  0.750501  1
  Si  Si31  1  0.203337  0.626025  0.750395  1
  Si  Si32  1  0.039987  0.877152  0.248806  1
  Si  Si33  1  0.540361  0.624010  0.250599  1
  Si  Si34  1  0.458993  0.376723  0.749919  1
  Si  Si35  1  0.959590  0.123050  0.750261  1
