# generated using pymatgen
data_Yb(DyPt)2
_symmetry_space_group_name_H-M   'P 1'
_cell_length_a   7.47181389
_cell_length_b   7.47181449
_cell_length_c   7.47181441
_cell_angle_alpha   71.18579556
_cell_angle_beta   71.18579525
_cell_angle_gamma   71.18580251
_symmetry_Int_Tables_number   1
_chemical_formula_structural   Yb(DyPt)2
_chemical_formula_sum   'Yb3 Dy6 Pt6'
_cell_volume   362.46854623
_cell_formula_units_Z   3
loop_
 _symmetry_equiv_pos_site_id
 _symmetry_equiv_pos_as_xyz
  1  'x, y, z'
loop_
 _atom_site_type_symbol
 _atom_site_label
 _atom_site_symmetry_multiplicity
 _atom_site_fract_x
 _atom_site_fract_y
 _atom_site_fract_z
 _atom_site_occupancy
  Yb  Yb0  1  0.000000  0.000000  0.000000  1
  Yb  Yb1  1  0.802551  0.802551  0.802551  1
  Yb  Yb2  1  0.197449  0.197449  0.197449  1
  Dy  Dy3  1  0.334042  0.600439  0.843089  1
  Dy  Dy4  1  0.843089  0.334042  0.600439  1
  Dy  Dy5  1  0.600439  0.843089  0.334042  1
  Dy  Dy6  1  0.665958  0.399561  0.156911  1
  Dy  Dy7  1  0.156911  0.665958  0.399561  1
  Dy  Dy8  1  0.399561  0.156911  0.665958  1
  Pt  Pt9  1  0.178062  0.950122  0.583169  1
  Pt  Pt10  1  0.583169  0.178062  0.950122  1
  Pt  Pt11  1  0.950122  0.583169  0.178062  1
  Pt  Pt12  1  0.821938  0.049878  0.416831  1
  Pt  Pt13  1  0.416831  0.821938  0.049878  1
  Pt  Pt14  1  0.049878  0.416831  0.821938  1
