# generated using pymatgen
data_Er16Cd4PdRh3
_symmetry_space_group_name_H-M   'P 1'
_cell_length_a   9.57416446
_cell_length_b   9.55355532
_cell_length_c   9.55355500
_cell_angle_alpha   59.99999765
_cell_angle_beta   60.07117886
_cell_angle_gamma   60.07117777
_symmetry_Int_Tables_number   1
_chemical_formula_structural   Er16Cd4PdRh3
_chemical_formula_sum   'Er16 Cd4 Pd1 Rh3'
_cell_volume   618.56068287
_cell_formula_units_Z   1
loop_
 _symmetry_equiv_pos_site_id
 _symmetry_equiv_pos_as_xyz
  1  'x, y, z'
loop_
 _atom_site_type_symbol
 _atom_site_label
 _atom_site_symmetry_multiplicity
 _atom_site_fract_x
 _atom_site_fract_y
 _atom_site_fract_z
 _atom_site_occupancy
  Er  Er0  1  0.348560  0.353644  0.353644  1
  Er  Er1  1  0.348560  0.353644  0.944150  1
  Er  Er2  1  0.348560  0.944150  0.353644  1
  Er  Er3  1  0.948699  0.350433  0.350433  1
  Er  Er4  1  0.816786  0.187693  0.187693  1
  Er  Er5  1  0.187272  0.812876  0.812876  1
  Er  Er6  1  0.187272  0.812876  0.186975  1
  Er  Er7  1  0.816786  0.187693  0.807828  1
  Er  Er8  1  0.187272  0.186975  0.812876  1
  Er  Er9  1  0.816786  0.807828  0.187693  1
  Er  Er10  1  0.935088  0.564642  0.564642  1
  Er  Er11  1  0.563330  0.934974  0.934974  1
  Er  Er12  1  0.563330  0.934974  0.566723  1
  Er  Er13  1  0.935088  0.564642  0.935627  1
  Er  Er14  1  0.563330  0.566723  0.934974  1
  Er  Er15  1  0.935088  0.935627  0.564642  1
  Cd  Cd16  1  0.581566  0.581315  0.581315  1
  Cd  Cd17  1  0.581566  0.581315  0.255802  1
  Cd  Cd18  1  0.581566  0.255802  0.581315  1
  Cd  Cd19  1  0.254759  0.581747  0.581747  1
  Pd  Pd20  1  0.566882  0.144373  0.144373  1
  Rh  Rh21  1  0.143950  0.143860  0.143860  1
  Rh  Rh22  1  0.143950  0.143860  0.568330  1
  Rh  Rh23  1  0.143950  0.568330  0.143860  1
