# generated using pymatgen
data_Lu4NbMoOs6
_symmetry_space_group_name_H-M   'P 1'
_cell_length_a   5.36668263
_cell_length_b   5.37014424
_cell_length_c   8.93761900
_cell_angle_alpha   90.00000000
_cell_angle_beta   90.00000000
_cell_angle_gamma   121.74205807
_symmetry_Int_Tables_number   1
_chemical_formula_structural   Lu4NbMoOs6
_chemical_formula_sum   'Lu4 Nb1 Mo1 Os6'
_cell_volume   219.05329989
_cell_formula_units_Z   1
loop_
 _symmetry_equiv_pos_site_id
 _symmetry_equiv_pos_as_xyz
  1  'x, y, z'
loop_
 _atom_site_type_symbol
 _atom_site_label
 _atom_site_symmetry_multiplicity
 _atom_site_fract_x
 _atom_site_fract_y
 _atom_site_fract_z
 _atom_site_occupancy
  Lu  Lu0  1  0.337747  0.666556  0.439430  1
  Lu  Lu1  1  0.667731  0.338403  0.565608  1
  Lu  Lu2  1  0.667731  0.338403  0.934392  1
  Lu  Lu3  1  0.337747  0.666556  0.060570  1
  Nb  Nb4  1  0.331193  0.161720  0.250000  1
  Mo  Mo5  1  0.166932  0.336377  0.750000  1
  Os  Os6  1  0.173126  0.827334  0.750000  1
  Os  Os7  1  0.829185  0.651145  0.250000  1
  Os  Os8  1  0.653739  0.826491  0.750000  1
  Os  Os9  1  0.001272  0.006512  0.997121  1
  Os  Os10  1  0.832322  0.173990  0.250000  1
  Os  Os11  1  0.001272  0.006512  0.502879  1
