# generated using pymatgen
data_Dy4Ga20Os5Ru
_symmetry_space_group_name_H-M   'P 1'
_cell_length_a   8.93180722
_cell_length_b   8.93180716
_cell_length_c   6.46009800
_cell_angle_alpha   90.00000000
_cell_angle_beta   90.00000000
_cell_angle_gamma   89.97645767
_symmetry_Int_Tables_number   1
_chemical_formula_structural   Dy4Ga20Os5Ru
_chemical_formula_sum   'Dy4 Ga20 Os5 Ru1'
_cell_volume   515.36835536
_cell_formula_units_Z   1
loop_
 _symmetry_equiv_pos_site_id
 _symmetry_equiv_pos_as_xyz
  1  'x, y, z'
loop_
 _atom_site_type_symbol
 _atom_site_label
 _atom_site_symmetry_multiplicity
 _atom_site_fract_x
 _atom_site_fract_y
 _atom_site_fract_z
 _atom_site_occupancy
  Dy  Dy0  1  0.682039  0.182039  0.000000  1
  Dy  Dy1  1  0.318546  0.818546  0.000000  1
  Dy  Dy2  1  0.816954  0.681795  0.000000  1
  Dy  Dy3  1  0.181795  0.316954  0.000000  1
  Ga  Ga4  1  0.937211  0.206479  0.294368  1
  Ga  Ga5  1  0.706479  0.437211  0.294368  1
  Ga  Ga6  1  0.500805  0.000805  0.289727  1
  Ga  Ga7  1  0.561845  0.705993  0.705800  1
  Ga  Ga8  1  0.294217  0.561541  0.706612  1
  Ga  Ga9  1  0.793459  0.938596  0.293923  1
  Ga  Ga10  1  0.937211  0.206479  0.705632  1
  Ga  Ga11  1  0.294217  0.561541  0.293388  1
  Ga  Ga12  1  0.061541  0.794217  0.293388  1
  Ga  Ga13  1  0.706479  0.437211  0.705632  1
  Ga  Ga14  1  0.438596  0.293459  0.706077  1
  Ga  Ga15  1  0.061541  0.794217  0.706612  1
  Ga  Ga16  1  0.205993  0.061845  0.705800  1
  Ga  Ga17  1  0.793459  0.938596  0.706077  1
  Ga  Ga18  1  0.205993  0.061845  0.294200  1
  Ga  Ga19  1  0.000043  0.500043  0.710518  1
  Ga  Ga20  1  0.000043  0.500043  0.289482  1
  Ga  Ga21  1  0.561845  0.705993  0.294200  1
  Ga  Ga22  1  0.438596  0.293459  0.293923  1
  Ga  Ga23  1  0.500805  0.000805  0.710273  1
  Os  Os24  1  0.821834  0.678352  0.500000  1
  Os  Os25  1  0.178352  0.321834  0.500000  1
  Os  Os26  1  0.000281  0.000036  0.000000  1
  Os  Os27  1  0.321647  0.821647  0.500000  1
  Os  Os28  1  0.500036  0.500281  0.000000  1
  Ru  Ru29  1  0.678141  0.178141  0.500000  1
