# generated using pymatgen
data_La3ZnCd3Au2
_symmetry_space_group_name_H-M   'P 1'
_cell_length_a   7.95136500
_cell_length_b   7.95136549
_cell_length_c   4.19368700
_cell_angle_alpha   90.00000000
_cell_angle_beta   90.00000000
_cell_angle_gamma   119.99900570
_symmetry_Int_Tables_number   1
_chemical_formula_structural   La3ZnCd3Au2
_chemical_formula_sum   'La3 Zn1 Cd3 Au2'
_cell_volume   229.62247964
_cell_formula_units_Z   1
loop_
 _symmetry_equiv_pos_site_id
 _symmetry_equiv_pos_as_xyz
  1  'x, y, z'
loop_
 _atom_site_type_symbol
 _atom_site_label
 _atom_site_symmetry_multiplicity
 _atom_site_fract_x
 _atom_site_fract_y
 _atom_site_fract_z
 _atom_site_occupancy
  La  La0  1  0.411165  0.999956  0.000000  1
  La  La1  1  0.588663  0.588663  0.000000  1
  La  La2  1  0.999956  0.411165  0.000000  1
  Zn  Zn3  1  0.000008  0.000008  0.000000  1
  Cd  Cd4  1  0.755590  0.000068  0.500000  1
  Cd  Cd5  1  0.244492  0.244492  0.500000  1
  Cd  Cd6  1  0.000068  0.755590  0.500000  1
  Au  Au7  1  0.666697  0.333360  0.500000  1
  Au  Au8  1  0.333360  0.666697  0.500000  1
