# generated using pymatgen
data_Sc2Fe4Si3Ge
_symmetry_space_group_name_H-M   'P 1'
_cell_length_a   7.50682400
_cell_length_b   7.09790400
_cell_length_c   5.02265100
_cell_angle_alpha   90.00000000
_cell_angle_beta   90.00000000
_cell_angle_gamma   90.00000000
_symmetry_Int_Tables_number   1
_chemical_formula_structural   Sc2Fe4Si3Ge
_chemical_formula_sum   'Sc4 Fe8 Si6 Ge2'
_cell_volume   267.62048729
_cell_formula_units_Z   2
loop_
 _symmetry_equiv_pos_site_id
 _symmetry_equiv_pos_as_xyz
  1  'x, y, z'
loop_
 _atom_site_type_symbol
 _atom_site_label
 _atom_site_symmetry_multiplicity
 _atom_site_fract_x
 _atom_site_fract_y
 _atom_site_fract_z
 _atom_site_occupancy
  Sc  Sc0  1  0.245285  0.089459  0.250000  1
  Sc  Sc1  1  0.754716  0.589458  0.250000  1
  Sc  Sc2  1  0.245561  0.408810  0.750000  1
  Sc  Sc3  1  0.754440  0.908809  0.750000  1
  Fe  Fe4  1  0.622124  0.250255  0.994364  1
  Fe  Fe5  1  0.377875  0.750255  0.994364  1
  Fe  Fe6  1  0.108930  0.488926  0.250000  1
  Fe  Fe7  1  0.891071  0.988925  0.250000  1
  Fe  Fe8  1  0.622124  0.250255  0.505636  1
  Fe  Fe9  1  0.377875  0.750255  0.505636  1
  Fe  Fe10  1  0.116331  0.011844  0.750000  1
  Fe  Fe11  1  0.883670  0.511844  0.750000  1
  Si  Si12  1  0.951164  0.250402  0.999605  1
  Si  Si13  1  0.048835  0.750402  0.999605  1
  Si  Si14  1  0.951164  0.250402  0.500395  1
  Si  Si15  1  0.048835  0.750402  0.500395  1
  Si  Si16  1  0.415896  0.052818  0.750000  1
  Si  Si17  1  0.584104  0.552818  0.750000  1
  Ge  Ge18  1  0.415312  0.446829  0.250000  1
  Ge  Ge19  1  0.584688  0.946829  0.250000  1
