# generated using pymatgen
data_Hf7Nb3(SiSn3)2
_symmetry_space_group_name_H-M   'P 1'
_cell_length_a   8.53712700
_cell_length_b   8.53712514
_cell_length_c   5.73312400
_cell_angle_alpha   90.00000000
_cell_angle_beta   90.00000000
_cell_angle_gamma   120.00000333
_symmetry_Int_Tables_number   1
_chemical_formula_structural   Hf7Nb3(SiSn3)2
_chemical_formula_sum   'Hf7 Nb3 Si2 Sn6'
_cell_volume   361.86396868
_cell_formula_units_Z   1
loop_
 _symmetry_equiv_pos_site_id
 _symmetry_equiv_pos_as_xyz
  1  'x, y, z'
loop_
 _atom_site_type_symbol
 _atom_site_label
 _atom_site_symmetry_multiplicity
 _atom_site_fract_x
 _atom_site_fract_y
 _atom_site_fract_z
 _atom_site_occupancy
  Hf  Hf0  1  0.738291  0.739252  0.749814  1
  Hf  Hf1  1  0.260748  0.999040  0.749814  1
  Hf  Hf2  1  0.000960  0.261709  0.749814  1
  Hf  Hf3  1  0.260748  0.261709  0.250186  1
  Hf  Hf4  1  0.738291  0.999040  0.250186  1
  Hf  Hf5  1  0.000960  0.739252  0.250186  1
  Hf  Hf6  1  0.666667  0.333333  0.500000  1
  Nb  Nb7  1  0.666667  0.333333  0.000000  1
  Nb  Nb8  1  0.333333  0.666667  0.000000  1
  Nb  Nb9  1  0.333333  0.666667  0.500000  1
  Si  Si10  1  0.000000  0.000000  0.000000  1
  Si  Si11  1  0.000000  0.000000  0.500000  1
  Sn  Sn12  1  0.394802  0.396331  0.752333  1
  Sn  Sn13  1  0.603669  0.998470  0.752333  1
  Sn  Sn14  1  0.001530  0.605198  0.752333  1
  Sn  Sn15  1  0.603669  0.605198  0.247667  1
  Sn  Sn16  1  0.394802  0.998470  0.247667  1
  Sn  Sn17  1  0.001530  0.396331  0.247667  1
