# generated using pymatgen
data_Sc2Co5P6IrRu4
_symmetry_space_group_name_H-M   'P 1'
_cell_length_a   3.72903800
_cell_length_b   10.45528500
_cell_length_c   11.95431700
_cell_angle_alpha   90.00000000
_cell_angle_beta   90.00000000
_cell_angle_gamma   90.00000000
_symmetry_Int_Tables_number   1
_chemical_formula_structural   Sc2Co5P6IrRu4
_chemical_formula_sum   'Sc4 Co10 P12 Ir2 Ru8'
_cell_volume   466.07676490
_cell_formula_units_Z   2
loop_
 _symmetry_equiv_pos_site_id
 _symmetry_equiv_pos_as_xyz
  1  'x, y, z'
loop_
 _atom_site_type_symbol
 _atom_site_label
 _atom_site_symmetry_multiplicity
 _atom_site_fract_x
 _atom_site_fract_y
 _atom_site_fract_z
 _atom_site_occupancy
  Sc  Sc0  1  0.250000  0.585554  0.710914  1
  Sc  Sc1  1  0.250000  0.914446  0.210914  1
  Sc  Sc2  1  0.750000  0.416979  0.292422  1
  Sc  Sc3  1  0.750000  0.083021  0.792422  1
  Co  Co4  1  0.750000  0.774968  0.821550  1
  Co  Co5  1  0.750000  0.725032  0.321550  1
  Co  Co6  1  0.250000  0.879363  0.698155  1
  Co  Co7  1  0.250000  0.620637  0.198155  1
  Co  Co8  1  0.750000  0.107792  0.301223  1
  Co  Co9  1  0.750000  0.392208  0.801223  1
  Co  Co10  1  0.250000  0.462669  0.932725  1
  Co  Co11  1  0.250000  0.037331  0.432725  1
  Co  Co12  1  0.750000  0.538244  0.067601  1
  Co  Co13  1  0.750000  0.961756  0.567601  1
  P  P14  1  0.250000  0.428063  0.114886  1
  P  P15  1  0.250000  0.071937  0.614886  1
  P  P16  1  0.750000  0.578093  0.886015  1
  P  P17  1  0.750000  0.921907  0.386015  1
  P  P18  1  0.250000  0.267641  0.869750  1
  P  P19  1  0.250000  0.232359  0.369750  1
  P  P20  1  0.750000  0.728230  0.139014  1
  P  P21  1  0.750000  0.771770  0.639014  1
  P  P22  1  0.250000  0.601167  0.379815  1
  P  P23  1  0.250000  0.898833  0.879815  1
  P  P24  1  0.750000  0.401372  0.615467  1
  P  P25  1  0.750000  0.098628  0.115467  1
  Ir  Ir26  1  0.750000  0.599164  0.520894  1
  Ir  Ir27  1  0.750000  0.900836  0.020894  1
  Ru  Ru28  1  0.250000  0.708065  0.980521  1
  Ru  Ru29  1  0.250000  0.791935  0.480521  1
  Ru  Ru30  1  0.750000  0.288872  0.008461  1
  Ru  Ru31  1  0.750000  0.211128  0.508461  1
  Ru  Ru32  1  0.250000  0.411305  0.481019  1
  Ru  Ru33  1  0.250000  0.088695  0.981019  1
  Ru  Ru34  1  0.250000  0.224373  0.179566  1
  Ru  Ru35  1  0.250000  0.275628  0.679566  1
