# generated using pymatgen
data_Nd9Dy(SnSb)4
_symmetry_space_group_name_H-M   'P 1'
_cell_length_a   8.98298479
_cell_length_b   8.98298584
_cell_length_c   8.43260266
_cell_angle_alpha   89.85017298
_cell_angle_beta   89.85017326
_cell_angle_gamma   124.85298168
_symmetry_Int_Tables_number   1
_chemical_formula_structural   Nd9Dy(SnSb)4
_chemical_formula_sum   'Nd9 Dy1 Sn4 Sb4'
_cell_volume   558.39146969
_cell_formula_units_Z   1
loop_
 _symmetry_equiv_pos_site_id
 _symmetry_equiv_pos_as_xyz
  1  'x, y, z'
loop_
 _atom_site_type_symbol
 _atom_site_label
 _atom_site_symmetry_multiplicity
 _atom_site_fract_x
 _atom_site_fract_y
 _atom_site_fract_z
 _atom_site_occupancy
  Nd  Nd0  1  0.031431  0.307791  0.335792  1
  Nd  Nd1  1  0.968569  0.692209  0.664208  1
  Nd  Nd2  1  0.468271  0.194371  0.835356  1
  Nd  Nd3  1  0.805629  0.531729  0.164644  1
  Nd  Nd4  1  0.531729  0.805629  0.164644  1
  Nd  Nd5  1  0.194371  0.468271  0.835356  1
  Nd  Nd6  1  0.692209  0.968569  0.664208  1
  Nd  Nd7  1  0.307791  0.031431  0.335792  1
  Nd  Nd8  1  0.000000  0.000000  0.000000  1
  Dy  Dy9  1  0.500000  0.500000  0.500000  1
  Sn  Sn10  1  0.369830  0.369830  0.133009  1
  Sn  Sn11  1  0.630170  0.630170  0.866991  1
  Sn  Sn12  1  0.133581  0.133581  0.629004  1
  Sn  Sn13  1  0.866419  0.866419  0.370996  1
  Sb  Sb14  1  0.797571  0.202429  0.000000  1
  Sb  Sb15  1  0.202429  0.797571  0.000000  1
  Sb  Sb16  1  0.698595  0.301405  0.500000  1
  Sb  Sb17  1  0.301405  0.698595  0.500000  1
