# generated using pymatgen
data_Dy8Ta12Si15Ge
_symmetry_space_group_name_H-M   'P 1'
_cell_length_a   7.04264874
_cell_length_b   7.03328169
_cell_length_c   13.02326500
_cell_angle_alpha   90.03969731
_cell_angle_beta   89.87886166
_cell_angle_gamma   90.08650871
_symmetry_Int_Tables_number   1
_chemical_formula_structural   Dy8Ta12Si15Ge
_chemical_formula_sum   'Dy8 Ta12 Si15 Ge1'
_cell_volume   645.07817482
_cell_formula_units_Z   1
loop_
 _symmetry_equiv_pos_site_id
 _symmetry_equiv_pos_as_xyz
  1  'x, y, z'
loop_
 _atom_site_type_symbol
 _atom_site_label
 _atom_site_symmetry_multiplicity
 _atom_site_fract_x
 _atom_site_fract_y
 _atom_site_fract_z
 _atom_site_occupancy
  Dy  Dy0  1  0.997608  0.658551  0.031797  1
  Dy  Dy1  1  0.002740  0.340363  0.532377  1
  Dy  Dy2  1  0.658810  0.997454  0.967916  1
  Dy  Dy3  1  0.158840  0.502503  0.782035  1
  Dy  Dy4  1  0.838833  0.495874  0.280412  1
  Dy  Dy5  1  0.501382  0.158567  0.217632  1
  Dy  Dy6  1  0.498840  0.842066  0.718821  1
  Dy  Dy7  1  0.341961  0.002182  0.468772  1
  Ta  Ta8  1  0.349158  0.505818  0.376027  1
  Ta  Ta9  1  0.843563  0.997092  0.372492  1
  Ta  Ta10  1  0.007172  0.153569  0.125604  1
  Ta  Ta11  1  0.994024  0.847602  0.628026  1
  Ta  Ta12  1  0.508624  0.345529  0.624825  1
  Ta  Ta13  1  0.153722  0.007375  0.874244  1
  Ta  Ta14  1  0.667852  0.670741  0.500372  1
  Ta  Ta15  1  0.829396  0.171174  0.750033  1
  Ta  Ta16  1  0.171793  0.829872  0.248214  1
  Ta  Ta17  1  0.328552  0.328736  0.999961  1
  Ta  Ta18  1  0.492289  0.653767  0.123800  1
  Ta  Ta19  1  0.653640  0.492990  0.876089  1
  Si  Si20  1  0.954685  0.293947  0.935962  1
  Si  Si21  1  0.707191  0.044163  0.563811  1
  Si  Si22  1  0.205131  0.455126  0.186349  1
  Si  Si23  1  0.794855  0.545419  0.686023  1
  Si  Si24  1  0.455019  0.205939  0.814250  1
  Si  Si25  1  0.544222  0.794574  0.313717  1
  Si  Si26  1  0.294291  0.955044  0.063350  1
  Si  Si27  1  0.795609  0.866518  0.181576  1
  Si  Si28  1  0.299507  0.632640  0.570245  1
  Si  Si29  1  0.703162  0.366140  0.067605  1
  Si  Si30  1  0.633786  0.296326  0.432358  1
  Si  Si31  1  0.366416  0.703387  0.931788  1
  Si  Si32  1  0.134049  0.203708  0.318182  1
  Si  Si33  1  0.204574  0.133869  0.682350  1
  Si  Si34  1  0.866838  0.796200  0.818250  1
  Ge  Ge35  1  0.041863  0.705176  0.434742  1
