# generated using pymatgen
data_Pr7Tm3(Co2Sn5)4
_symmetry_space_group_name_H-M   'P 1'
_cell_length_a   13.93090713
_cell_length_b   13.93090671
_cell_length_c   4.52326800
_cell_angle_alpha   90.00000000
_cell_angle_beta   90.00000000
_cell_angle_gamma   89.91068514
_symmetry_Int_Tables_number   1
_chemical_formula_structural   Pr7Tm3(Co2Sn5)4
_chemical_formula_sum   'Pr7 Tm3 Co8 Sn20'
_cell_volume   877.83031242
_cell_formula_units_Z   1
loop_
 _symmetry_equiv_pos_site_id
 _symmetry_equiv_pos_as_xyz
  1  'x, y, z'
loop_
 _atom_site_type_symbol
 _atom_site_label
 _atom_site_symmetry_multiplicity
 _atom_site_fract_x
 _atom_site_fract_y
 _atom_site_fract_z
 _atom_site_occupancy
  Pr  Pr0  1  0.499204  0.499535  0.000000  1
  Pr  Pr1  1  0.000465  0.000796  0.000000  1
  Pr  Pr2  1  0.818077  0.681923  0.500000  1
  Pr  Pr3  1  0.890564  0.389206  0.500000  1
  Pr  Pr4  1  0.110794  0.609436  0.500000  1
  Pr  Pr5  1  0.390430  0.109570  0.500000  1
  Pr  Pr6  1  0.608128  0.891872  0.500000  1
  Tm  Tm7  1  0.679318  0.177329  0.500000  1
  Tm  Tm8  1  0.322671  0.820682  0.500000  1
  Tm  Tm9  1  0.178882  0.321118  0.500000  1
  Co  Co10  1  0.743098  0.531874  0.000000  1
  Co  Co11  1  0.254550  0.464489  0.000000  1
  Co  Co12  1  0.246014  0.966921  0.000000  1
  Co  Co13  1  0.754346  0.038742  0.000000  1
  Co  Co14  1  0.461258  0.745654  0.000000  1
  Co  Co15  1  0.533079  0.253986  0.000000  1
  Co  Co16  1  0.035511  0.245450  0.000000  1
  Co  Co17  1  0.968126  0.756902  0.000000  1
  Sn  Sn18  1  0.572563  0.073533  0.000000  1
  Sn  Sn19  1  0.426467  0.927437  0.000000  1
  Sn  Sn20  1  0.073875  0.426125  0.000000  1
  Sn  Sn21  1  0.928386  0.571614  0.000000  1
  Sn  Sn22  1  0.645491  0.699924  0.000000  1
  Sn  Sn23  1  0.350253  0.300341  0.000000  1
  Sn  Sn24  1  0.151741  0.801732  0.000000  1
  Sn  Sn25  1  0.851183  0.199909  0.000000  1
  Sn  Sn26  1  0.300091  0.648817  0.000000  1
  Sn  Sn27  1  0.698268  0.348259  0.000000  1
  Sn  Sn28  1  0.199659  0.149747  0.000000  1
  Sn  Sn29  1  0.800076  0.854509  0.000000  1
  Sn  Sn30  1  0.668712  0.505091  0.500000  1
  Sn  Sn31  1  0.329936  0.487246  0.500000  1
  Sn  Sn32  1  0.170458  0.988400  0.500000  1
  Sn  Sn33  1  0.828668  0.009609  0.500000  1
  Sn  Sn34  1  0.490391  0.671332  0.500000  1
  Sn  Sn35  1  0.511600  0.329542  0.500000  1
  Sn  Sn36  1  0.012754  0.170064  0.500000  1
  Sn  Sn37  1  0.994909  0.831288  0.500000  1
