# generated using pymatgen
data_Nd16Cd4Ni3Os
_symmetry_space_group_name_H-M   'P 1'
_cell_length_a   9.91934578
_cell_length_b   9.91934558
_cell_length_c   9.91934558
_cell_angle_alpha   59.59555146
_cell_angle_beta   59.59555166
_cell_angle_gamma   59.59555628
_symmetry_Int_Tables_number   1
_chemical_formula_structural   Nd16Cd4Ni3Os
_chemical_formula_sum   'Nd16 Cd4 Ni3 Os1'
_cell_volume   683.79072036
_cell_formula_units_Z   1
loop_
 _symmetry_equiv_pos_site_id
 _symmetry_equiv_pos_as_xyz
  1  'x, y, z'
loop_
 _atom_site_type_symbol
 _atom_site_label
 _atom_site_symmetry_multiplicity
 _atom_site_fract_x
 _atom_site_fract_y
 _atom_site_fract_z
 _atom_site_occupancy
  Nd  Nd0  1  0.597347  0.597347  0.597347  1
  Nd  Nd1  1  0.599135  0.599135  0.206452  1
  Nd  Nd2  1  0.599135  0.206452  0.599135  1
  Nd  Nd3  1  0.206452  0.599135  0.599135  1
  Nd  Nd4  1  0.061020  0.438665  0.438665  1
  Nd  Nd5  1  0.437835  0.059181  0.059181  1
  Nd  Nd6  1  0.438665  0.061020  0.438665  1
  Nd  Nd7  1  0.059181  0.437835  0.059181  1
  Nd  Nd8  1  0.438665  0.438665  0.061020  1
  Nd  Nd9  1  0.059181  0.059181  0.437835  1
  Nd  Nd10  1  0.187808  0.814544  0.814544  1
  Nd  Nd11  1  0.804231  0.189934  0.189934  1
  Nd  Nd12  1  0.814544  0.187808  0.814544  1
  Nd  Nd13  1  0.189934  0.804231  0.189934  1
  Nd  Nd14  1  0.814544  0.814544  0.187808  1
  Nd  Nd15  1  0.189934  0.189934  0.804231  1
  Cd  Cd16  1  0.829880  0.829880  0.829880  1
  Cd  Cd17  1  0.829218  0.829218  0.509478  1
  Cd  Cd18  1  0.829218  0.509478  0.829218  1
  Cd  Cd19  1  0.509478  0.829218  0.829218  1
  Ni  Ni20  1  0.392926  0.392926  0.826349  1
  Ni  Ni21  1  0.392926  0.826349  0.392926  1
  Ni  Ni22  1  0.826349  0.392926  0.392926  1
  Os  Os23  1  0.392394  0.392394  0.392394  1
