# generated using pymatgen
data_Hf6Zr4ZnSiSn6
_symmetry_space_group_name_H-M   'P 1'
_cell_length_a   8.64729810
_cell_length_b   8.65323062
_cell_length_c   5.85910915
_cell_angle_alpha   89.97418155
_cell_angle_beta   90.01291541
_cell_angle_gamma   120.02268944
_symmetry_Int_Tables_number   1
_chemical_formula_structural   Hf6Zr4ZnSiSn6
_chemical_formula_sum   'Hf6 Zr4 Zn1 Si1 Sn6'
_cell_volume   379.59592823
_cell_formula_units_Z   1
loop_
 _symmetry_equiv_pos_site_id
 _symmetry_equiv_pos_as_xyz
  1  'x, y, z'
loop_
 _atom_site_type_symbol
 _atom_site_label
 _atom_site_symmetry_multiplicity
 _atom_site_fract_x
 _atom_site_fract_y
 _atom_site_fract_z
 _atom_site_occupancy
  Hf  Hf0  1  0.666695  0.333533  0.998544  1
  Hf  Hf1  1  0.333305  0.666838  0.998544  1
  Hf  Hf2  1  0.333400  0.667128  0.501287  1
  Hf  Hf3  1  0.666600  0.333728  0.501287  1
  Hf  Hf4  1  0.731785  0.733094  0.743149  1
  Hf  Hf5  1  0.268215  0.001309  0.743149  1
  Zr  Zr6  1  0.000000  0.267119  0.744495  1
  Zr  Zr7  1  0.260724  0.259774  0.256552  1
  Zr  Zr8  1  0.739276  0.999050  0.256552  1
  Zr  Zr9  1  0.000000  0.739273  0.257073  1
  Zn  Zn10  1  0.000000  0.998673  0.989838  1
  Si  Si11  1  0.000000  0.999222  0.508976  1
  Sn  Sn12  1  0.388548  0.388426  0.752361  1
  Sn  Sn13  1  0.611452  0.999878  0.752361  1
  Sn  Sn14  1  0.000000  0.613770  0.752592  1
  Sn  Sn15  1  0.608504  0.608569  0.247741  1
  Sn  Sn16  1  0.391496  0.000066  0.247741  1
  Sn  Sn17  1  0.000000  0.390547  0.247756  1
