# generated using pymatgen
data_AcLa3Ga4
_symmetry_space_group_name_H-M   'P 1'
_cell_length_a   7.40069291
_cell_length_b   7.40069441
_cell_length_c   7.12521700
_cell_angle_alpha   90.00000000
_cell_angle_beta   90.00000000
_cell_angle_gamma   143.68334061
_symmetry_Int_Tables_number   1
_chemical_formula_structural   AcLa3Ga4
_chemical_formula_sum   'Ac1 La3 Ga4'
_cell_volume   231.12460222
_cell_formula_units_Z   1
loop_
 _symmetry_equiv_pos_site_id
 _symmetry_equiv_pos_as_xyz
  1  'x, y, z'
loop_
 _atom_site_type_symbol
 _atom_site_label
 _atom_site_symmetry_multiplicity
 _atom_site_fract_x
 _atom_site_fract_y
 _atom_site_fract_z
 _atom_site_occupancy
  Ac  Ac0  1  0.274636  0.725364  0.250000  1
  La  La1  1  0.721692  0.278308  0.750000  1
  La  La2  1  0.552306  0.447694  0.250000  1
  La  La3  1  0.447480  0.552520  0.750000  1
  Ga  Ga4  1  0.091376  0.908624  0.935874  1
  Ga  Ga5  1  0.910567  0.089433  0.059966  1
  Ga  Ga6  1  0.910567  0.089433  0.440034  1
  Ga  Ga7  1  0.091376  0.908624  0.564126  1
