# generated using pymatgen
data_Ba3Dy2IrO9
_symmetry_space_group_name_H-M   'P 1'
_cell_length_a   6.09184200
_cell_length_b   6.09183933
_cell_length_c   14.77217700
_cell_angle_alpha   90.00000000
_cell_angle_beta   90.00000000
_cell_angle_gamma   119.99999278
_symmetry_Int_Tables_number   1
_chemical_formula_structural   Ba3Dy2IrO9
_chemical_formula_sum   'Ba6 Dy4 Ir2 O18'
_cell_volume   474.75794064
_cell_formula_units_Z   2
loop_
 _symmetry_equiv_pos_site_id
 _symmetry_equiv_pos_as_xyz
  1  'x, y, z'
loop_
 _atom_site_type_symbol
 _atom_site_label
 _atom_site_symmetry_multiplicity
 _atom_site_fract_x
 _atom_site_fract_y
 _atom_site_fract_z
 _atom_site_occupancy
  Ba  Ba0  1  0.333333  0.666667  0.089551  1
  Ba  Ba1  1  0.666667  0.333333  0.910449  1
  Ba  Ba2  1  0.333333  0.666667  0.589551  1
  Ba  Ba3  1  0.666667  0.333333  0.410449  1
  Ba  Ba4  1  0.000000  0.000000  0.250000  1
  Ba  Ba5  1  0.000000  0.000000  0.750000  1
  Dy  Dy6  1  0.333333  0.666667  0.834194  1
  Dy  Dy7  1  0.666667  0.333333  0.165806  1
  Dy  Dy8  1  0.333333  0.666667  0.334194  1
  Dy  Dy9  1  0.666667  0.333333  0.665806  1
  Ir  Ir10  1  0.000000  0.000000  0.000000  1
  Ir  Ir11  1  0.000000  0.000000  0.500000  1
  O  O12  1  0.885325  0.695646  0.575298  1
  O  O13  1  0.000000  0.548690  0.250000  1
  O  O14  1  0.189679  0.304354  0.924702  1
  O  O15  1  0.885325  0.189679  0.075298  1
  O  O16  1  0.810321  0.114675  0.575298  1
  O  O17  1  0.810321  0.695646  0.075298  1
  O  O18  1  0.695646  0.810321  0.424702  1
  O  O19  1  0.451310  0.000000  0.750000  1
  O  O20  1  0.548690  0.548690  0.750000  1
  O  O21  1  0.304354  0.189679  0.575298  1
  O  O22  1  0.114675  0.304354  0.424702  1
  O  O23  1  0.189679  0.885325  0.424702  1
  O  O24  1  0.304354  0.114675  0.075298  1
  O  O25  1  0.548690  0.000000  0.250000  1
  O  O26  1  0.451310  0.451310  0.250000  1
  O  O27  1  0.000000  0.451310  0.750000  1
  O  O28  1  0.114675  0.810321  0.924702  1
  O  O29  1  0.695646  0.885325  0.924702  1
