# generated using pymatgen
data_Er7Lu3(Bi2Te)2
_symmetry_space_group_name_H-M   'P 1'
_cell_length_a   8.02503215
_cell_length_b   9.23914560
_cell_length_c   11.81169300
_cell_angle_alpha   89.96797589
_cell_angle_beta   89.96937812
_cell_angle_gamma   89.98932885
_symmetry_Int_Tables_number   1
_chemical_formula_structural   Er7Lu3(Bi2Te)2
_chemical_formula_sum   'Er14 Lu6 Bi8 Te4'
_cell_volume   875.77109143
_cell_formula_units_Z   2
loop_
 _symmetry_equiv_pos_site_id
 _symmetry_equiv_pos_as_xyz
  1  'x, y, z'
loop_
 _atom_site_type_symbol
 _atom_site_label
 _atom_site_symmetry_multiplicity
 _atom_site_fract_x
 _atom_site_fract_y
 _atom_site_fract_z
 _atom_site_occupancy
  Er  Er0  1  0.021699  0.250139  0.509998  1
  Er  Er1  1  0.978301  0.749861  0.490002  1
  Er  Er2  1  0.477604  0.749534  0.010198  1
  Er  Er3  1  0.522396  0.250466  0.989802  1
  Er  Er4  1  0.352388  0.250188  0.286803  1
  Er  Er5  1  0.647612  0.749812  0.713197  1
  Er  Er6  1  0.149040  0.750012  0.785996  1
  Er  Er7  1  0.850960  0.249988  0.214004  1
  Er  Er8  1  0.178836  0.250102  0.783908  1
  Er  Er9  1  0.821164  0.749898  0.216092  1
  Er  Er10  1  0.320976  0.749743  0.284485  1
  Er  Er11  1  0.679024  0.250257  0.715515  1
  Er  Er12  1  0.187962  0.064095  0.058087  1
  Er  Er13  1  0.812038  0.935905  0.941913  1
  Lu  Lu14  1  0.312258  0.933979  0.557440  1
  Lu  Lu15  1  0.811361  0.566021  0.941884  1
  Lu  Lu16  1  0.687742  0.066021  0.442560  1
  Lu  Lu17  1  0.188639  0.433979  0.058116  1
  Lu  Lu18  1  0.687828  0.434112  0.442548  1
  Lu  Lu19  1  0.312172  0.565888  0.557452  1
  Bi  Bi20  1  0.067860  0.003809  0.325182  1
  Bi  Bi21  1  0.932140  0.996191  0.674818  1
  Bi  Bi22  1  0.431816  0.996457  0.824716  1
  Bi  Bi23  1  0.932096  0.503834  0.675009  1
  Bi  Bi24  1  0.568184  0.003543  0.175284  1
  Bi  Bi25  1  0.067904  0.496166  0.324991  1
  Bi  Bi26  1  0.567989  0.496454  0.175289  1
  Bi  Bi27  1  0.432011  0.503546  0.824711  1
  Te  Te28  1  0.401029  0.249959  0.543344  1
  Te  Te29  1  0.598971  0.750041  0.456656  1
  Te  Te30  1  0.097309  0.747596  0.042383  1
  Te  Te31  1  0.902691  0.252404  0.957617  1
