# generated using pymatgen
data_Nd3C2Cl3
_symmetry_space_group_name_H-M   'P 1'
_cell_length_a   9.93136200
_cell_length_b   9.93136252
_cell_length_c   16.44105200
_cell_angle_alpha   90.00000000
_cell_angle_beta   90.00000000
_cell_angle_gamma   112.09264934
_symmetry_Int_Tables_number   1
_chemical_formula_structural   Nd3C2Cl3
_chemical_formula_sum   'Nd24 C16 Cl24'
_cell_volume   1502.54924478
_cell_formula_units_Z   8
loop_
 _symmetry_equiv_pos_site_id
 _symmetry_equiv_pos_as_xyz
  1  'x, y, z'
loop_
 _atom_site_type_symbol
 _atom_site_label
 _atom_site_symmetry_multiplicity
 _atom_site_fract_x
 _atom_site_fract_y
 _atom_site_fract_z
 _atom_site_occupancy
  Nd  Nd0  1  0.162683  0.837317  0.250000  1
  Nd  Nd1  1  0.837317  0.162683  0.750000  1
  Nd  Nd2  1  0.985805  0.455049  0.604339  1
  Nd  Nd3  1  0.014195  0.544951  0.104339  1
  Nd  Nd4  1  0.455049  0.985805  0.395661  1
  Nd  Nd5  1  0.544951  0.014195  0.895661  1
  Nd  Nd6  1  0.222540  0.253809  0.390612  1
  Nd  Nd7  1  0.777460  0.746191  0.890612  1
  Nd  Nd8  1  0.253809  0.222540  0.609388  1
  Nd  Nd9  1  0.746191  0.777460  0.109388  1
  Nd  Nd10  1  0.610444  0.327167  0.515116  1
  Nd  Nd11  1  0.389556  0.672833  0.015116  1
  Nd  Nd12  1  0.327167  0.610444  0.484884  1
  Nd  Nd13  1  0.672833  0.389556  0.984884  1
  Nd  Nd14  1  0.883616  0.134776  0.493485  1
  Nd  Nd15  1  0.116384  0.865224  0.993485  1
  Nd  Nd16  1  0.134776  0.883616  0.506515  1
  Nd  Nd17  1  0.865224  0.116384  0.006515  1
  Nd  Nd18  1  0.381229  0.618771  0.250000  1
  Nd  Nd19  1  0.618771  0.381229  0.750000  1
  Nd  Nd20  1  0.994773  0.479523  0.872381  1
  Nd  Nd21  1  0.005227  0.520477  0.372381  1
  Nd  Nd22  1  0.479523  0.994773  0.127619  1
  Nd  Nd23  1  0.520477  0.005227  0.627619  1
  C  C24  1  0.859329  0.663755  0.025723  1
  C  C25  1  0.140671  0.336245  0.525723  1
  C  C26  1  0.663755  0.859329  0.974277  1
  C  C27  1  0.336245  0.140671  0.474277  1
  C  C28  1  0.915734  0.601544  0.965827  1
  C  C29  1  0.084266  0.398456  0.465827  1
  C  C30  1  0.601544  0.915734  0.034173  1
  C  C31  1  0.398456  0.084266  0.534173  1
  C  C32  1  0.712032  0.276177  0.650734  1
  C  C33  1  0.287968  0.723823  0.150734  1
  C  C34  1  0.276177  0.712032  0.349266  1
  C  C35  1  0.723823  0.287968  0.849266  1
  C  C36  1  0.786414  0.226943  0.906405  1
  C  C37  1  0.213586  0.773056  0.406405  1
  C  C38  1  0.226944  0.786414  0.093595  1
  C  C39  1  0.773056  0.213586  0.593595  1
  Cl  Cl40  1  0.243446  0.728635  0.627604  1
  Cl  Cl41  1  0.756554  0.271365  0.127604  1
  Cl  Cl42  1  0.728635  0.243446  0.372396  1
  Cl  Cl43  1  0.271365  0.756554  0.872396  1
  Cl  Cl44  1  0.857068  0.613261  0.503008  1
  Cl  Cl45  1  0.142932  0.386739  0.003008  1
  Cl  Cl46  1  0.613261  0.857068  0.496992  1
  Cl  Cl47  1  0.386739  0.142932  0.996992  1
  Cl  Cl48  1  0.128122  0.366480  0.739453  1
  Cl  Cl49  1  0.871878  0.633520  0.239453  1
  Cl  Cl50  1  0.366480  0.128122  0.260547  1
  Cl  Cl51  1  0.633520  0.871878  0.760547  1
  Cl  Cl52  1  0.499976  0.491692  0.385477  1
  Cl  Cl53  1  0.500024  0.508308  0.885477  1
  Cl  Cl54  1  0.491692  0.499976  0.614523  1
  Cl  Cl55  1  0.508308  0.500024  0.114523  1
  Cl  Cl56  1  0.896216  0.628403  0.742054  1
  Cl  Cl57  1  0.103784  0.371597  0.242054  1
  Cl  Cl58  1  0.628403  0.896216  0.257946  1
  Cl  Cl59  1  0.371597  0.103784  0.757946  1
  Cl  Cl60  1  0.020311  0.011398  0.129588  1
  Cl  Cl61  1  0.979689  0.988602  0.629588  1
  Cl  Cl62  1  0.011398  0.020311  0.870412  1
  Cl  Cl63  1  0.988602  0.979689  0.370412  1
