# generated using pymatgen
data_HgRu2PbO7
_symmetry_space_group_name_H-M   'P 1'
_cell_length_a   7.35149039
_cell_length_b   7.27638438
_cell_length_c   7.35149039
_cell_angle_alpha   119.66261338
_cell_angle_beta   89.86120866
_cell_angle_gamma   119.66261338
_symmetry_Int_Tables_number   1
_chemical_formula_structural   HgRu2PbO7
_chemical_formula_sum   'Hg2 Ru4 Pb2 O14'
_cell_volume   281.20524521
_cell_formula_units_Z   2
loop_
 _symmetry_equiv_pos_site_id
 _symmetry_equiv_pos_as_xyz
  1  'x, y, z'
loop_
 _atom_site_type_symbol
 _atom_site_label
 _atom_site_symmetry_multiplicity
 _atom_site_fract_x
 _atom_site_fract_y
 _atom_site_fract_z
 _atom_site_occupancy
  Hg  Hg0  1  0.000000  0.000000  0.500000  1
  Hg  Hg1  1  0.000000  0.500000  0.500000  1
  Ru  Ru2  1  0.000000  0.000000  0.000000  1
  Ru  Ru3  1  0.500000  0.000000  0.000000  1
  Ru  Ru4  1  0.500000  0.500000  0.000000  1
  Ru  Ru5  1  0.500000  0.500000  0.500000  1
  Pb  Pb6  1  0.000000  0.500000  0.000000  1
  Pb  Pb7  1  0.500000  0.000000  0.500000  1
  O  O8  1  0.424877  0.750001  0.075123  1
  O  O9  1  0.816785  0.740748  0.061153  1
  O  O10  1  0.816785  0.137190  0.061153  1
  O  O11  1  0.561154  0.240748  0.316784  1
  O  O12  1  0.561154  0.637190  0.316784  1
  O  O13  1  0.188956  0.250001  0.311046  1
  O  O14  1  0.105506  0.750001  0.394493  1
  O  O15  1  0.894494  0.250001  0.605507  1
  O  O16  1  0.438847  0.362810  0.683217  1
  O  O17  1  0.438847  0.759254  0.683217  1
  O  O18  1  0.811046  0.750001  0.688956  1
  O  O19  1  0.183216  0.259254  0.938848  1
  O  O20  1  0.183216  0.862810  0.938848  1
  O  O21  1  0.575124  0.250001  0.924878  1
