# generated using pymatgen
data_Nd2Y2Sn10PdRh5
_symmetry_space_group_name_H-M   'P 1'
_cell_length_a   13.56300461
_cell_length_b   13.56300486
_cell_length_c   7.31637162
_cell_angle_alpha   90.20948356
_cell_angle_beta   89.79051175
_cell_angle_gamma   160.97084083
_symmetry_Int_Tables_number   1
_chemical_formula_structural   Nd2Y2Sn10PdRh5
_chemical_formula_sum   'Nd2 Y2 Sn10 Pd1 Rh5'
_cell_volume   438.82148548
_cell_formula_units_Z   1
loop_
 _symmetry_equiv_pos_site_id
 _symmetry_equiv_pos_as_xyz
  1  'x, y, z'
loop_
 _atom_site_type_symbol
 _atom_site_label
 _atom_site_symmetry_multiplicity
 _atom_site_fract_x
 _atom_site_fract_y
 _atom_site_fract_z
 _atom_site_occupancy
  Nd  Nd0  1  0.477429  0.522571  0.243002  1
  Nd  Nd1  1  0.172433  0.827567  0.253437  1
  Y  Y2  1  0.524946  0.475054  0.739971  1
  Y  Y3  1  0.827908  0.172092  0.750400  1
  Sn  Sn4  1  0.704381  0.295619  0.548323  1
  Sn  Sn5  1  0.596206  0.403794  0.113727  1
  Sn  Sn6  1  0.048237  0.951763  0.404296  1
  Sn  Sn7  1  0.953911  0.046089  0.903589  1
  Sn  Sn8  1  0.709574  0.290426  0.971938  1
  Sn  Sn9  1  0.290103  0.709897  0.473814  1
  Sn  Sn10  1  0.293257  0.706743  0.043457  1
  Sn  Sn11  1  0.880203  0.119797  0.240077  1
  Sn  Sn12  1  0.119380  0.880620  0.731698  1
  Sn  Sn13  1  0.402889  0.597111  0.612227  1
  Pd  Pd14  1  0.392471  0.607529  0.981476  1
  Rh  Rh15  1  0.778581  0.221419  0.259856  1
  Rh  Rh16  1  0.222881  0.777119  0.760523  1
  Rh  Rh17  1  0.051477  0.948523  0.019478  1
  Rh  Rh18  1  0.605205  0.394795  0.485222  1
  Rh  Rh19  1  0.948528  0.051472  0.527291  1
