# generated using pymatgen
data_Ac2ScPa3N8
_symmetry_space_group_name_H-M   'P 1'
_cell_length_a   7.16503831
_cell_length_b   7.16507486
_cell_length_c   6.93335659
_cell_angle_alpha   121.10784163
_cell_angle_beta   90.00660890
_cell_angle_gamma   119.99642710
_symmetry_Int_Tables_number   1
_chemical_formula_structural   Ac2ScPa3N8
_chemical_formula_sum   'Ac2 Sc1 Pa3 N8'
_cell_volume   247.39237657
_cell_formula_units_Z   1
loop_
 _symmetry_equiv_pos_site_id
 _symmetry_equiv_pos_as_xyz
  1  'x, y, z'
loop_
 _atom_site_type_symbol
 _atom_site_label
 _atom_site_symmetry_multiplicity
 _atom_site_fract_x
 _atom_site_fract_y
 _atom_site_fract_z
 _atom_site_occupancy
  Ac  Ac0  1  0.995681  0.991354  0.987038  1
  Ac  Ac1  1  0.754314  0.508639  0.262950  1
  Sc  Sc2  1  0.374991  0.749977  0.124962  1
  Pa  Pa3  1  0.375001  0.749996  0.624993  1
  Pa  Pa4  1  0.375001  0.249996  0.625000  1
  Pa  Pa5  1  0.874997  0.249996  0.624992  1
  N  N6  1  0.607238  0.214535  0.402069  1
  N  N7  1  0.187531  0.794828  0.402064  1
  N  N8  1  0.607298  0.794837  0.402130  1
  N  N9  1  0.144521  0.289101  0.433623  1
  N  N10  1  0.605483  0.210910  0.816390  1
  N  N11  1  0.142710  0.705172  0.847884  1
  N  N12  1  0.142766  0.285477  0.847949  1
  N  N13  1  0.562470  0.705179  0.847952  1
