# generated using pymatgen
data_Dy15ErIn4(IrRh)2
_symmetry_space_group_name_H-M   'P 1'
_cell_length_a   9.67815038
_cell_length_b   9.66484229
_cell_length_c   9.66484121
_cell_angle_alpha   59.86885532
_cell_angle_beta   59.95443693
_cell_angle_gamma   59.95443902
_symmetry_Int_Tables_number   1
_chemical_formula_structural   Dy15ErIn4(IrRh)2
_chemical_formula_sum   'Dy15 Er1 In4 Ir2 Rh2'
_cell_volume   638.16904807
_cell_formula_units_Z   1
loop_
 _symmetry_equiv_pos_site_id
 _symmetry_equiv_pos_as_xyz
  1  'x, y, z'
loop_
 _atom_site_type_symbol
 _atom_site_label
 _atom_site_symmetry_multiplicity
 _atom_site_fract_x
 _atom_site_fract_y
 _atom_site_fract_z
 _atom_site_occupancy
  Dy  Dy0  1  0.689518  0.689517  0.310990  1
  Dy  Dy1  1  0.309975  0.689517  0.310990  1
  Dy  Dy2  1  0.938071  0.939886  0.560578  1
  Dy  Dy3  1  0.150718  0.149480  0.549083  1
  Dy  Dy4  1  0.561466  0.939886  0.560578  1
  Dy  Dy5  1  0.151165  0.150649  0.150649  1
  Dy  Dy6  1  0.309975  0.310990  0.689517  1
  Dy  Dy7  1  0.940147  0.559853  0.559853  1
  Dy  Dy8  1  0.561466  0.560578  0.939886  1
  Dy  Dy9  1  0.562468  0.937532  0.937532  1
  Dy  Dy10  1  0.938071  0.560578  0.939886  1
  Dy  Dy11  1  0.150718  0.549083  0.149480  1
  Dy  Dy12  1  0.310341  0.689659  0.689659  1
  Dy  Dy13  1  0.689518  0.310990  0.689517  1
  Dy  Dy14  1  0.547537  0.150649  0.150649  1
  Er  Er15  1  0.689611  0.310389  0.310389  1
  In  In16  1  0.916915  0.917475  0.248694  1
  In  In17  1  0.248957  0.917263  0.917263  1
  In  In18  1  0.916915  0.248694  0.917475  1
  In  In19  1  0.916517  0.917263  0.917263  1
  Ir  Ir20  1  0.358882  0.357887  0.357887  1
  Ir  Ir21  1  0.925344  0.357887  0.357887  1
  Rh  Rh22  1  0.357852  0.358608  0.925689  1
  Rh  Rh23  1  0.357852  0.925689  0.358608  1
