# generated using pymatgen
data_V3Co8(Ni2B)6
_symmetry_space_group_name_H-M   'P 1'
_cell_length_a   7.34790887
_cell_length_b   7.34790810
_cell_length_c   7.34790800
_cell_angle_alpha   60.00000046
_cell_angle_beta   60.00000393
_cell_angle_gamma   60.00000435
_symmetry_Int_Tables_number   1
_chemical_formula_structural   V3Co8(Ni2B)6
_chemical_formula_sum   'V3 Co8 Ni12 B6'
_cell_volume   280.52800198
_cell_formula_units_Z   1
loop_
 _symmetry_equiv_pos_site_id
 _symmetry_equiv_pos_as_xyz
  1  'x, y, z'
loop_
 _atom_site_type_symbol
 _atom_site_label
 _atom_site_symmetry_multiplicity
 _atom_site_fract_x
 _atom_site_fract_y
 _atom_site_fract_z
 _atom_site_occupancy
  V  V0  1  0.000000  0.000000  0.000000  1
  V  V1  1  0.750000  0.750000  0.750000  1
  V  V2  1  0.250000  0.250000  0.250000  1
  Co  Co3  1  0.620331  0.620331  0.139006  1
  Co  Co4  1  0.620331  0.139006  0.620331  1
  Co  Co5  1  0.139006  0.620331  0.620331  1
  Co  Co6  1  0.620331  0.620331  0.620331  1
  Co  Co7  1  0.379669  0.379669  0.860994  1
  Co  Co8  1  0.379669  0.860994  0.379669  1
  Co  Co9  1  0.860994  0.379669  0.379669  1
  Co  Co10  1  0.379669  0.379669  0.379669  1
  Ni  Ni11  1  0.000000  0.000000  0.337988  1
  Ni  Ni12  1  0.662012  0.000000  0.337988  1
  Ni  Ni13  1  0.000000  0.662012  0.337988  1
  Ni  Ni14  1  0.662012  0.337988  0.000000  1
  Ni  Ni15  1  0.000000  0.337988  0.000000  1
  Ni  Ni16  1  0.000000  0.337988  0.662012  1
  Ni  Ni17  1  0.337988  0.662012  0.000000  1
  Ni  Ni18  1  0.337988  0.000000  0.662012  1
  Ni  Ni19  1  0.337988  0.000000  0.000000  1
  Ni  Ni20  1  0.000000  0.000000  0.662012  1
  Ni  Ni21  1  0.000000  0.662012  0.000000  1
  Ni  Ni22  1  0.662012  0.000000  0.000000  1
  B  B23  1  0.724322  0.724322  0.275678  1
  B  B24  1  0.275678  0.724322  0.275678  1
  B  B25  1  0.724322  0.275678  0.275678  1
  B  B26  1  0.275678  0.275678  0.724322  1
  B  B27  1  0.724322  0.275678  0.724322  1
  B  B28  1  0.275678  0.724322  0.724322  1
