# generated using pymatgen
data_Sm3Y3Sc2(Co4P3)4
_symmetry_space_group_name_H-M   'P 1'
_cell_length_a   3.73645100
_cell_length_b   10.69194302
_cell_length_c   12.40449202
_cell_angle_alpha   89.99287040
_cell_angle_beta   90.00000000
_cell_angle_gamma   90.00000000
_symmetry_Int_Tables_number   1
_chemical_formula_structural   Sm3Y3Sc2(Co4P3)4
_chemical_formula_sum   'Sm3 Y3 Sc2 Co16 P12'
_cell_volume   495.55847494
_cell_formula_units_Z   1
loop_
 _symmetry_equiv_pos_site_id
 _symmetry_equiv_pos_as_xyz
  1  'x, y, z'
loop_
 _atom_site_type_symbol
 _atom_site_label
 _atom_site_symmetry_multiplicity
 _atom_site_fract_x
 _atom_site_fract_y
 _atom_site_fract_z
 _atom_site_occupancy
  Sm  Sm0  1  0.000000  0.499759  0.528364  1
  Sm  Sm1  1  0.500000  0.000609  0.472189  1
  Sm  Sm2  1  0.500000  0.822354  0.205849  1
  Y  Y3  1  0.500000  0.178446  0.205087  1
  Y  Y4  1  0.000000  0.677830  0.795349  1
  Y  Y5  1  0.000000  0.321723  0.794319  1
  Sc  Sc6  1  0.500000  0.499400  0.155530  1
  Sc  Sc7  1  0.000000  0.000226  0.844173  1
  Co  Co8  1  0.500000  0.499738  0.707160  1
  Co  Co9  1  0.000000  0.001870  0.293277  1
  Co  Co10  1  0.000000  0.499201  0.987091  1
  Co  Co11  1  0.500000  0.000899  0.011482  1
  Co  Co12  1  0.500000  0.330927  0.994251  1
  Co  Co13  1  0.500000  0.668016  0.993802  1
  Co  Co14  1  0.000000  0.169552  0.004576  1
  Co  Co15  1  0.000000  0.831406  0.004492  1
  Co  Co16  1  0.500000  0.295583  0.432406  1
  Co  Co17  1  0.500000  0.704168  0.433831  1
  Co  Co18  1  0.000000  0.204640  0.567685  1
  Co  Co19  1  0.000000  0.795583  0.568809  1
  Co  Co20  1  0.500000  0.878611  0.704656  1
  Co  Co21  1  0.500000  0.121849  0.703946  1
  Co  Co22  1  0.000000  0.620306  0.297208  1
  Co  Co23  1  0.000000  0.377891  0.295438  1
  P  P24  1  0.500000  0.499389  0.885960  1
  P  P25  1  0.000000  0.001651  0.112581  1
  P  P26  1  0.500000  0.500083  0.357549  1
  P  P27  1  0.000000  0.000178  0.642624  1
  P  P28  1  0.500000  0.307371  0.615924  1
  P  P29  1  0.500000  0.692288  0.616912  1
  P  P30  1  0.000000  0.192790  0.384015  1
  P  P31  1  0.000000  0.806614  0.386242  1
  P  P32  1  0.500000  0.839919  0.893427  1
  P  P33  1  0.500000  0.160510  0.892553  1
  P  P34  1  0.000000  0.659116  0.104817  1
  P  P35  1  0.000000  0.339502  0.106426  1
