# generated using pymatgen
data_Th8Ti9Si16Mo3
_symmetry_space_group_name_H-M   'P 1'
_cell_length_a   7.15399698
_cell_length_b   7.15399597
_cell_length_c   13.22242187
_cell_angle_alpha   90.07526172
_cell_angle_beta   89.92473691
_cell_angle_gamma   90.09900279
_symmetry_Int_Tables_number   1
_chemical_formula_structural   Th8Ti9Si16Mo3
_chemical_formula_sum   'Th8 Ti9 Si16 Mo3'
_cell_volume   676.71695363
_cell_formula_units_Z   1
loop_
 _symmetry_equiv_pos_site_id
 _symmetry_equiv_pos_as_xyz
  1  'x, y, z'
loop_
 _atom_site_type_symbol
 _atom_site_label
 _atom_site_symmetry_multiplicity
 _atom_site_fract_x
 _atom_site_fract_y
 _atom_site_fract_z
 _atom_site_occupancy
  Th  Th0  1  0.337807  0.001686  0.467964  1
  Th  Th1  1  0.496049  0.838769  0.718971  1
  Th  Th2  1  0.500133  0.160567  0.218561  1
  Th  Th3  1  0.838769  0.496049  0.281029  1
  Th  Th4  1  0.160567  0.500133  0.781439  1
  Th  Th5  1  0.661289  0.000030  0.968281  1
  Th  Th6  1  0.001686  0.337807  0.532036  1
  Th  Th7  1  0.000030  0.661289  0.031719  1
  Ti  Ti8  1  0.671423  0.671423  0.500000  1
  Ti  Ti9  1  0.157423  0.006640  0.877055  1
  Ti  Ti10  1  0.492243  0.657458  0.126771  1
  Ti  Ti11  1  0.505584  0.343005  0.628076  1
  Ti  Ti12  1  0.657458  0.492243  0.873229  1
  Ti  Ti13  1  0.343005  0.505584  0.371924  1
  Ti  Ti14  1  0.843111  0.994764  0.375859  1
  Ti  Ti15  1  0.006640  0.157423  0.122945  1
  Ti  Ti16  1  0.994764  0.843111  0.624141  1
  Si  Si17  1  0.196302  0.123654  0.687225  1
  Si  Si18  1  0.377918  0.695362  0.937006  1
  Si  Si19  1  0.624519  0.302448  0.438146  1
  Si  Si20  1  0.695362  0.377918  0.062994  1
  Si  Si21  1  0.302448  0.624519  0.561854  1
  Si  Si22  1  0.803298  0.876242  0.187145  1
  Si  Si23  1  0.123654  0.196302  0.312775  1
  Si  Si24  1  0.876242  0.803298  0.812855  1
  Si  Si25  1  0.286760  0.956977  0.065316  1
  Si  Si26  1  0.543565  0.785805  0.316038  1
  Si  Si27  1  0.456083  0.214012  0.815620  1
  Si  Si28  1  0.785805  0.543565  0.683962  1
  Si  Si29  1  0.214012  0.456083  0.184380  1
  Si  Si30  1  0.712680  0.044251  0.566544  1
  Si  Si31  1  0.956977  0.286760  0.934684  1
  Si  Si32  1  0.044251  0.712680  0.433456  1
  Mo  Mo33  1  0.329806  0.329806  0.000000  1
  Mo  Mo34  1  0.171019  0.831314  0.248930  1
  Mo  Mo35  1  0.831314  0.171019  0.751070  1
