# generated using pymatgen
data_Y7Tm7Th2(CdNi)4
_symmetry_space_group_name_H-M   'P 1'
_cell_length_a   9.55412548
_cell_length_b   9.55412651
_cell_length_c   9.55805200
_cell_angle_alpha   59.98640764
_cell_angle_beta   59.98640409
_cell_angle_gamma   60.15803647
_symmetry_Int_Tables_number   1
_chemical_formula_structural   Y7Tm7Th2(CdNi)4
_chemical_formula_sum   'Y7 Tm7 Th2 Cd4 Ni4'
_cell_volume   617.53682278
_cell_formula_units_Z   1
loop_
 _symmetry_equiv_pos_site_id
 _symmetry_equiv_pos_as_xyz
  1  'x, y, z'
loop_
 _atom_site_type_symbol
 _atom_site_label
 _atom_site_symmetry_multiplicity
 _atom_site_fract_x
 _atom_site_fract_y
 _atom_site_fract_z
 _atom_site_occupancy
  Y  Y0  1  0.062932  0.062932  0.437068  1
  Y  Y1  1  0.187448  0.812819  0.815762  1
  Y  Y2  1  0.812819  0.187448  0.183971  1
  Y  Y3  1  0.812819  0.187448  0.815762  1
  Y  Y4  1  0.187448  0.812819  0.183971  1
  Y  Y5  1  0.813264  0.813264  0.186736  1
  Y  Y6  1  0.187080  0.187080  0.812920  1
  Tm  Tm7  1  0.597976  0.200818  0.600603  1
  Tm  Tm8  1  0.200818  0.597976  0.600603  1
  Tm  Tm9  1  0.063672  0.439491  0.436013  1
  Tm  Tm10  1  0.439491  0.063672  0.060824  1
  Tm  Tm11  1  0.439491  0.063672  0.436013  1
  Tm  Tm12  1  0.063672  0.439491  0.060824  1
  Tm  Tm13  1  0.436336  0.436336  0.063664  1
  Th  Th14  1  0.593682  0.593682  0.601531  1
  Th  Th15  1  0.593682  0.593682  0.211105  1
  Cd  Cd16  1  0.832518  0.832518  0.829564  1
  Cd  Cd17  1  0.832518  0.832518  0.505399  1
  Cd  Cd18  1  0.833859  0.505271  0.830435  1
  Cd  Cd19  1  0.505271  0.833859  0.830435  1
  Ni  Ni20  1  0.392646  0.392646  0.392682  1
  Ni  Ni21  1  0.392646  0.392646  0.822027  1
  Ni  Ni22  1  0.398065  0.819845  0.391046  1
  Ni  Ni23  1  0.819845  0.398065  0.391046  1
