# generated using pymatgen
data_SiTe3As
_symmetry_space_group_name_H-M   'P 1'
_cell_length_a   7.00865000
_cell_length_b   7.00864918
_cell_length_c   7.89497100
_cell_angle_alpha   90.00000000
_cell_angle_beta   90.00000000
_cell_angle_gamma   120.00000387
_symmetry_Int_Tables_number   1
_chemical_formula_structural   SiTe3As
_chemical_formula_sum   'Si2 Te6 As2'
_cell_volume   335.85347660
_cell_formula_units_Z   2
loop_
 _symmetry_equiv_pos_site_id
 _symmetry_equiv_pos_as_xyz
  1  'x, y, z'
loop_
 _atom_site_type_symbol
 _atom_site_label
 _atom_site_symmetry_multiplicity
 _atom_site_fract_x
 _atom_site_fract_y
 _atom_site_fract_z
 _atom_site_occupancy
  Si  Si0  1  0.000000  0.000000  0.354909  1
  Si  Si1  1  0.000000  0.000000  0.645091  1
  Te  Te2  1  0.000000  0.652097  0.736991  1
  Te  Te3  1  0.347903  0.347903  0.736991  1
  Te  Te4  1  0.652097  0.000000  0.736991  1
  Te  Te5  1  0.652097  0.652097  0.263009  1
  Te  Te6  1  0.000000  0.347903  0.263009  1
  Te  Te7  1  0.347903  0.000000  0.263009  1
  As  As8  1  0.666667  0.333333  0.500000  1
  As  As9  1  0.333333  0.666667  0.500000  1
