# generated using pymatgen
data_Tb3Ho4Sn23Os6
_symmetry_space_group_name_H-M   'P 1'
_cell_length_a   9.85660735
_cell_length_b   9.85248312
_cell_length_c   10.12572809
_cell_angle_alpha   89.99999685
_cell_angle_beta   90.01296689
_cell_angle_gamma   119.98616124
_symmetry_Int_Tables_number   1
_chemical_formula_structural   Tb3Ho4Sn23Os6
_chemical_formula_sum   'Tb3 Ho4 Sn23 Os6'
_cell_volume   851.70770947
_cell_formula_units_Z   1
loop_
 _symmetry_equiv_pos_site_id
 _symmetry_equiv_pos_as_xyz
  1  'x, y, z'
loop_
 _atom_site_type_symbol
 _atom_site_label
 _atom_site_symmetry_multiplicity
 _atom_site_fract_x
 _atom_site_fract_y
 _atom_site_fract_z
 _atom_site_occupancy
  Tb  Tb0  1  0.999998  0.999999  0.000011  1
  Tb  Tb1  1  0.514943  0.485033  0.697921  1
  Tb  Tb2  1  0.514943  0.029909  0.697921  1
  Ho  Ho3  1  0.970649  0.485324  0.698119  1
  Ho  Ho4  1  0.029289  0.514645  0.301874  1
  Ho  Ho5  1  0.485327  0.970685  0.301862  1
  Ho  Ho6  1  0.485327  0.514643  0.301862  1
  Sn  Sn7  1  0.666667  0.333333  0.175308  1
  Sn  Sn8  1  0.667095  0.333547  0.870320  1
  Sn  Sn9  1  0.333335  0.666668  0.130121  1
  Sn  Sn10  1  0.349854  0.349878  0.000058  1
  Sn  Sn11  1  0.999961  0.650006  0.000020  1
  Sn  Sn12  1  0.650137  0.000028  0.000091  1
  Sn  Sn13  1  0.650137  0.650110  0.000091  1
  Sn  Sn14  1  0.333210  0.666606  0.824811  1
  Sn  Sn15  1  0.439735  0.219868  0.462791  1
  Sn  Sn16  1  0.219614  0.779885  0.536772  1
  Sn  Sn17  1  0.219614  0.439728  0.536772  1
  Sn  Sn18  1  0.560319  0.780159  0.536638  1
  Sn  Sn19  1  0.117782  0.882214  0.275860  1
  Sn  Sn20  1  0.780226  0.560242  0.462938  1
  Sn  Sn21  1  0.780226  0.219985  0.462938  1
  Sn  Sn22  1  0.349854  0.999977  0.000058  1
  Sn  Sn23  1  0.117782  0.235568  0.275860  1
  Sn  Sn24  1  0.764358  0.882180  0.275834  1
  Sn  Sn25  1  0.235354  0.117677  0.724231  1
  Sn  Sn26  1  0.882402  0.764571  0.724163  1
  Sn  Sn27  1  0.882402  0.117830  0.724163  1
  Sn  Sn28  1  0.999975  0.999987  0.499991  1
  Sn  Sn29  1  0.999961  0.349954  0.000020  1
  Os  Os30  1  0.169952  0.829267  0.797759  1
  Os  Os31  1  0.169952  0.340685  0.797759  1
  Os  Os32  1  0.659530  0.829764  0.797891  1
  Os  Os33  1  0.340868  0.170434  0.202349  1
  Os  Os34  1  0.829611  0.659142  0.202410  1
  Os  Os35  1  0.829611  0.170470  0.202410  1
