# generated using pymatgen
data_CeEr7(BeSi3)4
_symmetry_space_group_name_H-M   'P 1'
_cell_length_a   7.83630800
_cell_length_b   7.83630867
_cell_length_c   8.04743000
_cell_angle_alpha   90.00000000
_cell_angle_beta   90.00000000
_cell_angle_gamma   120.00000560
_symmetry_Int_Tables_number   1
_chemical_formula_structural   CeEr7(BeSi3)4
_chemical_formula_sum   'Ce1 Er7 Be4 Si12'
_cell_volume   427.96755611
_cell_formula_units_Z   1
loop_
 _symmetry_equiv_pos_site_id
 _symmetry_equiv_pos_as_xyz
  1  'x, y, z'
loop_
 _atom_site_type_symbol
 _atom_site_label
 _atom_site_symmetry_multiplicity
 _atom_site_fract_x
 _atom_site_fract_y
 _atom_site_fract_z
 _atom_site_occupancy
  Ce  Ce0  1  0.000000  0.000000  0.250000  1
  Er  Er1  1  0.000000  0.000000  0.750000  1
  Er  Er2  1  0.500299  0.499701  0.250000  1
  Er  Er3  1  0.500299  0.000600  0.250000  1
  Er  Er4  1  0.999400  0.499701  0.250000  1
  Er  Er5  1  0.499693  0.500307  0.750000  1
  Er  Er6  1  0.000613  0.500307  0.750000  1
  Er  Er7  1  0.499693  0.999387  0.750000  1
  Be  Be8  1  0.666667  0.333333  0.506230  1
  Be  Be9  1  0.666667  0.333333  0.993770  1
  Be  Be10  1  0.333333  0.666667  0.998255  1
  Be  Be11  1  0.333333  0.666667  0.501745  1
  Si  Si12  1  0.827405  0.172595  0.502088  1
  Si  Si13  1  0.827405  0.654809  0.502088  1
  Si  Si14  1  0.345191  0.172595  0.502088  1
  Si  Si15  1  0.827405  0.172595  0.997912  1
  Si  Si16  1  0.827405  0.654809  0.997912  1
  Si  Si17  1  0.345191  0.172595  0.997912  1
  Si  Si18  1  0.172607  0.827393  0.999226  1
  Si  Si19  1  0.654786  0.827393  0.999226  1
  Si  Si20  1  0.172607  0.345214  0.999226  1
  Si  Si21  1  0.172607  0.827393  0.500774  1
  Si  Si22  1  0.654786  0.827393  0.500774  1
  Si  Si23  1  0.172607  0.345214  0.500774  1
