# generated using pymatgen
data_Nb5Fe6SiW
_symmetry_space_group_name_H-M   'P 1'
_cell_length_a   9.30733610
_cell_length_b   9.30733662
_cell_length_c   9.30733590
_cell_angle_alpha   30.39747379
_cell_angle_beta   30.39746952
_cell_angle_gamma   30.39747443
_symmetry_Int_Tables_number   1
_chemical_formula_structural   Nb5Fe6SiW
_chemical_formula_sum   'Nb5 Fe6 Si1 W1'
_cell_volume   182.95917907
_cell_formula_units_Z   1
loop_
 _symmetry_equiv_pos_site_id
 _symmetry_equiv_pos_as_xyz
  1  'x, y, z'
loop_
 _atom_site_type_symbol
 _atom_site_label
 _atom_site_symmetry_multiplicity
 _atom_site_fract_x
 _atom_site_fract_y
 _atom_site_fract_z
 _atom_site_occupancy
  Nb  Nb0  1  0.168315  0.168315  0.168315  1
  Nb  Nb1  1  0.833367  0.833367  0.833367  1
  Nb  Nb2  1  0.349054  0.349054  0.349054  1
  Nb  Nb3  1  0.649352  0.649352  0.649352  1
  Nb  Nb4  1  0.452940  0.452940  0.452940  1
  Fe  Fe5  1  0.588830  0.092100  0.092100  1
  Fe  Fe6  1  0.092100  0.092100  0.588830  1
  Fe  Fe7  1  0.092100  0.588830  0.092100  1
  Fe  Fe8  1  0.906870  0.410615  0.906870  1
  Fe  Fe9  1  0.410615  0.906870  0.906870  1
  Fe  Fe10  1  0.906870  0.906870  0.410615  1
  Si  Si11  1  0.999433  0.999433  0.999433  1
  W  W12  1  0.550155  0.550155  0.550155  1
