# generated using pymatgen
data_Sc8InPb3Au8
_symmetry_space_group_name_H-M   'P 1'
_cell_length_a   7.80458500
_cell_length_b   7.80458500
_cell_length_c   7.00289500
_cell_angle_alpha   90.00000000
_cell_angle_beta   90.00000000
_cell_angle_gamma   90.00000000
_symmetry_Int_Tables_number   1
_chemical_formula_structural   Sc8InPb3Au8
_chemical_formula_sum   'Sc8 In1 Pb3 Au8'
_cell_volume   426.55716808
_cell_formula_units_Z   1
loop_
 _symmetry_equiv_pos_site_id
 _symmetry_equiv_pos_as_xyz
  1  'x, y, z'
loop_
 _atom_site_type_symbol
 _atom_site_label
 _atom_site_symmetry_multiplicity
 _atom_site_fract_x
 _atom_site_fract_y
 _atom_site_fract_z
 _atom_site_occupancy
  Sc  Sc0  1  0.147004  0.153770  0.997769  1
  Sc  Sc1  1  0.852996  0.846230  0.997769  1
  Sc  Sc2  1  0.653770  0.352996  0.502231  1
  Sc  Sc3  1  0.346230  0.647004  0.502231  1
  Sc  Sc4  1  0.682627  0.322314  0.998356  1
  Sc  Sc5  1  0.317373  0.677686  0.998356  1
  Sc  Sc6  1  0.822314  0.817373  0.501644  1
  Sc  Sc7  1  0.177686  0.182627  0.501644  1
  In  In8  1  0.000000  0.500000  0.750000  1
  Pb  Pb9  1  0.500000  0.000000  0.250000  1
  Pb  Pb10  1  0.500000  0.000000  0.750000  1
  Pb  Pb11  1  0.000000  0.500000  0.250000  1
  Au  Au12  1  0.372521  0.369960  0.218219  1
  Au  Au13  1  0.634824  0.625508  0.780753  1
  Au  Au14  1  0.627479  0.630040  0.218219  1
  Au  Au15  1  0.874492  0.134824  0.719247  1
  Au  Au16  1  0.869960  0.127479  0.281781  1
  Au  Au17  1  0.365176  0.374492  0.780753  1
  Au  Au18  1  0.130040  0.872521  0.281781  1
  Au  Au19  1  0.125508  0.865176  0.719247  1
