# generated using pymatgen
data_Tb15HoMgHg3Ir4
_symmetry_space_group_name_H-M   'P 1'
_cell_length_a   9.65963557
_cell_length_b   9.67379086
_cell_length_c   9.67379103
_cell_angle_alpha   59.84361723
_cell_angle_beta   59.89214884
_cell_angle_gamma   59.89214202
_symmetry_Int_Tables_number   1
_chemical_formula_structural   Tb15HoMgHg3Ir4
_chemical_formula_sum   'Tb15 Ho1 Mg1 Hg3 Ir4'
_cell_volume   637.40429559
_cell_formula_units_Z   1
loop_
 _symmetry_equiv_pos_site_id
 _symmetry_equiv_pos_as_xyz
  1  'x, y, z'
loop_
 _atom_site_type_symbol
 _atom_site_label
 _atom_site_symmetry_multiplicity
 _atom_site_fract_x
 _atom_site_fract_y
 _atom_site_fract_z
 _atom_site_occupancy
  Tb  Tb0  1  0.814669  0.188888  0.188888  1
  Tb  Tb1  1  0.062584  0.440434  0.059722  1
  Tb  Tb2  1  0.056079  0.647560  0.647560  1
  Tb  Tb3  1  0.650576  0.652164  0.652164  1
  Tb  Tb4  1  0.062584  0.059722  0.440434  1
  Tb  Tb5  1  0.192395  0.810006  0.191282  1
  Tb  Tb6  1  0.812462  0.810419  0.188711  1
  Tb  Tb7  1  0.812462  0.188711  0.810419  1
  Tb  Tb8  1  0.439112  0.059859  0.437908  1
  Tb  Tb9  1  0.439112  0.437908  0.059859  1
  Tb  Tb10  1  0.440212  0.061359  0.061359  1
  Tb  Tb11  1  0.061683  0.438330  0.438330  1
  Tb  Tb12  1  0.192395  0.191282  0.810006  1
  Tb  Tb13  1  0.648999  0.651128  0.046410  1
  Tb  Tb14  1  0.648999  0.046410  0.651128  1
  Ho  Ho15  1  0.192146  0.808323  0.808323  1
  Mg  Mg16  1  0.717389  0.428336  0.428336  1
  Hg  Hg17  1  0.417496  0.413020  0.757116  1
  Hg  Hg18  1  0.417496  0.757116  0.413020  1
  Hg  Hg19  1  0.417907  0.413436  0.413436  1
  Ir  Ir20  1  0.859097  0.856518  0.425132  1
  Ir  Ir21  1  0.859097  0.425132  0.856518  1
  Ir  Ir22  1  0.861342  0.856805  0.856805  1
  Ir  Ir23  1  0.423711  0.857133  0.857133  1
