# generated using pymatgen
data_Ce3NdHo2(SiPt5)2
_symmetry_space_group_name_H-M   'P 1'
_cell_length_a   8.29477292
_cell_length_b   8.30361584
_cell_length_c   8.30361698
_cell_angle_alpha   127.69417986
_cell_angle_beta   125.81106749
_cell_angle_gamma   78.68828381
_symmetry_Int_Tables_number   1
_chemical_formula_structural   Ce3NdHo2(SiPt5)2
_chemical_formula_sum   'Ce3 Nd1 Ho2 Si2 Pt10'
_cell_volume   355.16954028
_cell_formula_units_Z   1
loop_
 _symmetry_equiv_pos_site_id
 _symmetry_equiv_pos_as_xyz
  1  'x, y, z'
loop_
 _atom_site_type_symbol
 _atom_site_label
 _atom_site_symmetry_multiplicity
 _atom_site_fract_x
 _atom_site_fract_y
 _atom_site_fract_z
 _atom_site_occupancy
  Ce  Ce0  1  0.383018  0.748673  0.634344  1
  Ce  Ce1  1  0.228681  0.951733  0.276946  1
  Ce  Ce2  1  0.773664  0.052557  0.721106  1
  Nd  Nd3  1  0.166038  0.448473  0.717565  1
  Ho  Ho4  1  0.822477  0.548006  0.274471  1
  Ho  Ho5  1  0.604118  0.251658  0.352460  1
  Si  Si6  1  0.212525  0.250720  0.961806  1
  Si  Si7  1  0.780267  0.749682  0.030585  1
  Pt  Pt8  1  0.171807  0.902417  0.860952  1
  Pt  Pt9  1  0.827974  0.096853  0.136031  1
  Pt  Pt10  1  0.457767  0.186623  0.858048  1
  Pt  Pt11  1  0.548743  0.397606  0.732445  1
  Pt  Pt12  1  0.827974  0.691944  0.731121  1
  Pt  Pt13  1  0.457767  0.599718  0.271143  1
  Pt  Pt14  1  0.548743  0.816299  0.151137  1
  Pt  Pt15  1  0.171807  0.310856  0.269391  1
  Pt  Pt16  1  0.008315  0.982067  0.494200  1
  Pt  Pt17  1  0.008315  0.514115  0.026249  1
