# generated using pymatgen
data_LiDy8CdCo2
_symmetry_space_group_name_H-M   'P 1'
_cell_length_a   9.51074790
_cell_length_b   9.53254340
_cell_length_c   9.51074902
_cell_angle_alpha   59.92416034
_cell_angle_beta   59.80342883
_cell_angle_gamma   59.92416266
_symmetry_Int_Tables_number   1
_chemical_formula_structural   LiDy8CdCo2
_chemical_formula_sum   'Li2 Dy16 Cd2 Co4'
_cell_volume   608.10215325
_cell_formula_units_Z   2
loop_
 _symmetry_equiv_pos_site_id
 _symmetry_equiv_pos_as_xyz
  1  'x, y, z'
loop_
 _atom_site_type_symbol
 _atom_site_label
 _atom_site_symmetry_multiplicity
 _atom_site_fract_x
 _atom_site_fract_y
 _atom_site_fract_z
 _atom_site_occupancy
  Li  Li0  1  0.926390  0.223422  0.926390  1
  Li  Li1  1  0.926390  0.923798  0.926390  1
  Dy  Dy2  1  0.155420  0.535320  0.155420  1
  Dy  Dy3  1  0.684126  0.315874  0.684126  1
  Dy  Dy4  1  0.686161  0.312921  0.314235  1
  Dy  Dy5  1  0.936889  0.563689  0.561743  1
  Dy  Dy6  1  0.531777  0.155735  0.156753  1
  Dy  Dy7  1  0.156753  0.155735  0.531777  1
  Dy  Dy8  1  0.936889  0.937678  0.561743  1
  Dy  Dy9  1  0.311544  0.688456  0.311544  1
  Dy  Dy10  1  0.561743  0.937678  0.936889  1
  Dy  Dy11  1  0.563775  0.936225  0.563775  1
  Dy  Dy12  1  0.686161  0.686684  0.314235  1
  Dy  Dy13  1  0.561743  0.563689  0.936889  1
  Dy  Dy14  1  0.938594  0.561406  0.938594  1
  Dy  Dy15  1  0.314235  0.686684  0.686161  1
  Dy  Dy16  1  0.155420  0.153840  0.155420  1
  Dy  Dy17  1  0.314235  0.312921  0.686161  1
  Cd  Cd18  1  0.917085  0.921353  0.240209  1
  Cd  Cd19  1  0.240209  0.921353  0.917085  1
  Co  Co20  1  0.357133  0.360489  0.921891  1
  Co  Co21  1  0.357719  0.923176  0.357719  1
  Co  Co22  1  0.921891  0.360489  0.357133  1
  Co  Co23  1  0.357719  0.361387  0.357719  1
