# generated using pymatgen
data_Zr10Pb6Br
_symmetry_space_group_name_H-M   'P 1'
_cell_length_a   5.96425603
_cell_length_b   8.76246233
_cell_length_c   8.75944518
_cell_angle_alpha   120.01140003
_cell_angle_beta   90.00151808
_cell_angle_gamma   89.99697570
_symmetry_Int_Tables_number   1
_chemical_formula_structural   Zr10Pb6Br
_chemical_formula_sum   'Zr10 Pb6 Br1'
_cell_volume   396.40559139
_cell_formula_units_Z   1
loop_
 _symmetry_equiv_pos_site_id
 _symmetry_equiv_pos_as_xyz
  1  'x, y, z'
loop_
 _atom_site_type_symbol
 _atom_site_label
 _atom_site_symmetry_multiplicity
 _atom_site_fract_x
 _atom_site_fract_y
 _atom_site_fract_z
 _atom_site_occupancy
  Zr  Zr0  1  0.500000  0.333311  0.666621  1
  Zr  Zr1  1  0.500000  0.666689  0.333379  1
  Zr  Zr2  1  0.000000  0.666613  0.333224  1
  Zr  Zr3  1  0.000000  0.333388  0.666776  1
  Zr  Zr4  1  0.770149  0.260953  0.000000  1
  Zr  Zr5  1  0.769998  0.739179  0.739135  1
  Zr  Zr6  1  0.769998  0.000043  0.260865  1
  Zr  Zr7  1  0.229849  0.739045  0.000000  1
  Zr  Zr8  1  0.230002  0.260823  0.260867  1
  Zr  Zr9  1  0.230002  0.999957  0.739133  1
  Pb  Pb10  1  0.746270  0.610746  0.000000  1
  Pb  Pb11  1  0.746419  0.389332  0.389322  1
  Pb  Pb12  1  0.746419  0.000011  0.610678  1
  Pb  Pb13  1  0.253730  0.389253  0.000000  1
  Pb  Pb14  1  0.253581  0.610669  0.610679  1
  Pb  Pb15  1  0.253581  0.999990  0.389321  1
  Br  Br16  1  0.500001  0.000000  0.000000  1
