# generated using pymatgen
data_PrThAl3Cu7
_symmetry_space_group_name_H-M   'P 1'
_cell_length_a   4.19136700
_cell_length_b   5.22243337
_cell_length_c   9.03174976
_cell_angle_alpha   89.15364873
_cell_angle_beta   90.00000000
_cell_angle_gamma   90.00000000
_symmetry_Int_Tables_number   1
_chemical_formula_structural   PrThAl3Cu7
_chemical_formula_sum   'Pr1 Th1 Al3 Cu7'
_cell_volume   197.67562023
_cell_formula_units_Z   1
loop_
 _symmetry_equiv_pos_site_id
 _symmetry_equiv_pos_as_xyz
  1  'x, y, z'
loop_
 _atom_site_type_symbol
 _atom_site_label
 _atom_site_symmetry_multiplicity
 _atom_site_fract_x
 _atom_site_fract_y
 _atom_site_fract_z
 _atom_site_occupancy
  Pr  Pr0  1  0.000000  0.752681  0.250895  1
  Th  Th1  1  0.000000  0.247025  0.748090  1
  Al  Al2  1  0.500000  0.740274  0.743266  1
  Al  Al3  1  0.500000  0.262191  0.256995  1
  Al  Al4  1  0.500000  0.000853  0.998823  1
  Cu  Cu5  1  0.000000  0.255132  0.082772  1
  Cu  Cu6  1  0.000000  0.749633  0.581230  1
  Cu  Cu7  1  0.000000  0.744067  0.916163  1
  Cu  Cu8  1  0.000000  0.250537  0.419274  1
  Cu  Cu9  1  0.500000  0.497436  0.502676  1
  Cu  Cu10  1  0.500000  0.497204  0.997151  1
  Cu  Cu11  1  0.500000  0.002967  0.502668  1
