# generated using pymatgen
data_DyHo(ZrSb)2
_symmetry_space_group_name_H-M   'P 1'
_cell_length_a   4.34371000
_cell_length_b   4.34371000
_cell_length_c   8.13313500
_cell_angle_alpha   90.00000000
_cell_angle_beta   90.00000000
_cell_angle_gamma   90.00000000
_symmetry_Int_Tables_number   1
_chemical_formula_structural   DyHo(ZrSb)2
_chemical_formula_sum   'Dy1 Ho1 Zr2 Sb2'
_cell_volume   153.45449927
_cell_formula_units_Z   1
loop_
 _symmetry_equiv_pos_site_id
 _symmetry_equiv_pos_as_xyz
  1  'x, y, z'
loop_
 _atom_site_type_symbol
 _atom_site_label
 _atom_site_symmetry_multiplicity
 _atom_site_fract_x
 _atom_site_fract_y
 _atom_site_fract_z
 _atom_site_occupancy
  Dy  Dy0  1  0.500000  0.000000  0.347953  1
  Ho  Ho1  1  0.000000  0.500000  0.652394  1
  Zr  Zr2  1  0.000000  0.000000  0.999808  1
  Zr  Zr3  1  0.500000  0.500000  0.999808  1
  Sb  Sb4  1  0.000000  0.500000  0.265774  1
  Sb  Sb5  1  0.500000  0.000000  0.734264  1
