# generated using pymatgen
data_YHo3Pt2
_symmetry_space_group_name_H-M   'P 1'
_cell_length_a   4.76572200
_cell_length_b   7.14636900
_cell_length_c   8.76942600
_cell_angle_alpha   90.00000000
_cell_angle_beta   90.00000000
_cell_angle_gamma   90.00000000
_symmetry_Int_Tables_number   1
_chemical_formula_structural   YHo3Pt2
_chemical_formula_sum   'Y2 Ho6 Pt4'
_cell_volume   298.66567277
_cell_formula_units_Z   2
loop_
 _symmetry_equiv_pos_site_id
 _symmetry_equiv_pos_as_xyz
  1  'x, y, z'
loop_
 _atom_site_type_symbol
 _atom_site_label
 _atom_site_symmetry_multiplicity
 _atom_site_fract_x
 _atom_site_fract_y
 _atom_site_fract_z
 _atom_site_occupancy
  Y  Y0  1  0.750000  0.010723  0.669855  1
  Y  Y1  1  0.750000  0.510723  0.830145  1
  Ho  Ho2  1  0.250000  0.855289  0.921706  1
  Ho  Ho3  1  0.250000  0.355289  0.578294  1
  Ho  Ho4  1  0.750000  0.144734  0.080074  1
  Ho  Ho5  1  0.750000  0.644734  0.419926  1
  Ho  Ho6  1  0.250000  0.989255  0.331156  1
  Ho  Ho7  1  0.250000  0.489255  0.168844  1
  Pt  Pt8  1  0.250000  0.257093  0.907539  1
  Pt  Pt9  1  0.250000  0.757093  0.592461  1
  Pt  Pt10  1  0.750000  0.742908  0.094970  1
  Pt  Pt11  1  0.750000  0.242908  0.405030  1
