# generated using pymatgen
data_NdTiGaO5
_symmetry_space_group_name_H-M   'P 1'
_cell_length_a   5.85501100
_cell_length_b   7.62420600
_cell_length_c   8.77643400
_cell_angle_alpha   90.00000000
_cell_angle_beta   90.00000000
_cell_angle_gamma   90.00000000
_symmetry_Int_Tables_number   1
_chemical_formula_structural   NdTiGaO5
_chemical_formula_sum   'Nd4 Ti4 Ga4 O20'
_cell_volume   391.77834620
_cell_formula_units_Z   4
loop_
 _symmetry_equiv_pos_site_id
 _symmetry_equiv_pos_as_xyz
  1  'x, y, z'
loop_
 _atom_site_type_symbol
 _atom_site_label
 _atom_site_symmetry_multiplicity
 _atom_site_fract_x
 _atom_site_fract_y
 _atom_site_fract_z
 _atom_site_occupancy
  Nd  Nd0  1  0.500000  0.364066  0.330610  1
  Nd  Nd1  1  0.500000  0.635934  0.669390  1
  Nd  Nd2  1  0.500000  0.135934  0.830610  1
  Nd  Nd3  1  0.500000  0.864066  0.169390  1
  Ti  Ti4  1  0.246641  0.000000  0.500000  1
  Ti  Ti5  1  0.753359  0.000000  0.500000  1
  Ti  Ti6  1  0.753359  0.500000  0.000000  1
  Ti  Ti7  1  0.246641  0.500000  0.000000  1
  Ga  Ga8  1  0.000000  0.109774  0.142050  1
  Ga  Ga9  1  0.000000  0.890226  0.857950  1
  Ga  Ga10  1  0.000000  0.390226  0.642050  1
  Ga  Ga11  1  0.000000  0.609774  0.357950  1
  O  O12  1  0.500000  0.340312  0.053736  1
  O  O13  1  0.500000  0.659688  0.946264  1
  O  O14  1  0.500000  0.159688  0.553736  1
  O  O15  1  0.500000  0.840312  0.446264  1
  O  O16  1  0.221722  0.000000  0.000000  1
  O  O17  1  0.778278  0.000000  0.000000  1
  O  O18  1  0.778278  0.500000  0.500000  1
  O  O19  1  0.221722  0.500000  0.500000  1
  O  O20  1  0.249491  0.102298  0.292720  1
  O  O21  1  0.750509  0.897702  0.707280  1
  O  O22  1  0.249491  0.897702  0.707280  1
  O  O23  1  0.750509  0.397702  0.792720  1
  O  O24  1  0.750509  0.102298  0.292720  1
  O  O25  1  0.249491  0.602298  0.207280  1
  O  O26  1  0.750509  0.602298  0.207280  1
  O  O27  1  0.249491  0.397702  0.792720  1
  O  O28  1  0.000000  0.344978  0.069967  1
  O  O29  1  0.000000  0.655022  0.930033  1
  O  O30  1  0.000000  0.155022  0.569967  1
  O  O31  1  0.000000  0.844978  0.430033  1
