# generated using pymatgen
data_Tm2LuSc3Bi2Ir
_symmetry_space_group_name_H-M   'P 1'
_cell_length_a   7.93548400
_cell_length_b   7.94900498
_cell_length_c   4.15423400
_cell_angle_alpha   90.00000000
_cell_angle_beta   90.00000000
_cell_angle_gamma   119.94374844
_symmetry_Int_Tables_number   1
_chemical_formula_structural   Tm2LuSc3Bi2Ir
_chemical_formula_sum   'Tm2 Lu1 Sc3 Bi2 Ir1'
_cell_volume   227.06681512
_cell_formula_units_Z   1
loop_
 _symmetry_equiv_pos_site_id
 _symmetry_equiv_pos_as_xyz
  1  'x, y, z'
loop_
 _atom_site_type_symbol
 _atom_site_label
 _atom_site_symmetry_multiplicity
 _atom_site_fract_x
 _atom_site_fract_y
 _atom_site_fract_z
 _atom_site_occupancy
  Tm  Tm0  1  0.000149  0.617534  0.000000  1
  Tm  Tm1  1  0.382615  0.382466  0.000000  1
  Lu  Lu2  1  0.618390  0.000000  0.000000  1
  Sc  Sc3  1  0.228777  0.000000  0.500000  1
  Sc  Sc4  1  0.999731  0.228456  0.500000  1
  Sc  Sc5  1  0.771275  0.771544  0.500000  1
  Bi  Bi6  1  0.333888  0.667097  0.500000  1
  Bi  Bi7  1  0.666792  0.332903  0.500000  1
  Ir  Ir8  1  0.998383  0.000000  0.000000  1
