# generated using pymatgen
data_Ba3HoRhO6
_symmetry_space_group_name_H-M   'P 1'
_cell_length_a   7.15564545
_cell_length_b   7.15546351
_cell_length_c   7.15567872
_cell_angle_alpha   93.36870053
_cell_angle_beta   93.36314312
_cell_angle_gamma   93.36537656
_symmetry_Int_Tables_number   1
_chemical_formula_structural   Ba3HoRhO6
_chemical_formula_sum   'Ba6 Ho2 Rh2 O12'
_cell_volume   364.41103285
_cell_formula_units_Z   2
loop_
 _symmetry_equiv_pos_site_id
 _symmetry_equiv_pos_as_xyz
  1  'x, y, z'
loop_
 _atom_site_type_symbol
 _atom_site_label
 _atom_site_symmetry_multiplicity
 _atom_site_fract_x
 _atom_site_fract_y
 _atom_site_fract_z
 _atom_site_occupancy
  Ba  Ba0  1  0.616994  0.882993  0.250029  1
  Ba  Ba1  1  0.250008  0.617003  0.882999  1
  Ba  Ba2  1  0.883004  0.250005  0.617001  1
  Ba  Ba3  1  0.383008  0.117007  0.749974  1
  Ba  Ba4  1  0.749990  0.382995  0.116999  1
  Ba  Ba5  1  0.116995  0.749991  0.382995  1
  Ho  Ho6  1  0.249996  0.249982  0.249987  1
  Ho  Ho7  1  0.750003  0.750017  0.750016  1
  Rh  Rh8  1  0.000003  0.000001  0.000000  1
  Rh  Rh9  1  0.500003  0.500001  0.500000  1
  O  O10  1  0.284351  0.967592  0.092800  1
  O  O11  1  0.092856  0.284354  0.967605  1
  O  O12  1  0.967610  0.092832  0.284354  1
  O  O13  1  0.532383  0.215635  0.407139  1
  O  O14  1  0.407164  0.532403  0.215657  1
  O  O15  1  0.215639  0.407177  0.532392  1
  O  O16  1  0.715650  0.032408  0.907201  1
  O  O17  1  0.907139  0.715649  0.032397  1
  O  O18  1  0.032387  0.907167  0.715645  1
  O  O19  1  0.467619  0.784366  0.592863  1
  O  O20  1  0.592839  0.467597  0.784343  1
  O  O21  1  0.784360  0.592823  0.467607  1
