# generated using pymatgen
data_Pr8Zn2CoSi12Pd
_symmetry_space_group_name_H-M   'P 1'
_cell_length_a   8.20213800
_cell_length_b   8.20213861
_cell_length_c   8.62736900
_cell_angle_alpha   90.00000000
_cell_angle_beta   90.00000000
_cell_angle_gamma   120.00000561
_symmetry_Int_Tables_number   1
_chemical_formula_structural   Pr8Zn2CoSi12Pd
_chemical_formula_sum   'Pr8 Zn2 Co1 Si12 Pd1'
_cell_volume   502.64707188
_cell_formula_units_Z   1
loop_
 _symmetry_equiv_pos_site_id
 _symmetry_equiv_pos_as_xyz
  1  'x, y, z'
loop_
 _atom_site_type_symbol
 _atom_site_label
 _atom_site_symmetry_multiplicity
 _atom_site_fract_x
 _atom_site_fract_y
 _atom_site_fract_z
 _atom_site_occupancy
  Pr  Pr0  1  0.501897  0.498103  0.753465  1
  Pr  Pr1  1  0.502229  0.497771  0.246803  1
  Pr  Pr2  1  0.996207  0.498103  0.753465  1
  Pr  Pr3  1  0.995541  0.497771  0.246803  1
  Pr  Pr4  1  0.501897  0.003793  0.753465  1
  Pr  Pr5  1  0.502229  0.004459  0.246803  1
  Pr  Pr6  1  0.000000  0.000000  0.750625  1
  Pr  Pr7  1  0.000000  0.000000  0.249399  1
  Zn  Zn8  1  0.333333  0.666667  0.001849  1
  Zn  Zn9  1  0.333333  0.666667  0.498890  1
  Co  Co10  1  0.666667  0.333333  0.997752  1
  Si  Si11  1  0.824941  0.175059  0.000354  1
  Si  Si12  1  0.163001  0.836999  0.999637  1
  Si  Si13  1  0.350117  0.175059  0.000354  1
  Si  Si14  1  0.164405  0.835595  0.499789  1
  Si  Si15  1  0.673999  0.836999  0.999637  1
  Si  Si16  1  0.832402  0.167598  0.500357  1
  Si  Si17  1  0.824941  0.649883  0.000354  1
  Si  Si18  1  0.671190  0.835595  0.499789  1
  Si  Si19  1  0.163001  0.326001  0.999637  1
  Si  Si20  1  0.335195  0.167598  0.500357  1
  Si  Si21  1  0.164405  0.328810  0.499789  1
  Si  Si22  1  0.832402  0.664805  0.500357  1
  Pd  Pd23  1  0.666667  0.333333  0.500271  1
