# generated using pymatgen
data_LiLaNd15Cd3Ir4
_symmetry_space_group_name_H-M   'P 1'
_cell_length_a   9.95932195
_cell_length_b   9.95932191
_cell_length_c   9.95932285
_cell_angle_alpha   60.23584181
_cell_angle_beta   60.23584270
_cell_angle_gamma   60.23584804
_symmetry_Int_Tables_number   1
_chemical_formula_structural   LiLaNd15Cd3Ir4
_chemical_formula_sum   'Li1 La1 Nd15 Cd3 Ir4'
_cell_volume   702.24225628
_cell_formula_units_Z   1
loop_
 _symmetry_equiv_pos_site_id
 _symmetry_equiv_pos_as_xyz
  1  'x, y, z'
loop_
 _atom_site_type_symbol
 _atom_site_label
 _atom_site_symmetry_multiplicity
 _atom_site_fract_x
 _atom_site_fract_y
 _atom_site_fract_z
 _atom_site_occupancy
  Li  Li0  1  0.570432  0.570432  0.570432  1
  La  La1  1  0.347666  0.347666  0.347666  1
  Nd  Nd2  1  0.347884  0.347884  0.955784  1
  Nd  Nd3  1  0.347884  0.955784  0.347884  1
  Nd  Nd4  1  0.955784  0.347884  0.347884  1
  Nd  Nd5  1  0.810406  0.191258  0.191258  1
  Nd  Nd6  1  0.187552  0.811574  0.811574  1
  Nd  Nd7  1  0.191258  0.810406  0.191258  1
  Nd  Nd8  1  0.811574  0.187552  0.811574  1
  Nd  Nd9  1  0.191258  0.191258  0.810406  1
  Nd  Nd10  1  0.811574  0.811574  0.187552  1
  Nd  Nd11  1  0.937647  0.562278  0.562278  1
  Nd  Nd12  1  0.561029  0.938819  0.938819  1
  Nd  Nd13  1  0.562278  0.937647  0.562278  1
  Nd  Nd14  1  0.938819  0.561029  0.938819  1
  Nd  Nd15  1  0.562278  0.562278  0.937647  1
  Nd  Nd16  1  0.938819  0.938819  0.561029  1
  Cd  Cd17  1  0.582255  0.582255  0.257504  1
  Cd  Cd18  1  0.582255  0.257504  0.582255  1
  Cd  Cd19  1  0.257504  0.582255  0.582255  1
  Ir  Ir20  1  0.142031  0.142031  0.142031  1
  Ir  Ir21  1  0.142811  0.142811  0.576194  1
  Ir  Ir22  1  0.142811  0.576194  0.142811  1
  Ir  Ir23  1  0.576194  0.142811  0.142811  1
