# generated using pymatgen
data_Tb2Nd3Sn3Br
_symmetry_space_group_name_H-M   'P 1'
_cell_length_a   9.40873000
_cell_length_b   9.40873033
_cell_length_c   6.77231300
_cell_angle_alpha   90.00000000
_cell_angle_beta   90.00000000
_cell_angle_gamma   120.00000587
_symmetry_Int_Tables_number   1
_chemical_formula_structural   Tb2Nd3Sn3Br
_chemical_formula_sum   'Tb4 Nd6 Sn6 Br2'
_cell_volume   519.19398794
_cell_formula_units_Z   2
loop_
 _symmetry_equiv_pos_site_id
 _symmetry_equiv_pos_as_xyz
  1  'x, y, z'
loop_
 _atom_site_type_symbol
 _atom_site_label
 _atom_site_symmetry_multiplicity
 _atom_site_fract_x
 _atom_site_fract_y
 _atom_site_fract_z
 _atom_site_occupancy
  Tb  Tb0  1  0.333333  0.666667  0.500000  1
  Tb  Tb1  1  0.666667  0.333333  0.500000  1
  Tb  Tb2  1  0.333333  0.666667  0.000000  1
  Tb  Tb3  1  0.666667  0.333333  0.000000  1
  Nd  Nd4  1  0.267115  0.267115  0.750000  1
  Nd  Nd5  1  0.000000  0.732885  0.750000  1
  Nd  Nd6  1  0.732885  0.000000  0.750000  1
  Nd  Nd7  1  0.000000  0.267115  0.250000  1
  Nd  Nd8  1  0.732885  0.732885  0.250000  1
  Nd  Nd9  1  0.267115  0.000000  0.250000  1
  Sn  Sn10  1  0.610202  0.000000  0.250000  1
  Sn  Sn11  1  0.000000  0.389798  0.750000  1
  Sn  Sn12  1  0.389798  0.000000  0.750000  1
  Sn  Sn13  1  0.610202  0.610202  0.750000  1
  Sn  Sn14  1  0.000000  0.610202  0.250000  1
  Sn  Sn15  1  0.389798  0.389798  0.250000  1
  Br  Br16  1  0.000000  0.000000  0.000000  1
  Br  Br17  1  0.000000  0.000000  0.500000  1
