# generated using pymatgen
data_Nb8VSbS16
_symmetry_space_group_name_H-M   'P 1'
_cell_length_a   6.71633700
_cell_length_b   6.71633908
_cell_length_c   13.07195100
_cell_angle_alpha   90.00000000
_cell_angle_beta   90.00000000
_cell_angle_gamma   120.00000452
_symmetry_Int_Tables_number   1
_chemical_formula_structural   Nb8VSbS16
_chemical_formula_sum   'Nb8 V1 Sb1 S16'
_cell_volume   510.66502713
_cell_formula_units_Z   1
loop_
 _symmetry_equiv_pos_site_id
 _symmetry_equiv_pos_as_xyz
  1  'x, y, z'
loop_
 _atom_site_type_symbol
 _atom_site_label
 _atom_site_symmetry_multiplicity
 _atom_site_fract_x
 _atom_site_fract_y
 _atom_site_fract_z
 _atom_site_occupancy
  Nb  Nb0  1  0.000000  0.000000  0.264698  1
  Nb  Nb1  1  0.000000  0.000000  0.735302  1
  Nb  Nb2  1  0.505177  0.010353  0.266288  1
  Nb  Nb3  1  0.494823  0.989647  0.733712  1
  Nb  Nb4  1  0.989647  0.494823  0.266288  1
  Nb  Nb5  1  0.010353  0.505177  0.733712  1
  Nb  Nb6  1  0.505177  0.494823  0.266288  1
  Nb  Nb7  1  0.494823  0.505177  0.733712  1
  V  V8  1  0.000000  0.000000  0.500000  1
  Sb  Sb9  1  0.000000  0.000000  0.000000  1
  S  S10  1  0.333333  0.666667  0.611948  1
  S  S11  1  0.666667  0.333333  0.388052  1
  S  S12  1  0.666667  0.333333  0.143286  1
  S  S13  1  0.333333  0.666667  0.856714  1
  S  S14  1  0.169447  0.338894  0.145352  1
  S  S15  1  0.830553  0.661106  0.854648  1
  S  S16  1  0.661106  0.830553  0.145352  1
  S  S17  1  0.834945  0.669891  0.614637  1
  S  S18  1  0.338894  0.169447  0.854648  1
  S  S19  1  0.165055  0.330109  0.385363  1
  S  S20  1  0.169447  0.830553  0.145352  1
  S  S21  1  0.330109  0.165055  0.614637  1
  S  S22  1  0.830553  0.169447  0.854648  1
  S  S23  1  0.669891  0.834945  0.385363  1
  S  S24  1  0.834945  0.165055  0.614637  1
  S  S25  1  0.165055  0.834945  0.385363  1
