# generated using pymatgen
data_K2InNiF7
_symmetry_space_group_name_H-M   'P 1'
_cell_length_a   7.87024607
_cell_length_b   7.87024568
_cell_length_c   7.87024536
_cell_angle_alpha   120.85793057
_cell_angle_beta   117.30369056
_cell_angle_gamma   91.62639654
_symmetry_Int_Tables_number   1
_chemical_formula_structural   K2InNiF7
_chemical_formula_sum   'K4 In2 Ni2 F14'
_cell_volume   348.93780480
_cell_formula_units_Z   2
loop_
 _symmetry_equiv_pos_site_id
 _symmetry_equiv_pos_as_xyz
  1  'x, y, z'
loop_
 _atom_site_type_symbol
 _atom_site_label
 _atom_site_symmetry_multiplicity
 _atom_site_fract_x
 _atom_site_fract_y
 _atom_site_fract_z
 _atom_site_occupancy
  K  K0  1  0.500000  0.500000  0.000000  1
  K  K1  1  0.000000  0.000000  0.000000  1
  K  K2  1  0.000000  0.500000  0.000000  1
  K  K3  1  0.000000  0.000000  0.500000  1
  In  In4  1  0.000000  0.500000  0.500000  1
  In  In5  1  0.500000  0.000000  0.500000  1
  Ni  Ni6  1  0.500000  0.500000  0.500000  1
  Ni  Ni7  1  0.500000  0.000000  0.000000  1
  F  F8  1  0.875679  0.595063  0.280617  1
  F  F9  1  0.185554  0.904937  0.280617  1
  F  F10  1  0.193799  0.821242  0.775242  1
  F  F11  1  0.454000  0.678758  0.372558  1
  F  F12  1  0.454000  0.081443  0.775242  1
  F  F13  1  0.193799  0.418557  0.372558  1
  F  F14  1  0.806201  0.581443  0.627442  1
  F  F15  1  0.546000  0.918557  0.224758  1
  F  F16  1  0.546000  0.321242  0.627442  1
  F  F17  1  0.806201  0.178758  0.224758  1
  F  F18  1  0.424077  0.250000  0.174077  1
  F  F19  1  0.124321  0.404937  0.719383  1
  F  F20  1  0.814446  0.095063  0.719383  1
  F  F21  1  0.575923  0.750000  0.825923  1
