# generated using pymatgen
data_La2Yb(SnPd)3
_symmetry_space_group_name_H-M   'P 1'
_cell_length_a   7.64962918
_cell_length_b   7.62321985
_cell_length_c   4.21509400
_cell_angle_alpha   90.00000000
_cell_angle_beta   90.00000000
_cell_angle_gamma   119.88586786
_symmetry_Int_Tables_number   1
_chemical_formula_structural   La2Yb(SnPd)3
_chemical_formula_sum   'La2 Yb1 Sn3 Pd3'
_cell_volume   213.11550367
_cell_formula_units_Z   1
loop_
 _symmetry_equiv_pos_site_id
 _symmetry_equiv_pos_as_xyz
  1  'x, y, z'
loop_
 _atom_site_type_symbol
 _atom_site_label
 _atom_site_symmetry_multiplicity
 _atom_site_fract_x
 _atom_site_fract_y
 _atom_site_fract_z
 _atom_site_occupancy
  La  La0  1  0.416107  0.417227  0.000000  1
  La  La1  1  0.583893  0.001120  0.000000  1
  Yb  Yb2  1  0.000000  0.588158  0.000000  1
  Sn  Sn3  1  0.755111  0.749727  0.500000  1
  Sn  Sn4  1  0.000000  0.252899  0.500000  1
  Sn  Sn5  1  0.244889  0.994616  0.500000  1
  Pd  Pd6  1  0.669106  0.334253  0.500000  1
  Pd  Pd7  1  0.000000  0.996852  0.000000  1
  Pd  Pd8  1  0.330894  0.665148  0.500000  1
