# generated using pymatgen
data_Yb12Sn3Ge5Pt8
_symmetry_space_group_name_H-M   'P 1'
_cell_length_a   5.62355800
_cell_length_b   8.36294078
_cell_length_c   13.48169000
_cell_angle_alpha   89.72293148
_cell_angle_beta   90.00000000
_cell_angle_gamma   90.00000000
_symmetry_Int_Tables_number   1
_chemical_formula_structural   Yb12Sn3Ge5Pt8
_chemical_formula_sum   'Yb12 Sn3 Ge5 Pt8'
_cell_volume   634.02949109
_cell_formula_units_Z   1
loop_
 _symmetry_equiv_pos_site_id
 _symmetry_equiv_pos_as_xyz
  1  'x, y, z'
loop_
 _atom_site_type_symbol
 _atom_site_label
 _atom_site_symmetry_multiplicity
 _atom_site_fract_x
 _atom_site_fract_y
 _atom_site_fract_z
 _atom_site_occupancy
  Yb  Yb0  1  0.643361  0.255330  0.253558  1
  Yb  Yb1  1  0.357248  0.747214  0.748433  1
  Yb  Yb2  1  0.357248  0.752786  0.251567  1
  Yb  Yb3  1  0.643361  0.244670  0.746442  1
  Yb  Yb4  1  0.155906  0.394737  0.102383  1
  Yb  Yb5  1  0.842784  0.606239  0.897414  1
  Yb  Yb6  1  0.847868  0.604885  0.601101  1
  Yb  Yb7  1  0.847868  0.895115  0.398899  1
  Yb  Yb8  1  0.148305  0.390498  0.400257  1
  Yb  Yb9  1  0.148305  0.109502  0.599743  1
  Yb  Yb10  1  0.155906  0.105263  0.897617  1
  Yb  Yb11  1  0.842784  0.893761  0.102586  1
  Sn  Sn12  1  0.665362  0.250000  0.000000  1
  Sn  Sn13  1  0.334539  0.750000  0.000000  1
  Sn  Sn14  1  0.344493  0.750000  0.500000  1
  Ge  Ge15  1  0.136586  0.100757  0.251339  1
  Ge  Ge16  1  0.864423  0.898970  0.747078  1
  Ge  Ge17  1  0.864423  0.601030  0.252922  1
  Ge  Ge18  1  0.136586  0.399243  0.748661  1
  Ge  Ge19  1  0.642051  0.250000  0.500000  1
  Pt  Pt20  1  0.370184  0.043858  0.097716  1
  Pt  Pt21  1  0.629760  0.956273  0.901529  1
  Pt  Pt22  1  0.633880  0.970285  0.592143  1
  Pt  Pt23  1  0.633880  0.529715  0.407857  1
  Pt  Pt24  1  0.376470  0.049778  0.405636  1
  Pt  Pt25  1  0.376470  0.450222  0.594364  1
  Pt  Pt26  1  0.370184  0.456142  0.902284  1
  Pt  Pt27  1  0.629760  0.543727  0.098471  1
