# generated using pymatgen
data_DyHo7Sc11Si16Os
_symmetry_space_group_name_H-M   'P 1'
_cell_length_a   6.99421100
_cell_length_b   7.33705963
_cell_length_c   13.85042604
_cell_angle_alpha   90.00849798
_cell_angle_beta   90.00284855
_cell_angle_gamma   90.10883361
_symmetry_Int_Tables_number   1
_chemical_formula_structural   DyHo7Sc11Si16Os
_chemical_formula_sum   'Dy1 Ho7 Sc11 Si16 Os1'
_cell_volume   710.76023602
_cell_formula_units_Z   1
loop_
 _symmetry_equiv_pos_site_id
 _symmetry_equiv_pos_as_xyz
  1  'x, y, z'
loop_
 _atom_site_type_symbol
 _atom_site_label
 _atom_site_symmetry_multiplicity
 _atom_site_fract_x
 _atom_site_fract_y
 _atom_site_fract_z
 _atom_site_occupancy
  Dy  Dy0  1  0.011661  0.177947  0.092423  1
  Ho  Ho1  1  0.994068  0.819228  0.900744  1
  Ho  Ho2  1  0.490269  0.672567  0.902406  1
  Ho  Ho3  1  0.994068  0.819248  0.599223  1
  Ho  Ho4  1  0.511130  0.323537  0.094312  1
  Ho  Ho5  1  0.011680  0.178043  0.407529  1
  Ho  Ho6  1  0.511150  0.323493  0.405698  1
  Ho  Ho7  1  0.490270  0.672556  0.597568  1
  Sc  Sc8  1  0.841438  0.496294  0.250018  1
  Sc  Sc9  1  0.341722  0.003583  0.250019  1
  Sc  Sc10  1  0.657381  0.995444  0.750006  1
  Sc  Sc11  1  0.325910  0.176123  0.627441  1
  Sc  Sc12  1  0.671891  0.824636  0.374473  1
  Sc  Sc13  1  0.172085  0.673932  0.377123  1
  Sc  Sc14  1  0.671894  0.824603  0.125533  1
  Sc  Sc15  1  0.824858  0.331825  0.628601  1
  Sc  Sc16  1  0.325930  0.176095  0.872552  1
  Sc  Sc17  1  0.824836  0.331865  0.871402  1
  Sc  Sc18  1  0.172087  0.673904  0.122881  1
  Si  Si19  1  0.028237  0.119362  0.749996  1
  Si  Si20  1  0.972649  0.886290  0.250029  1
  Si  Si21  1  0.468601  0.614963  0.250004  1
  Si  Si22  1  0.513813  0.395208  0.749996  1
  Si  Si23  1  0.286604  0.859402  0.750006  1
  Si  Si24  1  0.716599  0.130135  0.250059  1
  Si  Si25  1  0.214727  0.370673  0.250057  1
  Si  Si26  1  0.796290  0.631085  0.750000  1
  Si  Si27  1  0.156916  0.465992  0.549604  1
  Si  Si28  1  0.842319  0.536390  0.464088  1
  Si  Si29  1  0.345253  0.964512  0.463386  1
  Si  Si30  1  0.842288  0.536501  0.035889  1
  Si  Si31  1  0.659610  0.034253  0.540087  1
  Si  Si32  1  0.156927  0.466078  0.950370  1
  Si  Si33  1  0.659540  0.034232  0.959904  1
  Si  Si34  1  0.345423  0.964444  0.036582  1
  Os  Os35  1  0.149871  0.495557  0.749991  1
