# generated using pymatgen
data_Gd11Te16O48F
_symmetry_space_group_name_H-M   'P 1'
_cell_length_a   5.56601572
_cell_length_b   11.98915219
_cell_length_c   18.61812400
_cell_angle_alpha   100.67763681
_cell_angle_beta   95.89844899
_cell_angle_gamma   99.80446495
_symmetry_Int_Tables_number   1
_chemical_formula_structural   Gd11Te16O48F
_chemical_formula_sum   'Gd11 Te16 O48 F1'
_cell_volume   1191.44701506
_cell_formula_units_Z   1
loop_
 _symmetry_equiv_pos_site_id
 _symmetry_equiv_pos_as_xyz
  1  'x, y, z'
loop_
 _atom_site_type_symbol
 _atom_site_label
 _atom_site_symmetry_multiplicity
 _atom_site_fract_x
 _atom_site_fract_y
 _atom_site_fract_z
 _atom_site_occupancy
  Gd  Gd0  1  0.132817  0.567348  0.733553  1
  Gd  Gd1  1  0.076877  0.882964  0.185477  1
  Gd  Gd2  1  0.923123  0.117036  0.814523  1
  Gd  Gd3  1  0.867183  0.432652  0.266447  1
  Gd  Gd4  1  0.721041  0.785050  0.709641  1
  Gd  Gd5  1  0.281794  0.106035  0.476768  1
  Gd  Gd6  1  0.278959  0.214950  0.290359  1
  Gd  Gd7  1  0.000000  0.000000  0.000000  1
  Gd  Gd8  1  0.529407  0.674245  0.218442  1
  Gd  Gd9  1  0.718206  0.893965  0.523232  1
  Gd  Gd10  1  0.470593  0.325755  0.781558  1
  Te  Te11  1  0.800635  0.211125  0.618108  1
  Te  Te12  1  0.491930  0.799559  0.046976  1
  Te  Te13  1  0.170278  0.679611  0.564591  1
  Te  Te14  1  0.119165  0.457131  0.902334  1
  Te  Te15  1  0.641343  0.112124  0.160505  1
  Te  Te16  1  0.783986  0.991898  0.337159  1
  Te  Te17  1  0.216014  0.008102  0.662841  1
  Te  Te18  1  0.216556  0.330279  0.112021  1
  Te  Te19  1  0.829722  0.320389  0.435409  1
  Te  Te20  1  0.783444  0.669721  0.887979  1
  Te  Te21  1  0.199365  0.788875  0.381892  1
  Te  Te22  1  0.508070  0.200441  0.953024  1
  Te  Te23  1  0.358657  0.887876  0.839495  1
  Te  Te24  1  0.512755  0.555852  0.391463  1
  Te  Te25  1  0.487245  0.444148  0.608537  1
  Te  Te26  1  0.880835  0.542869  0.097666  1
  O  O27  1  0.465765  0.730147  0.432369  1
  O  O28  1  0.195468  0.166223  0.077932  1
  O  O29  1  0.882099  0.927304  0.651429  1
  O  O30  1  0.302039  0.392629  0.681081  1
  O  O31  1  0.368283  0.779401  0.136165  1
  O  O32  1  0.171935  0.298059  0.862721  1
  O  O33  1  0.114984  0.316433  0.205595  1
  O  O34  1  0.443155  0.602808  0.656219  1
  O  O35  1  0.603275  0.256224  0.216852  1
  O  O36  1  0.683098  0.202073  0.711276  1
  O  O37  1  0.901862  0.077118  0.222064  1
  O  O38  1  0.316902  0.797927  0.288724  1
  O  O39  1  0.098138  0.922882  0.777936  1
  O  O40  1  0.096504  0.657056  0.935458  1
  O  O41  1  0.697961  0.607371  0.318919  1
  O  O42  1  0.804532  0.833777  0.922068  1
  O  O43  1  0.903496  0.342944  0.064542  1
  O  O44  1  0.393046  0.932845  0.435008  1
  O  O45  1  0.169950  0.145974  0.727507  1
  O  O46  1  0.828065  0.701941  0.137279  1
  O  O47  1  0.631717  0.220599  0.863835  1
  O  O48  1  0.690464  0.084302  0.962518  1
  O  O49  1  0.326033  0.501693  0.832302  1
  O  O50  1  0.019554  0.239504  0.490410  1
  O  O51  1  0.801178  0.450715  0.659919  1
  O  O52  1  0.534235  0.269853  0.567631  1
  O  O53  1  0.559073  0.194884  0.398434  1
  O  O54  1  0.608866  0.960122  0.791041  1
  O  O55  1  0.896334  0.948104  0.426690  1
  O  O56  1  0.440927  0.805116  0.601566  1
  O  O57  1  0.830050  0.854026  0.272493  1
  O  O58  1  0.117901  0.072696  0.348571  1
  O  O59  1  0.198822  0.549285  0.340081  1
  O  O60  1  0.103666  0.051896  0.573310  1
  O  O61  1  0.673967  0.498307  0.167698  1
  O  O62  1  0.206439  0.088313  0.912248  1
  O  O63  1  0.165817  0.545549  0.168039  1
  O  O64  1  0.606954  0.067155  0.564992  1
  O  O65  1  0.391134  0.039878  0.208959  1
  O  O66  1  0.556845  0.397192  0.343781  1
  O  O67  1  0.793561  0.911687  0.087752  1
  O  O68  1  0.005036  0.314315  0.352730  1
  O  O69  1  0.834183  0.454451  0.831961  1
  O  O70  1  0.309536  0.915698  0.037482  1
  O  O71  1  0.396725  0.743776  0.783148  1
  O  O72  1  0.980446  0.760496  0.509590  1
  O  O73  1  0.994964  0.685685  0.647270  1
  O  O74  1  0.885016  0.683567  0.794405  1
  F  F75  1  0.500000  0.500000  0.000000  1
