# generated using pymatgen
data_CrSF34
_symmetry_space_group_name_H-M   'P 1'
_cell_length_a   8.71517875
_cell_length_b   8.50370315
_cell_length_c   10.09742898
_cell_angle_alpha   80.48981035
_cell_angle_beta   86.54890479
_cell_angle_gamma   66.65208303
_symmetry_Int_Tables_number   1
_chemical_formula_structural   CrSF34
_chemical_formula_sum   'Cr1 S1 F34'
_cell_volume   677.60214515
_cell_formula_units_Z   1
loop_
 _symmetry_equiv_pos_site_id
 _symmetry_equiv_pos_as_xyz
  1  'x, y, z'
loop_
 _atom_site_type_symbol
 _atom_site_label
 _atom_site_symmetry_multiplicity
 _atom_site_fract_x
 _atom_site_fract_y
 _atom_site_fract_z
 _atom_site_occupancy
  Cr  Cr0  1  0.135631  0.750472  0.240401  1
  S  S1  1  0.862392  0.248737  0.762166  1
  F  F2  1  0.615132  0.199156  0.483372  1
  F  F3  1  0.395216  0.787954  0.516608  1
  F  F4  1  0.828444  0.701830  0.715784  1
  F  F5  1  0.170053  0.306168  0.286585  1
  F  F6  1  0.090188  0.754435  0.866109  1
  F  F7  1  0.918018  0.228000  0.140411  1
  F  F8  1  0.555155  0.146743  0.376889  1
  F  F9  1  0.440136  0.857424  0.620500  1
  F  F10  1  0.674305  0.314721  0.709301  1
  F  F11  1  0.342671  0.680091  0.298036  1
  F  F12  1  0.918530  0.093529  0.676237  1
  F  F13  1  0.067835  0.917904  0.338609  1
  F  F14  1  0.901832  0.368507  0.637434  1
  F  F15  1  0.093540  0.616641  0.377001  1
  F  F16  1  0.861797  0.811955  0.605896  1
  F  F17  1  0.147643  0.180101  0.388728  1
  F  F18  1  0.806315  0.404373  0.848164  1
  F  F19  1  0.198920  0.578665  0.145913  1
  F  F20  1  0.213654  0.688834  0.768175  1
  F  F21  1  0.786184  0.314517  0.225818  1
  F  F22  1  0.932055  0.821599  0.176237  1
  F  F23  1  0.049425  0.183057  0.816124  1
  F  F24  1  0.821972  0.128633  0.886766  1
  F  F25  1  0.180517  0.886407  0.106102  1
  F  F26  1  0.489527  0.591343  0.982763  1
  F  F27  1  0.511390  0.414136  0.014808  1
  F  F28  1  0.452345  0.089875  0.867036  1
  F  F29  1  0.536461  0.920945  0.134486  1
  F  F30  1  0.286624  0.248125  0.608447  1
  F  F31  1  0.714706  0.751952  0.386716  1
  F  F32  1  0.257785  0.393165  0.674484  1
  F  F33  1  0.747095  0.603507  0.323992  1
  F  F34  1  0.557512  0.923553  0.835167  1
  F  F35  1  0.438996  0.092948  0.158735  1
