# generated using pymatgen
data_ErTm5Co17TcP12
_symmetry_space_group_name_H-M   'P 1'
_cell_length_a   3.67883300
_cell_length_b   10.48685600
_cell_length_c   12.15220700
_cell_angle_alpha   90.00000000
_cell_angle_beta   90.00000000
_cell_angle_gamma   90.00000000
_symmetry_Int_Tables_number   1
_chemical_formula_structural   ErTm5Co17TcP12
_chemical_formula_sum   'Er1 Tm5 Co17 Tc1 P12'
_cell_volume   468.82475653
_cell_formula_units_Z   1
loop_
 _symmetry_equiv_pos_site_id
 _symmetry_equiv_pos_as_xyz
  1  'x, y, z'
loop_
 _atom_site_type_symbol
 _atom_site_label
 _atom_site_symmetry_multiplicity
 _atom_site_fract_x
 _atom_site_fract_y
 _atom_site_fract_z
 _atom_site_occupancy
  Er  Er0  1  0.500000  0.000000  0.477376  1
  Tm  Tm1  1  0.000000  0.500000  0.524507  1
  Tm  Tm2  1  0.500000  0.817903  0.206840  1
  Tm  Tm3  1  0.500000  0.182097  0.206840  1
  Tm  Tm4  1  0.000000  0.682347  0.794842  1
  Tm  Tm5  1  0.000000  0.317653  0.794842  1
  Co  Co6  1  0.000000  0.000000  0.839455  1
  Co  Co7  1  0.500000  0.500000  0.702623  1
  Co  Co8  1  0.000000  0.000000  0.296688  1
  Co  Co9  1  0.000000  0.500000  0.987379  1
  Co  Co10  1  0.500000  0.000000  0.014841  1
  Co  Co11  1  0.500000  0.331917  0.990669  1
  Co  Co12  1  0.500000  0.668083  0.990669  1
  Co  Co13  1  0.000000  0.166464  0.006033  1
  Co  Co14  1  0.000000  0.833536  0.006033  1
  Co  Co15  1  0.500000  0.296786  0.431041  1
  Co  Co16  1  0.500000  0.703214  0.431041  1
  Co  Co17  1  0.000000  0.202950  0.568795  1
  Co  Co18  1  0.000000  0.797050  0.568795  1
  Co  Co19  1  0.500000  0.878318  0.708644  1
  Co  Co20  1  0.500000  0.121682  0.708644  1
  Co  Co21  1  0.000000  0.621550  0.292320  1
  Co  Co22  1  0.000000  0.378450  0.292320  1
  Tc  Tc23  1  0.500000  0.500000  0.157273  1
  P  P24  1  0.500000  0.500000  0.880483  1
  P  P25  1  0.000000  0.000000  0.118198  1
  P  P26  1  0.500000  0.500000  0.350476  1
  P  P27  1  0.000000  0.000000  0.654519  1
  P  P28  1  0.500000  0.312238  0.616932  1
  P  P29  1  0.500000  0.687762  0.616932  1
  P  P30  1  0.000000  0.187389  0.383688  1
  P  P31  1  0.000000  0.812611  0.383688  1
  P  P32  1  0.500000  0.849081  0.891241  1
  P  P33  1  0.500000  0.150919  0.891241  1
  P  P34  1  0.000000  0.656288  0.107045  1
  P  P35  1  0.000000  0.343712  0.107045  1
