# generated using pymatgen
data_Ca14CuBi11
_symmetry_space_group_name_H-M   'P 1'
_cell_length_a   16.54920554
_cell_length_b   16.54920552
_cell_length_c   16.54920500
_cell_angle_alpha   117.53088733
_cell_angle_beta   117.53088730
_cell_angle_gamma   94.33262891
_symmetry_Int_Tables_number   1
_chemical_formula_structural   Ca14CuBi11
_chemical_formula_sum   'Ca56 Cu4 Bi44'
_cell_volume   3314.27213653
_cell_formula_units_Z   4
loop_
 _symmetry_equiv_pos_site_id
 _symmetry_equiv_pos_as_xyz
  1  'x, y, z'
loop_
 _atom_site_type_symbol
 _atom_site_label
 _atom_site_symmetry_multiplicity
 _atom_site_fract_x
 _atom_site_fract_y
 _atom_site_fract_z
 _atom_site_occupancy
  Ca  Ca0  1  0.497702  0.600319  0.853558  1
  Ca  Ca1  1  0.624995  0.230863  0.105858  1
  Ca  Ca2  1  0.160627  0.028297  0.783038  1
  Ca  Ca3  1  0.896923  0.379917  0.841583  1
  Ca  Ca4  1  0.125005  0.019137  0.394142  1
  Ca  Ca5  1  0.769144  0.875003  0.394148  1
  Ca  Ca6  1  0.127596  0.410627  0.632336  1
  Ca  Ca7  1  0.746761  0.644146  0.146442  1
  Ca  Ca8  1  0.711662  0.370081  0.017006  1
  Ca  Ca9  1  0.444649  0.961665  0.841570  1
  Ca  Ca10  1  0.305351  0.288335  0.658430  1
  Ca  Ca11  1  0.038338  0.879919  0.482994  1
  Ca  Ca12  1  0.503240  0.149682  0.397379  1
  Ca  Ca13  1  0.350323  0.996781  0.602613  1
  Ca  Ca14  1  0.125001  0.519140  0.894140  1
  Ca  Ca15  1  0.003239  0.605854  0.353558  1
  Ca  Ca16  1  0.944666  0.103073  0.482990  1
  Ca  Ca17  1  0.629912  0.646922  0.341588  1
  Ca  Ca18  1  0.899676  0.002286  0.146439  1
  Ca  Ca19  1  0.353075  0.694671  0.982990  1
  Ca  Ca20  1  0.120088  0.603078  0.158412  1
  Ca  Ca21  1  0.997699  0.144148  0.897385  1
  Ca  Ca22  1  0.660630  0.877596  0.132335  1
  Ca  Ca23  1  0.504739  0.872404  0.283037  1
  Ca  Ca24  1  0.853077  0.870083  0.658417  1
  Ca  Ca25  1  0.211661  0.194649  0.341577  1
  Ca  Ca26  1  0.004737  0.721702  0.632337  1
  Ca  Ca27  1  0.745263  0.528298  0.867663  1
  Ca  Ca28  1  0.246760  0.100318  0.102621  1
  Ca  Ca29  1  0.245261  0.377596  0.216963  1
  Ca  Ca30  1  0.355854  0.502289  0.102615  1
  Ca  Ca31  1  0.252298  0.649681  0.646442  1
  Ca  Ca32  1  0.752301  0.105852  0.602615  1
  Ca  Ca33  1  0.624999  0.730860  0.605860  1
  Ca  Ca34  1  0.894151  0.496762  0.646432  1
  Ca  Ca35  1  0.855849  0.753238  0.853568  1
  Ca  Ca36  1  0.622404  0.839373  0.867664  1
  Ca  Ca37  1  0.278303  0.910631  0.283040  1
  Ca  Ca38  1  0.850324  0.247714  0.353561  1
  Ca  Ca39  1  0.129926  0.788316  0.982992  1
  Ca  Ca40  1  0.778308  0.495271  0.367667  1
  Ca  Ca41  1  0.971692  0.754729  0.132333  1
  Ca  Ca42  1  0.122407  0.254744  0.783040  1
  Ca  Ca43  1  0.589373  0.221703  0.716962  1
  Ca  Ca44  1  0.620074  0.461684  0.517008  1
  Ca  Ca45  1  0.980856  0.374997  0.105852  1
  Ca  Ca46  1  0.538339  0.055351  0.158423  1
  Ca  Ca47  1  0.399677  0.253219  0.897387  1
  Ca  Ca48  1  0.394146  0.747711  0.397385  1
  Ca  Ca49  1  0.480858  0.374999  0.605860  1
  Ca  Ca50  1  0.089370  0.372404  0.367665  1
  Ca  Ca51  1  0.805334  0.146927  0.017010  1
  Ca  Ca52  1  0.269142  0.875001  0.894140  1
  Ca  Ca53  1  0.471697  0.339369  0.216960  1
  Ca  Ca54  1  0.396925  0.555329  0.517010  1
  Ca  Ca55  1  0.627593  0.995256  0.716960  1
  Cu  Cu56  1  0.249975  0.749986  0.499993  1
  Cu  Cu57  1  0.749980  0.250005  0.499981  1
  Cu  Cu58  1  0.000020  0.999995  0.000019  1
  Cu  Cu59  1  0.500025  0.500014  0.000007  1
  Bi  Bi60  1  0.863358  0.363357  0.226716  1
  Bi  Bi61  1  0.291417  0.697743  0.146688  1
  Bi  Bi62  1  0.886642  0.886643  0.273284  1
  Bi  Bi63  1  0.551051  0.144725  0.853305  1
  Bi  Bi64  1  0.947744  0.041424  0.646699  1
  Bi  Bi65  1  0.363360  0.136642  0.500003  1
  Bi  Bi66  1  0.458583  0.552257  0.353312  1
  Bi  Bi67  1  0.355276  0.948945  0.146688  1
  Bi  Bi68  1  0.055988  0.200824  0.136398  1
  Bi  Bi69  1  0.051058  0.197745  0.406328  1
  Bi  Bi70  1  0.500002  0.999998  0.499996  1
  Bi  Bi71  1  0.198949  0.105275  0.646695  1
  Bi  Bi72  1  0.799181  0.935578  0.855159  1
  Bi  Bi73  1  0.685576  0.330406  0.636396  1
  Bi  Bi74  1  0.450818  0.805982  0.636395  1
  Bi  Bi75  1  0.169590  0.814425  0.363601  1
  Bi  Bi76  1  0.564427  0.700823  0.144837  1
  Bi  Bi77  1  0.669588  0.305988  0.355165  1
  Bi  Bi78  1  0.080412  0.944012  0.144835  1
  Bi  Bi79  1  0.749999  0.749999  0.000002  1
  Bi  Bi80  1  0.555984  0.419588  0.855160  1
  Bi  Bi81  1  0.386640  0.113358  0.999997  1
  Bi  Bi82  1  0.064424  0.919594  0.863604  1
  Bi  Bi83  1  0.000001  0.500001  0.499998  1
  Bi  Bi84  1  0.299182  0.444018  0.863605  1
  Bi  Bi85  1  0.802256  0.208576  0.853301  1
  Bi  Bi86  1  0.249998  0.250002  0.000004  1
  Bi  Bi87  1  0.394724  0.301055  0.353312  1
  Bi  Bi88  1  0.302254  0.448944  0.593677  1
  Bi  Bi89  1  0.698942  0.052255  0.093672  1
  Bi  Bi90  1  0.791415  0.644731  0.593674  1
  Bi  Bi91  1  0.194016  0.830412  0.644840  1
  Bi  Bi92  1  0.958585  0.605269  0.906326  1
  Bi  Bi93  1  0.113354  0.386638  0.999997  1
  Bi  Bi94  1  0.950819  0.314422  0.644841  1
  Bi  Bi95  1  0.636646  0.863362  0.500003  1
  Bi  Bi96  1  0.694012  0.049176  0.363602  1
  Bi  Bi97  1  0.580410  0.435575  0.136399  1
  Bi  Bi98  1  0.855272  0.708589  0.406333  1
  Bi  Bi99  1  0.894728  0.541411  0.093667  1
  Bi  Bi100  1  0.447746  0.801056  0.906323  1
  Bi  Bi101  1  0.136645  0.636641  0.773282  1
  Bi  Bi102  1  0.613355  0.613359  0.726718  1
  Bi  Bi103  1  0.185573  0.549177  0.355163  1
