# generated using pymatgen
data_TbPa3Co11(NiB2)3
_symmetry_space_group_name_H-M   'P 1'
_cell_length_a   4.96454500
_cell_length_b   4.94567214
_cell_length_c   13.11854300
_cell_angle_alpha   89.99991485
_cell_angle_beta   90.00018119
_cell_angle_gamma   120.12630722
_symmetry_Int_Tables_number   1
_chemical_formula_structural   TbPa3Co11(NiB2)3
_chemical_formula_sum   'Tb1 Pa3 Co11 Ni3 B6'
_cell_volume   278.59085122
_cell_formula_units_Z   1
loop_
 _symmetry_equiv_pos_site_id
 _symmetry_equiv_pos_as_xyz
  1  'x, y, z'
loop_
 _atom_site_type_symbol
 _atom_site_label
 _atom_site_symmetry_multiplicity
 _atom_site_fract_x
 _atom_site_fract_y
 _atom_site_fract_z
 _atom_site_occupancy
  Tb  Tb0  1  0.999992  0.000000  0.500713  1
  Pa  Pa1  1  0.999993  0.000000  0.996217  1
  Pa  Pa2  1  0.999985  0.000000  0.259364  1
  Pa  Pa3  1  0.999997  0.000000  0.741494  1
  Co  Co4  1  0.499985  0.499999  0.156969  1
  Co  Co5  1  0.999986  0.500001  0.156969  1
  Co  Co6  1  0.499997  0.000000  0.844840  1
  Co  Co7  1  0.499997  0.500001  0.844103  1
  Co  Co8  1  0.999996  0.499999  0.844103  1
  Co  Co9  1  0.499987  0.000000  0.384016  1
  Co  Co10  1  0.499989  0.500000  0.381982  1
  Co  Co11  1  0.999987  0.500000  0.381982  1
  Co  Co12  1  0.499994  0.000000  0.616782  1
  Co  Co13  1  0.499995  0.500001  0.617970  1
  Co  Co14  1  0.999995  0.499999  0.617970  1
  Ni  Ni15  1  0.329964  0.659946  0.999870  1
  Ni  Ni16  1  0.670018  0.340054  0.999870  1
  Ni  Ni17  1  0.499987  0.000000  0.152297  1
  B  B18  1  0.332378  0.664769  0.500432  1
  B  B19  1  0.667609  0.335231  0.500432  1
  B  B20  1  0.334219  0.668466  0.267805  1
  B  B21  1  0.665753  0.331534  0.267805  1
  B  B22  1  0.666168  0.332343  0.733005  1
  B  B23  1  0.333825  0.667657  0.733005  1
