# generated using pymatgen
data_Dy4Ga4NiIr3
_symmetry_space_group_name_H-M   'P 1'
_cell_length_a   4.33086600
_cell_length_b   6.81324140
_cell_length_c   7.70950014
_cell_angle_alpha   89.91161357
_cell_angle_beta   90.00000000
_cell_angle_gamma   90.00000000
_symmetry_Int_Tables_number   1
_chemical_formula_structural   Dy4Ga4NiIr3
_chemical_formula_sum   'Dy4 Ga4 Ni1 Ir3'
_cell_volume   227.48576561
_cell_formula_units_Z   1
loop_
 _symmetry_equiv_pos_site_id
 _symmetry_equiv_pos_as_xyz
  1  'x, y, z'
loop_
 _atom_site_type_symbol
 _atom_site_label
 _atom_site_symmetry_multiplicity
 _atom_site_fract_x
 _atom_site_fract_y
 _atom_site_fract_z
 _atom_site_occupancy
  Dy  Dy0  1  0.250000  0.024679  0.811195  1
  Dy  Dy1  1  0.250000  0.522265  0.690064  1
  Dy  Dy2  1  0.750000  0.976349  0.191574  1
  Dy  Dy3  1  0.750000  0.479579  0.309075  1
  Ga  Ga4  1  0.250000  0.156822  0.428767  1
  Ga  Ga5  1  0.250000  0.663191  0.061100  1
  Ga  Ga6  1  0.750000  0.837998  0.577994  1
  Ga  Ga7  1  0.750000  0.347160  0.929120  1
  Ni  Ni8  1  0.750000  0.724383  0.893164  1
  Ir  Ir9  1  0.250000  0.767581  0.390974  1
  Ir  Ir10  1  0.250000  0.271535  0.106844  1
  Ir  Ir11  1  0.750000  0.228458  0.610129  1
