# generated using pymatgen
data_Ru2AuF12
_symmetry_space_group_name_H-M   'P 1'
_cell_length_a   5.39841963
_cell_length_b   5.62343154
_cell_length_c   8.95408500
_cell_angle_alpha   104.09859923
_cell_angle_beta   89.64842774
_cell_angle_gamma   114.75584249
_symmetry_Int_Tables_number   1
_chemical_formula_structural   Ru2AuF12
_chemical_formula_sum   'Ru2 Au1 F12'
_cell_volume   237.98638905
_cell_formula_units_Z   1
loop_
 _symmetry_equiv_pos_site_id
 _symmetry_equiv_pos_as_xyz
  1  'x, y, z'
loop_
 _atom_site_type_symbol
 _atom_site_label
 _atom_site_symmetry_multiplicity
 _atom_site_fract_x
 _atom_site_fract_y
 _atom_site_fract_z
 _atom_site_occupancy
  Ru  Ru0  1  0.279991  0.015098  0.758887  1
  Ru  Ru1  1  0.720009  0.984902  0.241113  1
  Au  Au2  1  0.500000  0.500000  0.500000  1
  F  F3  1  0.772679  0.770179  0.374870  1
  F  F4  1  0.227321  0.229821  0.625130  1
  F  F5  1  0.340900  0.777552  0.223570  1
  F  F6  1  0.311502  0.788012  0.869106  1
  F  F7  1  0.688498  0.211988  0.130894  1
  F  F8  1  0.893499  0.803958  0.724029  1
  F  F9  1  0.106501  0.196042  0.275971  1
  F  F10  1  0.303117  0.770411  0.562546  1
  F  F11  1  0.696883  0.229589  0.437454  1
  F  F12  1  0.238403  0.252647  0.929365  1
  F  F13  1  0.761597  0.747353  0.070635  1
  F  F14  1  0.659100  0.222448  0.776430  1
