# generated using pymatgen
data_Nd6Y9Ho(CdPt)4
_symmetry_space_group_name_H-M   'P 1'
_cell_length_a   9.81142965
_cell_length_b   9.81142956
_cell_length_c   9.81142891
_cell_angle_alpha   59.95959763
_cell_angle_beta   59.95959857
_cell_angle_gamma   59.95959775
_symmetry_Int_Tables_number   1
_chemical_formula_structural   Nd6Y9Ho(CdPt)4
_chemical_formula_sum   'Nd6 Y9 Ho1 Cd4 Pt4'
_cell_volume   667.24256745
_cell_formula_units_Z   1
loop_
 _symmetry_equiv_pos_site_id
 _symmetry_equiv_pos_as_xyz
  1  'x, y, z'
loop_
 _atom_site_type_symbol
 _atom_site_label
 _atom_site_symmetry_multiplicity
 _atom_site_fract_x
 _atom_site_fract_y
 _atom_site_fract_z
 _atom_site_occupancy
  Nd  Nd0  1  0.937776  0.562451  0.562451  1
  Nd  Nd1  1  0.562647  0.937318  0.937318  1
  Nd  Nd2  1  0.562451  0.937776  0.562451  1
  Nd  Nd3  1  0.937318  0.562647  0.937318  1
  Nd  Nd4  1  0.562451  0.562451  0.937776  1
  Nd  Nd5  1  0.937318  0.937318  0.562647  1
  Y  Y6  1  0.350802  0.350802  0.947665  1
  Y  Y7  1  0.350802  0.947665  0.350802  1
  Y  Y8  1  0.947665  0.350802  0.350802  1
  Y  Y9  1  0.811229  0.188657  0.188657  1
  Y  Y10  1  0.188516  0.811470  0.811470  1
  Y  Y11  1  0.188657  0.811229  0.188657  1
  Y  Y12  1  0.811470  0.188516  0.811470  1
  Y  Y13  1  0.188657  0.188657  0.811229  1
  Y  Y14  1  0.811470  0.811470  0.188516  1
  Ho  Ho15  1  0.350097  0.350097  0.350097  1
  Cd  Cd16  1  0.580035  0.580035  0.580035  1
  Cd  Cd17  1  0.580006  0.580006  0.259844  1
  Cd  Cd18  1  0.580006  0.259844  0.580006  1
  Cd  Cd19  1  0.259844  0.580006  0.580006  1
  Pt  Pt20  1  0.142543  0.142543  0.142543  1
  Pt  Pt21  1  0.143493  0.143493  0.571255  1
  Pt  Pt22  1  0.143493  0.571255  0.143493  1
  Pt  Pt23  1  0.571255  0.143493  0.143493  1
