# generated using pymatgen
data_Ba2TbUSe6
_symmetry_space_group_name_H-M   'P 1'
_cell_length_a   7.48097433
_cell_length_b   7.86329805
_cell_length_c   13.14796638
_cell_angle_alpha   90.01588976
_cell_angle_beta   124.67399003
_cell_angle_gamma   89.99774863
_symmetry_Int_Tables_number   1
_chemical_formula_structural   Ba2TbUSe6
_chemical_formula_sum   'Ba4 Tb2 U2 Se12'
_cell_volume   636.07133965
_cell_formula_units_Z   2
loop_
 _symmetry_equiv_pos_site_id
 _symmetry_equiv_pos_as_xyz
  1  'x, y, z'
loop_
 _atom_site_type_symbol
 _atom_site_label
 _atom_site_symmetry_multiplicity
 _atom_site_fract_x
 _atom_site_fract_y
 _atom_site_fract_z
 _atom_site_occupancy
  Ba  Ba0  1  0.769706  0.928890  0.249678  1
  Ba  Ba1  1  0.230541  0.429006  0.250571  1
  Ba  Ba2  1  0.769459  0.570995  0.749429  1
  Ba  Ba3  1  0.230294  0.071110  0.750322  1
  Tb  Tb4  1  0.500000  0.500001  0.000000  1
  Tb  Tb5  1  0.500000  0.000000  0.500000  1
  U  U6  1  0.000000  0.000000  0.000000  1
  U  U7  1  0.000000  0.500001  0.500000  1
  Se  Se8  1  0.855117  0.705283  0.046710  1
  Se  Se9  1  0.747935  0.195280  0.045514  1
  Se  Se10  1  0.333110  0.018644  0.245005  1
  Se  Se11  1  0.666522  0.518605  0.254711  1
  Se  Se12  1  0.252344  0.695552  0.454508  1
  Se  Se13  1  0.145173  0.205113  0.453346  1
  Se  Se14  1  0.854828  0.794886  0.546654  1
  Se  Se15  1  0.747656  0.304448  0.545493  1
  Se  Se16  1  0.333478  0.481395  0.745289  1
  Se  Se17  1  0.666890  0.981356  0.754994  1
  Se  Se18  1  0.252064  0.804720  0.954486  1
  Se  Se19  1  0.144882  0.294718  0.953290  1
