# generated using pymatgen
data_Y2Tm14In4RuRh3
_symmetry_space_group_name_H-M   'P 1'
_cell_length_a   9.57011712
_cell_length_b   9.55328281
_cell_length_c   9.55564257
_cell_angle_alpha   59.93492385
_cell_angle_beta   59.94988089
_cell_angle_gamma   59.94169758
_symmetry_Int_Tables_number   1
_chemical_formula_structural   Y2Tm14In4RuRh3
_chemical_formula_sum   'Y2 Tm14 In4 Ru1 Rh3'
_cell_volume   616.94257166
_cell_formula_units_Z   1
loop_
 _symmetry_equiv_pos_site_id
 _symmetry_equiv_pos_as_xyz
  1  'x, y, z'
loop_
 _atom_site_type_symbol
 _atom_site_label
 _atom_site_symmetry_multiplicity
 _atom_site_fract_x
 _atom_site_fract_y
 _atom_site_fract_z
 _atom_site_occupancy
  Y  Y0  1  0.059999  0.061154  0.436131  1
  Y  Y1  1  0.442717  0.061154  0.436131  1
  Tm  Tm2  1  0.062266  0.439294  0.060009  1
  Tm  Tm3  1  0.046023  0.650924  0.650046  1
  Tm  Tm4  1  0.438431  0.439294  0.060009  1
  Tm  Tm5  1  0.651843  0.046762  0.649554  1
  Tm  Tm6  1  0.188196  0.809122  0.193085  1
  Tm  Tm7  1  0.189628  0.191777  0.810474  1
  Tm  Tm8  1  0.809598  0.809122  0.193085  1
  Tm  Tm9  1  0.439981  0.061744  0.058293  1
  Tm  Tm10  1  0.809569  0.188989  0.191875  1
  Tm  Tm11  1  0.059297  0.444715  0.436693  1
  Tm  Tm12  1  0.808121  0.191777  0.810474  1
  Tm  Tm13  1  0.190596  0.808008  0.810799  1
  Tm  Tm14  1  0.651076  0.649560  0.048289  1
  Tm  Tm15  1  0.653008  0.650924  0.650046  1
  In  In16  1  0.416554  0.417073  0.417548  1
  In  In17  1  0.748825  0.417073  0.417548  1
  In  In18  1  0.418175  0.747530  0.416120  1
  In  In19  1  0.417162  0.417230  0.748444  1
  Ru  Ru20  1  0.859631  0.856063  0.424675  1
  Rh  Rh21  1  0.857983  0.858033  0.861021  1
  Rh  Rh22  1  0.422964  0.858033  0.861021  1
  Rh  Rh23  1  0.858360  0.424648  0.858632  1
