# generated using pymatgen
data_Ce4MnCo4Si10Os
_symmetry_space_group_name_H-M   'P 1'
_cell_length_a   8.02899099
_cell_length_b   8.02923103
_cell_length_c   8.02927146
_cell_angle_alpha   138.92785658
_cell_angle_beta   105.32229220
_cell_angle_gamma   88.96060165
_symmetry_Int_Tables_number   1
_chemical_formula_structural   Ce4MnCo4Si10Os
_chemical_formula_sum   'Ce4 Mn1 Co4 Si10 Os1'
_cell_volume   314.31587507
_cell_formula_units_Z   1
loop_
 _symmetry_equiv_pos_site_id
 _symmetry_equiv_pos_as_xyz
  1  'x, y, z'
loop_
 _atom_site_type_symbol
 _atom_site_label
 _atom_site_symmetry_multiplicity
 _atom_site_fract_x
 _atom_site_fract_y
 _atom_site_fract_z
 _atom_site_occupancy
  Ce  Ce0  1  0.864833  0.631665  0.236396  1
  Ce  Ce1  1  0.135207  0.371587  0.766858  1
  Ce  Ce2  1  0.395269  0.128420  0.263617  1
  Ce  Ce3  1  0.604713  0.868326  0.733123  1
  Mn  Mn4  1  0.000058  0.250089  0.250039  1
  Co  Co5  1  0.251197  0.864152  0.389517  1
  Co  Co6  1  0.748787  0.138296  0.612929  1
  Co  Co7  1  0.474649  0.361703  0.110487  1
  Co  Co8  1  0.525384  0.635853  0.887102  1
  Si  Si9  1  0.500054  0.750037  0.250020  1
  Si  Si10  1  0.500061  0.250050  0.750029  1
  Si  Si11  1  0.232139  0.982118  0.750024  1
  Si  Si12  1  0.767797  0.517809  0.749972  1
  Si  Si13  1  0.765464  0.015478  0.249986  1
  Si  Si14  1  0.234473  0.484452  0.250021  1
  Si  Si15  1  0.049049  0.897580  0.163804  1
  Si  Si16  1  0.950834  0.114735  0.848419  1
  Si  Si17  1  0.733723  0.385219  0.336148  1
  Si  Si18  1  0.266314  0.602448  0.651563  1
  Os  Os19  1  0.999993  0.749983  0.749948  1
