# generated using pymatgen
data_Nd4Y2RuBr10
_symmetry_space_group_name_H-M   'P 1'
_cell_length_a   7.53829905
_cell_length_b   9.49685298
_cell_length_c   9.48995575
_cell_angle_alpha   108.42479390
_cell_angle_beta   95.69417215
_cell_angle_gamma   105.43431942
_symmetry_Int_Tables_number   1
_chemical_formula_structural   Nd4Y2RuBr10
_chemical_formula_sum   'Nd4 Y2 Ru1 Br10'
_cell_volume   608.70334091
_cell_formula_units_Z   1
loop_
 _symmetry_equiv_pos_site_id
 _symmetry_equiv_pos_as_xyz
  1  'x, y, z'
loop_
 _atom_site_type_symbol
 _atom_site_label
 _atom_site_symmetry_multiplicity
 _atom_site_fract_x
 _atom_site_fract_y
 _atom_site_fract_z
 _atom_site_occupancy
  Nd  Nd0  1  0.471031  0.795443  0.593680  1
  Nd  Nd1  1  0.528969  0.204557  0.406320  1
  Nd  Nd2  1  0.373704  0.454384  0.746291  1
  Nd  Nd3  1  0.626296  0.545616  0.253709  1
  Y  Y4  1  0.863617  0.636030  0.678759  1
  Y  Y5  1  0.136383  0.363970  0.321241  1
  Ru  Ru6  1  0.500000  0.500000  0.500000  1
  Br  Br7  1  0.412127  0.133442  0.675608  1
  Br  Br8  1  0.587873  0.866558  0.324392  1
  Br  Br9  1  0.047385  0.671703  0.417580  1
  Br  Br10  1  0.952615  0.328297  0.582420  1
  Br  Br11  1  0.272402  0.753710  0.845502  1
  Br  Br12  1  0.727598  0.246290  0.154498  1
  Br  Br13  1  0.243907  0.413775  0.050972  1
  Br  Br14  1  0.756093  0.586225  0.949028  1
  Br  Br15  1  0.856950  0.945345  0.770423  1
  Br  Br16  1  0.143050  0.054655  0.229577  1
