# generated using pymatgen
data_K2MnFeF7
_symmetry_space_group_name_H-M   'P 1'
_cell_length_a   7.85844153
_cell_length_b   7.85844110
_cell_length_c   7.85844123
_cell_angle_alpha   121.05159035
_cell_angle_beta   117.10895264
_cell_angle_gamma   91.63351051
_symmetry_Int_Tables_number   1
_chemical_formula_structural   K2MnFeF7
_chemical_formula_sum   'K4 Mn2 Fe2 F14'
_cell_volume   347.27845341
_cell_formula_units_Z   2
loop_
 _symmetry_equiv_pos_site_id
 _symmetry_equiv_pos_as_xyz
  1  'x, y, z'
loop_
 _atom_site_type_symbol
 _atom_site_label
 _atom_site_symmetry_multiplicity
 _atom_site_fract_x
 _atom_site_fract_y
 _atom_site_fract_z
 _atom_site_occupancy
  K  K0  1  0.500000  0.500000  0.000000  1
  K  K1  1  0.000000  0.000000  0.000000  1
  K  K2  1  0.000000  0.500000  0.000000  1
  K  K3  1  0.000000  0.000000  0.500000  1
  Mn  Mn4  1  0.500000  0.500000  0.500000  1
  Mn  Mn5  1  0.500000  0.000000  0.000000  1
  Fe  Fe6  1  0.000000  0.500000  0.500000  1
  Fe  Fe7  1  0.500000  0.000000  0.500000  1
  F  F8  1  0.875313  0.584401  0.290912  1
  F  F9  1  0.206511  0.915599  0.290912  1
  F  F10  1  0.182946  0.797821  0.753808  1
  F  F11  1  0.455987  0.702179  0.385125  1
  F  F12  1  0.455987  0.070862  0.753808  1
  F  F13  1  0.182946  0.429138  0.385125  1
  F  F14  1  0.817054  0.570862  0.614875  1
  F  F15  1  0.544013  0.929138  0.246192  1
  F  F16  1  0.544013  0.297821  0.614875  1
  F  F17  1  0.817054  0.202179  0.246192  1
  F  F18  1  0.389378  0.250000  0.139378  1
  F  F19  1  0.124687  0.415599  0.709088  1
  F  F20  1  0.793489  0.084401  0.709088  1
  F  F21  1  0.610622  0.750000  0.860622  1
