# generated using pymatgen
data_SmLuGaNi7B2
_symmetry_space_group_name_H-M   'P 1'
_cell_length_a   5.06634200
_cell_length_b   5.06658218
_cell_length_c   6.85582900
_cell_angle_alpha   90.00000000
_cell_angle_beta   90.00000000
_cell_angle_gamma   120.00652109
_symmetry_Int_Tables_number   1
_chemical_formula_structural   SmLuGaNi7B2
_chemical_formula_sum   'Sm1 Lu1 Ga1 Ni7 B2'
_cell_volume   152.39533120
_cell_formula_units_Z   1
loop_
 _symmetry_equiv_pos_site_id
 _symmetry_equiv_pos_as_xyz
  1  'x, y, z'
loop_
 _atom_site_type_symbol
 _atom_site_label
 _atom_site_symmetry_multiplicity
 _atom_site_fract_x
 _atom_site_fract_y
 _atom_site_fract_z
 _atom_site_occupancy
  Sm  Sm0  1  0.999960  0.999963  0.000000  1
  Lu  Lu1  1  0.999984  0.999998  0.500000  1
  Ga  Ga2  1  0.333284  0.666607  0.000000  1
  Ni  Ni3  1  0.666695  0.333399  0.000000  1
  Ni  Ni4  1  0.500681  0.001398  0.297670  1
  Ni  Ni5  1  0.500678  0.499306  0.297717  1
  Ni  Ni6  1  0.998595  0.499309  0.297716  1
  Ni  Ni7  1  0.500681  0.001398  0.702330  1
  Ni  Ni8  1  0.500678  0.499306  0.702283  1
  Ni  Ni9  1  0.998595  0.499309  0.702284  1
  B  B10  1  0.333352  0.666722  0.500000  1
  B  B11  1  0.666613  0.333284  0.500000  1
