# generated using pymatgen
data_Sm4YEr3(ReB6)4
_symmetry_space_group_name_H-M   'P 1'
_cell_length_a   3.70136800
_cell_length_b   9.20402801
_cell_length_c   11.63049901
_cell_angle_alpha   90.00479086
_cell_angle_beta   90.00000000
_cell_angle_gamma   90.00000000
_symmetry_Int_Tables_number   1
_chemical_formula_structural   Sm4YEr3(ReB6)4
_chemical_formula_sum   'Sm4 Y1 Er3 Re4 B24'
_cell_volume   396.22196247
_cell_formula_units_Z   1
loop_
 _symmetry_equiv_pos_site_id
 _symmetry_equiv_pos_as_xyz
  1  'x, y, z'
loop_
 _atom_site_type_symbol
 _atom_site_label
 _atom_site_symmetry_multiplicity
 _atom_site_fract_x
 _atom_site_fract_y
 _atom_site_fract_z
 _atom_site_occupancy
  Sm  Sm0  1  0.000000  0.323029  0.414345  1
  Sm  Sm1  1  0.000000  0.676808  0.585850  1
  Sm  Sm2  1  0.000000  0.822927  0.085588  1
  Sm  Sm3  1  0.000000  0.177197  0.914170  1
  Y  Y4  1  0.000000  0.942939  0.370089  1
  Er  Er5  1  0.000000  0.057466  0.630977  1
  Er  Er6  1  0.000000  0.442796  0.130050  1
  Er  Er7  1  0.000000  0.557339  0.869624  1
  Re  Re8  1  0.000000  0.637996  0.319397  1
  Re  Re9  1  0.000000  0.361052  0.680562  1
  Re  Re10  1  0.000000  0.139726  0.179726  1
  Re  Re11  1  0.000000  0.860729  0.819750  1
  B  B12  1  0.500000  0.553619  0.431311  1
  B  B13  1  0.500000  0.445643  0.568791  1
  B  B14  1  0.500000  0.054425  0.068325  1
  B  B15  1  0.500000  0.945755  0.931355  1
  B  B16  1  0.500000  0.748644  0.416586  1
  B  B17  1  0.500000  0.250269  0.583627  1
  B  B18  1  0.500000  0.250107  0.083076  1
  B  B19  1  0.500000  0.750128  0.916676  1
  B  B20  1  0.500000  0.790869  0.265263  1
  B  B21  1  0.500000  0.208496  0.734581  1
  B  B22  1  0.500000  0.292045  0.234109  1
  B  B23  1  0.500000  0.708308  0.765704  1
  B  B24  1  0.500000  0.629211  0.185396  1
  B  B25  1  0.500000  0.370611  0.814430  1
  B  B26  1  0.500000  0.130403  0.313889  1
  B  B27  1  0.500000  0.870408  0.685868  1
  B  B28  1  0.500000  0.983312  0.212258  1
  B  B29  1  0.500000  0.017090  0.787293  1
  B  B30  1  0.500000  0.482471  0.286878  1
  B  B31  1  0.500000  0.517238  0.712949  1
  B  B32  1  0.500000  0.596832  0.026769  1
  B  B33  1  0.500000  0.403276  0.972953  1
  B  B34  1  0.500000  0.097968  0.473849  1
  B  B35  1  0.500000  0.902867  0.527935  1
