# generated using pymatgen
data_Gd6AlSiTc
_symmetry_space_group_name_H-M   'P 1'
_cell_length_a   8.57665145
_cell_length_b   8.57665232
_cell_length_c   8.57665300
_cell_angle_alpha   112.22086776
_cell_angle_beta   111.91167743
_cell_angle_gamma   104.39735462
_symmetry_Int_Tables_number   1
_chemical_formula_structural   Gd6AlSiTc
_chemical_formula_sum   'Gd12 Al2 Si2 Tc2'
_cell_volume   482.83250606
_cell_formula_units_Z   2
loop_
 _symmetry_equiv_pos_site_id
 _symmetry_equiv_pos_as_xyz
  1  'x, y, z'
loop_
 _atom_site_type_symbol
 _atom_site_label
 _atom_site_symmetry_multiplicity
 _atom_site_fract_x
 _atom_site_fract_y
 _atom_site_fract_z
 _atom_site_occupancy
  Gd  Gd0  1  0.048740  0.742419  0.305963  1
  Gd  Gd1  1  0.951260  0.257581  0.694037  1
  Gd  Gd2  1  0.563545  0.257581  0.306321  1
  Gd  Gd3  1  0.436455  0.742419  0.693679  1
  Gd  Gd4  1  0.665242  0.852801  0.187559  1
  Gd  Gd5  1  0.334897  0.522410  0.187513  1
  Gd  Gd6  1  0.334758  0.147199  0.812441  1
  Gd  Gd7  1  0.665103  0.477590  0.812487  1
  Gd  Gd8  1  0.182298  0.227155  0.409258  1
  Gd  Gd9  1  0.817898  0.227155  0.044856  1
  Gd  Gd10  1  0.182102  0.772845  0.955144  1
  Gd  Gd11  1  0.817702  0.772845  0.590742  1
  Al  Al12  1  0.000000  0.500000  0.500000  1
  Al  Al13  1  0.500000  0.000000  0.500000  1
  Si  Si14  1  0.886657  0.886615  0.999958  1
  Si  Si15  1  0.113343  0.113385  0.000042  1
  Tc  Tc16  1  0.677187  0.500000  0.177187  1
  Tc  Tc17  1  0.322813  0.500000  0.822813  1
