# generated using pymatgen
data_Ti3Mn2Cu
_symmetry_space_group_name_H-M   'P 1'
_cell_length_a   2.99500300
_cell_length_b   2.99473800
_cell_length_c   9.19660100
_cell_angle_alpha   89.99977308
_cell_angle_beta   89.99900420
_cell_angle_gamma   90.00309927
_symmetry_Int_Tables_number   1
_chemical_formula_structural   Ti3Mn2Cu
_chemical_formula_sum   'Ti3 Mn2 Cu1'
_cell_volume   82.48660696
_cell_formula_units_Z   1
loop_
 _symmetry_equiv_pos_site_id
 _symmetry_equiv_pos_as_xyz
  1  'x, y, z'
loop_
 _atom_site_type_symbol
 _atom_site_label
 _atom_site_symmetry_multiplicity
 _atom_site_fract_x
 _atom_site_fract_y
 _atom_site_fract_z
 _atom_site_occupancy
  Ti  Ti0  1  0.999997  0.000001  0.999973  1
  Ti  Ti1  1  0.999985  0.999980  0.314108  1
  Ti  Ti2  1  0.000015  0.000018  0.685887  1
  Mn  Mn3  1  0.500001  0.500000  0.166030  1
  Mn  Mn4  1  0.500006  0.500008  0.833955  1
  Cu  Cu5  1  0.499999  0.499995  0.500047  1
