# generated using pymatgen
data_Tm9ZrIr5Pt
_symmetry_space_group_name_H-M   'P 1'
_cell_length_a   10.79651847
_cell_length_b   10.79205000
_cell_length_c   6.25342028
_cell_angle_alpha   90.00000000
_cell_angle_beta   89.96580492
_cell_angle_gamma   90.00000000
_symmetry_Int_Tables_number   1
_chemical_formula_structural   Tm9ZrIr5Pt
_chemical_formula_sum   'Tm18 Zr2 Ir10 Pt2'
_cell_volume   728.62693478
_cell_formula_units_Z   2
loop_
 _symmetry_equiv_pos_site_id
 _symmetry_equiv_pos_as_xyz
  1  'x, y, z'
loop_
 _atom_site_type_symbol
 _atom_site_label
 _atom_site_symmetry_multiplicity
 _atom_site_fract_x
 _atom_site_fract_y
 _atom_site_fract_z
 _atom_site_occupancy
  Tm  Tm0  1  0.289708  0.086625  0.375508  1
  Tm  Tm1  1  0.289708  0.913375  0.875508  1
  Tm  Tm2  1  0.710826  0.083713  0.875686  1
  Tm  Tm3  1  0.710826  0.916287  0.375686  1
  Tm  Tm4  1  0.586299  0.794436  0.871399  1
  Tm  Tm5  1  0.586299  0.205564  0.371399  1
  Tm  Tm6  1  0.409098  0.794724  0.375486  1
  Tm  Tm7  1  0.409098  0.205276  0.875486  1
  Tm  Tm8  1  0.207068  0.412091  0.625793  1
  Tm  Tm9  1  0.207068  0.587909  0.125793  1
  Tm  Tm10  1  0.796451  0.410542  0.127156  1
  Tm  Tm11  1  0.796451  0.589458  0.627156  1
  Tm  Tm12  1  0.916758  0.710745  0.124125  1
  Tm  Tm13  1  0.916758  0.289255  0.624125  1
  Tm  Tm14  1  0.087086  0.710422  0.624661  1
  Tm  Tm15  1  0.087086  0.289578  0.124661  1
  Tm  Tm16  1  0.496984  0.499643  0.000008  1
  Tm  Tm17  1  0.496984  0.500357  0.500008  1
  Zr  Zr18  1  0.000039  0.999983  0.499989  1
  Zr  Zr19  1  0.000039  0.000017  0.999989  1
  Ir  Ir20  1  0.852943  0.146831  0.250175  1
  Ir  Ir21  1  0.852943  0.853169  0.750175  1
  Ir  Ir22  1  0.146100  0.146259  0.749812  1
  Ir  Ir23  1  0.146100  0.853741  0.249812  1
  Ir  Ir24  1  0.346193  0.345296  0.250060  1
  Ir  Ir25  1  0.346193  0.654704  0.750060  1
  Ir  Ir26  1  0.500220  0.999853  0.121228  1
  Ir  Ir27  1  0.500220  0.000147  0.621228  1
  Ir  Ir28  1  0.999488  0.500209  0.878822  1
  Ir  Ir29  1  0.999488  0.499791  0.378822  1
  Pt  Pt30  1  0.654738  0.345885  0.750093  1
  Pt  Pt31  1  0.654738  0.654115  0.250093  1
