# generated using pymatgen
data_Ac3Nd(GePd2)4
_symmetry_space_group_name_H-M   'P 1'
_cell_length_a   6.02398319
_cell_length_b   7.09601300
_cell_length_c   7.86259823
_cell_angle_alpha   90.00000000
_cell_angle_beta   90.02806429
_cell_angle_gamma   90.00000000
_symmetry_Int_Tables_number   1
_chemical_formula_structural   Ac3Nd(GePd2)4
_chemical_formula_sum   'Ac3 Nd1 Ge4 Pd8'
_cell_volume   336.09665144
_cell_formula_units_Z   1
loop_
 _symmetry_equiv_pos_site_id
 _symmetry_equiv_pos_as_xyz
  1  'x, y, z'
loop_
 _atom_site_type_symbol
 _atom_site_label
 _atom_site_symmetry_multiplicity
 _atom_site_fract_x
 _atom_site_fract_y
 _atom_site_fract_z
 _atom_site_occupancy
  Ac  Ac0  1  0.344443  0.750000  0.029134  1
  Ac  Ac1  1  0.151138  0.750000  0.529624  1
  Ac  Ac2  1  0.652878  0.250000  0.968827  1
  Nd  Nd3  1  0.843792  0.250000  0.470277  1
  Ge  Ge4  1  0.652935  0.750000  0.376032  1
  Ge  Ge5  1  0.845765  0.750000  0.876674  1
  Ge  Ge6  1  0.346498  0.250000  0.619067  1
  Ge  Ge7  1  0.150159  0.250000  0.132987  1
  Pd  Pd8  1  0.910706  0.550978  0.181636  1
  Pd  Pd9  1  0.593025  0.948704  0.673494  1
  Pd  Pd10  1  0.084847  0.054275  0.818576  1
  Pd  Pd11  1  0.417618  0.446080  0.324984  1
  Pd  Pd12  1  0.084847  0.445725  0.818576  1
  Pd  Pd13  1  0.417618  0.053920  0.324984  1
  Pd  Pd14  1  0.910706  0.949022  0.181636  1
  Pd  Pd15  1  0.593025  0.551296  0.673494  1
