# generated using pymatgen
data_La6Ge3Se14
_symmetry_space_group_name_H-M   'P 1'
_cell_length_a   10.87140100
_cell_length_b   10.87140137
_cell_length_c   6.13093000
_cell_angle_alpha   90.00000000
_cell_angle_beta   90.00000000
_cell_angle_gamma   120.00000801
_symmetry_Int_Tables_number   1
_chemical_formula_structural   La6Ge3Se14
_chemical_formula_sum   'La6 Ge3 Se14'
_cell_volume   627.52061787
_cell_formula_units_Z   1
loop_
 _symmetry_equiv_pos_site_id
 _symmetry_equiv_pos_as_xyz
  1  'x, y, z'
loop_
 _atom_site_type_symbol
 _atom_site_label
 _atom_site_symmetry_multiplicity
 _atom_site_fract_x
 _atom_site_fract_y
 _atom_site_fract_z
 _atom_site_occupancy
  La  La0  1  0.309915  0.102662  0.754934  1
  La  La1  1  0.792747  0.690085  0.754934  1
  La  La2  1  0.897338  0.207253  0.754934  1
  La  La3  1  0.024068  0.564094  0.250940  1
  La  La4  1  0.540026  0.975932  0.250940  1
  La  La5  1  0.435906  0.459974  0.250940  1
  Ge  Ge6  1  0.000000  0.000000  0.171942  1
  Ge  Ge7  1  0.333333  0.666667  0.667093  1
  Ge  Ge8  1  0.666667  0.333333  0.514641  1
  Se  Se9  1  0.149738  0.230473  0.013682  1
  Se  Se10  1  0.080735  0.850262  0.013682  1
  Se  Se11  1  0.769527  0.919265  0.013682  1
  Se  Se12  1  0.183923  0.436172  0.510372  1
  Se  Se13  1  0.252249  0.816077  0.510372  1
  Se  Se14  1  0.563828  0.747751  0.510372  1
  Se  Se15  1  0.000000  0.000000  0.555181  1
  Se  Se16  1  0.333333  0.666667  0.050548  1
  Se  Se17  1  0.412545  0.170156  0.273943  1
  Se  Se18  1  0.757611  0.587455  0.273943  1
  Se  Se19  1  0.829844  0.242389  0.273943  1
  Se  Se20  1  0.921441  0.499489  0.762015  1
  Se  Se21  1  0.578049  0.078559  0.762015  1
  Se  Se22  1  0.500511  0.421951  0.762015  1
