# generated using pymatgen
data_CeSeCl6O
_symmetry_space_group_name_H-M   'P 1'
_cell_length_a   24.38263300
_cell_length_b   7.16149429
_cell_length_c   7.50425213
_cell_angle_alpha   63.29569699
_cell_angle_beta   90.00000000
_cell_angle_gamma   90.00000000
_symmetry_Int_Tables_number   1
_chemical_formula_structural   CeSeCl6O
_chemical_formula_sum   'Ce4 Se4 Cl24 O4'
_cell_volume   1170.59671949
_cell_formula_units_Z   4
loop_
 _symmetry_equiv_pos_site_id
 _symmetry_equiv_pos_as_xyz
  1  'x, y, z'
loop_
 _atom_site_type_symbol
 _atom_site_label
 _atom_site_symmetry_multiplicity
 _atom_site_fract_x
 _atom_site_fract_y
 _atom_site_fract_z
 _atom_site_occupancy
  Ce  Ce0  1  0.423796  0.994990  0.357401  1
  Ce  Ce1  1  0.076204  0.994990  0.857401  1
  Ce  Ce2  1  0.576204  0.005010  0.642599  1
  Ce  Ce3  1  0.923796  0.005010  0.142599  1
  Se  Se4  1  0.359441  0.586682  0.864824  1
  Se  Se5  1  0.140559  0.586682  0.364824  1
  Se  Se6  1  0.640559  0.413318  0.135176  1
  Se  Se7  1  0.859441  0.413318  0.635176  1
  Cl  Cl8  1  0.456618  0.283946  0.016770  1
  Cl  Cl9  1  0.043382  0.283946  0.516770  1
  Cl  Cl10  1  0.543382  0.716054  0.983230  1
  Cl  Cl11  1  0.956618  0.716054  0.483230  1
  Cl  Cl12  1  0.524909  0.802683  0.450215  1
  Cl  Cl13  1  0.975091  0.802683  0.950215  1
  Cl  Cl14  1  0.475091  0.197317  0.549785  1
  Cl  Cl15  1  0.024909  0.197317  0.049785  1
  Cl  Cl16  1  0.332827  0.191858  0.311622  1
  Cl  Cl17  1  0.167173  0.191858  0.811622  1
  Cl  Cl18  1  0.667173  0.808142  0.688378  1
  Cl  Cl19  1  0.832827  0.808142  0.188378  1
  Cl  Cl20  1  0.391154  0.752087  0.214082  1
  Cl  Cl21  1  0.108846  0.752087  0.714082  1
  Cl  Cl22  1  0.608846  0.247913  0.785918  1
  Cl  Cl23  1  0.891154  0.247913  0.285918  1
  Cl  Cl24  1  0.284473  0.768870  0.840996  1
  Cl  Cl25  1  0.215527  0.768870  0.340996  1
  Cl  Cl26  1  0.715527  0.231130  0.159004  1
  Cl  Cl27  1  0.784473  0.231130  0.659004  1
  Cl  Cl28  1  0.325380  0.385391  0.742995  1
  Cl  Cl29  1  0.174620  0.385391  0.242995  1
  Cl  Cl30  1  0.674620  0.614609  0.257005  1
  Cl  Cl31  1  0.825380  0.614609  0.757005  1
  O  O32  1  0.396341  0.760590  0.672503  1
  O  O33  1  0.103659  0.760590  0.172503  1
  O  O34  1  0.603659  0.239410  0.327497  1
  O  O35  1  0.896341  0.239410  0.827497  1
