# generated using pymatgen
data_CeSm2(ZnPt)4
_symmetry_space_group_name_H-M   'P 1'
_cell_length_a   8.32785893
_cell_length_b   8.32785991
_cell_length_c   8.32785930
_cell_angle_alpha   151.52600700
_cell_angle_beta   126.94431471
_cell_angle_gamma   61.30988657
_symmetry_Int_Tables_number   1
_chemical_formula_structural   CeSm2(ZnPt)4
_chemical_formula_sum   'Ce1 Sm2 Zn4 Pt4'
_cell_volume   218.30034314
_cell_formula_units_Z   1
loop_
 _symmetry_equiv_pos_site_id
 _symmetry_equiv_pos_as_xyz
  1  'x, y, z'
loop_
 _atom_site_type_symbol
 _atom_site_label
 _atom_site_symmetry_multiplicity
 _atom_site_fract_x
 _atom_site_fract_y
 _atom_site_fract_z
 _atom_site_occupancy
  Ce  Ce0  1  0.500000  0.000000  0.500000  1
  Sm  Sm1  1  0.873492  0.873492  0.000000  1
  Sm  Sm2  1  0.126508  0.126508  0.000000  1
  Zn  Zn3  1  0.477763  0.673683  0.804081  1
  Zn  Zn4  1  0.869602  0.673683  0.195919  1
  Zn  Zn5  1  0.130398  0.326317  0.804081  1
  Zn  Zn6  1  0.522237  0.326317  0.195919  1
  Pt  Pt7  1  0.281748  0.781748  0.500000  1
  Pt  Pt8  1  0.718252  0.218252  0.500000  1
  Pt  Pt9  1  0.798022  0.500000  0.298022  1
  Pt  Pt10  1  0.201978  0.500000  0.701978  1
