# generated using pymatgen
data_Dy6Er2Ta11TiSi15P
_symmetry_space_group_name_H-M   'P 1'
_cell_length_a   7.04414510
_cell_length_b   7.04031898
_cell_length_c   12.98205700
_cell_angle_alpha   89.95752654
_cell_angle_beta   90.00976871
_cell_angle_gamma   90.00645272
_symmetry_Int_Tables_number   1
_chemical_formula_structural   Dy6Er2Ta11TiSi15P
_chemical_formula_sum   'Dy6 Er2 Ta11 Ti1 Si15 P1'
_cell_volume   643.81933188
_cell_formula_units_Z   1
loop_
 _symmetry_equiv_pos_site_id
 _symmetry_equiv_pos_as_xyz
  1  'x, y, z'
loop_
 _atom_site_type_symbol
 _atom_site_label
 _atom_site_symmetry_multiplicity
 _atom_site_fract_x
 _atom_site_fract_y
 _atom_site_fract_z
 _atom_site_occupancy
  Dy  Dy0  1  0.341407  0.002070  0.468992  1
  Dy  Dy1  1  0.495877  0.844774  0.717785  1
  Dy  Dy2  1  0.501259  0.158466  0.218296  1
  Dy  Dy3  1  0.841692  0.497469  0.281971  1
  Dy  Dy4  1  0.158058  0.498264  0.780972  1
  Dy  Dy5  1  0.658808  0.997416  0.968212  1
  Er  Er6  1  0.002517  0.340870  0.532916  1
  Er  Er7  1  0.998591  0.659460  0.031164  1
  Ta  Ta8  1  0.328724  0.329237  0.999255  1
  Ta  Ta9  1  0.171071  0.828880  0.249967  1
  Ta  Ta10  1  0.828714  0.172918  0.749394  1
  Ta  Ta11  1  0.670381  0.669958  0.500008  1
  Ta  Ta12  1  0.154291  0.008957  0.871666  1
  Ta  Ta13  1  0.492617  0.652901  0.124051  1
  Ta  Ta14  1  0.504964  0.344740  0.624699  1
  Ta  Ta15  1  0.653629  0.494240  0.876293  1
  Ta  Ta16  1  0.347305  0.505774  0.376414  1
  Ta  Ta17  1  0.846475  0.991909  0.374640  1
  Ta  Ta18  1  0.007790  0.152652  0.125965  1
  Ti  Ti19  1  0.995684  0.848599  0.627104  1
  Si  Si20  1  0.365209  0.704483  0.931271  1
  Si  Si21  1  0.634318  0.295650  0.432608  1
  Si  Si22  1  0.704232  0.367086  0.068253  1
  Si  Si23  1  0.295377  0.633663  0.568231  1
  Si  Si24  1  0.796667  0.865466  0.181289  1
  Si  Si25  1  0.133914  0.203496  0.319129  1
  Si  Si26  1  0.866807  0.796519  0.817417  1
  Si  Si27  1  0.293519  0.954493  0.063195  1
  Si  Si28  1  0.544721  0.793892  0.313882  1
  Si  Si29  1  0.459266  0.207576  0.815890  1
  Si  Si30  1  0.794483  0.547082  0.684424  1
  Si  Si31  1  0.205636  0.455292  0.185949  1
  Si  Si32  1  0.709519  0.044004  0.564261  1
  Si  Si33  1  0.954507  0.294778  0.936545  1
  Si  Si34  1  0.044743  0.705766  0.437599  1
  P  P35  1  0.197219  0.131201  0.680291  1
