# generated using pymatgen
data_Y5Ho(SnIr)6
_symmetry_space_group_name_H-M   'P 1'
_cell_length_a   7.47739158
_cell_length_b   7.54281046
_cell_length_c   7.95524700
_cell_angle_alpha   90.00000000
_cell_angle_beta   90.00000000
_cell_angle_gamma   120.33491284
_symmetry_Int_Tables_number   1
_chemical_formula_structural   Y5Ho(SnIr)6
_chemical_formula_sum   'Y5 Ho1 Sn6 Ir6'
_cell_volume   387.25055178
_cell_formula_units_Z   1
loop_
 _symmetry_equiv_pos_site_id
 _symmetry_equiv_pos_as_xyz
  1  'x, y, z'
loop_
 _atom_site_type_symbol
 _atom_site_label
 _atom_site_symmetry_multiplicity
 _atom_site_fract_x
 _atom_site_fract_y
 _atom_site_fract_z
 _atom_site_occupancy
  Y  Y0  1  0.406604  0.005184  0.250000  1
  Y  Y1  1  0.596391  0.594346  0.750000  1
  Y  Y2  1  0.594722  0.596441  0.250000  1
  Y  Y3  1  0.001462  0.406126  0.750000  1
  Y  Y4  1  0.403158  0.996626  0.750000  1
  Ho  Ho5  1  0.998342  0.401538  0.250000  1
  Sn  Sn6  1  0.261242  0.259800  0.500918  1
  Sn  Sn7  1  0.261242  0.259800  0.999082  1
  Sn  Sn8  1  0.738380  0.997767  0.999401  1
  Sn  Sn9  1  0.000362  0.743768  0.496579  1
  Sn  Sn10  1  0.738380  0.997767  0.500599  1
  Sn  Sn11  1  0.000362  0.743768  0.003421  1
  Ir  Ir12  1  0.673046  0.334747  0.499305  1
  Ir  Ir13  1  0.673046  0.334747  0.000695  1
  Ir  Ir14  1  0.326752  0.661986  0.005117  1
  Ir  Ir15  1  0.326752  0.661986  0.494883  1
  Ir  Ir16  1  0.999837  0.999193  0.750000  1
  Ir  Ir17  1  0.999917  0.004408  0.250000  1
