# generated using pymatgen
data_Li4Pr3Sn3Bi
_symmetry_space_group_name_H-M   'P 1'
_cell_length_a   8.92865186
_cell_length_b   8.92865154
_cell_length_c   8.92865220
_cell_angle_alpha   149.24191135
_cell_angle_beta   131.41582224
_cell_angle_gamma   58.61050090
_symmetry_Int_Tables_number   1
_chemical_formula_structural   Li4Pr3Sn3Bi
_chemical_formula_sum   'Li4 Pr3 Sn3 Bi1'
_cell_volume   270.88047275
_cell_formula_units_Z   1
loop_
 _symmetry_equiv_pos_site_id
 _symmetry_equiv_pos_as_xyz
  1  'x, y, z'
loop_
 _atom_site_type_symbol
 _atom_site_label
 _atom_site_symmetry_multiplicity
 _atom_site_fract_x
 _atom_site_fract_y
 _atom_site_fract_z
 _atom_site_occupancy
  Li  Li0  1  0.643344  0.329274  0.314070  1
  Li  Li1  1  0.363912  0.671374  0.692539  1
  Li  Li2  1  0.015203  0.329274  0.685930  1
  Li  Li3  1  0.978836  0.671374  0.307461  1
  Pr  Pr4  1  0.374853  0.874853  0.500000  1
  Pr  Pr5  1  0.628700  0.128700  0.500000  1
  Pr  Pr6  1  0.997404  0.997404  0.000000  1
  Sn  Sn7  1  0.785017  0.785017  0.000000  1
  Sn  Sn8  1  0.696092  0.499621  0.196472  1
  Sn  Sn9  1  0.303149  0.499621  0.803528  1
  Bi  Bi10  1  0.213490  0.213490  0.000000  1
