# generated using pymatgen
data_Li2CeNdSi4
_symmetry_space_group_name_H-M   'P 1'
_cell_length_a   3.86625000
_cell_length_b   7.71736000
_cell_length_c   10.49630500
_cell_angle_alpha   90.00000000
_cell_angle_beta   90.00000000
_cell_angle_gamma   90.00000000
_symmetry_Int_Tables_number   1
_chemical_formula_structural   Li2CeNdSi4
_chemical_formula_sum   'Li4 Ce2 Nd2 Si8'
_cell_volume   313.18080394
_cell_formula_units_Z   2
loop_
 _symmetry_equiv_pos_site_id
 _symmetry_equiv_pos_as_xyz
  1  'x, y, z'
loop_
 _atom_site_type_symbol
 _atom_site_label
 _atom_site_symmetry_multiplicity
 _atom_site_fract_x
 _atom_site_fract_y
 _atom_site_fract_z
 _atom_site_occupancy
  Li  Li0  1  0.250000  0.991926  0.393975  1
  Li  Li1  1  0.250000  0.491926  0.106025  1
  Li  Li2  1  0.750000  0.006039  0.608252  1
  Li  Li3  1  0.750000  0.506039  0.891748  1
  Ce  Ce4  1  0.750000  0.861904  0.133915  1
  Ce  Ce5  1  0.750000  0.361904  0.366085  1
  Nd  Nd6  1  0.250000  0.138653  0.867581  1
  Nd  Nd7  1  0.250000  0.638653  0.632419  1
  Si  Si8  1  0.250000  0.233259  0.569602  1
  Si  Si9  1  0.250000  0.733259  0.930398  1
  Si  Si10  1  0.750000  0.770247  0.423811  1
  Si  Si11  1  0.750000  0.270247  0.076189  1
  Si  Si12  1  0.250000  0.661654  0.315955  1
  Si  Si13  1  0.250000  0.161654  0.184045  1
  Si  Si14  1  0.750000  0.336319  0.680766  1
  Si  Si15  1  0.750000  0.836319  0.819234  1
