# generated using pymatgen
data_Dy8NiAg2Rh
_symmetry_space_group_name_H-M   'P 1'
_cell_length_a   9.37544655
_cell_length_b   9.47482897
_cell_length_c   9.47482892
_cell_angle_alpha   60.90944085
_cell_angle_beta   60.34637159
_cell_angle_gamma   60.34637147
_symmetry_Int_Tables_number   1
_chemical_formula_structural   Dy8NiAg2Rh
_chemical_formula_sum   'Dy16 Ni2 Ag4 Rh2'
_cell_volume   602.28407562
_cell_formula_units_Z   2
loop_
 _symmetry_equiv_pos_site_id
 _symmetry_equiv_pos_as_xyz
  1  'x, y, z'
loop_
 _atom_site_type_symbol
 _atom_site_label
 _atom_site_symmetry_multiplicity
 _atom_site_fract_x
 _atom_site_fract_y
 _atom_site_fract_z
 _atom_site_occupancy
  Dy  Dy0  1  0.687485  0.312515  0.312515  1
  Dy  Dy1  1  0.691864  0.685552  0.311380  1
  Dy  Dy2  1  0.311203  0.685552  0.311380  1
  Dy  Dy3  1  0.937603  0.934584  0.564660  1
  Dy  Dy4  1  0.146662  0.150536  0.556139  1
  Dy  Dy5  1  0.563153  0.934584  0.564660  1
  Dy  Dy6  1  0.142400  0.150780  0.150780  1
  Dy  Dy7  1  0.311203  0.311380  0.685552  1
  Dy  Dy8  1  0.935444  0.564556  0.564556  1
  Dy  Dy9  1  0.563153  0.564660  0.934584  1
  Dy  Dy10  1  0.563169  0.936831  0.936831  1
  Dy  Dy11  1  0.937603  0.564660  0.934584  1
  Dy  Dy12  1  0.146662  0.556139  0.150536  1
  Dy  Dy13  1  0.312771  0.687229  0.687229  1
  Dy  Dy14  1  0.691864  0.311380  0.685552  1
  Dy  Dy15  1  0.556039  0.150780  0.150780  1
  Ni  Ni16  1  0.355173  0.357582  0.357582  1
  Ni  Ni17  1  0.929662  0.357582  0.357582  1
  Ag  Ag18  1  0.918508  0.917185  0.245800  1
  Ag  Ag19  1  0.246622  0.916963  0.916963  1
  Ag  Ag20  1  0.918508  0.245800  0.917185  1
  Ag  Ag21  1  0.919451  0.916963  0.916963  1
  Rh  Rh22  1  0.356899  0.355984  0.930220  1
  Rh  Rh23  1  0.356899  0.930220  0.355984  1
