# generated using pymatgen
data_CsAlZnSb2
_symmetry_space_group_name_H-M   'P 1'
_cell_length_a   4.41899159
_cell_length_b   4.41899215
_cell_length_c   8.78209632
_cell_angle_alpha   104.57167475
_cell_angle_beta   104.57167650
_cell_angle_gamma   89.99999739
_symmetry_Int_Tables_number   1
_chemical_formula_structural   CsAlZnSb2
_chemical_formula_sum   'Cs1 Al1 Zn1 Sb2'
_cell_volume   160.26998319
_cell_formula_units_Z   1
loop_
 _symmetry_equiv_pos_site_id
 _symmetry_equiv_pos_as_xyz
  1  'x, y, z'
loop_
 _atom_site_type_symbol
 _atom_site_label
 _atom_site_symmetry_multiplicity
 _atom_site_fract_x
 _atom_site_fract_y
 _atom_site_fract_z
 _atom_site_occupancy
  Cs  Cs0  1  0.000000  0.000000  0.000000  1
  Al  Al1  1  0.750000  0.250004  0.500002  1
  Zn  Zn2  1  0.250004  0.750000  0.500002  1
  Sb  Sb3  1  0.648059  0.648059  0.296121  1
  Sb  Sb4  1  0.351940  0.351940  0.703880  1
