# generated using pymatgen
data_FeBi6RuO14
_symmetry_space_group_name_H-M   'P 1'
_cell_length_a   6.55957560
_cell_length_b   6.88677265
_cell_length_c   7.62000116
_cell_angle_alpha   106.39261999
_cell_angle_beta   89.72074083
_cell_angle_gamma   102.34146403
_symmetry_Int_Tables_number   1
_chemical_formula_structural   FeBi6RuO14
_chemical_formula_sum   'Fe1 Bi6 Ru1 O14'
_cell_volume   322.03904042
_cell_formula_units_Z   1
loop_
 _symmetry_equiv_pos_site_id
 _symmetry_equiv_pos_as_xyz
  1  'x, y, z'
loop_
 _atom_site_type_symbol
 _atom_site_label
 _atom_site_symmetry_multiplicity
 _atom_site_fract_x
 _atom_site_fract_y
 _atom_site_fract_z
 _atom_site_occupancy
  Fe  Fe0  1  0.000000  0.000000  0.500000  1
  Bi  Bi1  1  0.537942  0.013523  0.731307  1
  Bi  Bi2  1  0.462058  0.986477  0.268693  1
  Bi  Bi3  1  0.265111  0.515699  0.871267  1
  Bi  Bi4  1  0.734889  0.484301  0.128733  1
  Bi  Bi5  1  0.760224  0.553649  0.627610  1
  Bi  Bi6  1  0.239776  0.446351  0.372390  1
  Ru  Ru7  1  0.000000  0.000000  0.000000  1
  O  O8  1  0.467993  0.634654  0.176466  1
  O  O9  1  0.532007  0.365346  0.823534  1
  O  O10  1  0.263838  0.940355  0.941440  1
  O  O11  1  0.736162  0.059645  0.058560  1
  O  O12  1  0.287099  0.949100  0.519617  1
  O  O13  1  0.712901  0.050900  0.480383  1
  O  O14  1  0.536091  0.342549  0.356002  1
  O  O15  1  0.463909  0.657451  0.643998  1
  O  O16  1  0.898919  0.704272  0.971372  1
  O  O17  1  0.101081  0.295728  0.028628  1
  O  O18  1  0.099732  0.317846  0.610016  1
  O  O19  1  0.900268  0.682154  0.389984  1
  O  O20  1  0.900120  0.925352  0.737971  1
  O  O21  1  0.099880  0.074648  0.262029  1
