# generated using pymatgen
data_Er18Tm2HgBi11
_symmetry_space_group_name_H-M   'P 1'
_cell_length_a   8.18062780
_cell_length_b   9.44557403
_cell_length_c   11.95369473
_cell_angle_alpha   90.00817775
_cell_angle_beta   89.60158271
_cell_angle_gamma   89.99542247
_symmetry_Int_Tables_number   1
_chemical_formula_structural   Er18Tm2HgBi11
_chemical_formula_sum   'Er18 Tm2 Hg1 Bi11'
_cell_volume   923.64832032
_cell_formula_units_Z   1
loop_
 _symmetry_equiv_pos_site_id
 _symmetry_equiv_pos_as_xyz
  1  'x, y, z'
loop_
 _atom_site_type_symbol
 _atom_site_label
 _atom_site_symmetry_multiplicity
 _atom_site_fract_x
 _atom_site_fract_y
 _atom_site_fract_z
 _atom_site_occupancy
  Er  Er0  1  0.033564  0.250103  0.508588  1
  Er  Er1  1  0.978142  0.749949  0.489385  1
  Er  Er2  1  0.475346  0.750014  0.010590  1
  Er  Er3  1  0.525283  0.250027  0.989711  1
  Er  Er4  1  0.355828  0.250101  0.289870  1
  Er  Er5  1  0.647213  0.749998  0.716518  1
  Er  Er6  1  0.148942  0.749960  0.783639  1
  Er  Er7  1  0.853630  0.250099  0.215181  1
  Er  Er8  1  0.191261  0.250027  0.779920  1
  Er  Er9  1  0.810000  0.749976  0.217214  1
  Er  Er10  1  0.313009  0.749974  0.281705  1
  Er  Er11  1  0.679563  0.250043  0.713420  1
  Er  Er12  1  0.192829  0.065382  0.060414  1
  Er  Er13  1  0.806998  0.934515  0.940768  1
  Er  Er14  1  0.307376  0.945726  0.559773  1
  Er  Er15  1  0.806967  0.565468  0.940762  1
  Er  Er16  1  0.688068  0.069246  0.443897  1
  Er  Er17  1  0.192830  0.434631  0.060418  1
  Tm  Tm18  1  0.688016  0.430521  0.443877  1
  Tm  Tm19  1  0.307434  0.554211  0.559759  1
  Hg  Hg20  1  0.406020  0.250429  0.540980  1
  Bi  Bi21  1  0.593834  0.749632  0.457410  1
  Bi  Bi22  1  0.094442  0.749983  0.042923  1
  Bi  Bi23  1  0.906250  0.249991  0.954769  1
  Bi  Bi24  1  0.062732  0.002479  0.323656  1
  Bi  Bi25  1  0.935495  0.996990  0.675471  1
  Bi  Bi26  1  0.435672  0.996763  0.825668  1
  Bi  Bi27  1  0.935535  0.503010  0.675419  1
  Bi  Bi28  1  0.564685  0.003765  0.174494  1
  Bi  Bi29  1  0.062694  0.497506  0.323671  1
  Bi  Bi30  1  0.564662  0.496255  0.174503  1
  Bi  Bi31  1  0.435682  0.503226  0.825629  1
