# generated using pymatgen
data_Dy10TcIr2Rh
_symmetry_space_group_name_H-M   'P 1'
_cell_length_a   6.44913583
_cell_length_b   7.27265382
_cell_length_c   8.54578144
_cell_angle_alpha   96.57254447
_cell_angle_beta   112.72559709
_cell_angle_gamma   90.04675394
_symmetry_Int_Tables_number   1
_chemical_formula_structural   Dy10TcIr2Rh
_chemical_formula_sum   'Dy10 Tc1 Ir2 Rh1'
_cell_volume   366.82627413
_cell_formula_units_Z   1
loop_
 _symmetry_equiv_pos_site_id
 _symmetry_equiv_pos_as_xyz
  1  'x, y, z'
loop_
 _atom_site_type_symbol
 _atom_site_label
 _atom_site_symmetry_multiplicity
 _atom_site_fract_x
 _atom_site_fract_y
 _atom_site_fract_z
 _atom_site_occupancy
  Dy  Dy0  1  0.789516  0.083050  0.811640  1
  Dy  Dy1  1  0.973960  0.417247  0.178670  1
  Dy  Dy2  1  0.206991  0.915256  0.184347  1
  Dy  Dy3  1  0.024044  0.582466  0.812756  1
  Dy  Dy4  1  0.214882  0.185446  0.564253  1
  Dy  Dy5  1  0.646271  0.316804  0.439683  1
  Dy  Dy6  1  0.788730  0.815119  0.437962  1
  Dy  Dy7  1  0.351695  0.682966  0.563635  1
  Dy  Dy8  1  0.424548  0.249653  0.999705  1
  Dy  Dy9  1  0.573888  0.749188  0.999241  1
  Tc  Tc10  1  0.610462  0.427629  0.786486  1
  Ir  Ir11  1  0.396272  0.576436  0.220309  1
  Ir  Ir12  1  0.173558  0.925422  0.776626  1
  Rh  Rh13  1  0.825185  0.073316  0.224689  1
