# generated using pymatgen
data_Sc2AlOs2Ru
_symmetry_space_group_name_H-M   'P 1'
_cell_length_a   5.20123478
_cell_length_b   5.14367419
_cell_length_c   8.61196100
_cell_angle_alpha   90.00000000
_cell_angle_beta   90.00000000
_cell_angle_gamma   119.63460392
_symmetry_Int_Tables_number   1
_chemical_formula_structural   Sc2AlOs2Ru
_chemical_formula_sum   'Sc4 Al2 Os4 Ru2'
_cell_volume   200.26262745
_cell_formula_units_Z   2
loop_
 _symmetry_equiv_pos_site_id
 _symmetry_equiv_pos_as_xyz
  1  'x, y, z'
loop_
 _atom_site_type_symbol
 _atom_site_label
 _atom_site_symmetry_multiplicity
 _atom_site_fract_x
 _atom_site_fract_y
 _atom_site_fract_z
 _atom_site_occupancy
  Sc  Sc0  1  0.330838  0.666716  0.062697  1
  Sc  Sc1  1  0.669162  0.335877  0.562697  1
  Sc  Sc2  1  0.330838  0.666716  0.437303  1
  Sc  Sc3  1  0.669162  0.335877  0.937303  1
  Al  Al4  1  0.834934  0.170234  0.250000  1
  Al  Al5  1  0.165066  0.335301  0.750000  1
  Os  Os6  1  0.829467  0.660175  0.250000  1
  Os  Os7  1  0.170533  0.830710  0.750000  1
  Os  Os8  1  0.647601  0.828992  0.750000  1
  Os  Os9  1  0.352399  0.181390  0.250000  1
  Ru  Ru10  1  0.000000  0.994007  0.500000  1
  Ru  Ru11  1  0.000000  0.994007  0.000000  1
