# generated using pymatgen
data_Tm10InSn5
_symmetry_space_group_name_H-M   'P 1'
_cell_length_a   6.48253200
_cell_length_b   8.84503641
_cell_length_c   8.84175668
_cell_angle_alpha   120.01226560
_cell_angle_beta   89.99996935
_cell_angle_gamma   90.00006419
_symmetry_Int_Tables_number   1
_chemical_formula_structural   Tm10InSn5
_chemical_formula_sum   'Tm10 In1 Sn5'
_cell_volume   438.99522341
_cell_formula_units_Z   1
loop_
 _symmetry_equiv_pos_site_id
 _symmetry_equiv_pos_as_xyz
  1  'x, y, z'
loop_
 _atom_site_type_symbol
 _atom_site_label
 _atom_site_symmetry_multiplicity
 _atom_site_fract_x
 _atom_site_fract_y
 _atom_site_fract_z
 _atom_site_occupancy
  Tm  Tm0  1  0.500889  0.333769  0.667160  1
  Tm  Tm1  1  0.500889  0.666608  0.332840  1
  Tm  Tm2  1  0.999109  0.666623  0.332839  1
  Tm  Tm3  1  0.999109  0.333785  0.667161  1
  Tm  Tm4  1  0.750003  0.239016  0.000000  1
  Tm  Tm5  1  0.749999  0.760863  0.762197  1
  Tm  Tm6  1  0.749999  0.998666  0.237803  1
  Tm  Tm7  1  0.250003  0.761540  0.000000  1
  Tm  Tm8  1  0.250000  0.238758  0.238579  1
  Tm  Tm9  1  0.250000  0.000179  0.761421  1
  In  In10  1  0.749997  0.604498  0.000000  1
  Sn  Sn11  1  0.750003  0.394647  0.394648  1
  Sn  Sn12  1  0.750003  0.999999  0.605352  1
  Sn  Sn13  1  0.249997  0.395054  0.000000  1
  Sn  Sn14  1  0.249999  0.605376  0.604759  1
  Sn  Sn15  1  0.249999  0.000617  0.395241  1
