# generated using pymatgen
data_KYbDy2CuS5
_symmetry_space_group_name_H-M   'P 1'
_cell_length_a   3.88973600
_cell_length_b   6.99203223
_cell_length_c   16.95105500
_cell_angle_alpha   90.00000000
_cell_angle_beta   90.00000000
_cell_angle_gamma   73.84987748
_symmetry_Int_Tables_number   1
_chemical_formula_structural   KYbDy2CuS5
_chemical_formula_sum   'K2 Yb2 Dy4 Cu2 S10'
_cell_volume   442.82691901
_cell_formula_units_Z   2
loop_
 _symmetry_equiv_pos_site_id
 _symmetry_equiv_pos_as_xyz
  1  'x, y, z'
loop_
 _atom_site_type_symbol
 _atom_site_label
 _atom_site_symmetry_multiplicity
 _atom_site_fract_x
 _atom_site_fract_y
 _atom_site_fract_z
 _atom_site_occupancy
  K  K0  1  0.522247  0.955508  0.250000  1
  K  K1  1  0.477754  0.044492  0.750000  1
  Yb  Yb2  1  0.000000  0.000000  0.000000  1
  Yb  Yb3  1  0.000000  0.000000  0.500000  1
  Dy  Dy4  1  0.269995  0.460009  0.103008  1
  Dy  Dy5  1  0.269995  0.460009  0.396992  1
  Dy  Dy6  1  0.730006  0.539991  0.603008  1
  Dy  Dy7  1  0.730006  0.539991  0.896993  1
  Cu  Cu8  1  0.796811  0.406379  0.250000  1
  Cu  Cu9  1  0.203190  0.593620  0.750000  1
  S  S10  1  0.639993  0.720016  0.047320  1
  S  S11  1  0.898990  0.202020  0.139666  1
  S  S12  1  0.198333  0.603335  0.250000  1
  S  S13  1  0.898990  0.202020  0.360334  1
  S  S14  1  0.639993  0.720016  0.452681  1
  S  S15  1  0.360008  0.279984  0.547319  1
  S  S16  1  0.101010  0.797980  0.639666  1
  S  S17  1  0.801668  0.396665  0.750000  1
  S  S18  1  0.101010  0.797980  0.860334  1
  S  S19  1  0.360008  0.279984  0.952681  1
