# generated using pymatgen
data_Tm2Np(GaRu)3
_symmetry_space_group_name_H-M   'P 1'
_cell_length_a   6.85518428
_cell_length_b   6.85518528
_cell_length_c   3.93615700
_cell_angle_alpha   90.00000000
_cell_angle_beta   90.00000000
_cell_angle_gamma   116.47425597
_symmetry_Int_Tables_number   1
_chemical_formula_structural   Tm2Np(GaRu)3
_chemical_formula_sum   'Tm2 Np1 Ga3 Ru3'
_cell_volume   165.57667754
_cell_formula_units_Z   1
loop_
 _symmetry_equiv_pos_site_id
 _symmetry_equiv_pos_as_xyz
  1  'x, y, z'
loop_
 _atom_site_type_symbol
 _atom_site_label
 _atom_site_symmetry_multiplicity
 _atom_site_fract_x
 _atom_site_fract_y
 _atom_site_fract_z
 _atom_site_occupancy
  Tm  Tm0  1  0.412446  0.007487  0.500000  1
  Tm  Tm1  1  0.007487  0.412446  0.500000  1
  Np  Np2  1  0.611067  0.611067  0.500000  1
  Ga  Ga3  1  0.742698  0.034100  0.000000  1
  Ga  Ga4  1  0.034100  0.742698  0.000000  1
  Ga  Ga5  1  0.212037  0.212037  0.000000  1
  Ru  Ru6  1  0.381373  0.640499  0.000000  1
  Ru  Ru7  1  0.640499  0.381373  0.000000  1
  Ru  Ru8  1  0.958294  0.958294  0.500000  1
