# generated using pymatgen
data_Ho3VB7
_symmetry_space_group_name_H-M   'P 1'
_cell_length_a   8.10726611
_cell_length_b   8.10726536
_cell_length_c   9.39391600
_cell_angle_alpha   90.00000000
_cell_angle_beta   90.00000000
_cell_angle_gamma   155.61481521
_symmetry_Int_Tables_number   1
_chemical_formula_structural   Ho3VB7
_chemical_formula_sum   'Ho6 V2 B14'
_cell_volume   254.92222366
_cell_formula_units_Z   2
loop_
 _symmetry_equiv_pos_site_id
 _symmetry_equiv_pos_as_xyz
  1  'x, y, z'
loop_
 _atom_site_type_symbol
 _atom_site_label
 _atom_site_symmetry_multiplicity
 _atom_site_fract_x
 _atom_site_fract_y
 _atom_site_fract_z
 _atom_site_occupancy
  Ho  Ho0  1  0.894264  0.105736  0.441014  1
  Ho  Ho1  1  0.105736  0.894264  0.558986  1
  Ho  Ho2  1  0.894264  0.105736  0.058986  1
  Ho  Ho3  1  0.105736  0.894264  0.941014  1
  Ho  Ho4  1  0.242383  0.757617  0.250000  1
  Ho  Ho5  1  0.757617  0.242383  0.750000  1
  V  V6  1  0.052646  0.947354  0.250000  1
  V  V7  1  0.947354  0.052646  0.750000  1
  B  B8  1  0.727127  0.272873  0.468590  1
  B  B9  1  0.272873  0.727127  0.531410  1
  B  B10  1  0.727127  0.272873  0.031410  1
  B  B11  1  0.272873  0.727127  0.968590  1
  B  B12  1  0.632333  0.367667  0.149656  1
  B  B13  1  0.367667  0.632333  0.850344  1
  B  B14  1  0.632333  0.367667  0.350344  1
  B  B15  1  0.367667  0.632333  0.649656  1
  B  B16  1  0.520657  0.479343  0.094791  1
  B  B17  1  0.479343  0.520657  0.905209  1
  B  B18  1  0.520657  0.479343  0.405209  1
  B  B19  1  0.479343  0.520657  0.594791  1
  B  B20  1  0.457882  0.542118  0.250000  1
  B  B21  1  0.542118  0.457882  0.750000  1
