# generated using pymatgen
data_PrGd5(WO7)2
_symmetry_space_group_name_H-M   'P 1'
_cell_length_a   6.57459763
_cell_length_b   6.57459746
_cell_length_c   7.63141393
_cell_angle_alpha   89.95384442
_cell_angle_beta   90.04615230
_cell_angle_gamma   109.25961179
_symmetry_Int_Tables_number   1
_chemical_formula_structural   PrGd5(WO7)2
_chemical_formula_sum   'Pr1 Gd5 W2 O14'
_cell_volume   311.40862902
_cell_formula_units_Z   1
loop_
 _symmetry_equiv_pos_site_id
 _symmetry_equiv_pos_as_xyz
  1  'x, y, z'
loop_
 _atom_site_type_symbol
 _atom_site_label
 _atom_site_symmetry_multiplicity
 _atom_site_fract_x
 _atom_site_fract_y
 _atom_site_fract_z
 _atom_site_occupancy
  Pr  Pr0  1  0.507430  0.507430  0.250000  1
  Gd  Gd1  1  0.482766  0.482766  0.750000  1
  Gd  Gd2  1  0.998774  0.467716  0.500110  1
  Gd  Gd3  1  0.532946  0.000419  0.504301  1
  Gd  Gd4  1  0.000419  0.532946  0.995699  1
  Gd  Gd5  1  0.467716  0.998774  0.999890  1
  W  W6  1  0.000565  0.000565  0.250000  1
  W  W7  1  0.999420  0.999420  0.750000  1
  O  O8  1  0.069541  0.317358  0.218974  1
  O  O9  1  0.685251  0.934332  0.781256  1
  O  O10  1  0.934332  0.685251  0.718744  1
  O  O11  1  0.317358  0.069541  0.281026  1
  O  O12  1  0.679613  0.924814  0.222080  1
  O  O13  1  0.078310  0.321058  0.777673  1
  O  O14  1  0.321058  0.078310  0.722327  1
  O  O15  1  0.924814  0.679613  0.277920  1
  O  O16  1  0.366689  0.632774  0.507302  1
  O  O17  1  0.632774  0.366689  0.992698  1
  O  O18  1  0.361652  0.638178  0.993037  1
  O  O19  1  0.638178  0.361652  0.506963  1
  O  O20  1  0.930416  0.069977  0.499833  1
  O  O21  1  0.069977  0.930416  0.000167  1
