# generated using pymatgen
data_Y6Al24Ir3Os4Pt
_symmetry_space_group_name_H-M   'P 1'
_cell_length_a   8.83678484
_cell_length_b   8.81482209
_cell_length_c   9.56733061
_cell_angle_alpha   90.00000033
_cell_angle_beta   90.11999796
_cell_angle_gamma   119.91780175
_symmetry_Int_Tables_number   1
_chemical_formula_structural   Y6Al24Ir3Os4Pt
_chemical_formula_sum   'Y6 Al24 Ir3 Os4 Pt1'
_cell_volume   645.93244768
_cell_formula_units_Z   1
loop_
 _symmetry_equiv_pos_site_id
 _symmetry_equiv_pos_as_xyz
  1  'x, y, z'
loop_
 _atom_site_type_symbol
 _atom_site_label
 _atom_site_symmetry_multiplicity
 _atom_site_fract_x
 _atom_site_fract_y
 _atom_site_fract_z
 _atom_site_occupancy
  Y  Y0  1  0.193403  0.384036  0.250415  1
  Y  Y1  1  0.806597  0.615964  0.749585  1
  Y  Y2  1  0.612081  0.806041  0.250305  1
  Y  Y3  1  0.387919  0.193959  0.749695  1
  Y  Y4  1  0.193403  0.809367  0.250415  1
  Y  Y5  1  0.806597  0.190633  0.749585  1
  Al  Al6  1  0.332004  0.666002  0.028593  1
  Al  Al7  1  0.667996  0.333998  0.971407  1
  Al  Al8  1  0.662638  0.331318  0.527262  1
  Al  Al9  1  0.337362  0.668682  0.472738  1
  Al  Al10  1  0.168947  0.326546  0.577002  1
  Al  Al11  1  0.831053  0.673454  0.422998  1
  Al  Al12  1  0.671656  0.835827  0.575756  1
  Al  Al13  1  0.836148  0.672525  0.075820  1
  Al  Al14  1  0.328344  0.164173  0.424244  1
  Al  Al15  1  0.163852  0.327475  0.924180  1
  Al  Al16  1  0.168947  0.842401  0.577002  1
  Al  Al17  1  0.327500  0.163750  0.075873  1
  Al  Al18  1  0.831053  0.157599  0.422998  1
  Al  Al19  1  0.672500  0.836250  0.924127  1
  Al  Al20  1  0.836148  0.163623  0.075820  1
  Al  Al21  1  0.163852  0.836377  0.924180  1
  Al  Al22  1  0.561065  0.124324  0.250418  1
  Al  Al23  1  0.438935  0.875676  0.749582  1
  Al  Al24  1  0.874050  0.437025  0.247132  1
  Al  Al25  1  0.125950  0.562975  0.752868  1
  Al  Al26  1  0.561065  0.436741  0.250418  1
  Al  Al27  1  0.438935  0.563259  0.749582  1
  Al  Al28  1  0.000167  0.000084  0.249951  1
  Al  Al29  1  0.999833  0.999916  0.750049  1
  Ir  Ir30  1  0.500000  0.000000  0.000000  1
  Ir  Ir31  1  0.000000  0.500000  0.000000  1
  Ir  Ir32  1  0.500000  0.500000  0.000000  1
  Os  Os33  1  0.500000  0.000000  0.500000  1
  Os  Os34  1  0.500000  0.500000  0.500000  1
  Os  Os35  1  0.000000  0.000000  0.000000  1
  Os  Os36  1  0.000000  0.000000  0.500000  1
  Pt  Pt37  1  0.000000  0.500000  0.500000  1
