# generated using pymatgen
data_Sc5(GaSb)2
_symmetry_space_group_name_H-M   'P 1'
_cell_length_a   8.13684986
_cell_length_b   8.13684911
_cell_length_c   7.47167500
_cell_angle_alpha   90.00000000
_cell_angle_beta   90.00000000
_cell_angle_gamma   125.20927541
_symmetry_Int_Tables_number   1
_chemical_formula_structural   Sc5(GaSb)2
_chemical_formula_sum   'Sc10 Ga4 Sb4'
_cell_volume   404.18482832
_cell_formula_units_Z   2
loop_
 _symmetry_equiv_pos_site_id
 _symmetry_equiv_pos_as_xyz
  1  'x, y, z'
loop_
 _atom_site_type_symbol
 _atom_site_label
 _atom_site_symmetry_multiplicity
 _atom_site_fract_x
 _atom_site_fract_y
 _atom_site_fract_z
 _atom_site_occupancy
  Sc  Sc0  1  0.041279  0.298902  0.331276  1
  Sc  Sc1  1  0.958721  0.701098  0.668724  1
  Sc  Sc2  1  0.458721  0.201098  0.831276  1
  Sc  Sc3  1  0.798902  0.541279  0.168724  1
  Sc  Sc4  1  0.541279  0.798902  0.168724  1
  Sc  Sc5  1  0.201098  0.458721  0.831276  1
  Sc  Sc6  1  0.701098  0.958721  0.668724  1
  Sc  Sc7  1  0.298902  0.041279  0.331276  1
  Sc  Sc8  1  0.000000  0.000000  0.000000  1
  Sc  Sc9  1  0.500000  0.500000  0.500000  1
  Ga  Ga10  1  0.372595  0.372595  0.126632  1
  Ga  Ga11  1  0.627405  0.627405  0.873368  1
  Ga  Ga12  1  0.127405  0.127405  0.626632  1
  Ga  Ga13  1  0.872595  0.872595  0.373368  1
  Sb  Sb14  1  0.793575  0.206425  0.000000  1
  Sb  Sb15  1  0.206425  0.793575  0.000000  1
  Sb  Sb16  1  0.706425  0.293575  0.500000  1
  Sb  Sb17  1  0.293575  0.706425  0.500000  1
