# generated using pymatgen
data_Dy3P6Ir8W
_symmetry_space_group_name_H-M   'P 1'
_cell_length_a   3.99459900
_cell_length_b   11.12447300
_cell_length_c   12.83510500
_cell_angle_alpha   90.00000000
_cell_angle_beta   90.00000000
_cell_angle_gamma   90.00000000
_symmetry_Int_Tables_number   1
_chemical_formula_structural   Dy3P6Ir8W
_chemical_formula_sum   'Dy6 P12 Ir16 W2'
_cell_volume   570.36394091
_cell_formula_units_Z   2
loop_
 _symmetry_equiv_pos_site_id
 _symmetry_equiv_pos_as_xyz
  1  'x, y, z'
loop_
 _atom_site_type_symbol
 _atom_site_label
 _atom_site_symmetry_multiplicity
 _atom_site_fract_x
 _atom_site_fract_y
 _atom_site_fract_z
 _atom_site_occupancy
  Dy  Dy0  1  0.000000  0.500000  0.522556  1
  Dy  Dy1  1  0.500000  0.000000  0.477444  1
  Dy  Dy2  1  0.500000  0.818965  0.203711  1
  Dy  Dy3  1  0.500000  0.181035  0.203711  1
  Dy  Dy4  1  0.000000  0.681035  0.796289  1
  Dy  Dy5  1  0.000000  0.318965  0.796289  1
  P  P6  1  0.500000  0.500000  0.873534  1
  P  P7  1  0.000000  0.000000  0.126466  1
  P  P8  1  0.500000  0.500000  0.347327  1
  P  P9  1  0.000000  0.000000  0.652673  1
  P  P10  1  0.500000  0.314487  0.617495  1
  P  P11  1  0.500000  0.685513  0.617495  1
  P  P12  1  0.000000  0.185513  0.382505  1
  P  P13  1  0.000000  0.814487  0.382505  1
  P  P14  1  0.500000  0.845080  0.885571  1
  P  P15  1  0.500000  0.154920  0.885571  1
  P  P16  1  0.000000  0.654920  0.114429  1
  P  P17  1  0.000000  0.345080  0.114429  1
  Ir  Ir18  1  0.500000  0.500000  0.696804  1
  Ir  Ir19  1  0.000000  0.000000  0.303196  1
  Ir  Ir20  1  0.000000  0.500000  0.996000  1
  Ir  Ir21  1  0.500000  0.000000  0.004000  1
  Ir  Ir22  1  0.500000  0.331649  0.979957  1
  Ir  Ir23  1  0.500000  0.668351  0.979957  1
  Ir  Ir24  1  0.000000  0.168351  0.020043  1
  Ir  Ir25  1  0.000000  0.831649  0.020043  1
  Ir  Ir26  1  0.500000  0.298018  0.432067  1
  Ir  Ir27  1  0.500000  0.701982  0.432067  1
  Ir  Ir28  1  0.000000  0.201982  0.567933  1
  Ir  Ir29  1  0.000000  0.798018  0.567933  1
  Ir  Ir30  1  0.500000  0.872332  0.710458  1
  Ir  Ir31  1  0.500000  0.127668  0.710458  1
  Ir  Ir32  1  0.000000  0.627668  0.289542  1
  Ir  Ir33  1  0.000000  0.372332  0.289542  1
  W  W34  1  0.500000  0.500000  0.159500  1
  W  W35  1  0.000000  0.000000  0.840500  1
