# generated using pymatgen
data_La6TbHoSb20
_symmetry_space_group_name_H-M   'P 1'
_cell_length_a   4.32593800
_cell_length_b   13.66066229
_cell_length_c   15.26812358
_cell_angle_alpha   78.12918229
_cell_angle_beta   90.00000000
_cell_angle_gamma   90.00000000
_symmetry_Int_Tables_number   1
_chemical_formula_structural   La6TbHoSb20
_chemical_formula_sum   'La6 Tb1 Ho1 Sb20'
_cell_volume   882.97637755
_cell_formula_units_Z   1
loop_
 _symmetry_equiv_pos_site_id
 _symmetry_equiv_pos_as_xyz
  1  'x, y, z'
loop_
 _atom_site_type_symbol
 _atom_site_label
 _atom_site_symmetry_multiplicity
 _atom_site_fract_x
 _atom_site_fract_y
 _atom_site_fract_z
 _atom_site_occupancy
  La  La0  1  0.750000  0.334124  0.142403  1
  La  La1  1  0.250000  0.947613  0.364249  1
  La  La2  1  0.250000  0.665739  0.857427  1
  La  La3  1  0.250000  0.666570  0.577848  1
  La  La4  1  0.750000  0.052462  0.635727  1
  La  La5  1  0.750000  0.333336  0.422348  1
  Tb  Tb6  1  0.750000  0.603313  0.227700  1
  Ho  Ho7  1  0.250000  0.397052  0.772295  1
  Sb  Sb8  1  0.750000  0.855551  0.817451  1
  Sb  Sb9  1  0.250000  0.862894  0.675685  1
  Sb  Sb10  1  0.250000  0.145141  0.475076  1
  Sb  Sb11  1  0.750000  0.287465  0.932908  1
  Sb  Sb12  1  0.250000  0.149029  0.781733  1
  Sb  Sb13  1  0.750000  0.575882  0.439561  1
  Sb  Sb14  1  0.750000  0.137095  0.324314  1
  Sb  Sb15  1  0.250000  0.703633  0.351738  1
  Sb  Sb16  1  0.750000  0.296485  0.648565  1
  Sb  Sb17  1  0.750000  0.851347  0.218277  1
  Sb  Sb18  1  0.250000  0.419846  0.970858  1
  Sb  Sb19  1  0.250000  0.424151  0.560888  1
  Sb  Sb20  1  0.750000  0.569455  0.738207  1
  Sb  Sb21  1  0.250000  0.429732  0.261957  1
  Sb  Sb22  1  0.750000  0.854850  0.524916  1
  Sb  Sb23  1  0.750000  0.035489  0.887284  1
  Sb  Sb24  1  0.250000  0.712618  0.066691  1
  Sb  Sb25  1  0.250000  0.964546  0.112736  1
  Sb  Sb26  1  0.250000  0.144417  0.182539  1
  Sb  Sb27  1  0.750000  0.580166  0.028618  1
