# generated using pymatgen
data_Ce2DyEr5(ReB6)4
_symmetry_space_group_name_H-M   'P 1'
_cell_length_a   3.69214500
_cell_length_b   9.16494328
_cell_length_c   11.55027906
_cell_angle_alpha   90.11468162
_cell_angle_beta   90.00000000
_cell_angle_gamma   90.00000000
_symmetry_Int_Tables_number   1
_chemical_formula_structural   Ce2DyEr5(ReB6)4
_chemical_formula_sum   'Ce2 Dy1 Er5 Re4 B24'
_cell_volume   390.84101919
_cell_formula_units_Z   1
loop_
 _symmetry_equiv_pos_site_id
 _symmetry_equiv_pos_as_xyz
  1  'x, y, z'
loop_
 _atom_site_type_symbol
 _atom_site_label
 _atom_site_symmetry_multiplicity
 _atom_site_fract_x
 _atom_site_fract_y
 _atom_site_fract_z
 _atom_site_occupancy
  Ce  Ce0  1  0.000000  0.321928  0.413636  1
  Ce  Ce1  1  0.000000  0.678051  0.586356  1
  Dy  Dy2  1  0.000000  0.823985  0.085485  1
  Er  Er3  1  0.000000  0.175937  0.914500  1
  Er  Er4  1  0.000000  0.943801  0.370262  1
  Er  Er5  1  0.000000  0.056370  0.629733  1
  Er  Er6  1  0.000000  0.443038  0.128395  1
  Er  Er7  1  0.000000  0.556686  0.871551  1
  Re  Re8  1  0.000000  0.638278  0.321389  1
  Re  Re9  1  0.000000  0.361738  0.678891  1
  Re  Re10  1  0.000000  0.139468  0.179584  1
  Re  Re11  1  0.000000  0.860845  0.820276  1
  B  B12  1  0.500000  0.554365  0.431289  1
  B  B13  1  0.500000  0.445398  0.568671  1
  B  B14  1  0.500000  0.053724  0.066500  1
  B  B15  1  0.500000  0.946761  0.933293  1
  B  B16  1  0.500000  0.749915  0.417172  1
  B  B17  1  0.500000  0.250078  0.582777  1
  B  B18  1  0.500000  0.249050  0.080261  1
  B  B19  1  0.500000  0.750950  0.919338  1
  B  B20  1  0.500000  0.792343  0.264770  1
  B  B21  1  0.500000  0.207485  0.735515  1
  B  B22  1  0.500000  0.291409  0.233272  1
  B  B23  1  0.500000  0.708623  0.766729  1
  B  B24  1  0.500000  0.631017  0.184723  1
  B  B25  1  0.500000  0.368645  0.815485  1
  B  B26  1  0.500000  0.130691  0.313437  1
  B  B27  1  0.500000  0.869497  0.686646  1
  B  B28  1  0.500000  0.982564  0.211501  1
  B  B29  1  0.500000  0.017954  0.788629  1
  B  B30  1  0.500000  0.483372  0.286388  1
  B  B31  1  0.500000  0.516371  0.713676  1
  B  B32  1  0.500000  0.601102  0.028167  1
  B  B33  1  0.500000  0.398401  0.971724  1
  B  B34  1  0.500000  0.101624  0.471703  1
  B  B35  1  0.500000  0.898533  0.528276  1
