# generated using pymatgen
data_La3InHg2Pt3
_symmetry_space_group_name_H-M   'P 1'
_cell_length_a   7.97009045
_cell_length_b   7.87573474
_cell_length_c   4.01490900
_cell_angle_alpha   90.00000000
_cell_angle_beta   90.00000000
_cell_angle_gamma   119.60914450
_symmetry_Int_Tables_number   1
_chemical_formula_structural   La3InHg2Pt3
_chemical_formula_sum   'La3 In1 Hg2 Pt3'
_cell_volume   219.10773406
_cell_formula_units_Z   1
loop_
 _symmetry_equiv_pos_site_id
 _symmetry_equiv_pos_as_xyz
  1  'x, y, z'
loop_
 _atom_site_type_symbol
 _atom_site_label
 _atom_site_symmetry_multiplicity
 _atom_site_fract_x
 _atom_site_fract_y
 _atom_site_fract_z
 _atom_site_occupancy
  La  La0  1  0.410493  0.407575  0.500000  1
  La  La1  1  0.000000  0.600724  0.500000  1
  La  La2  1  0.589507  0.997082  0.500000  1
  In  In3  1  0.000000  0.252432  0.000000  1
  Hg  Hg4  1  0.741859  0.743856  0.000000  1
  Hg  Hg5  1  0.258141  0.001996  0.000000  1
  Pt  Pt6  1  0.678336  0.329785  0.000000  1
  Pt  Pt7  1  0.321664  0.651449  0.000000  1
  Pt  Pt8  1  0.000000  0.015102  0.500000  1
