# generated using pymatgen
data_La8Tl3Rh
_symmetry_space_group_name_H-M   'P 1'
_cell_length_a   11.09007100
_cell_length_b   11.09006920
_cell_length_c   7.25530400
_cell_angle_alpha   90.00000000
_cell_angle_beta   90.00000000
_cell_angle_gamma   119.99999643
_symmetry_Int_Tables_number   1
_chemical_formula_structural   La8Tl3Rh
_chemical_formula_sum   'La16 Tl6 Rh2'
_cell_volume   772.77816786
_cell_formula_units_Z   2
loop_
 _symmetry_equiv_pos_site_id
 _symmetry_equiv_pos_as_xyz
  1  'x, y, z'
loop_
 _atom_site_type_symbol
 _atom_site_label
 _atom_site_symmetry_multiplicity
 _atom_site_fract_x
 _atom_site_fract_y
 _atom_site_fract_z
 _atom_site_occupancy
  La  La0  1  0.535888  0.071775  0.786333  1
  La  La1  1  0.928225  0.464112  0.786333  1
  La  La2  1  0.535888  0.464112  0.786333  1
  La  La3  1  0.464112  0.928225  0.286333  1
  La  La4  1  0.071775  0.535888  0.286333  1
  La  La5  1  0.464112  0.535888  0.286333  1
  La  La6  1  0.824255  0.648511  0.508466  1
  La  La7  1  0.351489  0.175745  0.508466  1
  La  La8  1  0.824255  0.175745  0.508466  1
  La  La9  1  0.175745  0.351489  0.008466  1
  La  La10  1  0.648511  0.824255  0.008466  1
  La  La11  1  0.175745  0.824255  0.008466  1
  La  La12  1  0.666667  0.333333  0.169754  1
  La  La13  1  0.333333  0.666667  0.669754  1
  La  La14  1  0.000000  0.000000  0.788381  1
  La  La15  1  0.000000  0.000000  0.288381  1
  Tl  Tl16  1  0.835676  0.671353  0.036254  1
  Tl  Tl17  1  0.328647  0.164324  0.036254  1
  Tl  Tl18  1  0.835676  0.164324  0.036254  1
  Tl  Tl19  1  0.164324  0.328647  0.536254  1
  Tl  Tl20  1  0.671353  0.835676  0.536254  1
  Tl  Tl21  1  0.164324  0.835676  0.536254  1
  Rh  Rh22  1  0.666667  0.333333  0.566660  1
  Rh  Rh23  1  0.333333  0.666667  0.066660  1
