# generated using pymatgen
data_Pr2Bi(AsRh2)6
_symmetry_space_group_name_H-M   'P 1'
_cell_length_a   10.16280700
_cell_length_b   10.16280722
_cell_length_c   4.00154100
_cell_angle_alpha   90.00000000
_cell_angle_beta   90.00000000
_cell_angle_gamma   120.00000254
_symmetry_Int_Tables_number   1
_chemical_formula_structural   Pr2Bi(AsRh2)6
_chemical_formula_sum   'Pr2 Bi1 As6 Rh12'
_cell_volume   357.91941514
_cell_formula_units_Z   1
loop_
 _symmetry_equiv_pos_site_id
 _symmetry_equiv_pos_as_xyz
  1  'x, y, z'
loop_
 _atom_site_type_symbol
 _atom_site_label
 _atom_site_symmetry_multiplicity
 _atom_site_fract_x
 _atom_site_fract_y
 _atom_site_fract_z
 _atom_site_occupancy
  Pr  Pr0  1  0.333333  0.666667  0.247666  1
  Pr  Pr1  1  0.666667  0.333333  0.752334  1
  Bi  Bi2  1  0.000000  0.000000  0.500000  1
  As  As3  1  0.405546  0.115373  0.255393  1
  As  As4  1  0.709828  0.594454  0.255393  1
  As  As5  1  0.884627  0.290172  0.255393  1
  As  As6  1  0.594454  0.884627  0.744607  1
  As  As7  1  0.290172  0.405546  0.744607  1
  As  As8  1  0.115373  0.709828  0.744607  1
  Rh  Rh9  1  0.446610  0.384271  0.253374  1
  Rh  Rh10  1  0.937661  0.553390  0.253374  1
  Rh  Rh11  1  0.615729  0.062339  0.253374  1
  Rh  Rh12  1  0.553390  0.615729  0.746626  1
  Rh  Rh13  1  0.062339  0.446610  0.746626  1
  Rh  Rh14  1  0.384271  0.937661  0.746626  1
  Rh  Rh15  1  0.159252  0.875394  0.235705  1
  Rh  Rh16  1  0.716142  0.840748  0.235705  1
  Rh  Rh17  1  0.124606  0.283858  0.235705  1
  Rh  Rh18  1  0.840748  0.124606  0.764295  1
  Rh  Rh19  1  0.283858  0.159252  0.764295  1
  Rh  Rh20  1  0.875394  0.716142  0.764295  1
