# generated using pymatgen
data_Li7Lu8ZnPt8
_symmetry_space_group_name_H-M   'P 1'
_cell_length_a   9.11961415
_cell_length_b   7.76445398
_cell_length_c   6.85405700
_cell_angle_alpha   90.08779087
_cell_angle_beta   89.90268725
_cell_angle_gamma   115.40654587
_symmetry_Int_Tables_number   1
_chemical_formula_structural   Li7Lu8ZnPt8
_chemical_formula_sum   'Li7 Lu8 Zn1 Pt8'
_cell_volume   438.38906522
_cell_formula_units_Z   1
loop_
 _symmetry_equiv_pos_site_id
 _symmetry_equiv_pos_as_xyz
  1  'x, y, z'
loop_
 _atom_site_type_symbol
 _atom_site_label
 _atom_site_symmetry_multiplicity
 _atom_site_fract_x
 _atom_site_fract_y
 _atom_site_fract_z
 _atom_site_occupancy
  Li  Li0  1  0.193905  0.847034  0.374124  1
  Li  Li1  1  0.693179  0.846129  0.121470  1
  Li  Li2  1  0.807380  0.654171  0.875015  1
  Li  Li3  1  0.808318  0.153918  0.873828  1
  Li  Li4  1  0.305183  0.153505  0.621369  1
  Li  Li5  1  0.305599  0.652310  0.619224  1
  Li  Li6  1  0.692710  0.346270  0.120571  1
  Lu  Lu7  1  0.570719  0.036910  0.444277  1
  Lu  Lu8  1  0.569723  0.534903  0.446908  1
  Lu  Lu9  1  0.929073  0.464243  0.546454  1
  Lu  Lu10  1  0.430105  0.963709  0.946284  1
  Lu  Lu11  1  0.428627  0.463776  0.947758  1
  Lu  Lu12  1  0.073088  0.536256  0.051311  1
  Lu  Lu13  1  0.929609  0.963925  0.547405  1
  Lu  Lu14  1  0.073296  0.038014  0.051667  1
  Zn  Zn15  1  0.189394  0.344558  0.375636  1
  Pt  Pt16  1  0.123056  0.312286  0.756693  1
  Pt  Pt17  1  0.121587  0.811381  0.757076  1
  Pt  Pt18  1  0.622184  0.811698  0.737957  1
  Pt  Pt19  1  0.877822  0.688178  0.254092  1
  Pt  Pt20  1  0.875833  0.187049  0.252827  1
  Pt  Pt21  1  0.378268  0.188111  0.239977  1
  Pt  Pt22  1  0.378753  0.689108  0.240989  1
  Pt  Pt23  1  0.622588  0.312560  0.739060  1
