# generated using pymatgen
data_Y4Mg(SiB4)2
_symmetry_space_group_name_H-M   'P 1'
_cell_length_a   7.18824000
_cell_length_b   7.18824000
_cell_length_c   7.89090800
_cell_angle_alpha   90.00000000
_cell_angle_beta   90.00000000
_cell_angle_gamma   90.00000000
_symmetry_Int_Tables_number   1
_chemical_formula_structural   Y4Mg(SiB4)2
_chemical_formula_sum   'Y8 Mg2 Si4 B16'
_cell_volume   407.72948409
_cell_formula_units_Z   2
loop_
 _symmetry_equiv_pos_site_id
 _symmetry_equiv_pos_as_xyz
  1  'x, y, z'
loop_
 _atom_site_type_symbol
 _atom_site_label
 _atom_site_symmetry_multiplicity
 _atom_site_fract_x
 _atom_site_fract_y
 _atom_site_fract_z
 _atom_site_occupancy
  Y  Y0  1  0.682389  0.182389  0.233141  1
  Y  Y1  1  0.317611  0.817611  0.766859  1
  Y  Y2  1  0.317611  0.817611  0.233141  1
  Y  Y3  1  0.817611  0.682389  0.233141  1
  Y  Y4  1  0.817611  0.682389  0.766859  1
  Y  Y5  1  0.682389  0.182389  0.766859  1
  Y  Y6  1  0.182389  0.317611  0.766859  1
  Y  Y7  1  0.182389  0.317611  0.233141  1
  Mg  Mg8  1  0.000000  0.000000  0.500000  1
  Mg  Mg9  1  0.500000  0.500000  0.500000  1
  Si  Si10  1  0.115187  0.615187  0.500000  1
  Si  Si11  1  0.884813  0.384813  0.500000  1
  Si  Si12  1  0.384813  0.115187  0.500000  1
  Si  Si13  1  0.615187  0.884813  0.500000  1
  B  B14  1  0.173778  0.039695  0.000000  1
  B  B15  1  0.826222  0.960305  0.000000  1
  B  B16  1  0.960305  0.173778  0.000000  1
  B  B17  1  0.326222  0.539695  0.000000  1
  B  B18  1  0.039695  0.826222  0.000000  1
  B  B19  1  0.673778  0.460305  0.000000  1
  B  B20  1  0.539695  0.673778  0.000000  1
  B  B21  1  0.460305  0.326222  0.000000  1
  B  B22  1  0.089051  0.589051  0.000000  1
  B  B23  1  0.910949  0.410949  0.000000  1
  B  B24  1  0.410949  0.089051  0.000000  1
  B  B25  1  0.589051  0.910949  0.000000  1
  B  B26  1  0.000000  0.000000  0.161157  1
  B  B27  1  0.000000  0.000000  0.838843  1
  B  B28  1  0.500000  0.500000  0.838843  1
  B  B29  1  0.500000  0.500000  0.161157  1
