# generated using pymatgen
data_Ca2Nd17YIr12
_symmetry_space_group_name_H-M   'P 1'
_cell_length_a   11.26367900
_cell_length_b   11.26367900
_cell_length_c   6.51954300
_cell_angle_alpha   90.00000000
_cell_angle_beta   90.00000000
_cell_angle_gamma   90.00000000
_symmetry_Int_Tables_number   1
_chemical_formula_structural   Ca2Nd17YIr12
_chemical_formula_sum   'Ca2 Nd17 Y1 Ir12'
_cell_volume   827.13744949
_cell_formula_units_Z   1
loop_
 _symmetry_equiv_pos_site_id
 _symmetry_equiv_pos_as_xyz
  1  'x, y, z'
loop_
 _atom_site_type_symbol
 _atom_site_label
 _atom_site_symmetry_multiplicity
 _atom_site_fract_x
 _atom_site_fract_y
 _atom_site_fract_z
 _atom_site_occupancy
  Ca  Ca0  1  0.500000  0.500000  0.000000  1
  Ca  Ca1  1  0.500000  0.500000  0.500000  1
  Nd  Nd2  1  0.089476  0.290150  0.114228  1
  Nd  Nd3  1  0.789257  0.411288  0.114130  1
  Nd  Nd4  1  0.210743  0.588712  0.114130  1
  Nd  Nd5  1  0.910524  0.709850  0.114228  1
  Nd  Nd6  1  0.411944  0.788800  0.386347  1
  Nd  Nd7  1  0.588056  0.211200  0.386347  1
  Nd  Nd8  1  0.291221  0.088986  0.384865  1
  Nd  Nd9  1  0.708779  0.911014  0.384865  1
  Nd  Nd10  1  0.411288  0.210743  0.885870  1
  Nd  Nd11  1  0.709850  0.089476  0.885772  1
  Nd  Nd12  1  0.290150  0.910524  0.885772  1
  Nd  Nd13  1  0.588712  0.789257  0.885870  1
  Nd  Nd14  1  0.088986  0.708779  0.615135  1
  Nd  Nd15  1  0.911014  0.291221  0.615135  1
  Nd  Nd16  1  0.211200  0.411944  0.613653  1
  Nd  Nd17  1  0.788800  0.588056  0.613653  1
  Nd  Nd18  1  0.000000  0.000000  0.500000  1
  Y  Y19  1  0.000000  0.000000  0.000000  1
  Ir  Ir20  1  0.152829  0.848040  0.248482  1
  Ir  Ir21  1  0.341806  0.342008  0.249512  1
  Ir  Ir22  1  0.658194  0.657992  0.249512  1
  Ir  Ir23  1  0.847171  0.151960  0.248482  1
  Ir  Ir24  1  0.342008  0.658194  0.750488  1
  Ir  Ir25  1  0.151960  0.152829  0.751518  1
  Ir  Ir26  1  0.848040  0.847171  0.751518  1
  Ir  Ir27  1  0.657992  0.341806  0.750488  1
  Ir  Ir28  1  0.000000  0.500000  0.379547  1
  Ir  Ir29  1  0.500000  0.000000  0.119651  1
  Ir  Ir30  1  0.500000  0.000000  0.620453  1
  Ir  Ir31  1  0.000000  0.500000  0.880349  1
