# generated using pymatgen
data_Zr12Al4Ir3Pt5N4
_symmetry_space_group_name_H-M   'P 1'
_cell_length_a   8.62533119
_cell_length_b   8.62513082
_cell_length_c   8.62513100
_cell_angle_alpha   60.00000313
_cell_angle_beta   60.00077159
_cell_angle_gamma   60.00077098
_symmetry_Int_Tables_number   1
_chemical_formula_structural   Zr12Al4Ir3Pt5N4
_chemical_formula_sum   'Zr12 Al4 Ir3 Pt5 N4'
_cell_volume   453.72973924
_cell_formula_units_Z   1
loop_
 _symmetry_equiv_pos_site_id
 _symmetry_equiv_pos_as_xyz
  1  'x, y, z'
loop_
 _atom_site_type_symbol
 _atom_site_label
 _atom_site_symmetry_multiplicity
 _atom_site_fract_x
 _atom_site_fract_y
 _atom_site_fract_z
 _atom_site_occupancy
  Zr  Zr0  1  0.811397  0.811255  0.188674  1
  Zr  Zr1  1  0.183745  0.193090  0.811583  1
  Zr  Zr2  1  0.811397  0.188674  0.811255  1
  Zr  Zr3  1  0.183745  0.811583  0.193090  1
  Zr  Zr4  1  0.183745  0.811583  0.811583  1
  Zr  Zr5  1  0.811397  0.188674  0.188674  1
  Zr  Zr6  1  0.442122  0.441168  0.058355  1
  Zr  Zr7  1  0.057489  0.057912  0.442299  1
  Zr  Zr8  1  0.442122  0.058355  0.441168  1
  Zr  Zr9  1  0.057489  0.442299  0.057912  1
  Zr  Zr10  1  0.057489  0.442299  0.442299  1
  Zr  Zr11  1  0.442122  0.058355  0.058355  1
  Al  Al12  1  0.127004  0.624332  0.624332  1
  Al  Al13  1  0.626811  0.126418  0.623385  1
  Al  Al14  1  0.626811  0.623385  0.126418  1
  Al  Al15  1  0.626811  0.623385  0.623385  1
  Ir  Ir16  1  0.837013  0.494236  0.834374  1
  Ir  Ir17  1  0.837013  0.834374  0.494236  1
  Ir  Ir18  1  0.837013  0.834374  0.834374  1
  Pt  Pt19  1  0.761055  0.412982  0.412982  1
  Pt  Pt20  1  0.413877  0.760659  0.412733  1
  Pt  Pt21  1  0.413877  0.412733  0.760659  1
  Pt  Pt22  1  0.413877  0.412733  0.412733  1
  Pt  Pt23  1  0.493106  0.835631  0.835631  1
  N  N24  1  0.624903  0.125032  0.125032  1
  N  N25  1  0.125523  0.626149  0.124164  1
  N  N26  1  0.125523  0.124164  0.626149  1
  N  N27  1  0.125523  0.124164  0.124164  1
