# generated using pymatgen
data_KUCoS3
_symmetry_space_group_name_H-M   'P 1'
_cell_length_a   7.85354200
_cell_length_b   7.85354207
_cell_length_c   9.77308500
_cell_angle_alpha   90.00000000
_cell_angle_beta   90.00000000
_cell_angle_gamma   152.40741630
_symmetry_Int_Tables_number   1
_chemical_formula_structural   KUCoS3
_chemical_formula_sum   'K2 U2 Co2 S6'
_cell_volume   279.19900055
_cell_formula_units_Z   2
loop_
 _symmetry_equiv_pos_site_id
 _symmetry_equiv_pos_as_xyz
  1  'x, y, z'
loop_
 _atom_site_type_symbol
 _atom_site_label
 _atom_site_symmetry_multiplicity
 _atom_site_fract_x
 _atom_site_fract_y
 _atom_site_fract_z
 _atom_site_occupancy
  K  K0  1  0.257462  0.742538  0.250000  1
  K  K1  1  0.742538  0.257462  0.750000  1
  U  U2  1  0.000000  0.000000  0.000000  1
  U  U3  1  0.000000  0.000000  0.500000  1
  Co  Co4  1  0.526231  0.473769  0.250000  1
  Co  Co5  1  0.473769  0.526231  0.750000  1
  S  S6  1  0.618617  0.381383  0.068524  1
  S  S7  1  0.381383  0.618617  0.931476  1
  S  S8  1  0.381383  0.618617  0.568524  1
  S  S9  1  0.618617  0.381383  0.431476  1
  S  S10  1  0.936882  0.063118  0.250000  1
  S  S11  1  0.063118  0.936882  0.750000  1
