# generated using pymatgen
data_DyY3NiAu3O14
_symmetry_space_group_name_H-M   'P 1'
_cell_length_a   7.34550070
_cell_length_b   7.34093432
_cell_length_c   7.34093400
_cell_angle_alpha   59.99999241
_cell_angle_beta   60.02055455
_cell_angle_gamma   60.02055831
_symmetry_Int_Tables_number   1
_chemical_formula_structural   DyY3NiAu3O14
_chemical_formula_sum   'Dy1 Y3 Ni1 Au3 O14'
_cell_volume   279.99089532
_cell_formula_units_Z   1
loop_
 _symmetry_equiv_pos_site_id
 _symmetry_equiv_pos_as_xyz
  1  'x, y, z'
loop_
 _atom_site_type_symbol
 _atom_site_label
 _atom_site_symmetry_multiplicity
 _atom_site_fract_x
 _atom_site_fract_y
 _atom_site_fract_z
 _atom_site_occupancy
  Dy  Dy0  1  0.625000  0.125000  0.125000  1
  Y  Y1  1  0.125000  0.125000  0.125000  1
  Y  Y2  1  0.125000  0.125000  0.625000  1
  Y  Y3  1  0.125000  0.625000  0.125000  1
  Ni  Ni4  1  0.125000  0.625000  0.625000  1
  Au  Au5  1  0.625000  0.625000  0.625000  1
  Au  Au6  1  0.625000  0.625000  0.125000  1
  Au  Au7  1  0.625000  0.125000  0.625000  1
  O  O8  1  0.993932  0.002023  0.002023  1
  O  O9  1  0.256068  0.247977  0.247977  1
  O  O10  1  0.284769  0.278180  0.718526  1
  O  O11  1  0.538944  0.528034  0.966511  1
  O  O12  1  0.711056  0.283489  0.721966  1
  O  O13  1  0.711056  0.283489  0.283489  1
  O  O14  1  0.284769  0.718526  0.718526  1
  O  O15  1  0.284769  0.718526  0.278180  1
  O  O16  1  0.711056  0.721966  0.283489  1
  O  O17  1  0.965231  0.531474  0.531474  1
  O  O18  1  0.538944  0.966511  0.966511  1
  O  O19  1  0.965231  0.971820  0.531474  1
  O  O20  1  0.965231  0.531474  0.971820  1
  O  O21  1  0.538944  0.966511  0.528034  1
