# generated using pymatgen
data_Ce3Dy9(MnCo)2
_symmetry_space_group_name_H-M   'P 1'
_cell_length_a   6.32108000
_cell_length_b   6.87864464
_cell_length_c   9.45525500
_cell_angle_alpha   90.00000000
_cell_angle_beta   90.00000000
_cell_angle_gamma   92.04480421
_symmetry_Int_Tables_number   1
_chemical_formula_structural   Ce3Dy9(MnCo)2
_chemical_formula_sum   'Ce3 Dy9 Mn2 Co2'
_cell_volume   410.85707788
_cell_formula_units_Z   1
loop_
 _symmetry_equiv_pos_site_id
 _symmetry_equiv_pos_as_xyz
  1  'x, y, z'
loop_
 _atom_site_type_symbol
 _atom_site_label
 _atom_site_symmetry_multiplicity
 _atom_site_fract_x
 _atom_site_fract_y
 _atom_site_fract_z
 _atom_site_occupancy
  Ce  Ce0  1  0.130269  0.425654  0.750000  1
  Ce  Ce1  1  0.377117  0.926349  0.750000  1
  Ce  Ce2  1  0.848002  0.566649  0.250000  1
  Dy  Dy3  1  0.673774  0.328462  0.936868  1
  Dy  Dy4  1  0.638513  0.047794  0.250000  1
  Dy  Dy5  1  0.172038  0.169850  0.430792  1
  Dy  Dy6  1  0.829087  0.827739  0.565974  1
  Dy  Dy7  1  0.172038  0.169850  0.069208  1
  Dy  Dy8  1  0.829087  0.827739  0.934026  1
  Dy  Dy9  1  0.673774  0.328462  0.563132  1
  Dy  Dy10  1  0.326773  0.670814  0.064853  1
  Dy  Dy11  1  0.326773  0.670814  0.435147  1
  Mn  Mn12  1  0.499972  0.644597  0.750000  1
  Mn  Mn13  1  0.992017  0.141652  0.750000  1
  Co  Co14  1  0.026693  0.856410  0.250000  1
  Co  Co15  1  0.484072  0.397171  0.250000  1
