# generated using pymatgen
data_Tb3Dy(Al8Ni3)3
_symmetry_space_group_name_H-M   'P 1'
_cell_length_a   7.31250584
_cell_length_b   7.34450113
_cell_length_c   12.78876300
_cell_angle_alpha   84.56830753
_cell_angle_beta   79.07488444
_cell_angle_gamma   59.97832857
_symmetry_Int_Tables_number   1
_chemical_formula_structural   Tb3Dy(Al8Ni3)3
_chemical_formula_sum   'Tb3 Dy1 Al24 Ni9'
_cell_volume   583.91460036
_cell_formula_units_Z   1
loop_
 _symmetry_equiv_pos_site_id
 _symmetry_equiv_pos_as_xyz
  1  'x, y, z'
loop_
 _atom_site_type_symbol
 _atom_site_label
 _atom_site_symmetry_multiplicity
 _atom_site_fract_x
 _atom_site_fract_y
 _atom_site_fract_z
 _atom_site_occupancy
  Tb  Tb0  1  0.394276  0.168591  0.805073  1
  Tb  Tb1  1  0.605576  0.831533  0.195092  1
  Tb  Tb2  1  0.734912  0.497721  0.805160  1
  Dy  Dy3  1  0.264936  0.502176  0.195219  1
  Al  Al4  1  0.681135  0.833567  0.948593  1
  Al  Al5  1  0.319016  0.166473  0.052009  1
  Al  Al6  1  0.146226  0.833248  0.559209  1
  Al  Al7  1  0.853924  0.166858  0.440167  1
  Al  Al8  1  0.480825  0.166731  0.557076  1
  Al  Al9  1  0.519330  0.833257  0.442591  1
  Al  Al10  1  0.214312  0.165441  0.336952  1
  Al  Al11  1  0.785887  0.834393  0.662461  1
  Al  Al12  1  0.439180  0.506962  0.662433  1
  Al  Al13  1  0.561050  0.492984  0.336909  1
  Al  Al14  1  0.112043  0.158742  0.661228  1
  Al  Al15  1  0.888253  0.841169  0.338185  1
  Al  Al16  1  0.353166  0.497505  0.948829  1
  Al  Al17  1  0.646097  0.503049  0.051908  1
  Al  Al18  1  0.012720  0.169019  0.961801  1
  Al  Al19  1  0.986747  0.830804  0.039445  1
  Al  Al20  1  0.186223  0.499653  0.442611  1
  Al  Al21  1  0.813879  0.500279  0.557131  1
  Al  Al22  1  0.728961  0.164730  0.184992  1
  Al  Al23  1  0.270647  0.835782  0.815067  1
  Al  Al24  1  0.062087  0.627015  0.813876  1
  Al  Al25  1  0.938289  0.372861  0.186194  1
  Al  Al26  1  0.852304  0.045142  0.815252  1
  Al  Al27  1  0.147696  0.954552  0.184735  1
  Ni  Ni28  1  0.119883  0.492945  0.637338  1
  Ni  Ni29  1  0.880196  0.507004  0.362369  1
  Ni  Ni30  1  0.659024  0.170385  0.000290  1
  Ni  Ni31  1  0.340862  0.829678  0.000170  1
  Ni  Ni32  1  0.538377  0.166925  0.362532  1
  Ni  Ni33  1  0.461659  0.832948  0.637149  1
  Ni  Ni34  1  0.779089  0.174042  0.637278  1
  Ni  Ni35  1  0.221280  0.825769  0.362324  1
  Ni  Ni36  1  0.999931  0.500062  0.000351  1
