# generated using pymatgen
data_Ce2Co3Sb4Rh
_symmetry_space_group_name_H-M   'P 1'
_cell_length_a   4.46497400
_cell_length_b   4.46497400
_cell_length_c   9.97483100
_cell_angle_alpha   90.00000000
_cell_angle_beta   90.00000000
_cell_angle_gamma   90.00000000
_symmetry_Int_Tables_number   1
_chemical_formula_structural   Ce2Co3Sb4Rh
_chemical_formula_sum   'Ce2 Co3 Sb4 Rh1'
_cell_volume   198.85815920
_cell_formula_units_Z   1
loop_
 _symmetry_equiv_pos_site_id
 _symmetry_equiv_pos_as_xyz
  1  'x, y, z'
loop_
 _atom_site_type_symbol
 _atom_site_label
 _atom_site_symmetry_multiplicity
 _atom_site_fract_x
 _atom_site_fract_y
 _atom_site_fract_z
 _atom_site_occupancy
  Ce  Ce0  1  0.000000  0.500000  0.245272  1
  Ce  Ce1  1  0.500000  0.000000  0.754728  1
  Co  Co2  1  0.000000  0.000000  0.000000  1
  Co  Co3  1  0.500000  0.000000  0.385591  1
  Co  Co4  1  0.000000  0.500000  0.614410  1
  Sb  Sb5  1  0.500000  0.000000  0.138866  1
  Sb  Sb6  1  0.000000  0.000000  0.500000  1
  Sb  Sb7  1  0.500000  0.500000  0.500000  1
  Sb  Sb8  1  0.000000  0.500000  0.861134  1
  Rh  Rh9  1  0.500000  0.500000  0.000000  1
