# generated using pymatgen
data_DyTm2Al12Os3Rh
_symmetry_space_group_name_H-M   'P 1'
_cell_length_a   8.76806220
_cell_length_b   8.76378176
_cell_length_c   9.58227100
_cell_angle_alpha   90.00000000
_cell_angle_beta   90.00000000
_cell_angle_gamma   119.64402250
_symmetry_Int_Tables_number   1
_chemical_formula_structural   DyTm2Al12Os3Rh
_chemical_formula_sum   'Dy2 Tm4 Al24 Os6 Rh2'
_cell_volume   639.94249486
_cell_formula_units_Z   2
loop_
 _symmetry_equiv_pos_site_id
 _symmetry_equiv_pos_as_xyz
  1  'x, y, z'
loop_
 _atom_site_type_symbol
 _atom_site_label
 _atom_site_symmetry_multiplicity
 _atom_site_fract_x
 _atom_site_fract_y
 _atom_site_fract_z
 _atom_site_occupancy
  Dy  Dy0  1  0.185764  0.385788  0.250000  1
  Dy  Dy1  1  0.814236  0.614212  0.750000  1
  Tm  Tm2  1  0.612313  0.813885  0.250000  1
  Tm  Tm3  1  0.387687  0.186115  0.750000  1
  Tm  Tm4  1  0.194600  0.805545  0.250000  1
  Tm  Tm5  1  0.805400  0.194455  0.750000  1
  Al  Al6  1  0.333362  0.667192  0.023600  1
  Al  Al7  1  0.666638  0.332808  0.976400  1
  Al  Al8  1  0.666638  0.332808  0.523600  1
  Al  Al9  1  0.333362  0.667192  0.476400  1
  Al  Al10  1  0.162576  0.325941  0.577377  1
  Al  Al11  1  0.837424  0.674059  0.422623  1
  Al  Al12  1  0.673880  0.837518  0.576955  1
  Al  Al13  1  0.837424  0.674059  0.077377  1
  Al  Al14  1  0.326120  0.162482  0.423045  1
  Al  Al15  1  0.162576  0.325941  0.922623  1
  Al  Al16  1  0.164479  0.836066  0.575731  1
  Al  Al17  1  0.326120  0.162482  0.076955  1
  Al  Al18  1  0.835521  0.163934  0.424269  1
  Al  Al19  1  0.673880  0.837518  0.923045  1
  Al  Al20  1  0.835521  0.163934  0.075731  1
  Al  Al21  1  0.164479  0.836066  0.924269  1
  Al  Al22  1  0.560961  0.126195  0.250000  1
  Al  Al23  1  0.439039  0.873805  0.750000  1
  Al  Al24  1  0.873170  0.439128  0.250000  1
  Al  Al25  1  0.126830  0.560872  0.750000  1
  Al  Al26  1  0.559819  0.440876  0.250000  1
  Al  Al27  1  0.440181  0.559124  0.750000  1
  Al  Al28  1  0.997876  0.000583  0.250000  1
  Al  Al29  1  0.002124  0.999417  0.750000  1
  Os  Os30  1  0.500000  0.000000  0.000000  1
  Os  Os31  1  0.000000  0.500000  0.000000  1
  Os  Os32  1  0.500000  0.000000  0.500000  1
  Os  Os33  1  0.000000  0.500000  0.500000  1
  Os  Os34  1  0.000000  0.000000  0.000000  1
  Os  Os35  1  0.000000  0.000000  0.500000  1
  Rh  Rh36  1  0.500000  0.500000  0.000000  1
  Rh  Rh37  1  0.500000  0.500000  0.500000  1
