# generated using pymatgen
data_UNb2(Co3B2)3
_symmetry_space_group_name_H-M   'P 1'
_cell_length_a   5.68200681
_cell_length_b   5.68200660
_cell_length_c   5.68200691
_cell_angle_alpha   94.90097367
_cell_angle_beta   94.90096920
_cell_angle_gamma   94.90098100
_symmetry_Int_Tables_number   1
_chemical_formula_structural   UNb2(Co3B2)3
_chemical_formula_sum   'U1 Nb2 Co9 B6'
_cell_volume   181.30948189
_cell_formula_units_Z   1
loop_
 _symmetry_equiv_pos_site_id
 _symmetry_equiv_pos_as_xyz
  1  'x, y, z'
loop_
 _atom_site_type_symbol
 _atom_site_label
 _atom_site_symmetry_multiplicity
 _atom_site_fract_x
 _atom_site_fract_y
 _atom_site_fract_z
 _atom_site_occupancy
  U  U0  1  0.000000  0.000000  0.000000  1
  Nb  Nb1  1  0.663655  0.663655  0.663655  1
  Nb  Nb2  1  0.336345  0.336345  0.336345  1
  Co  Co3  1  0.500000  0.000000  0.000000  1
  Co  Co4  1  0.000000  0.500000  0.000000  1
  Co  Co5  1  0.000000  0.000000  0.500000  1
  Co  Co6  1  0.695276  0.201371  0.695276  1
  Co  Co7  1  0.695276  0.695276  0.201371  1
  Co  Co8  1  0.201371  0.695276  0.695276  1
  Co  Co9  1  0.304724  0.798629  0.304724  1
  Co  Co10  1  0.304724  0.304724  0.798629  1
  Co  Co11  1  0.798629  0.304724  0.304724  1
  B  B12  1  0.381143  0.000000  0.618857  1
  B  B13  1  0.618857  0.381143  0.000000  1
  B  B14  1  0.000000  0.618857  0.381143  1
  B  B15  1  0.618857  0.000000  0.381143  1
  B  B16  1  0.381143  0.618857  0.000000  1
  B  B17  1  0.000000  0.381143  0.618857  1
