# generated using pymatgen
data_YbEr3ReOs7
_symmetry_space_group_name_H-M   'P 1'
_cell_length_a   5.27816500
_cell_length_b   5.27816550
_cell_length_c   8.81702002
_cell_angle_alpha   90.00705095
_cell_angle_beta   89.99295084
_cell_angle_gamma   118.67842343
_symmetry_Int_Tables_number   1
_chemical_formula_structural   YbEr3ReOs7
_chemical_formula_sum   'Yb1 Er3 Re1 Os7'
_cell_volume   215.50098333
_cell_formula_units_Z   1
loop_
 _symmetry_equiv_pos_site_id
 _symmetry_equiv_pos_as_xyz
  1  'x, y, z'
loop_
 _atom_site_type_symbol
 _atom_site_label
 _atom_site_symmetry_multiplicity
 _atom_site_fract_x
 _atom_site_fract_y
 _atom_site_fract_z
 _atom_site_occupancy
  Yb  Yb0  1  0.331254  0.668746  0.437596  1
  Er  Er1  1  0.665973  0.334027  0.562140  1
  Er  Er2  1  0.666198  0.333802  0.935003  1
  Er  Er3  1  0.330734  0.669266  0.067046  1
  Re  Re4  1  0.833252  0.166748  0.250080  1
  Os  Os5  1  0.993429  0.006571  0.499918  1
  Os  Os6  1  0.992669  0.007331  0.998953  1
  Os  Os7  1  0.828563  0.650886  0.249314  1
  Os  Os8  1  0.349114  0.171437  0.249314  1
  Os  Os9  1  0.176926  0.823074  0.751045  1
  Os  Os10  1  0.172882  0.340996  0.749795  1
  Os  Os11  1  0.659004  0.827118  0.749795  1
