# generated using pymatgen
data_Tb7CeNd8(CdRu)4
_symmetry_space_group_name_H-M   'P 1'
_cell_length_a   9.84410704
_cell_length_b   9.82859439
_cell_length_c   9.86694669
_cell_angle_alpha   59.17923466
_cell_angle_beta   59.28187415
_cell_angle_gamma   59.10296855
_symmetry_Int_Tables_number   1
_chemical_formula_structural   Tb7CeNd8(CdRu)4
_chemical_formula_sum   'Tb7 Ce1 Nd8 Cd4 Ru4'
_cell_volume   662.55689779
_cell_formula_units_Z   1
loop_
 _symmetry_equiv_pos_site_id
 _symmetry_equiv_pos_as_xyz
  1  'x, y, z'
loop_
 _atom_site_type_symbol
 _atom_site_label
 _atom_site_symmetry_multiplicity
 _atom_site_fract_x
 _atom_site_fract_y
 _atom_site_fract_z
 _atom_site_occupancy
  Tb  Tb0  1  0.189523  0.809864  0.812363  1
  Tb  Tb1  1  0.812964  0.811693  0.189606  1
  Tb  Tb2  1  0.188068  0.811795  0.190478  1
  Tb  Tb3  1  0.811652  0.187853  0.192300  1
  Tb  Tb4  1  0.343742  0.345741  0.962445  1
  Tb  Tb5  1  0.345245  0.959964  0.345702  1
  Tb  Tb6  1  0.960895  0.345676  0.343773  1
  Ce  Ce7  1  0.340242  0.340677  0.337758  1
  Nd  Nd8  1  0.559615  0.561154  0.939857  1
  Nd  Nd9  1  0.939646  0.560448  0.941575  1
  Nd  Nd10  1  0.559289  0.938730  0.942659  1
  Nd  Nd11  1  0.942042  0.939957  0.557999  1
  Nd  Nd12  1  0.560953  0.939966  0.558800  1
  Nd  Nd13  1  0.939701  0.562053  0.558338  1
  Nd  Nd14  1  0.190680  0.188120  0.812387  1
  Nd  Nd15  1  0.810923  0.188163  0.811815  1
  Cd  Cd16  1  0.578540  0.578416  0.262236  1
  Cd  Cd17  1  0.579485  0.262170  0.577479  1
  Cd  Cd18  1  0.262552  0.579598  0.577910  1
  Cd  Cd19  1  0.578043  0.580010  0.578285  1
  Ru  Ru20  1  0.147324  0.145354  0.573296  1
  Ru  Ru21  1  0.146663  0.575831  0.145593  1
  Ru  Ru22  1  0.574146  0.146903  0.147901  1
  Ru  Ru23  1  0.138067  0.139865  0.139448  1
