# generated using pymatgen
data_MnGa7(IrRu)4
_symmetry_space_group_name_H-M   'P 1'
_cell_length_a   6.06999900
_cell_length_b   4.28079900
_cell_length_c   8.59598900
_cell_angle_alpha   90.00000000
_cell_angle_beta   90.00069585
_cell_angle_gamma   90.00000000
_symmetry_Int_Tables_number   1
_chemical_formula_structural   MnGa7(IrRu)4
_chemical_formula_sum   'Mn1 Ga7 Ir4 Ru4'
_cell_volume   223.36200896
_cell_formula_units_Z   1
loop_
 _symmetry_equiv_pos_site_id
 _symmetry_equiv_pos_as_xyz
  1  'x, y, z'
loop_
 _atom_site_type_symbol
 _atom_site_label
 _atom_site_symmetry_multiplicity
 _atom_site_fract_x
 _atom_site_fract_y
 _atom_site_fract_z
 _atom_site_occupancy
  Mn  Mn0  1  0.999494  0.749999  0.125002  1
  Ga  Ga1  1  0.500876  0.749999  0.124994  1
  Ga  Ga2  1  0.999790  0.250000  0.371741  1
  Ga  Ga3  1  0.500150  0.250000  0.375930  1
  Ga  Ga4  1  0.499419  0.749999  0.625001  1
  Ga  Ga5  1  0.000271  0.749999  0.625030  1
  Ga  Ga6  1  0.500155  0.250000  0.874074  1
  Ga  Ga7  1  0.999744  0.250000  0.878252  1
  Ir  Ir8  1  0.749574  0.250000  0.124989  1
  Ir  Ir9  1  0.251071  0.749999  0.373114  1
  Ir  Ir10  1  0.750761  0.250000  0.624981  1
  Ir  Ir11  1  0.251049  0.749999  0.876904  1
  Ru  Ru12  1  0.247323  0.250000  0.124994  1
  Ru  Ru13  1  0.749949  0.749999  0.372986  1
  Ru  Ru14  1  0.250451  0.250000  0.625013  1
  Ru  Ru15  1  0.749922  0.749999  0.876991  1
