# generated using pymatgen
data_Cs12HoMgSe8
_symmetry_space_group_name_H-M   'P 1'
_cell_length_a   11.46149500
_cell_length_b   11.46149403
_cell_length_c   8.76987300
_cell_angle_alpha   90.00000000
_cell_angle_beta   90.00000000
_cell_angle_gamma   119.99999992
_symmetry_Int_Tables_number   1
_chemical_formula_structural   Cs12HoMgSe8
_chemical_formula_sum   'Cs12 Ho1 Mg1 Se8'
_cell_volume   997.71485372
_cell_formula_units_Z   1
loop_
 _symmetry_equiv_pos_site_id
 _symmetry_equiv_pos_as_xyz
  1  'x, y, z'
loop_
 _atom_site_type_symbol
 _atom_site_label
 _atom_site_symmetry_multiplicity
 _atom_site_fract_x
 _atom_site_fract_y
 _atom_site_fract_z
 _atom_site_occupancy
  Cs  Cs0  1  0.139271  0.860729  0.546168  1
  Cs  Cs1  1  0.288295  0.144147  0.044443  1
  Cs  Cs2  1  0.855853  0.711705  0.044443  1
  Cs  Cs3  1  0.139271  0.278541  0.546168  1
  Cs  Cs4  1  0.721459  0.860729  0.546168  1
  Cs  Cs5  1  0.855853  0.144147  0.044443  1
  Cs  Cs6  1  0.535576  0.464424  0.368844  1
  Cs  Cs7  1  0.050911  0.525455  0.857535  1
  Cs  Cs8  1  0.474545  0.949089  0.857535  1
  Cs  Cs9  1  0.535576  0.071153  0.368844  1
  Cs  Cs10  1  0.928847  0.464424  0.368844  1
  Cs  Cs11  1  0.474545  0.525455  0.857535  1
  Ho  Ho12  1  0.333333  0.666667  0.252837  1
  Mg  Mg13  1  0.666667  0.333333  0.754951  1
  Se  Se14  1  0.333333  0.666667  0.563881  1
  Se  Se15  1  0.666667  0.333333  0.060095  1
  Se  Se16  1  0.203012  0.796988  0.153774  1
  Se  Se17  1  0.409296  0.204649  0.658450  1
  Se  Se18  1  0.795351  0.590704  0.658450  1
  Se  Se19  1  0.203012  0.406022  0.153774  1
  Se  Se20  1  0.593978  0.796988  0.153774  1
  Se  Se21  1  0.795351  0.204649  0.658450  1
