# generated using pymatgen
data_Pr10TlSi5
_symmetry_space_group_name_H-M   'P 1'
_cell_length_a   7.82268800
_cell_length_b   7.82268800
_cell_length_c   14.44724000
_cell_angle_alpha   90.00000000
_cell_angle_beta   90.00000000
_cell_angle_gamma   90.00000000
_symmetry_Int_Tables_number   1
_chemical_formula_structural   Pr10TlSi5
_chemical_formula_sum   'Pr20 Tl2 Si10'
_cell_volume   884.09087035
_cell_formula_units_Z   2
loop_
 _symmetry_equiv_pos_site_id
 _symmetry_equiv_pos_as_xyz
  1  'x, y, z'
loop_
 _atom_site_type_symbol
 _atom_site_label
 _atom_site_symmetry_multiplicity
 _atom_site_fract_x
 _atom_site_fract_y
 _atom_site_fract_z
 _atom_site_occupancy
  Pr  Pr0  1  0.816286  0.825056  0.600597  1
  Pr  Pr1  1  0.181746  0.827862  0.117384  1
  Pr  Pr2  1  0.174944  0.816286  0.399403  1
  Pr  Pr3  1  0.000000  0.500000  0.725534  1
  Pr  Pr4  1  0.825056  0.183714  0.399403  1
  Pr  Pr5  1  0.683714  0.674944  0.399403  1
  Pr  Pr6  1  0.674944  0.316286  0.600597  1
  Pr  Pr7  1  0.325056  0.683714  0.600597  1
  Pr  Pr8  1  0.000000  0.500000  0.245334  1
  Pr  Pr9  1  0.672138  0.681746  0.117384  1
  Pr  Pr10  1  0.681746  0.327862  0.882616  1
  Pr  Pr11  1  0.827862  0.818254  0.882616  1
  Pr  Pr12  1  0.316286  0.325056  0.399403  1
  Pr  Pr13  1  0.183714  0.174944  0.600597  1
  Pr  Pr14  1  0.818254  0.172138  0.117384  1
  Pr  Pr15  1  0.318254  0.672138  0.882616  1
  Pr  Pr16  1  0.327862  0.318254  0.117384  1
  Pr  Pr17  1  0.500000  0.000000  0.274466  1
  Pr  Pr18  1  0.172138  0.181746  0.882616  1
  Pr  Pr19  1  0.500000  0.000000  0.754666  1
  Tl  Tl20  1  0.500000  0.000000  0.995002  1
  Tl  Tl21  1  0.000000  0.500000  0.004998  1
  Si  Si22  1  0.613795  0.386534  0.259076  1
  Si  Si23  1  0.113795  0.886534  0.740924  1
  Si  Si24  1  0.386534  0.386205  0.740924  1
  Si  Si25  1  0.386205  0.613466  0.259076  1
  Si  Si26  1  0.886534  0.886205  0.259076  1
  Si  Si27  1  0.613466  0.613795  0.740924  1
  Si  Si28  1  0.000000  0.500000  0.503056  1
  Si  Si29  1  0.886205  0.113466  0.740924  1
  Si  Si30  1  0.500000  0.000000  0.496944  1
  Si  Si31  1  0.113466  0.113795  0.259076  1
