# generated using pymatgen
data_Sm5Zn2Ru3
_symmetry_space_group_name_H-M   'P 1'
_cell_length_a   8.42442600
_cell_length_b   8.42442540
_cell_length_c   8.42442500
_cell_angle_alpha   109.47122208
_cell_angle_beta   109.47122064
_cell_angle_gamma   109.47122547
_symmetry_Int_Tables_number   1
_chemical_formula_structural   Sm5Zn2Ru3
_chemical_formula_sum   'Sm10 Zn4 Ru6'
_cell_volume   460.25546317
_cell_formula_units_Z   2
loop_
 _symmetry_equiv_pos_site_id
 _symmetry_equiv_pos_as_xyz
  1  'x, y, z'
loop_
 _atom_site_type_symbol
 _atom_site_label
 _atom_site_symmetry_multiplicity
 _atom_site_fract_x
 _atom_site_fract_y
 _atom_site_fract_z
 _atom_site_occupancy
  Sm  Sm0  1  0.250000  0.684360  0.434361  1
  Sm  Sm1  1  0.750000  0.815640  0.065640  1
  Sm  Sm2  1  0.434361  0.250000  0.684360  1
  Sm  Sm3  1  0.684360  0.434361  0.250000  1
  Sm  Sm4  1  0.065640  0.750000  0.815640  1
  Sm  Sm5  1  0.815640  0.065640  0.750000  1
  Sm  Sm6  1  0.220833  0.220833  0.220833  1
  Sm  Sm7  1  0.500001  0.000000  0.279167  1
  Sm  Sm8  1  0.279167  0.500001  0.000000  1
  Sm  Sm9  1  0.000000  0.279167  0.500001  1
  Zn  Zn10  1  0.500001  0.000000  0.910994  1
  Zn  Zn11  1  0.589006  0.589006  0.589006  1
  Zn  Zn12  1  0.910994  0.500001  0.000000  1
  Zn  Zn13  1  0.000000  0.910994  0.500001  1
  Ru  Ru14  1  0.250001  0.128074  0.878074  1
  Ru  Ru15  1  0.750000  0.371925  0.621925  1
  Ru  Ru16  1  0.878074  0.250001  0.128074  1
  Ru  Ru17  1  0.128074  0.878074  0.250001  1
  Ru  Ru18  1  0.621925  0.750000  0.371925  1
  Ru  Ru19  1  0.371925  0.621925  0.750000  1
