# generated using pymatgen
data_Tb4HoIn4NiPd
_symmetry_space_group_name_H-M   'P 1'
_cell_length_a   3.60288400
_cell_length_b   8.12293762
_cell_length_c   18.16522554
_cell_angle_alpha   89.99156290
_cell_angle_beta   90.00000000
_cell_angle_gamma   90.00000000
_symmetry_Int_Tables_number   1
_chemical_formula_structural   Tb4HoIn4NiPd
_chemical_formula_sum   'Tb8 Ho2 In8 Ni2 Pd2'
_cell_volume   531.62352106
_cell_formula_units_Z   2
loop_
 _symmetry_equiv_pos_site_id
 _symmetry_equiv_pos_as_xyz
  1  'x, y, z'
loop_
 _atom_site_type_symbol
 _atom_site_label
 _atom_site_symmetry_multiplicity
 _atom_site_fract_x
 _atom_site_fract_y
 _atom_site_fract_z
 _atom_site_occupancy
  Tb  Tb0  1  0.000000  0.500000  0.500000  1
  Tb  Tb1  1  0.000000  0.000000  0.000000  1
  Tb  Tb2  1  0.000000  0.732364  0.278192  1
  Tb  Tb3  1  0.000000  0.267636  0.721808  1
  Tb  Tb4  1  0.000000  0.749483  0.782082  1
  Tb  Tb5  1  0.000000  0.250517  0.217918  1
  Tb  Tb6  1  0.000000  0.616147  0.087231  1
  Tb  Tb7  1  0.000000  0.383853  0.912769  1
  Ho  Ho8  1  0.000000  0.880533  0.584207  1
  Ho  Ho9  1  0.000000  0.119467  0.415793  1
  In  In10  1  0.500000  0.705562  0.932628  1
  In  In11  1  0.500000  0.294438  0.067372  1
  In  In12  1  0.500000  0.794446  0.432352  1
  In  In13  1  0.500000  0.205554  0.567648  1
  In  In14  1  0.500000  0.578546  0.652152  1
  In  In15  1  0.500000  0.421454  0.347848  1
  In  In16  1  0.500000  0.923568  0.150693  1
  In  In17  1  0.500000  0.076432  0.849307  1
  Ni  Ni18  1  0.500000  0.520883  0.195063  1
  Ni  Ni19  1  0.500000  0.479117  0.804937  1
  Pd  Pd20  1  0.500000  0.975750  0.696204  1
  Pd  Pd21  1  0.500000  0.024250  0.303796  1
