# generated using pymatgen
data_Tb8NiHg2Ir
_symmetry_space_group_name_H-M   'P 1'
_cell_length_a   9.61758077
_cell_length_b   9.61758125
_cell_length_c   9.66033700
_cell_angle_alpha   59.85282860
_cell_angle_beta   59.85282692
_cell_angle_gamma   59.64714516
_symmetry_Int_Tables_number   1
_chemical_formula_structural   Tb8NiHg2Ir
_chemical_formula_sum   'Tb16 Ni2 Hg4 Ir2'
_cell_volume   628.74264758
_cell_formula_units_Z   2
loop_
 _symmetry_equiv_pos_site_id
 _symmetry_equiv_pos_as_xyz
  1  'x, y, z'
loop_
 _atom_site_type_symbol
 _atom_site_label
 _atom_site_symmetry_multiplicity
 _atom_site_fract_x
 _atom_site_fract_y
 _atom_site_fract_z
 _atom_site_occupancy
  Tb  Tb0  1  0.351792  0.351792  0.345619  1
  Tb  Tb1  1  0.351792  0.351792  0.950798  1
  Tb  Tb2  1  0.354733  0.946730  0.349269  1
  Tb  Tb3  1  0.946730  0.354733  0.349269  1
  Tb  Tb4  1  0.808980  0.187807  0.191562  1
  Tb  Tb5  1  0.187807  0.808980  0.811652  1
  Tb  Tb6  1  0.187807  0.808980  0.191562  1
  Tb  Tb7  1  0.808980  0.187807  0.811652  1
  Tb  Tb8  1  0.189884  0.189884  0.810116  1
  Tb  Tb9  1  0.810455  0.810455  0.189545  1
  Tb  Tb10  1  0.938511  0.560145  0.565097  1
  Tb  Tb11  1  0.560145  0.938511  0.936247  1
  Tb  Tb12  1  0.560145  0.938511  0.565097  1
  Tb  Tb13  1  0.938511  0.560145  0.936247  1
  Tb  Tb14  1  0.565199  0.565199  0.934801  1
  Tb  Tb15  1  0.939831  0.939831  0.560169  1
  Ni  Ni16  1  0.142343  0.573960  0.141848  1
  Ni  Ni17  1  0.573960  0.142343  0.141848  1
  Hg  Hg18  1  0.583914  0.583914  0.586976  1
  Hg  Hg19  1  0.583914  0.583914  0.245196  1
  Hg  Hg20  1  0.584126  0.243549  0.586162  1
  Hg  Hg21  1  0.243549  0.584126  0.586162  1
  Ir  Ir22  1  0.143447  0.143447  0.141765  1
  Ir  Ir23  1  0.143447  0.143447  0.571342  1
