# generated using pymatgen
data_Nb4V4Si2AsP
_symmetry_space_group_name_H-M   'P 1'
_cell_length_a   3.45769000
_cell_length_b   6.51952102
_cell_length_c   7.88710097
_cell_angle_alpha   90.05421769
_cell_angle_beta   90.00000000
_cell_angle_gamma   90.00000000
_symmetry_Int_Tables_number   1
_chemical_formula_structural   Nb4V4Si2AsP
_chemical_formula_sum   'Nb4 V4 Si2 As1 P1'
_cell_volume   177.79475706
_cell_formula_units_Z   1
loop_
 _symmetry_equiv_pos_site_id
 _symmetry_equiv_pos_as_xyz
  1  'x, y, z'
loop_
 _atom_site_type_symbol
 _atom_site_label
 _atom_site_symmetry_multiplicity
 _atom_site_fract_x
 _atom_site_fract_y
 _atom_site_fract_z
 _atom_site_occupancy
  Nb  Nb0  1  0.250000  0.036366  0.831457  1
  Nb  Nb1  1  0.250000  0.544180  0.674845  1
  Nb  Nb2  1  0.750000  0.962842  0.163441  1
  Nb  Nb3  1  0.750000  0.448117  0.332165  1
  V  V4  1  0.250000  0.133511  0.441674  1
  V  V5  1  0.250000  0.633982  0.052261  1
  V  V6  1  0.750000  0.867250  0.564423  1
  V  V7  1  0.750000  0.374121  0.940831  1
  Si  Si8  1  0.250000  0.256806  0.136277  1
  Si  Si9  1  0.750000  0.244265  0.640830  1
  As  As10  1  0.250000  0.753297  0.359855  1
  P  P11  1  0.750000  0.745262  0.861941  1
