# generated using pymatgen
data_CsAs5Pd9
_symmetry_space_group_name_H-M   'P 1'
_cell_length_a   7.27067000
_cell_length_b   7.27066920
_cell_length_c   12.68777300
_cell_angle_alpha   90.00000000
_cell_angle_beta   90.00000000
_cell_angle_gamma   120.00000363
_symmetry_Int_Tables_number   1
_chemical_formula_structural   CsAs5Pd9
_chemical_formula_sum   'Cs2 As10 Pd18'
_cell_volume   580.85112501
_cell_formula_units_Z   2
loop_
 _symmetry_equiv_pos_site_id
 _symmetry_equiv_pos_as_xyz
  1  'x, y, z'
loop_
 _atom_site_type_symbol
 _atom_site_label
 _atom_site_symmetry_multiplicity
 _atom_site_fract_x
 _atom_site_fract_y
 _atom_site_fract_z
 _atom_site_occupancy
  Cs  Cs0  1  0.000000  0.000000  0.000000  1
  Cs  Cs1  1  0.000000  0.000000  0.500000  1
  As  As2  1  0.818785  0.181215  0.250000  1
  As  As3  1  0.637569  0.818785  0.750000  1
  As  As4  1  0.181215  0.362431  0.750000  1
  As  As5  1  0.818785  0.637569  0.250000  1
  As  As6  1  0.362431  0.181215  0.250000  1
  As  As7  1  0.181215  0.818785  0.750000  1
  As  As8  1  0.333333  0.666667  0.058175  1
  As  As9  1  0.666667  0.333333  0.558175  1
  As  As10  1  0.666667  0.333333  0.941825  1
  As  As11  1  0.333333  0.666667  0.441825  1
  Pd  Pd12  1  0.533936  0.466064  0.106426  1
  Pd  Pd13  1  0.067872  0.533936  0.606426  1
  Pd  Pd14  1  0.466064  0.932128  0.606426  1
  Pd  Pd15  1  0.533936  0.067872  0.106426  1
  Pd  Pd16  1  0.932128  0.466064  0.106426  1
  Pd  Pd17  1  0.067872  0.533936  0.893574  1
  Pd  Pd18  1  0.466064  0.932128  0.893574  1
  Pd  Pd19  1  0.466064  0.533936  0.606426  1
  Pd  Pd20  1  0.466064  0.533936  0.893574  1
  Pd  Pd21  1  0.533936  0.466064  0.393574  1
  Pd  Pd22  1  0.932128  0.466064  0.393574  1
  Pd  Pd23  1  0.533936  0.067872  0.393574  1
  Pd  Pd24  1  0.202474  0.797526  0.250000  1
  Pd  Pd25  1  0.404948  0.202474  0.750000  1
  Pd  Pd26  1  0.797526  0.595052  0.750000  1
  Pd  Pd27  1  0.202474  0.404948  0.250000  1
  Pd  Pd28  1  0.595052  0.797526  0.250000  1
  Pd  Pd29  1  0.797526  0.202474  0.750000  1
