# generated using pymatgen
data_Tb5Tm11(InRh)4
_symmetry_space_group_name_H-M   'P 1'
_cell_length_a   9.57817596
_cell_length_b   9.58137487
_cell_length_c   9.58137472
_cell_angle_alpha   60.03508137
_cell_angle_beta   59.94496697
_cell_angle_gamma   59.94496799
_symmetry_Int_Tables_number   1
_chemical_formula_structural   Tb5Tm11(InRh)4
_chemical_formula_sum   'Tb5 Tm11 In4 Rh4'
_cell_volume   621.40756454
_cell_formula_units_Z   1
loop_
 _symmetry_equiv_pos_site_id
 _symmetry_equiv_pos_as_xyz
  1  'x, y, z'
loop_
 _atom_site_type_symbol
 _atom_site_label
 _atom_site_symmetry_multiplicity
 _atom_site_fract_x
 _atom_site_fract_y
 _atom_site_fract_z
 _atom_site_occupancy
  Tb  Tb0  1  0.062261  0.062806  0.437453  1
  Tb  Tb1  1  0.438206  0.061885  0.437989  1
  Tb  Tb2  1  0.062261  0.437453  0.062806  1
  Tb  Tb3  1  0.048585  0.650639  0.650639  1
  Tb  Tb4  1  0.438206  0.437989  0.061885  1
  Tm  Tm5  1  0.650939  0.047690  0.650504  1
  Tm  Tm6  1  0.188871  0.811567  0.187972  1
  Tm  Tm7  1  0.188871  0.187972  0.811567  1
  Tm  Tm8  1  0.810828  0.811004  0.189086  1
  Tm  Tm9  1  0.440834  0.059281  0.059281  1
  Tm  Tm10  1  0.811259  0.188621  0.188621  1
  Tm  Tm11  1  0.059607  0.440024  0.440024  1
  Tm  Tm12  1  0.810828  0.189086  0.811004  1
  Tm  Tm13  1  0.188429  0.812036  0.812036  1
  Tm  Tm14  1  0.650939  0.650504  0.047690  1
  Tm  Tm15  1  0.650594  0.650884  0.650884  1
  In  In16  1  0.417535  0.417362  0.417362  1
  In  In17  1  0.747878  0.417903  0.417903  1
  In  In18  1  0.418779  0.747812  0.415985  1
  In  In19  1  0.418779  0.415985  0.747812  1
  Rh  Rh20  1  0.856888  0.858058  0.424997  1
  Rh  Rh21  1  0.854858  0.860067  0.860067  1
  Rh  Rh22  1  0.426876  0.858376  0.858376  1
  Rh  Rh23  1  0.856888  0.424997  0.858058  1
