# generated using pymatgen
data_Tb8Lu2Rh5Au
_symmetry_space_group_name_H-M   'P 1'
_cell_length_a   11.02520596
_cell_length_b   10.99633900
_cell_length_c   6.35229000
_cell_angle_alpha   90.00000000
_cell_angle_beta   89.95802025
_cell_angle_gamma   90.00000000
_symmetry_Int_Tables_number   1
_chemical_formula_structural   Tb8Lu2Rh5Au
_chemical_formula_sum   'Tb16 Lu4 Rh10 Au2'
_cell_volume   770.13175523
_cell_formula_units_Z   2
loop_
 _symmetry_equiv_pos_site_id
 _symmetry_equiv_pos_as_xyz
  1  'x, y, z'
loop_
 _atom_site_type_symbol
 _atom_site_label
 _atom_site_symmetry_multiplicity
 _atom_site_fract_x
 _atom_site_fract_y
 _atom_site_fract_z
 _atom_site_occupancy
  Tb  Tb0  1  0.290495  0.088518  0.375955  1
  Tb  Tb1  1  0.290495  0.911482  0.875955  1
  Tb  Tb2  1  0.701893  0.090761  0.869038  1
  Tb  Tb3  1  0.701893  0.909239  0.369038  1
  Tb  Tb4  1  0.580649  0.787582  0.879535  1
  Tb  Tb5  1  0.580649  0.212418  0.379535  1
  Tb  Tb6  1  0.409834  0.788394  0.379834  1
  Tb  Tb7  1  0.409834  0.211606  0.879834  1
  Tb  Tb8  1  0.211611  0.411845  0.619179  1
  Tb  Tb9  1  0.211611  0.588155  0.119179  1
  Tb  Tb10  1  0.787451  0.417841  0.119382  1
  Tb  Tb11  1  0.787451  0.582159  0.619382  1
  Tb  Tb12  1  0.916031  0.707237  0.134610  1
  Tb  Tb13  1  0.916031  0.292763  0.634610  1
  Tb  Tb14  1  0.094366  0.706232  0.621388  1
  Tb  Tb15  1  0.094366  0.293768  0.121388  1
  Lu  Lu16  1  0.008418  0.998941  0.500353  1
  Lu  Lu17  1  0.008418  0.001059  0.000353  1
  Lu  Lu18  1  0.499233  0.499492  0.999934  1
  Lu  Lu19  1  0.499233  0.500508  0.499934  1
  Rh  Rh20  1  0.150246  0.150497  0.750538  1
  Rh  Rh21  1  0.150246  0.849503  0.250538  1
  Rh  Rh22  1  0.651479  0.348819  0.749411  1
  Rh  Rh23  1  0.651479  0.651181  0.249411  1
  Rh  Rh24  1  0.349238  0.349013  0.250926  1
  Rh  Rh25  1  0.349238  0.650987  0.750926  1
  Rh  Rh26  1  0.500517  0.999665  0.122710  1
  Rh  Rh27  1  0.500517  0.000335  0.622710  1
  Rh  Rh28  1  0.999753  0.500741  0.877407  1
  Rh  Rh29  1  0.999753  0.499259  0.377407  1
  Au  Au30  1  0.848784  0.152067  0.249798  1
  Au  Au31  1  0.848784  0.847933  0.749798  1
