# generated using pymatgen
data_Ba2Co5PtO12
_symmetry_space_group_name_H-M   'P 1'
_cell_length_a   4.95356900
_cell_length_b   6.46963050
_cell_length_c   8.61089100
_cell_angle_alpha   89.99996458
_cell_angle_beta   89.99998843
_cell_angle_gamma   74.45654843
_symmetry_Int_Tables_number   1
_chemical_formula_structural   Ba2Co5PtO12
_chemical_formula_sum   'Ba2 Co5 Pt1 O12'
_cell_volume   265.86724117
_cell_formula_units_Z   1
loop_
 _symmetry_equiv_pos_site_id
 _symmetry_equiv_pos_as_xyz
  1  'x, y, z'
loop_
 _atom_site_type_symbol
 _atom_site_label
 _atom_site_symmetry_multiplicity
 _atom_site_fract_x
 _atom_site_fract_y
 _atom_site_fract_z
 _atom_site_occupancy
  Ba  Ba0  1  0.000000  0.499999  0.167357  1
  Ba  Ba1  1  0.500001  0.500000  0.658848  1
  Co  Co2  1  0.000000  0.000000  0.661616  1
  Co  Co3  1  0.500000  0.000000  0.494791  1
  Co  Co4  1  0.500000  0.000000  0.172653  1
  Co  Co5  1  0.000000  0.000000  0.334605  1
  Co  Co6  1  0.000000  0.000000  0.005382  1
  Pt  Pt7  1  0.500000  0.000000  0.833362  1
  O  O8  1  0.778798  0.158660  0.172355  1
  O  O9  1  0.268328  0.165590  0.656665  1
  O  O10  1  0.221201  0.841340  0.172356  1
  O  O11  1  0.731672  0.834410  0.656665  1
  O  O12  1  0.271837  0.163492  0.009423  1
  O  O13  1  0.779327  0.159177  0.495132  1
  O  O14  1  0.272783  0.159573  0.334645  1
  O  O15  1  0.793350  0.166781  0.834139  1
  O  O16  1  0.727217  0.840427  0.334645  1
  O  O17  1  0.206650  0.833220  0.834139  1
  O  O18  1  0.728163  0.836507  0.009423  1
  O  O19  1  0.220673  0.840824  0.495132  1
