# generated using pymatgen
data_Pr8Co3Si12Os
_symmetry_space_group_name_H-M   'P 1'
_cell_length_a   8.17569400
_cell_length_b   8.17569613
_cell_length_c   8.47872000
_cell_angle_alpha   90.00000000
_cell_angle_beta   90.00000000
_cell_angle_gamma   120.00000757
_symmetry_Int_Tables_number   1
_chemical_formula_structural   Pr8Co3Si12Os
_chemical_formula_sum   'Pr8 Co3 Si12 Os1'
_cell_volume   490.80645023
_cell_formula_units_Z   1
loop_
 _symmetry_equiv_pos_site_id
 _symmetry_equiv_pos_as_xyz
  1  'x, y, z'
loop_
 _atom_site_type_symbol
 _atom_site_label
 _atom_site_symmetry_multiplicity
 _atom_site_fract_x
 _atom_site_fract_y
 _atom_site_fract_z
 _atom_site_occupancy
  Pr  Pr0  1  0.500086  0.499914  0.748610  1
  Pr  Pr1  1  0.500590  0.499410  0.251596  1
  Pr  Pr2  1  0.999828  0.499914  0.748610  1
  Pr  Pr3  1  0.998819  0.499410  0.251596  1
  Pr  Pr4  1  0.500086  0.000172  0.748610  1
  Pr  Pr5  1  0.500590  0.001181  0.251596  1
  Pr  Pr6  1  0.000000  0.000000  0.752542  1
  Pr  Pr7  1  0.000000  0.000000  0.247641  1
  Co  Co8  1  0.666667  0.333333  0.997111  1
  Co  Co9  1  0.333333  0.666667  0.002329  1
  Co  Co10  1  0.333333  0.666667  0.497210  1
  Si  Si11  1  0.828953  0.171047  0.000304  1
  Si  Si12  1  0.171126  0.828874  0.999878  1
  Si  Si13  1  0.342095  0.171047  0.000304  1
  Si  Si14  1  0.171459  0.828541  0.500135  1
  Si  Si15  1  0.657747  0.828874  0.999878  1
  Si  Si16  1  0.833841  0.166159  0.499905  1
  Si  Si17  1  0.828953  0.657905  0.000304  1
  Si  Si18  1  0.657082  0.828541  0.500135  1
  Si  Si19  1  0.171126  0.342253  0.999878  1
  Si  Si20  1  0.332317  0.166159  0.499905  1
  Si  Si21  1  0.171459  0.342918  0.500135  1
  Si  Si22  1  0.833841  0.667683  0.499905  1
  Os  Os23  1  0.666667  0.333333  0.501887  1
