# generated using pymatgen
data_NdDyAl2(Co3B)2
_symmetry_space_group_name_H-M   'P 1'
_cell_length_a   5.21302000
_cell_length_b   5.21421451
_cell_length_c   6.68068600
_cell_angle_alpha   90.00000000
_cell_angle_beta   90.00000000
_cell_angle_gamma   119.99242214
_symmetry_Int_Tables_number   1
_chemical_formula_structural   NdDyAl2(Co3B)2
_chemical_formula_sum   'Nd1 Dy1 Al2 Co6 B2'
_cell_volume   157.27624584
_cell_formula_units_Z   1
loop_
 _symmetry_equiv_pos_site_id
 _symmetry_equiv_pos_as_xyz
  1  'x, y, z'
loop_
 _atom_site_type_symbol
 _atom_site_label
 _atom_site_symmetry_multiplicity
 _atom_site_fract_x
 _atom_site_fract_y
 _atom_site_fract_z
 _atom_site_occupancy
  Nd  Nd0  1  0.999971  0.000000  0.000000  1
  Dy  Dy1  1  0.999989  0.000000  0.500000  1
  Al  Al2  1  0.333286  0.666614  0.000000  1
  Al  Al3  1  0.666672  0.333386  0.000000  1
  Co  Co4  1  0.499987  0.000000  0.296748  1
  Co  Co5  1  0.499985  0.500001  0.296711  1
  Co  Co6  1  0.999984  0.499999  0.296711  1
  Co  Co7  1  0.499987  0.000000  0.703252  1
  Co  Co8  1  0.499985  0.500001  0.703289  1
  Co  Co9  1  0.999984  0.499999  0.703289  1
  B  B10  1  0.333314  0.666659  0.500000  1
  B  B11  1  0.666654  0.333341  0.500000  1
