# generated using pymatgen
data_Zr3Ga3OsPdPt
_symmetry_space_group_name_H-M   'P 1'
_cell_length_a   7.39568400
_cell_length_b   7.39568504
_cell_length_c   6.71516200
_cell_angle_alpha   90.00000000
_cell_angle_beta   90.00000000
_cell_angle_gamma   119.99998640
_symmetry_Int_Tables_number   1
_chemical_formula_structural   Zr3Ga3OsPdPt
_chemical_formula_sum   'Zr6 Ga6 Os2 Pd2 Pt2'
_cell_volume   318.08554935
_cell_formula_units_Z   2
loop_
 _symmetry_equiv_pos_site_id
 _symmetry_equiv_pos_as_xyz
  1  'x, y, z'
loop_
 _atom_site_type_symbol
 _atom_site_label
 _atom_site_symmetry_multiplicity
 _atom_site_fract_x
 _atom_site_fract_y
 _atom_site_fract_z
 _atom_site_occupancy
  Zr  Zr0  1  0.400431  0.392173  0.750000  1
  Zr  Zr1  1  0.991742  0.599569  0.750000  1
  Zr  Zr2  1  0.607827  0.008258  0.750000  1
  Zr  Zr3  1  0.611311  0.011965  0.250000  1
  Zr  Zr4  1  0.988035  0.599346  0.250000  1
  Zr  Zr5  1  0.400654  0.388689  0.250000  1
  Ga  Ga6  1  0.272496  0.999359  0.999895  1
  Ga  Ga7  1  0.726862  0.727504  0.999895  1
  Ga  Ga8  1  0.000641  0.273138  0.999895  1
  Ga  Ga9  1  0.726862  0.727504  0.500105  1
  Ga  Ga10  1  0.272496  0.999359  0.500105  1
  Ga  Ga11  1  0.000641  0.273138  0.500105  1
  Os  Os12  1  0.666667  0.333333  0.998644  1
  Os  Os13  1  0.666667  0.333333  0.501356  1
  Pd  Pd14  1  0.000000  0.000000  0.750000  1
  Pd  Pd15  1  0.000000  0.000000  0.250000  1
  Pt  Pt16  1  0.333333  0.666667  0.495787  1
  Pt  Pt17  1  0.333333  0.666667  0.004213  1
