# generated using pymatgen
data_Pr2Ho3BiPb3
_symmetry_space_group_name_H-M   'P 1'
_cell_length_a   8.33030100
_cell_length_b   8.38467900
_cell_length_c   15.83159800
_cell_angle_alpha   90.00000000
_cell_angle_beta   90.00000000
_cell_angle_gamma   90.00000000
_symmetry_Int_Tables_number   1
_chemical_formula_structural   Pr2Ho3BiPb3
_chemical_formula_sum   'Pr8 Ho12 Bi4 Pb12'
_cell_volume   1105.78804010
_cell_formula_units_Z   4
loop_
 _symmetry_equiv_pos_site_id
 _symmetry_equiv_pos_as_xyz
  1  'x, y, z'
loop_
 _atom_site_type_symbol
 _atom_site_label
 _atom_site_symmetry_multiplicity
 _atom_site_fract_x
 _atom_site_fract_y
 _atom_site_fract_z
 _atom_site_occupancy
  Pr  Pr0  1  0.469321  0.675180  0.599654  1
  Pr  Pr1  1  0.969321  0.824820  0.900346  1
  Pr  Pr2  1  0.530679  0.324820  0.099654  1
  Pr  Pr3  1  0.030679  0.175180  0.400346  1
  Pr  Pr4  1  0.523616  0.323759  0.401365  1
  Pr  Pr5  1  0.023616  0.176241  0.098635  1
  Pr  Pr6  1  0.476384  0.676241  0.901365  1
  Pr  Pr7  1  0.976384  0.823759  0.598635  1
  Ho  Ho8  1  0.631574  0.156598  0.624003  1
  Ho  Ho9  1  0.131574  0.343402  0.875997  1
  Ho  Ho10  1  0.368426  0.843402  0.124003  1
  Ho  Ho11  1  0.868426  0.656598  0.375997  1
  Ho  Ho12  1  0.362509  0.841395  0.376959  1
  Ho  Ho13  1  0.862509  0.658605  0.123041  1
  Ho  Ho14  1  0.637491  0.158605  0.876959  1
  Ho  Ho15  1  0.137491  0.341395  0.623041  1
  Ho  Ho16  1  0.802238  0.497936  0.752064  1
  Ho  Ho17  1  0.302238  0.002064  0.747936  1
  Ho  Ho18  1  0.197762  0.502064  0.252064  1
  Ho  Ho19  1  0.697762  0.997936  0.247936  1
  Bi  Bi20  1  0.707160  0.959956  0.455893  1
  Bi  Bi21  1  0.207160  0.540044  0.044107  1
  Bi  Bi22  1  0.292840  0.040044  0.955893  1
  Bi  Bi23  1  0.792840  0.459956  0.544107  1
  Pb  Pb24  1  0.291862  0.039047  0.543863  1
  Pb  Pb25  1  0.791862  0.460953  0.956137  1
  Pb  Pb26  1  0.708138  0.960953  0.043863  1
  Pb  Pb27  1  0.208138  0.539047  0.456137  1
  Pb  Pb28  1  0.439139  0.369805  0.750683  1
  Pb  Pb29  1  0.939139  0.130195  0.749317  1
  Pb  Pb30  1  0.560861  0.630195  0.250683  1
  Pb  Pb31  1  0.060861  0.869805  0.249317  1
  Pb  Pb32  1  0.661910  0.850500  0.749391  1
  Pb  Pb33  1  0.161910  0.649500  0.750609  1
  Pb  Pb34  1  0.338090  0.149500  0.249391  1
  Pb  Pb35  1  0.838090  0.350500  0.250609  1
