# generated using pymatgen
data_Ho7PuGaPd24
_symmetry_space_group_name_H-M   'P 1'
_cell_length_a   8.33807400
_cell_length_b   8.33807400
_cell_length_c   8.33807400
_cell_angle_alpha   89.99982134
_cell_angle_beta   89.99982134
_cell_angle_gamma   89.99982134
_symmetry_Int_Tables_number   1
_chemical_formula_structural   Ho7PuGaPd24
_chemical_formula_sum   'Ho7 Pu1 Ga1 Pd24'
_cell_volume   579.69190455
_cell_formula_units_Z   1
loop_
 _symmetry_equiv_pos_site_id
 _symmetry_equiv_pos_as_xyz
  1  'x, y, z'
loop_
 _atom_site_type_symbol
 _atom_site_label
 _atom_site_symmetry_multiplicity
 _atom_site_fract_x
 _atom_site_fract_y
 _atom_site_fract_z
 _atom_site_occupancy
  Ho  Ho0  1  0.251954  0.251954  0.748187  1
  Ho  Ho1  1  0.251954  0.748187  0.251954  1
  Ho  Ho2  1  0.748187  0.251954  0.251954  1
  Ho  Ho3  1  0.747993  0.747993  0.747993  1
  Ho  Ho4  1  0.747959  0.747959  0.252055  1
  Ho  Ho5  1  0.747959  0.252055  0.747959  1
  Ho  Ho6  1  0.252055  0.747959  0.747959  1
  Pu  Pu7  1  0.251921  0.251921  0.251921  1
  Ga  Ga8  1  0.999832  0.999832  0.999832  1
  Pd  Pd9  1  0.500086  0.500086  0.746935  1
  Pd  Pd10  1  0.499793  0.252849  0.499793  1
  Pd  Pd11  1  0.252849  0.499793  0.499793  1
  Pd  Pd12  1  0.499793  0.499793  0.252849  1
  Pd  Pd13  1  0.500086  0.746935  0.500086  1
  Pd  Pd14  1  0.746935  0.500086  0.500086  1
  Pd  Pd15  1  0.999935  0.999935  0.708828  1
  Pd  Pd16  1  0.999800  0.291867  0.999800  1
  Pd  Pd17  1  0.291867  0.999800  0.999800  1
  Pd  Pd18  1  0.999800  0.999800  0.291867  1
  Pd  Pd19  1  0.999935  0.708828  0.999935  1
  Pd  Pd20  1  0.708828  0.999935  0.999935  1
  Pd  Pd21  1  0.999855  0.500104  0.739939  1
  Pd  Pd22  1  0.499703  0.260303  0.000336  1
  Pd  Pd23  1  0.260303  0.000336  0.499703  1
  Pd  Pd24  1  0.000336  0.260303  0.499703  1
  Pd  Pd25  1  0.500104  0.999855  0.739939  1
  Pd  Pd26  1  0.260303  0.499703  0.000336  1
  Pd  Pd27  1  0.000336  0.499703  0.260303  1
  Pd  Pd28  1  0.500104  0.739939  0.999855  1
  Pd  Pd29  1  0.999855  0.739939  0.500104  1
  Pd  Pd30  1  0.499703  0.000336  0.260303  1
  Pd  Pd31  1  0.739939  0.999855  0.500104  1
  Pd  Pd32  1  0.739939  0.500104  0.999855  1
