# generated using pymatgen
data_Gd3YHf2O10
_symmetry_space_group_name_H-M   'P 1'
_cell_length_a   3.80083500
_cell_length_b   7.56734300
_cell_length_c   15.89974501
_cell_angle_alpha   89.99636062
_cell_angle_beta   90.00000000
_cell_angle_gamma   90.00000000
_symmetry_Int_Tables_number   1
_chemical_formula_structural   Gd3YHf2O10
_chemical_formula_sum   'Gd6 Y2 Hf4 O20'
_cell_volume   457.31199707
_cell_formula_units_Z   2
loop_
 _symmetry_equiv_pos_site_id
 _symmetry_equiv_pos_as_xyz
  1  'x, y, z'
loop_
 _atom_site_type_symbol
 _atom_site_label
 _atom_site_symmetry_multiplicity
 _atom_site_fract_x
 _atom_site_fract_y
 _atom_site_fract_z
 _atom_site_occupancy
  Gd  Gd0  1  0.250000  0.087934  0.089622  1
  Gd  Gd1  1  0.250000  0.142606  0.738783  1
  Gd  Gd2  1  0.750000  0.357516  0.238140  1
  Gd  Gd3  1  0.750000  0.409885  0.589391  1
  Gd  Gd4  1  0.250000  0.590665  0.409810  1
  Gd  Gd5  1  0.250000  0.643815  0.762540  1
  Y  Y6  1  0.750000  0.856990  0.260943  1
  Y  Y7  1  0.750000  0.910656  0.910764  1
  Hf  Hf8  1  0.250000  0.121319  0.427600  1
  Hf  Hf9  1  0.750000  0.378262  0.928615  1
  Hf  Hf10  1  0.250000  0.620418  0.071926  1
  Hf  Hf11  1  0.750000  0.879184  0.571377  1
  O  O12  1  0.750000  0.090910  0.179081  1
  O  O13  1  0.750000  0.081040  0.461604  1
  O  O14  1  0.750000  0.100248  0.652347  1
  O  O15  1  0.750000  0.144246  0.002298  1
  O  O16  1  0.250000  0.297085  0.330839  1
  O  O17  1  0.750000  0.206081  0.830522  1
  O  O18  1  0.250000  0.353033  0.502818  1
  O  O19  1  0.250000  0.397970  0.152417  1
  O  O20  1  0.250000  0.417600  0.962312  1
  O  O21  1  0.250000  0.407679  0.678942  1
  O  O22  1  0.750000  0.595854  0.320592  1
  O  O23  1  0.750000  0.578240  0.038956  1
  O  O24  1  0.750000  0.602584  0.848964  1
  O  O25  1  0.750000  0.647059  0.496877  1
  O  O26  1  0.250000  0.793020  0.169972  1
  O  O27  1  0.750000  0.707694  0.669933  1
  O  O28  1  0.250000  0.850791  0.996490  1
  O  O29  1  0.250000  0.903059  0.344920  1
  O  O30  1  0.250000  0.918188  0.536873  1
  O  O31  1  0.250000  0.908372  0.823733  1
