# generated using pymatgen
data_Ho14Er2Cd4Os3Pd
_symmetry_space_group_name_H-M   'P 1'
_cell_length_a   9.53803082
_cell_length_b   9.67368514
_cell_length_c   9.69290700
_cell_angle_alpha   59.93424449
_cell_angle_beta   59.46138644
_cell_angle_gamma   59.36559797
_symmetry_Int_Tables_number   1
_chemical_formula_structural   Ho14Er2Cd4Os3Pd
_chemical_formula_sum   'Ho14 Er2 Cd4 Os3 Pd1'
_cell_volume   626.42525374
_cell_formula_units_Z   1
loop_
 _symmetry_equiv_pos_site_id
 _symmetry_equiv_pos_as_xyz
  1  'x, y, z'
loop_
 _atom_site_type_symbol
 _atom_site_label
 _atom_site_symmetry_multiplicity
 _atom_site_fract_x
 _atom_site_fract_y
 _atom_site_fract_z
 _atom_site_occupancy
  Ho  Ho0  1  0.347380  0.949459  0.351581  1
  Ho  Ho1  1  0.971959  0.342928  0.342558  1
  Ho  Ho2  1  0.815121  0.189860  0.190410  1
  Ho  Ho3  1  0.184053  0.810780  0.811418  1
  Ho  Ho4  1  0.184053  0.810780  0.193749  1
  Ho  Ho5  1  0.815121  0.189860  0.804610  1
  Ho  Ho6  1  0.184871  0.192660  0.811234  1
  Ho  Ho7  1  0.815494  0.803896  0.190306  1
  Ho  Ho8  1  0.934610  0.562543  0.562861  1
  Ho  Ho9  1  0.551448  0.940874  0.940634  1
  Ho  Ho10  1  0.551448  0.940874  0.567043  1
  Ho  Ho11  1  0.934610  0.562543  0.939986  1
  Ho  Ho12  1  0.551098  0.567103  0.940899  1
  Ho  Ho13  1  0.934333  0.939658  0.563004  1
  Er  Er14  1  0.346855  0.352278  0.351634  1
  Er  Er15  1  0.346855  0.352278  0.949234  1
  Cd  Cd16  1  0.581472  0.578975  0.579479  1
  Cd  Cd17  1  0.581472  0.578975  0.260073  1
  Cd  Cd18  1  0.581284  0.259945  0.579385  1
  Cd  Cd19  1  0.254053  0.581844  0.582052  1
  Os  Os20  1  0.152705  0.136233  0.134536  1
  Os  Os21  1  0.152705  0.136233  0.576526  1
  Os  Os22  1  0.153395  0.576333  0.135136  1
  Pd  Pd23  1  0.573598  0.143093  0.141654  1
