# generated using pymatgen
data_Y11Th9(Ir3Os)3
_symmetry_space_group_name_H-M   'P 1'
_cell_length_a   11.18283103
_cell_length_b   11.13465327
_cell_length_c   6.41451042
_cell_angle_alpha   89.96926038
_cell_angle_beta   89.60522426
_cell_angle_gamma   89.95447026
_symmetry_Int_Tables_number   1
_chemical_formula_structural   Y11Th9(Ir3Os)3
_chemical_formula_sum   'Y11 Th9 Ir9 Os3'
_cell_volume   798.69592409
_cell_formula_units_Z   1
loop_
 _symmetry_equiv_pos_site_id
 _symmetry_equiv_pos_as_xyz
  1  'x, y, z'
loop_
 _atom_site_type_symbol
 _atom_site_label
 _atom_site_symmetry_multiplicity
 _atom_site_fract_x
 _atom_site_fract_y
 _atom_site_fract_z
 _atom_site_occupancy
  Y  Y0  1  0.204490  0.586511  0.115339  1
  Y  Y1  1  0.797342  0.415547  0.111260  1
  Y  Y2  1  0.795855  0.586412  0.615958  1
  Y  Y3  1  0.916390  0.703168  0.112120  1
  Y  Y4  1  0.908994  0.293758  0.616183  1
  Y  Y5  1  0.083373  0.710147  0.616693  1
  Y  Y6  1  0.082759  0.293603  0.115448  1
  Y  Y7  1  0.998576  0.001747  0.505846  1
  Y  Y8  1  0.000136  0.999532  0.005613  1
  Y  Y9  1  0.500050  0.499069  0.010667  1
  Y  Y10  1  0.503771  0.501491  0.510006  1
  Th  Th11  1  0.288981  0.091884  0.381092  1
  Th  Th12  1  0.289099  0.909859  0.880336  1
  Th  Th13  1  0.710854  0.089494  0.882040  1
  Th  Th14  1  0.711431  0.906711  0.381478  1
  Th  Th15  1  0.590019  0.788127  0.880875  1
  Th  Th16  1  0.593124  0.210835  0.382096  1
  Th  Th17  1  0.407793  0.789270  0.380562  1
  Th  Th18  1  0.411004  0.211394  0.881423  1
  Th  Th19  1  0.202738  0.413361  0.617614  1
  Ir  Ir20  1  0.841943  0.149679  0.250386  1
  Ir  Ir21  1  0.842062  0.849155  0.752770  1
  Ir  Ir22  1  0.156975  0.152151  0.749103  1
  Ir  Ir23  1  0.157169  0.850373  0.250232  1
  Ir  Ir24  1  0.650490  0.342066  0.753902  1
  Ir  Ir25  1  0.651752  0.657666  0.250141  1
  Ir  Ir26  1  0.348908  0.343341  0.264452  1
  Ir  Ir27  1  0.346674  0.656347  0.749515  1
  Ir  Ir28  1  0.002336  0.499889  0.375639  1
  Os  Os29  1  0.499934  0.999936  0.118679  1
  Os  Os30  1  0.500305  0.999011  0.618640  1
  Os  Os31  1  0.004674  0.498467  0.863889  1
