# generated using pymatgen
data_Lu12Tc2SnPd2Rh
_symmetry_space_group_name_H-M   'P 1'
_cell_length_a   8.32582417
_cell_length_b   8.32548391
_cell_length_c   8.32582424
_cell_angle_alpha   114.44509183
_cell_angle_beta   111.16632017
_cell_angle_gamma   103.01043738
_symmetry_Int_Tables_number   1
_chemical_formula_structural   Lu12Tc2SnPd2Rh
_chemical_formula_sum   'Lu12 Tc2 Sn1 Pd2 Rh1'
_cell_volume   439.67660133
_cell_formula_units_Z   1
loop_
 _symmetry_equiv_pos_site_id
 _symmetry_equiv_pos_as_xyz
  1  'x, y, z'
loop_
 _atom_site_type_symbol
 _atom_site_label
 _atom_site_symmetry_multiplicity
 _atom_site_fract_x
 _atom_site_fract_y
 _atom_site_fract_z
 _atom_site_occupancy
  Lu  Lu0  1  0.660320  0.847333  0.187012  1
  Lu  Lu1  1  0.339765  0.526830  0.187063  1
  Lu  Lu2  1  0.820347  0.771039  0.591298  1
  Lu  Lu3  1  0.179740  0.771039  0.950691  1
  Lu  Lu4  1  0.820260  0.228961  0.049309  1
  Lu  Lu5  1  0.179653  0.228961  0.408702  1
  Lu  Lu6  1  0.660235  0.473170  0.812937  1
  Lu  Lu7  1  0.339680  0.152667  0.812988  1
  Lu  Lu8  1  0.581551  0.271112  0.310443  1
  Lu  Lu9  1  0.418449  0.728888  0.689557  1
  Lu  Lu10  1  0.039330  0.728888  0.310438  1
  Lu  Lu11  1  0.960670  0.271112  0.689562  1
  Tc  Tc12  1  0.329682  0.500000  0.829682  1
  Tc  Tc13  1  0.670318  0.500000  0.170318  1
  Sn  Sn14  1  0.500000  0.000000  0.500000  1
  Pd  Pd15  1  0.870023  0.869971  0.999949  1
  Pd  Pd16  1  0.129977  0.130029  0.000051  1
  Rh  Rh17  1  0.000000  0.500000  0.500000  1
