# generated using pymatgen
data_Ti4Zn2B4Ru3Rh7
_symmetry_space_group_name_H-M   'P 1'
_cell_length_a   2.99462800
_cell_length_b   9.26361649
_cell_length_c   9.21436753
_cell_angle_alpha   90.11316640
_cell_angle_beta   90.00000000
_cell_angle_gamma   90.00000000
_symmetry_Int_Tables_number   1
_chemical_formula_structural   Ti4Zn2B4Ru3Rh7
_chemical_formula_sum   'Ti4 Zn2 B4 Ru3 Rh7'
_cell_volume   255.61605698
_cell_formula_units_Z   1
loop_
 _symmetry_equiv_pos_site_id
 _symmetry_equiv_pos_as_xyz
  1  'x, y, z'
loop_
 _atom_site_type_symbol
 _atom_site_label
 _atom_site_symmetry_multiplicity
 _atom_site_fract_x
 _atom_site_fract_y
 _atom_site_fract_z
 _atom_site_occupancy
  Ti  Ti0  1  0.000000  0.827756  0.174039  1
  Ti  Ti1  1  0.000000  0.326669  0.319273  1
  Ti  Ti2  1  0.000000  0.672882  0.672701  1
  Ti  Ti3  1  0.000000  0.177830  0.833983  1
  Zn  Zn4  1  0.000000  0.498847  0.999843  1
  Zn  Zn5  1  0.000000  0.000202  0.500548  1
  B  B6  1  0.000000  0.128204  0.124100  1
  B  B7  1  0.000000  0.625269  0.374485  1
  B  B8  1  0.000000  0.374337  0.624650  1
  B  B9  1  0.000000  0.874050  0.875450  1
  Ru  Ru10  1  0.500001  0.997470  0.001208  1
  Ru  Ru11  1  0.500001  0.284563  0.074345  1
  Ru  Ru12  1  0.500001  0.499101  0.498457  1
  Rh  Rh13  1  0.500001  0.576031  0.213657  1
  Rh  Rh14  1  0.500001  0.071468  0.286189  1
  Rh  Rh15  1  0.500001  0.784900  0.427435  1
  Rh  Rh16  1  0.500001  0.214520  0.574668  1
  Rh  Rh17  1  0.500001  0.925473  0.714833  1
  Rh  Rh18  1  0.500001  0.427183  0.784624  1
  Rh  Rh19  1  0.500001  0.713251  0.925517  1
