# generated using pymatgen
data_Tb6TiAl23(Os3Ru)2
_symmetry_space_group_name_H-M   'P 1'
_cell_length_a   8.86210300
_cell_length_b   8.86210420
_cell_length_c   9.57253600
_cell_angle_alpha   90.00000000
_cell_angle_beta   90.00000000
_cell_angle_gamma   119.99999180
_symmetry_Int_Tables_number   1
_chemical_formula_structural   Tb6TiAl23(Os3Ru)2
_chemical_formula_sum   'Tb6 Ti1 Al23 Os6 Ru2'
_cell_volume   651.07545213
_cell_formula_units_Z   1
loop_
 _symmetry_equiv_pos_site_id
 _symmetry_equiv_pos_as_xyz
  1  'x, y, z'
loop_
 _atom_site_type_symbol
 _atom_site_label
 _atom_site_symmetry_multiplicity
 _atom_site_fract_x
 _atom_site_fract_y
 _atom_site_fract_z
 _atom_site_occupancy
  Tb  Tb0  1  0.193641  0.387281  0.249768  1
  Tb  Tb1  1  0.806882  0.613766  0.748478  1
  Tb  Tb2  1  0.612719  0.806359  0.249768  1
  Tb  Tb3  1  0.386234  0.193118  0.748478  1
  Tb  Tb4  1  0.193641  0.806359  0.249768  1
  Tb  Tb5  1  0.806882  0.193118  0.748478  1
  Ti  Ti6  1  0.333333  0.666667  0.991178  1
  Al  Al7  1  0.666667  0.333333  0.982742  1
  Al  Al8  1  0.666667  0.333333  0.514773  1
  Al  Al9  1  0.333333  0.666667  0.483552  1
  Al  Al10  1  0.161920  0.323838  0.575987  1
  Al  Al11  1  0.837910  0.675823  0.423873  1
  Al  Al12  1  0.676162  0.838080  0.575987  1
  Al  Al13  1  0.837355  0.674713  0.077005  1
  Al  Al14  1  0.324177  0.162090  0.423873  1
  Al  Al15  1  0.159037  0.318073  0.925338  1
  Al  Al16  1  0.161920  0.838080  0.575987  1
  Al  Al17  1  0.325287  0.162645  0.077005  1
  Al  Al18  1  0.837910  0.162090  0.423873  1
  Al  Al19  1  0.681927  0.840963  0.925338  1
  Al  Al20  1  0.837355  0.162645  0.077005  1
  Al  Al21  1  0.159037  0.840963  0.925338  1
  Al  Al22  1  0.561781  0.123561  0.253037  1
  Al  Al23  1  0.440691  0.881383  0.750281  1
  Al  Al24  1  0.876439  0.438219  0.253037  1
  Al  Al25  1  0.118617  0.559309  0.750281  1
  Al  Al26  1  0.561781  0.438219  0.253037  1
  Al  Al27  1  0.440691  0.559309  0.750281  1
  Al  Al28  1  0.000000  0.000000  0.249758  1
  Al  Al29  1  0.000000  0.000000  0.749264  1
  Os  Os30  1  0.499018  0.998036  0.003102  1
  Os  Os31  1  0.001964  0.500982  0.003102  1
  Os  Os32  1  0.499651  0.999303  0.502897  1
  Os  Os33  1  0.499018  0.500982  0.003102  1
  Os  Os34  1  0.000697  0.500349  0.502897  1
  Os  Os35  1  0.499651  0.500349  0.502897  1
  Ru  Ru36  1  0.000000  0.000000  0.999971  1
  Ru  Ru37  1  0.000000  0.000000  0.499461  1
