# generated using pymatgen
data_EuTh3(AuCl6)4
_symmetry_space_group_name_H-M   'P 1'
_cell_length_a   8.07730377
_cell_length_b   9.91388081
_cell_length_c   13.80386800
_cell_angle_alpha   102.50115117
_cell_angle_beta   96.84085774
_cell_angle_gamma   113.21348105
_symmetry_Int_Tables_number   1
_chemical_formula_structural   EuTh3(AuCl6)4
_chemical_formula_sum   'Eu1 Th3 Au4 Cl24'
_cell_volume   965.71854314
_cell_formula_units_Z   1
loop_
 _symmetry_equiv_pos_site_id
 _symmetry_equiv_pos_as_xyz
  1  'x, y, z'
loop_
 _atom_site_type_symbol
 _atom_site_label
 _atom_site_symmetry_multiplicity
 _atom_site_fract_x
 _atom_site_fract_y
 _atom_site_fract_z
 _atom_site_occupancy
  Eu  Eu0  1  0.019822  0.688020  0.131859  1
  Th  Th1  1  0.569330  0.901076  0.622662  1
  Th  Th2  1  0.425544  0.091665  0.376866  1
  Th  Th3  1  0.985117  0.320767  0.871034  1
  Au  Au4  1  0.299710  0.628947  0.764725  1
  Au  Au5  1  0.699346  0.371851  0.234576  1
  Au  Au6  1  0.502724  0.501723  0.501132  1
  Au  Au7  1  0.996459  0.997139  0.998478  1
  Cl  Cl8  1  0.623222  0.729264  0.752965  1
  Cl  Cl9  1  0.379153  0.269656  0.245892  1
  Cl  Cl10  1  0.299107  0.863813  0.741805  1
  Cl  Cl11  1  0.704501  0.140426  0.259906  1
  Cl  Cl12  1  0.973315  0.531005  0.768231  1
  Cl  Cl13  1  0.019981  0.468196  0.234414  1
  Cl  Cl14  1  0.303848  0.395423  0.788698  1
  Cl  Cl15  1  0.680113  0.591740  0.200796  1
  Cl  Cl16  1  0.711582  0.377783  0.499079  1
  Cl  Cl17  1  0.288486  0.621665  0.499357  1
  Cl  Cl18  1  0.757121  0.746345  0.518727  1
  Cl  Cl19  1  0.249145  0.258369  0.484258  1
  Cl  Cl20  1  0.785301  0.105673  0.973303  1
  Cl  Cl21  1  0.210317  0.893535  0.020458  1
  Cl  Cl22  1  0.767676  0.796415  0.040378  1
  Cl  Cl23  1  0.227179  0.206309  0.961183  1
  Cl  Cl24  1  0.630076  0.188935  0.737105  1
  Cl  Cl25  1  0.380684  0.814075  0.266414  1
  Cl  Cl26  1  0.941122  0.052553  0.725725  1
  Cl  Cl27  1  0.062118  0.954797  0.281980  1
  Cl  Cl28  1  0.717564  0.051417  0.485895  1
  Cl  Cl29  1  0.284889  0.952209  0.520566  1
  Cl  Cl30  1  0.767710  0.428399  0.967684  1
  Cl  Cl31  1  0.237737  0.560807  0.023848  1
