# generated using pymatgen
data_Ce3Dy3Al24TcOs7
_symmetry_space_group_name_H-M   'P 1'
_cell_length_a   8.85951959
_cell_length_b   8.87005489
_cell_length_c   9.58853230
_cell_angle_alpha   90.02891188
_cell_angle_beta   89.98508829
_cell_angle_gamma   119.92152831
_symmetry_Int_Tables_number   1
_chemical_formula_structural   Ce3Dy3Al24TcOs7
_chemical_formula_sum   'Ce3 Dy3 Al24 Tc1 Os7'
_cell_volume   653.07349874
_cell_formula_units_Z   1
loop_
 _symmetry_equiv_pos_site_id
 _symmetry_equiv_pos_as_xyz
  1  'x, y, z'
loop_
 _atom_site_type_symbol
 _atom_site_label
 _atom_site_symmetry_multiplicity
 _atom_site_fract_x
 _atom_site_fract_y
 _atom_site_fract_z
 _atom_site_occupancy
  Ce  Ce0  1  0.389517  0.193646  0.750237  1
  Ce  Ce1  1  0.193337  0.805978  0.249878  1
  Ce  Ce2  1  0.804481  0.192442  0.750138  1
  Dy  Dy3  1  0.192750  0.388352  0.249498  1
  Dy  Dy4  1  0.805191  0.611160  0.750446  1
  Dy  Dy5  1  0.613203  0.807747  0.249586  1
  Al  Al6  1  0.334848  0.666274  0.012894  1
  Al  Al7  1  0.668114  0.335157  0.989821  1
  Al  Al8  1  0.668229  0.335287  0.511436  1
  Al  Al9  1  0.335061  0.666257  0.485739  1
  Al  Al10  1  0.162735  0.325679  0.575886  1
  Al  Al11  1  0.836205  0.674974  0.424016  1
  Al  Al12  1  0.674506  0.836182  0.575265  1
  Al  Al13  1  0.836326  0.675443  0.078013  1
  Al  Al14  1  0.325288  0.163835  0.422889  1
  Al  Al15  1  0.162307  0.325033  0.922313  1
  Al  Al16  1  0.161852  0.836114  0.575959  1
  Al  Al17  1  0.324363  0.163437  0.078942  1
  Al  Al18  1  0.837571  0.162479  0.424020  1
  Al  Al19  1  0.674927  0.836278  0.922732  1
  Al  Al20  1  0.837895  0.162167  0.077881  1
  Al  Al21  1  0.161321  0.836446  0.922252  1
  Al  Al22  1  0.562310  0.122968  0.250264  1
  Al  Al23  1  0.436775  0.873172  0.749635  1
  Al  Al24  1  0.876367  0.437561  0.250361  1
  Al  Al25  1  0.122781  0.561836  0.749655  1
  Al  Al26  1  0.560429  0.440223  0.250337  1
  Al  Al27  1  0.438759  0.562850  0.749595  1
  Al  Al28  1  0.999497  0.001384  0.249643  1
  Al  Al29  1  0.999274  0.998098  0.750650  1
  Tc  Tc30  1  0.999488  0.999666  0.000460  1
  Os  Os31  1  0.500410  0.000609  0.999038  1
  Os  Os32  1  0.001359  0.500876  0.000939  1
  Os  Os33  1  0.500616  0.000710  0.500845  1
  Os  Os34  1  0.500174  0.499408  0.998779  1
  Os  Os35  1  0.001391  0.500818  0.499072  1
  Os  Os36  1  0.500435  0.499593  0.501104  1
  Os  Os37  1  0.999909  0.999861  0.499777  1
