# generated using pymatgen
data_Hg2Bi2Pd2RuRhO14
_symmetry_space_group_name_H-M   'P 1'
_cell_length_a   7.31039546
_cell_length_b   7.16051366
_cell_length_c   7.29904500
_cell_angle_alpha   60.62587881
_cell_angle_beta   61.16038786
_cell_angle_gamma   60.67594357
_symmetry_Int_Tables_number   1
_chemical_formula_structural   Hg2Bi2Pd2RuRhO14
_chemical_formula_sum   'Hg2 Bi2 Pd2 Ru1 Rh1 O14'
_cell_volume   275.15570124
_cell_formula_units_Z   1
loop_
 _symmetry_equiv_pos_site_id
 _symmetry_equiv_pos_as_xyz
  1  'x, y, z'
loop_
 _atom_site_type_symbol
 _atom_site_label
 _atom_site_symmetry_multiplicity
 _atom_site_fract_x
 _atom_site_fract_y
 _atom_site_fract_z
 _atom_site_occupancy
  Hg  Hg0  1  0.125000  0.125000  0.125000  1
  Hg  Hg1  1  0.125000  0.625000  0.125000  1
  Bi  Bi2  1  0.625000  0.125000  0.125000  1
  Bi  Bi3  1  0.125000  0.125000  0.625000  1
  Pd  Pd4  1  0.625000  0.625000  0.625000  1
  Pd  Pd5  1  0.625000  0.125000  0.625000  1
  Ru  Ru6  1  0.125000  0.625000  0.625000  1
  Rh  Rh7  1  0.625000  0.625000  0.125000  1
  O  O8  1  0.244210  0.255198  0.245394  1
  O  O9  1  0.305188  0.688845  0.317122  1
  O  O10  1  0.956282  0.950822  0.553559  1
  O  O11  1  0.535778  0.962607  0.539006  1
  O  O12  1  0.708622  0.709206  0.290287  1
  O  O13  1  0.956282  0.539337  0.553559  1
  O  O14  1  0.714222  0.287393  0.710994  1
  O  O15  1  0.293718  0.299178  0.696441  1
  O  O16  1  0.708622  0.291883  0.290287  1
  O  O17  1  0.293718  0.710663  0.696441  1
  O  O18  1  0.944812  0.561155  0.932878  1
  O  O19  1  0.541378  0.540794  0.959713  1
  O  O20  1  0.005790  0.994802  0.004606  1
  O  O21  1  0.541378  0.958117  0.959713  1
