# generated using pymatgen
data_Yb17Au36
_symmetry_space_group_name_H-M   'P 1'
_cell_length_a   15.72200600
_cell_length_b   15.72200600
_cell_length_c   9.22877200
_cell_angle_alpha   90.00000000
_cell_angle_beta   90.00000000
_cell_angle_gamma   90.00000000
_symmetry_Int_Tables_number   1
_chemical_formula_structural   Yb17Au36
_chemical_formula_sum   'Yb34 Au72'
_cell_volume   2281.18145384
_cell_formula_units_Z   2
loop_
 _symmetry_equiv_pos_site_id
 _symmetry_equiv_pos_as_xyz
  1  'x, y, z'
loop_
 _atom_site_type_symbol
 _atom_site_label
 _atom_site_symmetry_multiplicity
 _atom_site_fract_x
 _atom_site_fract_y
 _atom_site_fract_z
 _atom_site_occupancy
  Yb  Yb0  1  0.249141  0.500000  0.117886  1
  Yb  Yb1  1  0.671772  0.828228  0.378193  1
  Yb  Yb2  1  0.158048  0.000000  0.414816  1
  Yb  Yb3  1  0.000000  0.500000  0.700859  1
  Yb  Yb4  1  0.671772  0.171772  0.378193  1
  Yb  Yb5  1  0.749141  0.000000  0.882114  1
  Yb  Yb6  1  0.500000  0.658048  0.414816  1
  Yb  Yb7  1  0.841952  0.000000  0.414816  1
  Yb  Yb8  1  0.500000  0.750859  0.882114  1
  Yb  Yb9  1  0.500000  0.000000  0.299141  1
  Yb  Yb10  1  0.000000  0.500000  0.205729  1
  Yb  Yb11  1  0.000000  0.749141  0.117886  1
  Yb  Yb12  1  0.828228  0.671772  0.621807  1
  Yb  Yb13  1  0.000000  0.250859  0.117886  1
  Yb  Yb14  1  0.328228  0.171772  0.378193  1
  Yb  Yb15  1  0.328228  0.828228  0.378193  1
  Yb  Yb16  1  0.000000  0.000000  0.000000  1
  Yb  Yb17  1  0.750859  0.500000  0.117886  1
  Yb  Yb18  1  0.828228  0.328228  0.621807  1
  Yb  Yb19  1  0.500000  0.249141  0.882114  1
  Yb  Yb20  1  0.750000  0.750000  0.000000  1
  Yb  Yb21  1  0.658048  0.500000  0.585184  1
  Yb  Yb22  1  0.500000  0.341952  0.414816  1
  Yb  Yb23  1  0.171772  0.671772  0.621807  1
  Yb  Yb24  1  0.500000  0.500000  0.000000  1
  Yb  Yb25  1  0.000000  0.158048  0.585184  1
  Yb  Yb26  1  0.171772  0.328228  0.621807  1
  Yb  Yb27  1  0.750000  0.250000  0.000000  1
  Yb  Yb28  1  0.500000  0.000000  0.794271  1
  Yb  Yb29  1  0.341952  0.500000  0.585184  1
  Yb  Yb30  1  0.250000  0.750000  0.000000  1
  Yb  Yb31  1  0.250000  0.250000  0.000000  1
  Yb  Yb32  1  0.000000  0.841952  0.585184  1
  Yb  Yb33  1  0.250859  0.000000  0.882114  1
  Au  Au34  1  0.107094  0.392906  0.962829  1
  Au  Au35  1  0.797045  0.861573  0.630361  1
  Au  Au36  1  0.403022  0.335844  0.127021  1
  Au  Au37  1  0.096978  0.835844  0.872979  1
  Au  Au38  1  0.297045  0.638427  0.369639  1
  Au  Au39  1  0.308198  0.000000  0.233028  1
  Au  Au40  1  0.000000  0.691802  0.766972  1
  Au  Au41  1  0.000000  0.646187  0.468175  1
  Au  Au42  1  0.500000  0.808198  0.233028  1
  Au  Au43  1  0.835844  0.096978  0.127021  1
  Au  Au44  1  0.335844  0.596978  0.872979  1
  Au  Au45  1  0.202955  0.861573  0.630361  1
  Au  Au46  1  0.335844  0.403022  0.872979  1
  Au  Au47  1  0.403022  0.664156  0.127021  1
  Au  Au48  1  0.107094  0.607094  0.962829  1
  Au  Au49  1  0.088913  0.000000  0.709885  1
  Au  Au50  1  0.000000  0.353813  0.468175  1
  Au  Au51  1  0.596978  0.664156  0.127021  1
  Au  Au52  1  0.664156  0.403022  0.872979  1
  Au  Au53  1  0.664156  0.596978  0.872979  1
  Au  Au54  1  0.903022  0.835844  0.872979  1
  Au  Au55  1  0.000000  0.308198  0.766972  1
  Au  Au56  1  0.903022  0.164156  0.872979  1
  Au  Au57  1  0.911087  0.000000  0.709885  1
  Au  Au58  1  0.138427  0.202955  0.369639  1
  Au  Au59  1  0.892906  0.607094  0.962829  1
  Au  Au60  1  0.164156  0.903022  0.127021  1
  Au  Au61  1  0.861573  0.797045  0.369639  1
  Au  Au62  1  0.702955  0.638427  0.369639  1
  Au  Au63  1  0.596978  0.335844  0.127021  1
  Au  Au64  1  0.691802  0.000000  0.233028  1
  Au  Au65  1  0.500000  0.411087  0.709885  1
  Au  Au66  1  0.202955  0.138427  0.630361  1
  Au  Au67  1  0.835844  0.903022  0.127021  1
  Au  Au68  1  0.297045  0.361573  0.369639  1
  Au  Au69  1  0.500000  0.191802  0.233028  1
  Au  Au70  1  0.607094  0.107094  0.037171  1
  Au  Au71  1  0.638427  0.702955  0.630361  1
  Au  Au72  1  0.411087  0.500000  0.290115  1
  Au  Au73  1  0.638427  0.297045  0.630361  1
  Au  Au74  1  0.096978  0.164156  0.872979  1
  Au  Au75  1  0.797045  0.138427  0.630361  1
  Au  Au76  1  0.366046  0.133954  0.747926  1
  Au  Au77  1  0.808198  0.500000  0.766972  1
  Au  Au78  1  0.892906  0.392906  0.962829  1
  Au  Au79  1  0.000000  0.911087  0.290115  1
  Au  Au80  1  0.607094  0.892906  0.037171  1
  Au  Au81  1  0.500000  0.853813  0.531825  1
  Au  Au82  1  0.366046  0.866046  0.747926  1
  Au  Au83  1  0.353813  0.000000  0.531825  1
  Au  Au84  1  0.361573  0.702955  0.630361  1
  Au  Au85  1  0.146187  0.500000  0.468175  1
  Au  Au86  1  0.588913  0.500000  0.290115  1
  Au  Au87  1  0.861573  0.202955  0.369639  1
  Au  Au88  1  0.500000  0.588913  0.709885  1
  Au  Au89  1  0.853813  0.500000  0.468175  1
  Au  Au90  1  0.133954  0.633954  0.252074  1
  Au  Au91  1  0.646187  0.000000  0.531825  1
  Au  Au92  1  0.633954  0.866046  0.747926  1
  Au  Au93  1  0.392906  0.892906  0.037171  1
  Au  Au94  1  0.138427  0.797045  0.369639  1
  Au  Au95  1  0.866046  0.366046  0.252074  1
  Au  Au96  1  0.191802  0.500000  0.766972  1
  Au  Au97  1  0.164156  0.096978  0.127021  1
  Au  Au98  1  0.633954  0.133954  0.747926  1
  Au  Au99  1  0.000000  0.088913  0.290115  1
  Au  Au100  1  0.133954  0.366046  0.252074  1
  Au  Au101  1  0.361573  0.297045  0.630361  1
  Au  Au102  1  0.866046  0.633954  0.252074  1
  Au  Au103  1  0.392906  0.107094  0.037171  1
  Au  Au104  1  0.500000  0.146187  0.531825  1
  Au  Au105  1  0.702955  0.361573  0.369639  1
