# generated using pymatgen
data_AcAs12Os3Ru
_symmetry_space_group_name_H-M   'P 1'
_cell_length_a   7.49837290
_cell_length_b   7.49883425
_cell_length_c   7.49883566
_cell_angle_alpha   109.47246094
_cell_angle_beta   109.46998142
_cell_angle_gamma   109.46997163
_symmetry_Int_Tables_number   1
_chemical_formula_structural   AcAs12Os3Ru
_chemical_formula_sum   'Ac1 As12 Os3 Ru1'
_cell_volume   324.59320327
_cell_formula_units_Z   1
loop_
 _symmetry_equiv_pos_site_id
 _symmetry_equiv_pos_as_xyz
  1  'x, y, z'
loop_
 _atom_site_type_symbol
 _atom_site_label
 _atom_site_symmetry_multiplicity
 _atom_site_fract_x
 _atom_site_fract_y
 _atom_site_fract_z
 _atom_site_occupancy
  Ac  Ac0  1  0.000000  0.000000  0.000000  1
  As  As1  1  0.350573  0.199384  0.849535  1
  As  As2  1  0.649427  0.800616  0.150465  1
  As  As3  1  0.649680  0.499051  0.849435  1
  As  As4  1  0.350320  0.500949  0.150565  1
  As  As5  1  0.199754  0.849435  0.350385  1
  As  As6  1  0.800246  0.150565  0.649615  1
  As  As7  1  0.498962  0.849535  0.650150  1
  As  As8  1  0.501038  0.150465  0.349850  1
  As  As9  1  0.848811  0.349850  0.199384  1
  As  As10  1  0.151189  0.650150  0.800616  1
  As  As11  1  0.849369  0.649615  0.499051  1
  As  As12  1  0.150631  0.350385  0.500949  1
  Os  Os13  1  0.000000  0.000000  0.500000  1
  Os  Os14  1  0.000000  0.500000  0.000000  1
  Os  Os15  1  0.500000  0.500000  0.500000  1
  Ru  Ru16  1  0.500000  0.000000  0.000000  1
