# generated using pymatgen
data_Ho4Er8Tc3Rh
_symmetry_space_group_name_H-M   'P 1'
_cell_length_a   6.26091722
_cell_length_b   7.36108676
_cell_length_c   9.07713900
_cell_angle_alpha   90.00000000
_cell_angle_beta   90.00000000
_cell_angle_gamma   89.91733656
_symmetry_Int_Tables_number   1
_chemical_formula_structural   Ho4Er8Tc3Rh
_chemical_formula_sum   'Ho4 Er8 Tc3 Rh1'
_cell_volume   418.33907553
_cell_formula_units_Z   1
loop_
 _symmetry_equiv_pos_site_id
 _symmetry_equiv_pos_as_xyz
  1  'x, y, z'
loop_
 _atom_site_type_symbol
 _atom_site_label
 _atom_site_symmetry_multiplicity
 _atom_site_fract_x
 _atom_site_fract_y
 _atom_site_fract_z
 _atom_site_occupancy
  Ho  Ho0  1  0.875667  0.961179  0.750000  1
  Ho  Ho1  1  0.369256  0.542500  0.250000  1
  Ho  Ho2  1  0.626196  0.459404  0.750000  1
  Ho  Ho3  1  0.127515  0.040951  0.250000  1
  Er  Er4  1  0.662903  0.173924  0.060929  1
  Er  Er5  1  0.168177  0.323149  0.934914  1
  Er  Er6  1  0.836602  0.678623  0.438845  1
  Er  Er7  1  0.336714  0.824125  0.562768  1
  Er  Er8  1  0.336714  0.824125  0.937232  1
  Er  Er9  1  0.836602  0.678623  0.061155  1
  Er  Er10  1  0.168177  0.323149  0.565086  1
  Er  Er11  1  0.662903  0.173924  0.439071  1
  Tc  Tc12  1  0.038246  0.612688  0.750000  1
  Tc  Tc13  1  0.539712  0.884148  0.250000  1
  Tc  Tc14  1  0.459768  0.115094  0.750000  1
  Rh  Rh15  1  0.954848  0.384396  0.250000  1
