# generated using pymatgen
data_YbTm3(Os3Ru)2
_symmetry_space_group_name_H-M   'P 1'
_cell_length_a   5.24046800
_cell_length_b   5.24046836
_cell_length_c   8.95830600
_cell_angle_alpha   89.99908667
_cell_angle_beta   90.00091330
_cell_angle_gamma   119.99513936
_symmetry_Int_Tables_number   1
_chemical_formula_structural   YbTm3(Os3Ru)2
_chemical_formula_sum   'Yb1 Tm3 Os6 Ru2'
_cell_volume   213.06787309
_cell_formula_units_Z   1
loop_
 _symmetry_equiv_pos_site_id
 _symmetry_equiv_pos_as_xyz
  1  'x, y, z'
loop_
 _atom_site_type_symbol
 _atom_site_label
 _atom_site_symmetry_multiplicity
 _atom_site_fract_x
 _atom_site_fract_y
 _atom_site_fract_z
 _atom_site_occupancy
  Yb  Yb0  1  0.666670  0.333330  0.936622  1
  Tm  Tm1  1  0.666671  0.333329  0.570982  1
  Tm  Tm2  1  0.333330  0.666670  0.432487  1
  Tm  Tm3  1  0.333328  0.666672  0.062836  1
  Os  Os4  1  0.170784  0.341554  0.748685  1
  Os  Os5  1  0.170764  0.829236  0.748685  1
  Os  Os6  1  0.658446  0.829216  0.748685  1
  Os  Os7  1  0.828960  0.657924  0.250890  1
  Os  Os8  1  0.828978  0.171022  0.250888  1
  Os  Os9  1  0.342076  0.171040  0.250890  1
  Ru  Ru10  1  0.999997  0.000003  0.498968  1
  Ru  Ru11  1  0.999996  0.000004  0.999382  1
