# generated using pymatgen
data_Ce2Y6Cd2IrRu
_symmetry_space_group_name_H-M   'P 1'
_cell_length_a   9.72093418
_cell_length_b   9.70702971
_cell_length_c   9.70703033
_cell_angle_alpha   59.97145930
_cell_angle_beta   59.95260352
_cell_angle_gamma   59.95260572
_symmetry_Int_Tables_number   1
_chemical_formula_structural   Ce2Y6Cd2IrRu
_chemical_formula_sum   'Ce4 Y12 Cd4 Ir2 Ru2'
_cell_volume   647.08395169
_cell_formula_units_Z   2
loop_
 _symmetry_equiv_pos_site_id
 _symmetry_equiv_pos_as_xyz
  1  'x, y, z'
loop_
 _atom_site_type_symbol
 _atom_site_label
 _atom_site_symmetry_multiplicity
 _atom_site_fract_x
 _atom_site_fract_y
 _atom_site_fract_z
 _atom_site_occupancy
  Ce  Ce0  1  0.347500  0.343272  0.961729  1
  Ce  Ce1  1  0.347500  0.961729  0.343272  1
  Ce  Ce2  1  0.958677  0.345331  0.345331  1
  Ce  Ce3  1  0.350664  0.345331  0.345331  1
  Y  Y4  1  0.562593  0.561578  0.937876  1
  Y  Y5  1  0.937953  0.561578  0.937876  1
  Y  Y6  1  0.563064  0.936936  0.936936  1
  Y  Y7  1  0.937953  0.937876  0.561578  1
  Y  Y8  1  0.562593  0.937876  0.561578  1
  Y  Y9  1  0.939331  0.560669  0.560669  1
  Y  Y10  1  0.189498  0.188929  0.811401  1
  Y  Y11  1  0.810172  0.188929  0.811401  1
  Y  Y12  1  0.189740  0.810260  0.810259  1
  Y  Y13  1  0.810172  0.811402  0.188929  1
  Y  Y14  1  0.189497  0.811401  0.188928  1
  Y  Y15  1  0.811368  0.188632  0.188632  1
  Cd  Cd16  1  0.581725  0.580823  0.255726  1
  Cd  Cd17  1  0.581725  0.255726  0.580823  1
  Cd  Cd18  1  0.257998  0.580368  0.580368  1
  Cd  Cd19  1  0.581265  0.580368  0.580368  1
  Ir  Ir20  1  0.142198  0.145178  0.570426  1
  Ir  Ir21  1  0.142198  0.570426  0.145178  1
  Ru  Ru22  1  0.560585  0.147693  0.147693  1
  Ru  Ru23  1  0.144030  0.147693  0.147693  1
