# generated using pymatgen
data_Mg3TiBe2(B2Rh5)2
_symmetry_space_group_name_H-M   'P 1'
_cell_length_a   2.89474600
_cell_length_b   9.20883675
_cell_length_c   9.20883675
_cell_angle_alpha   90.58439376
_cell_angle_beta   90.00000000
_cell_angle_gamma   90.00000000
_symmetry_Int_Tables_number   1
_chemical_formula_structural   Mg3TiBe2(B2Rh5)2
_chemical_formula_sum   'Mg3 Ti1 Be2 B4 Rh10'
_cell_volume   245.46943339
_cell_formula_units_Z   1
loop_
 _symmetry_equiv_pos_site_id
 _symmetry_equiv_pos_as_xyz
  1  'x, y, z'
loop_
 _atom_site_type_symbol
 _atom_site_label
 _atom_site_symmetry_multiplicity
 _atom_site_fract_x
 _atom_site_fract_y
 _atom_site_fract_z
 _atom_site_occupancy
  Mg  Mg0  1  0.000000  0.823642  0.176359  1
  Mg  Mg1  1  0.000000  0.325758  0.324313  1
  Mg  Mg2  1  0.000000  0.675687  0.674242  1
  Ti  Ti3  1  0.000000  0.175314  0.824687  1
  Be  Be4  1  0.000000  0.498845  0.999387  1
  Be  Be5  1  0.000000  0.000613  0.501155  1
  B  B6  1  0.000000  0.129757  0.131045  1
  B  B7  1  0.000000  0.629938  0.370063  1
  B  B8  1  0.000000  0.372756  0.627245  1
  B  B9  1  0.000000  0.868956  0.870244  1
  Rh  Rh10  1  0.499999  0.001739  0.998261  1
  Rh  Rh11  1  0.499999  0.290927  0.064731  1
  Rh  Rh12  1  0.499999  0.568424  0.205999  1
  Rh  Rh13  1  0.499999  0.070861  0.293611  1
  Rh  Rh14  1  0.499999  0.794003  0.431578  1
  Rh  Rh15  1  0.499999  0.499912  0.500088  1
  Rh  Rh16  1  0.499999  0.206288  0.575073  1
  Rh  Rh17  1  0.499999  0.935270  0.709075  1
  Rh  Rh18  1  0.499999  0.424929  0.793714  1
  Rh  Rh19  1  0.499999  0.706391  0.929140  1
