# generated using pymatgen
data_PuU(PO4)3
_symmetry_space_group_name_H-M   'P 1'
_cell_length_a   9.11536713
_cell_length_b   9.11576433
_cell_length_c   9.41899700
_cell_angle_alpha   90.10675675
_cell_angle_beta   118.81779303
_cell_angle_gamma   119.99399256
_symmetry_Int_Tables_number   1
_chemical_formula_structural   PuU(PO4)3
_chemical_formula_sum   'Pu2 U2 P6 O24'
_cell_volume   562.66535979
_cell_formula_units_Z   2
loop_
 _symmetry_equiv_pos_site_id
 _symmetry_equiv_pos_as_xyz
  1  'x, y, z'
loop_
 _atom_site_type_symbol
 _atom_site_label
 _atom_site_symmetry_multiplicity
 _atom_site_fract_x
 _atom_site_fract_y
 _atom_site_fract_z
 _atom_site_occupancy
  Pu  Pu0  1  0.215601  0.860230  0.075333  1
  Pu  Pu1  1  0.785680  0.640650  0.427483  1
  U  U2  1  0.211936  0.357927  0.568628  1
  U  U3  1  0.786444  0.141329  0.928351  1
  P  P4  1  0.995984  0.958723  0.247641  1
  P  P5  1  0.289623  0.539478  0.250656  1
  P  P6  1  0.286524  0.751001  0.747667  1
  P  P7  1  0.710792  0.250366  0.251357  1
  P  P8  1  0.715087  0.463115  0.749375  1
  P  P9  1  0.001878  0.037213  0.753025  1
  O  O10  1  0.320068  0.718294  0.240541  1
  O  O11  1  0.886346  0.995908  0.079531  1
  O  O12  1  0.862048  0.866092  0.601554  1
  O  O13  1  0.831657  0.804039  0.261697  1
  O  O14  1  0.141975  0.921706  0.248648  1
  O  O15  1  0.459233  0.531535  0.264786  1
  O  O16  1  0.106357  0.729356  0.584060  1
  O  O17  1  0.900958  0.620239  0.912404  1
  O  O18  1  0.290030  0.789762  0.907562  1
  O  O19  1  0.484957  0.904986  0.767362  1
  O  O20  1  0.726165  0.481033  0.592680  1
  O  O21  1  0.721066  0.422818  0.253264  1
  O  O22  1  0.283637  0.579736  0.731984  1
  O  O23  1  0.277995  0.508022  0.408792  1
  O  O24  1  0.526922  0.100686  0.247080  1
  O  O25  1  0.706091  0.192535  0.092317  1
  O  O26  1  0.083581  0.383927  0.088342  1
  O  O27  1  0.905925  0.283809  0.414367  1
  O  O28  1  0.523429  0.446981  0.718378  1
  O  O29  1  0.865352  0.083977  0.765401  1
  O  O30  1  0.148600  0.196413  0.722299  1
  O  O31  1  0.124804  0.131459  0.400156  1
  O  O32  1  0.133330  0.021069  0.922676  1
  O  O33  1  0.689926  0.285584  0.774599  1
