# generated using pymatgen
data_Ti18Re2Si15Ge
_symmetry_space_group_name_H-M   'P 1'
_cell_length_a   6.67283588
_cell_length_b   6.66242435
_cell_length_c   12.18540139
_cell_angle_alpha   90.03698950
_cell_angle_beta   90.22316358
_cell_angle_gamma   90.00511611
_symmetry_Int_Tables_number   1
_chemical_formula_structural   Ti18Re2Si15Ge
_chemical_formula_sum   'Ti18 Re2 Si15 Ge1'
_cell_volume   541.72538576
_cell_formula_units_Z   1
loop_
 _symmetry_equiv_pos_site_id
 _symmetry_equiv_pos_as_xyz
  1  'x, y, z'
loop_
 _atom_site_type_symbol
 _atom_site_label
 _atom_site_symmetry_multiplicity
 _atom_site_fract_x
 _atom_site_fract_y
 _atom_site_fract_z
 _atom_site_occupancy
  Ti  Ti0  1  0.996656  0.147863  0.621420  1
  Ti  Ti1  1  0.354268  0.498947  0.873058  1
  Ti  Ti2  1  0.650741  0.506049  0.370617  1
  Ti  Ti3  1  0.495808  0.350018  0.129843  1
  Ti  Ti4  1  0.503851  0.649391  0.626340  1
  Ti  Ti5  1  0.004190  0.849951  0.120639  1
  Ti  Ti6  1  0.147950  0.998079  0.377207  1
  Ti  Ti7  1  0.847567  0.002854  0.880432  1
  Ti  Ti8  1  0.999592  0.340051  0.222847  1
  Ti  Ti9  1  0.154716  0.502128  0.470551  1
  Ti  Ti10  1  0.836218  0.502569  0.973717  1
  Ti  Ti11  1  0.501055  0.156248  0.528887  1
  Ti  Ti12  1  0.500424  0.839860  0.027443  1
  Ti  Ti13  1  0.999075  0.661142  0.719718  1
  Ti  Ti14  1  0.346690  0.000716  0.779403  1
  Ti  Ti15  1  0.661564  0.000224  0.278040  1
  Ti  Ti16  1  0.666565  0.328080  0.750675  1
  Ti  Ti17  1  0.829738  0.828213  0.498579  1
  Re  Re18  1  0.174320  0.169093  0.004427  1
  Re  Re19  1  0.327510  0.671097  0.247979  1
  Si  Si20  1  0.197124  0.541362  0.064295  1
  Si  Si21  1  0.802028  0.455478  0.564958  1
  Si  Si22  1  0.540761  0.197743  0.935995  1
  Si  Si23  1  0.454223  0.801716  0.434111  1
  Si  Si24  1  0.959251  0.697886  0.314159  1
  Si  Si25  1  0.303436  0.041065  0.186415  1
  Si  Si26  1  0.698723  0.955698  0.685038  1
  Si  Si27  1  0.296330  0.358440  0.671718  1
  Si  Si28  1  0.141398  0.795376  0.921703  1
  Si  Si29  1  0.856581  0.205873  0.424535  1
  Si  Si30  1  0.794522  0.142036  0.077889  1
  Si  Si31  1  0.206777  0.858632  0.575585  1
  Si  Si32  1  0.705483  0.642065  0.172512  1
  Si  Si33  1  0.359022  0.295545  0.328480  1
  Si  Si34  1  0.643502  0.705395  0.824682  1
  Ge  Ge35  1  0.042337  0.303117  0.816102  1
