# generated using pymatgen
data_Nb6Co16Si6As
_symmetry_space_group_name_H-M   'P 1'
_cell_length_a   7.94304633
_cell_length_b   7.94304693
_cell_length_c   7.94304700
_cell_angle_alpha   60.00000389
_cell_angle_beta   60.00000137
_cell_angle_gamma   60.00000343
_symmetry_Int_Tables_number   1
_chemical_formula_structural   Nb6Co16Si6As
_chemical_formula_sum   'Nb6 Co16 Si6 As1'
_cell_volume   354.36138255
_cell_formula_units_Z   1
loop_
 _symmetry_equiv_pos_site_id
 _symmetry_equiv_pos_as_xyz
  1  'x, y, z'
loop_
 _atom_site_type_symbol
 _atom_site_label
 _atom_site_symmetry_multiplicity
 _atom_site_fract_x
 _atom_site_fract_y
 _atom_site_fract_z
 _atom_site_occupancy
  Nb  Nb0  1  0.202027  0.797973  0.202027  1
  Nb  Nb1  1  0.202027  0.797973  0.797973  1
  Nb  Nb2  1  0.797973  0.202027  0.202027  1
  Nb  Nb3  1  0.797973  0.797973  0.202027  1
  Nb  Nb4  1  0.202027  0.202027  0.797973  1
  Nb  Nb5  1  0.797973  0.202027  0.797973  1
  Co  Co6  1  0.166334  0.166334  0.166334  1
  Co  Co7  1  0.499002  0.833666  0.833666  1
  Co  Co8  1  0.833666  0.499002  0.833666  1
  Co  Co9  1  0.833666  0.833666  0.499002  1
  Co  Co10  1  0.166334  0.500998  0.166334  1
  Co  Co11  1  0.166334  0.166334  0.500998  1
  Co  Co12  1  0.500998  0.166334  0.166334  1
  Co  Co13  1  0.833666  0.833666  0.833666  1
  Co  Co14  1  0.380492  0.380492  0.380492  1
  Co  Co15  1  0.141476  0.619508  0.619508  1
  Co  Co16  1  0.619508  0.141476  0.619508  1
  Co  Co17  1  0.619508  0.619508  0.141476  1
  Co  Co18  1  0.380492  0.858524  0.380492  1
  Co  Co19  1  0.380492  0.380492  0.858524  1
  Co  Co20  1  0.858524  0.380492  0.380492  1
  Co  Co21  1  0.619508  0.619508  0.619508  1
  Si  Si22  1  0.000000  0.500000  0.000000  1
  Si  Si23  1  0.500000  0.000000  0.000000  1
  Si  Si24  1  0.000000  0.500000  0.500000  1
  Si  Si25  1  0.500000  0.000000  0.500000  1
  Si  Si26  1  0.000000  0.000000  0.500000  1
  Si  Si27  1  0.500000  0.500000  0.000000  1
  As  As28  1  0.500000  0.500000  0.500000  1
