# generated using pymatgen
data_TbThFe2Si3Ge
_symmetry_space_group_name_H-M   'P 1'
_cell_length_a   4.07270200
_cell_length_b   4.30961620
_cell_length_c   8.10192743
_cell_angle_alpha   76.23230076
_cell_angle_beta   90.00000000
_cell_angle_gamma   90.00000000
_symmetry_Int_Tables_number   1
_chemical_formula_structural   TbThFe2Si3Ge
_chemical_formula_sum   'Tb1 Th1 Fe2 Si3 Ge1'
_cell_volume   138.11756919
_cell_formula_units_Z   1
loop_
 _symmetry_equiv_pos_site_id
 _symmetry_equiv_pos_as_xyz
  1  'x, y, z'
loop_
 _atom_site_type_symbol
 _atom_site_label
 _atom_site_symmetry_multiplicity
 _atom_site_fract_x
 _atom_site_fract_y
 _atom_site_fract_z
 _atom_site_occupancy
  Tb  Tb0  1  0.750000  0.388604  0.209133  1
  Th  Th1  1  0.250000  0.609807  0.792065  1
  Fe  Fe2  1  0.250000  0.881602  0.397525  1
  Fe  Fe3  1  0.750000  0.114316  0.609257  1
  Si  Si4  1  0.750000  0.058984  0.900706  1
  Si  Si5  1  0.250000  0.327731  0.492257  1
  Si  Si6  1  0.750000  0.672382  0.499922  1
  Ge  Ge7  1  0.250000  0.946574  0.099135  1
