# generated using pymatgen
data_Ho4TiOs7
_symmetry_space_group_name_H-M   'P 1'
_cell_length_a   5.39642300
_cell_length_b   5.39642203
_cell_length_c   8.66986400
_cell_angle_alpha   90.00000000
_cell_angle_beta   90.00000000
_cell_angle_gamma   120.00001207
_symmetry_Int_Tables_number   1
_chemical_formula_structural   Ho4TiOs7
_chemical_formula_sum   'Ho4 Ti1 Os7'
_cell_volume   218.65265497
_cell_formula_units_Z   1
loop_
 _symmetry_equiv_pos_site_id
 _symmetry_equiv_pos_as_xyz
  1  'x, y, z'
loop_
 _atom_site_type_symbol
 _atom_site_label
 _atom_site_symmetry_multiplicity
 _atom_site_fract_x
 _atom_site_fract_y
 _atom_site_fract_z
 _atom_site_occupancy
  Ho  Ho0  1  0.333333  0.666667  0.427882  1
  Ho  Ho1  1  0.666667  0.333333  0.572118  1
  Ho  Ho2  1  0.666667  0.333333  0.938838  1
  Ho  Ho3  1  0.333333  0.666667  0.061162  1
  Ti  Ti4  1  0.000000  0.000000  0.500000  1
  Os  Os5  1  0.000000  0.000000  0.000000  1
  Os  Os6  1  0.827391  0.172609  0.250642  1
  Os  Os7  1  0.827391  0.654782  0.250642  1
  Os  Os8  1  0.345218  0.172609  0.250642  1
  Os  Os9  1  0.172609  0.827391  0.749358  1
  Os  Os10  1  0.172609  0.345218  0.749358  1
  Os  Os11  1  0.654782  0.827391  0.749358  1
