# generated using pymatgen
data_Ca4BiPb11
_symmetry_space_group_name_H-M   'P 1'
_cell_length_a   10.26844900
_cell_length_b   6.95997950
_cell_length_c   6.95831855
_cell_angle_alpha   89.81664417
_cell_angle_beta   90.00000000
_cell_angle_gamma   90.00000000
_symmetry_Int_Tables_number   1
_chemical_formula_structural   Ca4BiPb11
_chemical_formula_sum   'Ca4 Bi1 Pb11'
_cell_volume   497.29591714
_cell_formula_units_Z   1
loop_
 _symmetry_equiv_pos_site_id
 _symmetry_equiv_pos_as_xyz
  1  'x, y, z'
loop_
 _atom_site_type_symbol
 _atom_site_label
 _atom_site_symmetry_multiplicity
 _atom_site_fract_x
 _atom_site_fract_y
 _atom_site_fract_z
 _atom_site_occupancy
  Ca  Ca0  1  0.250000  0.006746  0.001097  1
  Ca  Ca1  1  0.250000  0.498866  0.504236  1
  Ca  Ca2  1  0.750000  0.997325  0.000355  1
  Ca  Ca3  1  0.750000  0.503718  0.498948  1
  Bi  Bi4  1  0.750000  0.497635  0.998649  1
  Pb  Pb5  1  0.999924  0.246165  0.746047  1
  Pb  Pb6  1  0.499526  0.251449  0.249832  1
  Pb  Pb7  1  0.498362  0.747482  0.247201  1
  Pb  Pb8  1  0.001304  0.748499  0.752745  1
  Pb  Pb9  1  0.001638  0.747482  0.247201  1
  Pb  Pb10  1  0.498696  0.748499  0.752745  1
  Pb  Pb11  1  0.500076  0.246165  0.746047  1
  Pb  Pb12  1  0.000474  0.251449  0.249832  1
  Pb  Pb13  1  0.250000  0.999505  0.500899  1
  Pb  Pb14  1  0.250000  0.505394  0.003407  1
  Pb  Pb15  1  0.750000  0.003618  0.500761  1
