# generated using pymatgen
data_GdAlWO6
_symmetry_space_group_name_H-M   'P 1'
_cell_length_a   5.25287700
_cell_length_b   7.35332000
_cell_length_c   10.82680100
_cell_angle_alpha   90.00000000
_cell_angle_beta   90.00000000
_cell_angle_gamma   90.00000000
_symmetry_Int_Tables_number   1
_chemical_formula_structural   GdAlWO6
_chemical_formula_sum   'Gd4 Al4 W4 O24'
_cell_volume   418.19694114
_cell_formula_units_Z   4
loop_
 _symmetry_equiv_pos_site_id
 _symmetry_equiv_pos_as_xyz
  1  'x, y, z'
loop_
 _atom_site_type_symbol
 _atom_site_label
 _atom_site_symmetry_multiplicity
 _atom_site_fract_x
 _atom_site_fract_y
 _atom_site_fract_z
 _atom_site_occupancy
  Gd  Gd0  1  0.953095  0.252656  0.044218  1
  Gd  Gd1  1  0.453095  0.752656  0.455782  1
  Gd  Gd2  1  0.546906  0.252656  0.544219  1
  Gd  Gd3  1  0.046904  0.752656  0.955782  1
  Al  Al4  1  0.454138  0.506726  0.136532  1
  Al  Al5  1  0.954139  0.006725  0.363469  1
  Al  Al6  1  0.045862  0.506726  0.636533  1
  Al  Al7  1  0.545861  0.006725  0.863468  1
  W  W8  1  0.447155  0.998687  0.144620  1
  W  W9  1  0.947153  0.498688  0.355378  1
  W  W10  1  0.052846  0.998687  0.644621  1
  W  W11  1  0.552846  0.498688  0.855379  1
  O  O12  1  0.734594  0.540956  0.024297  1
  O  O13  1  0.731084  0.963442  0.023354  1
  O  O14  1  0.341170  0.749678  0.122223  1
  O  O15  1  0.550105  0.253122  0.143801  1
  O  O16  1  0.125035  0.060914  0.214321  1
  O  O17  1  0.133929  0.443921  0.212878  1
  O  O18  1  0.633930  0.943920  0.287122  1
  O  O19  1  0.625035  0.560915  0.285680  1
  O  O20  1  0.050107  0.753124  0.356198  1
  O  O21  1  0.841169  0.249678  0.377776  1
  O  O22  1  0.231081  0.463441  0.476647  1
  O  O23  1  0.234593  0.040956  0.475703  1
  O  O24  1  0.765408  0.540956  0.524298  1
  O  O25  1  0.768918  0.963442  0.523353  1
  O  O26  1  0.158832  0.749678  0.622224  1
  O  O27  1  0.949894  0.253122  0.643801  1
  O  O28  1  0.374964  0.060914  0.714322  1
  O  O29  1  0.366071  0.443921  0.712878  1
  O  O30  1  0.866072  0.943920  0.787122  1
  O  O31  1  0.874964  0.560915  0.785679  1
  O  O32  1  0.449895  0.753124  0.856199  1
  O  O33  1  0.658831  0.249678  0.877776  1
  O  O34  1  0.268917  0.463441  0.976647  1
  O  O35  1  0.265407  0.040956  0.975703  1
