# generated using pymatgen
data_PrNd4SnRuO12
_symmetry_space_group_name_H-M   'P 1'
_cell_length_a   7.13899332
_cell_length_b   7.13899344
_cell_length_c   7.63576712
_cell_angle_alpha   74.47584990
_cell_angle_beta   74.47585645
_cell_angle_gamma   50.94957283
_symmetry_Int_Tables_number   1
_chemical_formula_structural   PrNd4SnRuO12
_chemical_formula_sum   'Pr1 Nd4 Sn1 Ru1 O12'
_cell_volume   288.63045102
_cell_formula_units_Z   1
loop_
 _symmetry_equiv_pos_site_id
 _symmetry_equiv_pos_as_xyz
  1  'x, y, z'
loop_
 _atom_site_type_symbol
 _atom_site_label
 _atom_site_symmetry_multiplicity
 _atom_site_fract_x
 _atom_site_fract_y
 _atom_site_fract_z
 _atom_site_occupancy
  Pr  Pr0  1  0.005476  0.994524  0.500000  1
  Nd  Nd1  1  0.299145  0.306182  0.360125  1
  Nd  Nd2  1  0.693818  0.700855  0.639875  1
  Nd  Nd3  1  0.690898  0.698907  0.166884  1
  Nd  Nd4  1  0.301093  0.309102  0.833116  1
  Sn  Sn5  1  0.761540  0.238460  0.000000  1
  Ru  Ru6  1  0.249253  0.750747  0.000000  1
  O  O7  1  0.093700  0.595428  0.576743  1
  O  O8  1  0.017224  0.981102  0.181080  1
  O  O9  1  0.404572  0.906300  0.423257  1
  O  O10  1  0.490784  0.510230  0.179957  1
  O  O11  1  0.100043  0.580510  0.080072  1
  O  O12  1  0.902929  0.406032  0.422572  1
  O  O13  1  0.018898  0.982776  0.818920  1
  O  O14  1  0.593968  0.097070  0.577428  1
  O  O15  1  0.489770  0.509216  0.820043  1
  O  O16  1  0.569295  0.101898  0.081316  1
  O  O17  1  0.419490  0.899957  0.919928  1
  O  O18  1  0.898102  0.430705  0.918684  1
