# generated using pymatgen
data_Pr3Nd(Re2Si)8
_symmetry_space_group_name_H-M   'P 1'
_cell_length_a   4.17155400
_cell_length_b   7.36880326
_cell_length_c   15.58036454
_cell_angle_alpha   89.96957388
_cell_angle_beta   90.00000000
_cell_angle_gamma   90.00000000
_symmetry_Int_Tables_number   1
_chemical_formula_structural   Pr3Nd(Re2Si)8
_chemical_formula_sum   'Pr3 Nd1 Re16 Si8'
_cell_volume   478.93037840
_cell_formula_units_Z   1
loop_
 _symmetry_equiv_pos_site_id
 _symmetry_equiv_pos_as_xyz
  1  'x, y, z'
loop_
 _atom_site_type_symbol
 _atom_site_label
 _atom_site_symmetry_multiplicity
 _atom_site_fract_x
 _atom_site_fract_y
 _atom_site_fract_z
 _atom_site_occupancy
  Pr  Pr0  1  0.000000  0.578291  0.118187  1
  Pr  Pr1  1  0.000000  0.421811  0.881536  1
  Pr  Pr2  1  0.500000  0.078077  0.382067  1
  Nd  Nd3  1  0.500000  0.921419  0.618215  1
  Re  Re4  1  0.000000  0.136424  0.052375  1
  Re  Re5  1  0.000000  0.863847  0.947603  1
  Re  Re6  1  0.500000  0.636288  0.448027  1
  Re  Re7  1  0.500000  0.362759  0.552550  1
  Re  Re8  1  0.000000  0.731244  0.321096  1
  Re  Re9  1  0.000000  0.268301  0.678822  1
  Re  Re10  1  0.500000  0.231114  0.179245  1
  Re  Re11  1  0.500000  0.769162  0.820540  1
  Re  Re12  1  0.000000  0.432529  0.418819  1
  Re  Re13  1  0.000000  0.567319  0.581620  1
  Re  Re14  1  0.500000  0.932803  0.081468  1
  Re  Re15  1  0.500000  0.067516  0.918526  1
  Re  Re16  1  0.000000  0.990153  0.206297  1
  Re  Re17  1  0.000000  0.010112  0.793419  1
  Re  Re18  1  0.500000  0.489856  0.293906  1
  Re  Re19  1  0.500000  0.510736  0.705879  1
  Si  Si20  1  0.000000  0.825948  0.475798  1
  Si  Si21  1  0.000000  0.173248  0.524792  1
  Si  Si22  1  0.500000  0.325663  0.024620  1
  Si  Si23  1  0.500000  0.674536  0.975197  1
  Si  Si24  1  0.000000  0.291919  0.273580  1
  Si  Si25  1  0.000000  0.709040  0.726153  1
  Si  Si26  1  0.500000  0.791914  0.226693  1
  Si  Si27  1  0.500000  0.207967  0.772972  1
