# generated using pymatgen
data_Sc4UCo6Si
_symmetry_space_group_name_H-M   'P 1'
_cell_length_a   5.16139200
_cell_length_b   5.16139235
_cell_length_c   7.59017900
_cell_angle_alpha   90.00000000
_cell_angle_beta   90.00000000
_cell_angle_gamma   119.99999773
_symmetry_Int_Tables_number   1
_chemical_formula_structural   Sc4UCo6Si
_chemical_formula_sum   'Sc4 U1 Co6 Si1'
_cell_volume   175.11218947
_cell_formula_units_Z   1
loop_
 _symmetry_equiv_pos_site_id
 _symmetry_equiv_pos_as_xyz
  1  'x, y, z'
loop_
 _atom_site_type_symbol
 _atom_site_label
 _atom_site_symmetry_multiplicity
 _atom_site_fract_x
 _atom_site_fract_y
 _atom_site_fract_z
 _atom_site_occupancy
  Sc  Sc0  1  0.333333  0.666667  0.572208  1
  Sc  Sc1  1  0.666667  0.333333  0.427792  1
  Sc  Sc2  1  0.666667  0.333333  0.047141  1
  Sc  Sc3  1  0.333333  0.666667  0.952859  1
  U  U4  1  0.000000  0.000000  0.500000  1
  Co  Co5  1  0.832326  0.167674  0.748698  1
  Co  Co6  1  0.664654  0.832326  0.251302  1
  Co  Co7  1  0.167674  0.832326  0.251302  1
  Co  Co8  1  0.832326  0.664654  0.748698  1
  Co  Co9  1  0.167674  0.335346  0.251302  1
  Co  Co10  1  0.335346  0.167674  0.748698  1
  Si  Si11  1  0.000000  0.000000  0.000000  1
