# generated using pymatgen
data_Na4HoUSe6
_symmetry_space_group_name_H-M   'P 1'
_cell_length_a   7.21431207
_cell_length_b   7.21431263
_cell_length_c   7.36296962
_cell_angle_alpha   80.51528360
_cell_angle_beta   80.51527886
_cell_angle_gamma   120.00478402
_symmetry_Int_Tables_number   1
_chemical_formula_structural   Na4HoUSe6
_chemical_formula_sum   'Na4 Ho1 U1 Se6'
_cell_volume   313.31502828
_cell_formula_units_Z   1
loop_
 _symmetry_equiv_pos_site_id
 _symmetry_equiv_pos_as_xyz
  1  'x, y, z'
loop_
 _atom_site_type_symbol
 _atom_site_label
 _atom_site_symmetry_multiplicity
 _atom_site_fract_x
 _atom_site_fract_y
 _atom_site_fract_z
 _atom_site_occupancy
  Na  Na0  1  0.000029  0.999971  0.000000  1
  Na  Na1  1  0.500717  0.499283  0.500000  1
  Na  Na2  1  0.838977  0.161023  0.500000  1
  Na  Na3  1  0.160207  0.839793  0.500000  1
  Ho  Ho4  1  0.667032  0.332968  0.000000  1
  U  U5  1  0.332673  0.667327  0.000000  1
  Se  Se6  1  0.274034  0.281839  0.230180  1
  Se  Se7  1  0.427899  0.068626  0.770237  1
  Se  Se8  1  0.085700  0.436804  0.772021  1
  Se  Se9  1  0.718161  0.725966  0.769820  1
  Se  Se10  1  0.563196  0.914300  0.227979  1
  Se  Se11  1  0.931374  0.572101  0.229763  1
