# generated using pymatgen
data_Li4La(PrSn2)2
_symmetry_space_group_name_H-M   'P 1'
_cell_length_a   8.95463994
_cell_length_b   8.95464044
_cell_length_c   8.95464099
_cell_angle_alpha   149.17127104
_cell_angle_beta   132.37791553
_cell_angle_gamma   57.81053329
_symmetry_Int_Tables_number   1
_chemical_formula_structural   Li4La(PrSn2)2
_chemical_formula_sum   'Li4 La1 Pr2 Sn4'
_cell_volume   269.80772548
_cell_formula_units_Z   1
loop_
 _symmetry_equiv_pos_site_id
 _symmetry_equiv_pos_as_xyz
  1  'x, y, z'
loop_
 _atom_site_type_symbol
 _atom_site_label
 _atom_site_symmetry_multiplicity
 _atom_site_fract_x
 _atom_site_fract_y
 _atom_site_fract_z
 _atom_site_occupancy
  Li  Li0  1  0.480587  0.671303  0.809285  1
  Li  Li1  1  0.862018  0.671303  0.190715  1
  Li  Li2  1  0.138294  0.328285  0.810010  1
  Li  Li3  1  0.518276  0.328285  0.189990  1
  La  La4  1  0.868855  0.868855  0.000000  1
  Pr  Pr5  1  0.500378  0.000378  0.500000  1
  Pr  Pr6  1  0.131285  0.131285  0.000000  1
  Sn  Sn7  1  0.286586  0.786586  0.500000  1
  Sn  Sn8  1  0.712297  0.212297  0.500000  1
  Sn  Sn9  1  0.802830  0.500712  0.302118  1
  Sn  Sn10  1  0.198594  0.500712  0.697882  1
