# generated using pymatgen
data_Mg6Co16Si6Ge
_symmetry_space_group_name_H-M   'P 1'
_cell_length_a   8.01397528
_cell_length_b   8.01397581
_cell_length_c   7.98311400
_cell_angle_alpha   60.12730023
_cell_angle_beta   60.12729802
_cell_angle_gamma   59.96418428
_symmetry_Int_Tables_number   1
_chemical_formula_structural   Mg6Co16Si6Ge
_chemical_formula_sum   'Mg6 Co16 Si6 Ge1'
_cell_volume   363.13505944
_cell_formula_units_Z   1
loop_
 _symmetry_equiv_pos_site_id
 _symmetry_equiv_pos_as_xyz
  1  'x, y, z'
loop_
 _atom_site_type_symbol
 _atom_site_label
 _atom_site_symmetry_multiplicity
 _atom_site_fract_x
 _atom_site_fract_y
 _atom_site_fract_z
 _atom_site_occupancy
  Mg  Mg0  1  0.206186  0.793814  0.796427  1
  Mg  Mg1  1  0.795930  0.795930  0.204070  1
  Mg  Mg2  1  0.793814  0.206186  0.203573  1
  Mg  Mg3  1  0.204070  0.204070  0.795930  1
  Mg  Mg4  1  0.793814  0.206186  0.796427  1
  Mg  Mg5  1  0.206186  0.793814  0.203573  1
  Co  Co6  1  0.617536  0.617536  0.146842  1
  Co  Co7  1  0.175141  0.476764  0.174048  1
  Co  Co8  1  0.853112  0.387336  0.379776  1
  Co  Co9  1  0.523236  0.824859  0.825952  1
  Co  Co10  1  0.476764  0.175141  0.174048  1
  Co  Co11  1  0.822932  0.822932  0.524175  1
  Co  Co12  1  0.177068  0.177068  0.475825  1
  Co  Co13  1  0.146888  0.612664  0.620224  1
  Co  Co14  1  0.177068  0.177068  0.170041  1
  Co  Co15  1  0.382464  0.382464  0.853158  1
  Co  Co16  1  0.617536  0.617536  0.618085  1
  Co  Co17  1  0.387336  0.853112  0.379776  1
  Co  Co18  1  0.382464  0.382464  0.381915  1
  Co  Co19  1  0.822932  0.822932  0.829959  1
  Co  Co20  1  0.612664  0.146888  0.620224  1
  Co  Co21  1  0.824859  0.523236  0.825952  1
  Si  Si22  1  0.500000  0.000000  0.500000  1
  Si  Si23  1  0.500000  0.500000  0.000000  1
  Si  Si24  1  0.500000  0.500000  0.500000  1
  Si  Si25  1  0.000000  0.500000  0.000000  1
  Si  Si26  1  0.000000  0.500000  0.500000  1
  Si  Si27  1  0.500000  0.000000  0.000000  1
  Ge  Ge28  1  0.000000  0.000000  0.500000  1
