# generated using pymatgen
data_Th2Co3Ni4B3
_symmetry_space_group_name_H-M   'P 1'
_cell_length_a   5.02717915
_cell_length_b   5.03118057
_cell_length_c   13.27414600
_cell_angle_alpha   90.00000000
_cell_angle_beta   90.00000000
_cell_angle_gamma   120.00191503
_symmetry_Int_Tables_number   1
_chemical_formula_structural   Th2Co3Ni4B3
_chemical_formula_sum   'Th4 Co6 Ni8 B6'
_cell_volume   290.75226579
_cell_formula_units_Z   2
loop_
 _symmetry_equiv_pos_site_id
 _symmetry_equiv_pos_as_xyz
  1  'x, y, z'
loop_
 _atom_site_type_symbol
 _atom_site_label
 _atom_site_symmetry_multiplicity
 _atom_site_fract_x
 _atom_site_fract_y
 _atom_site_fract_z
 _atom_site_occupancy
  Th  Th0  1  0.000000  0.000000  0.000000  1
  Th  Th1  1  0.000000  0.000000  0.500000  1
  Th  Th2  1  0.000000  0.000000  0.738616  1
  Th  Th3  1  0.000000  0.000000  0.261384  1
  Co  Co4  1  0.500000  0.500000  0.616407  1
  Co  Co5  1  0.500000  0.000000  0.616434  1
  Co  Co6  1  0.000000  0.500000  0.616401  1
  Co  Co7  1  0.500000  0.500000  0.383593  1
  Co  Co8  1  0.500000  0.000000  0.383566  1
  Co  Co9  1  0.000000  0.500000  0.383599  1
  Ni  Ni10  1  0.666745  0.333406  0.000000  1
  Ni  Ni11  1  0.333255  0.666594  0.000000  1
  Ni  Ni12  1  0.500000  0.500000  0.844567  1
  Ni  Ni13  1  0.500000  0.000000  0.844479  1
  Ni  Ni14  1  0.000000  0.500000  0.844672  1
  Ni  Ni15  1  0.500000  0.500000  0.155433  1
  Ni  Ni16  1  0.500000  0.000000  0.155521  1
  Ni  Ni17  1  0.000000  0.500000  0.155328  1
  B  B18  1  0.666481  0.332988  0.500000  1
  B  B19  1  0.333519  0.667012  0.500000  1
  B  B20  1  0.666650  0.333275  0.729917  1
  B  B21  1  0.333350  0.666725  0.729917  1
  B  B22  1  0.333350  0.666725  0.270083  1
  B  B23  1  0.666650  0.333275  0.270083  1
