# generated using pymatgen
data_Th4CdHgPd4
_symmetry_space_group_name_H-M   'P 1'
_cell_length_a   7.97131400
_cell_length_b   7.97131400
_cell_length_c   3.80420700
_cell_angle_alpha   90.00000000
_cell_angle_beta   90.00000000
_cell_angle_gamma   90.00000000
_symmetry_Int_Tables_number   1
_chemical_formula_structural   Th4CdHgPd4
_chemical_formula_sum   'Th4 Cd1 Hg1 Pd4'
_cell_volume   241.72633872
_cell_formula_units_Z   1
loop_
 _symmetry_equiv_pos_site_id
 _symmetry_equiv_pos_as_xyz
  1  'x, y, z'
loop_
 _atom_site_type_symbol
 _atom_site_label
 _atom_site_symmetry_multiplicity
 _atom_site_fract_x
 _atom_site_fract_y
 _atom_site_fract_z
 _atom_site_occupancy
  Th  Th0  1  0.675850  0.173656  0.500000  1
  Th  Th1  1  0.324150  0.826344  0.500000  1
  Th  Th2  1  0.173656  0.324150  0.500000  1
  Th  Th3  1  0.826344  0.675850  0.500000  1
  Cd  Cd4  1  0.500000  0.500000  0.000000  1
  Hg  Hg5  1  0.000000  0.000000  0.000000  1
  Pd  Pd6  1  0.130458  0.624240  0.000000  1
  Pd  Pd7  1  0.869542  0.375760  0.000000  1
  Pd  Pd8  1  0.624240  0.869542  0.000000  1
  Pd  Pd9  1  0.375760  0.130458  0.000000  1
