# generated using pymatgen
data_Dy3Er2V3(P3Ir4)4
_symmetry_space_group_name_H-M   'P 1'
_cell_length_a   12.67875900
_cell_length_b   12.67875842
_cell_length_c   3.95478900
_cell_angle_alpha   90.00000000
_cell_angle_beta   90.00000000
_cell_angle_gamma   119.99999891
_symmetry_Int_Tables_number   1
_chemical_formula_structural   Dy3Er2V3(P3Ir4)4
_chemical_formula_sum   'Dy3 Er2 V3 P12 Ir16'
_cell_volume   550.56351457
_cell_formula_units_Z   1
loop_
 _symmetry_equiv_pos_site_id
 _symmetry_equiv_pos_as_xyz
  1  'x, y, z'
loop_
 _atom_site_type_symbol
 _atom_site_label
 _atom_site_symmetry_multiplicity
 _atom_site_fract_x
 _atom_site_fract_y
 _atom_site_fract_z
 _atom_site_occupancy
  Dy  Dy0  1  0.000000  0.811446  0.000000  1
  Dy  Dy1  1  0.188554  0.188554  0.000000  1
  Dy  Dy2  1  0.811446  0.000000  0.000000  1
  Er  Er3  1  0.333333  0.666667  0.500000  1
  Er  Er4  1  0.666667  0.333333  0.500000  1
  V  V5  1  0.000000  0.450814  0.500000  1
  V  V6  1  0.549186  0.549186  0.500000  1
  V  V7  1  0.450814  0.000000  0.500000  1
  P  P8  1  0.000000  0.635765  0.500000  1
  P  P9  1  0.364235  0.364235  0.500000  1
  P  P10  1  0.635765  0.000000  0.500000  1
  P  P11  1  0.516485  0.683754  0.000000  1
  P  P12  1  0.316246  0.832730  0.000000  1
  P  P13  1  0.167270  0.483515  0.000000  1
  P  P14  1  0.483515  0.167270  0.000000  1
  P  P15  1  0.683754  0.516485  0.000000  1
  P  P16  1  0.832730  0.316246  0.000000  1
  P  P17  1  0.000000  0.177245  0.500000  1
  P  P18  1  0.822755  0.822755  0.500000  1
  P  P19  1  0.177245  0.000000  0.500000  1
  Ir  Ir20  1  0.508955  0.866920  0.000000  1
  Ir  Ir21  1  0.133080  0.642036  0.000000  1
  Ir  Ir22  1  0.357964  0.491045  0.000000  1
  Ir  Ir23  1  0.491045  0.357964  0.000000  1
  Ir  Ir24  1  0.866920  0.508955  0.000000  1
  Ir  Ir25  1  0.642036  0.133080  0.000000  1
  Ir  Ir26  1  0.000000  0.285299  0.000000  1
  Ir  Ir27  1  0.714701  0.714701  0.000000  1
  Ir  Ir28  1  0.285299  0.000000  0.000000  1
  Ir  Ir29  1  0.625123  0.803896  0.500000  1
  Ir  Ir30  1  0.196104  0.821227  0.500000  1
  Ir  Ir31  1  0.178773  0.374877  0.500000  1
  Ir  Ir32  1  0.374877  0.178773  0.500000  1
  Ir  Ir33  1  0.803896  0.625123  0.500000  1
  Ir  Ir34  1  0.821227  0.196104  0.500000  1
  Ir  Ir35  1  0.000000  0.000000  0.500000  1
