# generated using pymatgen
data_Eu2CrSiO8
_symmetry_space_group_name_H-M   'P 1'
_cell_length_a   6.06170721
_cell_length_b   6.06170586
_cell_length_c   6.06170667
_cell_angle_alpha   105.93280206
_cell_angle_beta   105.93280356
_cell_angle_gamma   116.80660814
_symmetry_Int_Tables_number   1
_chemical_formula_structural   Eu2CrSiO8
_chemical_formula_sum   'Eu2 Cr1 Si1 O8'
_cell_volume   169.32659635
_cell_formula_units_Z   1
loop_
 _symmetry_equiv_pos_site_id
 _symmetry_equiv_pos_as_xyz
  1  'x, y, z'
loop_
 _atom_site_type_symbol
 _atom_site_label
 _atom_site_symmetry_multiplicity
 _atom_site_fract_x
 _atom_site_fract_y
 _atom_site_fract_z
 _atom_site_occupancy
  Eu  Eu0  1  0.000000  0.000000  0.000000  1
  Eu  Eu1  1  0.250000  0.750000  0.500000  1
  Cr  Cr2  1  0.500000  0.500000  0.000000  1
  Si  Si3  1  0.750000  0.250000  0.500000  1
  O  O4  1  0.338906  0.517907  0.179001  1
  O  O5  1  0.408972  0.084973  0.323997  1
  O  O6  1  0.760976  0.084973  0.676003  1
  O  O7  1  0.338906  0.159906  0.820999  1
  O  O8  1  0.840094  0.661094  0.179001  1
  O  O9  1  0.915027  0.239024  0.323997  1
  O  O10  1  0.915027  0.591028  0.676003  1
  O  O11  1  0.482093  0.661094  0.820999  1
