# generated using pymatgen
data_CaCe3(B4Ru)4
_symmetry_space_group_name_H-M   'P 1'
_cell_length_a   3.61555100
_cell_length_b   6.00122812
_cell_length_c   11.62453004
_cell_angle_alpha   90.05319810
_cell_angle_beta   90.00000000
_cell_angle_gamma   90.00000000
_symmetry_Int_Tables_number   1
_chemical_formula_structural   CaCe3(B4Ru)4
_chemical_formula_sum   'Ca1 Ce3 B16 Ru4'
_cell_volume   252.22599549
_cell_formula_units_Z   1
loop_
 _symmetry_equiv_pos_site_id
 _symmetry_equiv_pos_as_xyz
  1  'x, y, z'
loop_
 _atom_site_type_symbol
 _atom_site_label
 _atom_site_symmetry_multiplicity
 _atom_site_fract_x
 _atom_site_fract_y
 _atom_site_fract_z
 _atom_site_occupancy
  Ca  Ca0  1  0.500000  0.871255  0.649384  1
  Ce  Ce1  1  0.500000  0.628756  0.149521  1
  Ce  Ce2  1  0.500000  0.371003  0.847869  1
  Ce  Ce3  1  0.500000  0.127754  0.352098  1
  B  B4  1  0.000000  0.974928  0.190680  1
  B  B5  1  0.000000  0.025079  0.808698  1
  B  B6  1  0.000000  0.473830  0.310204  1
  B  B7  1  0.000000  0.523670  0.690460  1
  B  B8  1  0.000000  0.786688  0.316072  1
  B  B9  1  0.000000  0.214902  0.685056  1
  B  B10  1  0.000000  0.285760  0.186224  1
  B  B11  1  0.000000  0.714762  0.814222  1
  B  B12  1  0.000000  0.862727  0.469070  1
  B  B13  1  0.000000  0.138149  0.531492  1
  B  B14  1  0.000000  0.362156  0.030817  1
  B  B15  1  0.000000  0.636829  0.968114  1
  B  B16  1  0.000000  0.888327  0.045504  1
  B  B17  1  0.000000  0.110477  0.952863  1
  B  B18  1  0.000000  0.389414  0.455642  1
  B  B19  1  0.000000  0.613421  0.547238  1
  Ru  Ru20  1  0.500000  0.637676  0.406274  1
  Ru  Ru21  1  0.500000  0.361165  0.590866  1
  Ru  Ru22  1  0.500000  0.140740  0.093599  1
  Ru  Ru23  1  0.500000  0.860530  0.908033  1
