# generated using pymatgen
data_NaDy(Cu2P)4
_symmetry_space_group_name_H-M   'P 1'
_cell_length_a   7.24668959
_cell_length_b   7.24668930
_cell_length_c   3.78085600
_cell_angle_alpha   90.00000000
_cell_angle_beta   90.00000000
_cell_angle_gamma   88.85094913
_symmetry_Int_Tables_number   1
_chemical_formula_structural   NaDy(Cu2P)4
_chemical_formula_sum   'Na1 Dy1 Cu8 P4'
_cell_volume   198.50986626
_cell_formula_units_Z   1
loop_
 _symmetry_equiv_pos_site_id
 _symmetry_equiv_pos_as_xyz
  1  'x, y, z'
loop_
 _atom_site_type_symbol
 _atom_site_label
 _atom_site_symmetry_multiplicity
 _atom_site_fract_x
 _atom_site_fract_y
 _atom_site_fract_z
 _atom_site_occupancy
  Na  Na0  1  0.500000  0.500000  0.500000  1
  Dy  Dy1  1  0.000000  0.000000  0.000000  1
  Cu  Cu2  1  0.664192  0.915104  0.500000  1
  Cu  Cu3  1  0.165366  0.584776  0.000000  1
  Cu  Cu4  1  0.415224  0.834634  0.000000  1
  Cu  Cu5  1  0.915104  0.664192  0.500000  1
  Cu  Cu6  1  0.834634  0.415224  0.000000  1
  Cu  Cu7  1  0.584776  0.165366  0.000000  1
  Cu  Cu8  1  0.084896  0.335808  0.500000  1
  Cu  Cu9  1  0.335808  0.084896  0.500000  1
  P  P10  1  0.277675  0.277675  0.000000  1
  P  P11  1  0.722325  0.722325  0.000000  1
  P  P12  1  0.785536  0.214464  0.500000  1
  P  P13  1  0.214464  0.785536  0.500000  1
