# generated using pymatgen
data_Rb5Tb(MoH9)3
_symmetry_space_group_name_H-M   'P 1'
_cell_length_a   9.73641697
_cell_length_b   9.58963307
_cell_length_c   5.64338100
_cell_angle_alpha   90.00000000
_cell_angle_beta   90.00000000
_cell_angle_gamma   119.50255351
_symmetry_Int_Tables_number   1
_chemical_formula_structural   Rb5Tb(MoH9)3
_chemical_formula_sum   'Rb5 Tb1 Mo3 H27'
_cell_volume   458.59186944
_cell_formula_units_Z   1
loop_
 _symmetry_equiv_pos_site_id
 _symmetry_equiv_pos_as_xyz
  1  'x, y, z'
loop_
 _atom_site_type_symbol
 _atom_site_label
 _atom_site_symmetry_multiplicity
 _atom_site_fract_x
 _atom_site_fract_y
 _atom_site_fract_z
 _atom_site_occupancy
  Rb  Rb0  1  0.730288  0.742333  0.500000  1
  Rb  Rb1  1  0.269712  0.012045  0.500000  1
  Rb  Rb2  1  0.000000  0.611274  0.000000  1
  Rb  Rb3  1  0.417938  0.399072  0.000000  1
  Rb  Rb4  1  0.582062  0.981134  0.000000  1
  Tb  Tb5  1  0.000000  0.252146  0.500000  1
  Mo  Mo6  1  0.718955  0.330686  0.500000  1
  Mo  Mo7  1  0.281045  0.611733  0.500000  1
  Mo  Mo8  1  0.000000  0.044308  0.000000  1
  H  H9  1  0.844074  0.324453  0.726819  1
  H  H10  1  0.723856  0.456319  0.726918  1
  H  H11  1  0.568018  0.206296  0.694537  1
  H  H12  1  0.155926  0.480380  0.273181  1
  H  H13  1  0.568018  0.206296  0.305463  1
  H  H14  1  0.844074  0.324453  0.273181  1
  H  H15  1  0.723856  0.456319  0.273082  1
  H  H16  1  0.276144  0.732464  0.726918  1
  H  H17  1  0.431982  0.638279  0.694537  1
  H  H18  1  0.175900  0.042090  0.000000  1
  H  H19  1  0.824100  0.866191  0.000000  1
  H  H20  1  0.000000  0.228634  0.000000  1
  H  H21  1  0.873534  0.040761  0.232533  1
  H  H22  1  0.126466  0.167227  0.767467  1
  H  H23  1  0.000000  0.907122  0.795597  1
  H  H24  1  0.000000  0.907122  0.204403  1
  H  H25  1  0.126466  0.167227  0.232533  1
  H  H26  1  0.873534  0.040761  0.767467  1
  H  H27  1  0.137567  0.674323  0.500000  1
  H  H28  1  0.430857  0.809802  0.500000  1
  H  H29  1  0.282693  0.427309  0.500000  1
  H  H30  1  0.569143  0.378945  0.500000  1
  H  H31  1  0.862433  0.536755  0.500000  1
  H  H32  1  0.717307  0.144616  0.500000  1
  H  H33  1  0.155926  0.480380  0.726819  1
  H  H34  1  0.276144  0.732464  0.273082  1
  H  H35  1  0.431982  0.638279  0.305463  1
