# generated using pymatgen
data_Lu4Fe(CoSi2)5
_symmetry_space_group_name_H-M   'P 1'
_cell_length_a   7.77559688
_cell_length_b   7.77559633
_cell_length_c   5.42710505
_cell_angle_alpha   71.15186765
_cell_angle_beta   71.15187400
_cell_angle_gamma   93.86400849
_symmetry_Int_Tables_number   1
_chemical_formula_structural   Lu4Fe(CoSi2)5
_chemical_formula_sum   'Lu4 Fe1 Co5 Si10'
_cell_volume   288.42221236
_cell_formula_units_Z   1
loop_
 _symmetry_equiv_pos_site_id
 _symmetry_equiv_pos_as_xyz
  1  'x, y, z'
loop_
 _atom_site_type_symbol
 _atom_site_label
 _atom_site_symmetry_multiplicity
 _atom_site_fract_x
 _atom_site_fract_y
 _atom_site_fract_z
 _atom_site_occupancy
  Lu  Lu0  1  0.129947  0.405441  0.736006  1
  Lu  Lu1  1  0.594559  0.870053  0.763994  1
  Lu  Lu2  1  0.870469  0.595048  0.262569  1
  Lu  Lu3  1  0.404952  0.129531  0.237431  1
  Fe  Fe4  1  0.996232  0.003768  0.750000  1
  Co  Co5  1  0.542891  0.262873  0.627815  1
  Co  Co6  1  0.262325  0.542072  0.125228  1
  Co  Co7  1  0.457928  0.737675  0.374772  1
  Co  Co8  1  0.003812  0.996188  0.250000  1
  Co  Co9  1  0.737127  0.457109  0.872185  1
  Si  Si10  1  0.772585  0.227415  0.250000  1
  Si  Si11  1  0.225591  0.774409  0.750000  1
  Si  Si12  1  0.512124  0.487876  0.250000  1
  Si  Si13  1  0.487945  0.512055  0.750000  1
  Si  Si14  1  0.212017  0.787983  0.250000  1
  Si  Si15  1  0.789245  0.210755  0.750000  1
  Si  Si16  1  0.737141  0.930445  0.166767  1
  Si  Si17  1  0.930049  0.736493  0.667894  1
  Si  Si18  1  0.263507  0.069951  0.832106  1
  Si  Si19  1  0.069555  0.262859  0.333233  1
