# generated using pymatgen
data_LaErCu2SiGe
_symmetry_space_group_name_H-M   'P 1'
_cell_length_a   4.22603200
_cell_length_b   4.22603331
_cell_length_c   7.63255000
_cell_angle_alpha   90.00000000
_cell_angle_beta   90.00000000
_cell_angle_gamma   120.00000543
_symmetry_Int_Tables_number   1
_chemical_formula_structural   LaErCu2SiGe
_chemical_formula_sum   'La1 Er1 Cu2 Si1 Ge1'
_cell_volume   118.04999218
_cell_formula_units_Z   1
loop_
 _symmetry_equiv_pos_site_id
 _symmetry_equiv_pos_as_xyz
  1  'x, y, z'
loop_
 _atom_site_type_symbol
 _atom_site_label
 _atom_site_symmetry_multiplicity
 _atom_site_fract_x
 _atom_site_fract_y
 _atom_site_fract_z
 _atom_site_occupancy
  La  La0  1  0.000000  0.000000  0.499785  1
  Er  Er1  1  0.000000  0.000000  0.998554  1
  Cu  Cu2  1  0.333333  0.666667  0.208585  1
  Cu  Cu3  1  0.666667  0.333333  0.777392  1
  Si  Si4  1  0.333333  0.666667  0.774720  1
  Ge  Ge5  1  0.666667  0.333333  0.240964  1
