# generated using pymatgen
data_YbPrAl16Pt9
_symmetry_space_group_name_H-M   'P 1'
_cell_length_a   11.17992370
_cell_length_b   11.17992364
_cell_length_c   11.17992367
_cell_angle_alpha   158.47255070
_cell_angle_beta   115.45092417
_cell_angle_gamma   68.90105343
_symmetry_Int_Tables_number   1
_chemical_formula_structural   YbPrAl16Pt9
_chemical_formula_sum   'Yb1 Pr1 Al16 Pt9'
_cell_volume   459.65542120
_cell_formula_units_Z   1
loop_
 _symmetry_equiv_pos_site_id
 _symmetry_equiv_pos_as_xyz
  1  'x, y, z'
loop_
 _atom_site_type_symbol
 _atom_site_label
 _atom_site_symmetry_multiplicity
 _atom_site_fract_x
 _atom_site_fract_y
 _atom_site_fract_z
 _atom_site_occupancy
  Yb  Yb0  1  0.771926  0.771926  0.000000  1
  Pr  Pr1  1  0.228111  0.228111  0.000000  1
  Al  Al2  1  0.273328  0.392299  0.881031  1
  Al  Al3  1  0.090506  0.919568  0.170937  1
  Al  Al4  1  0.512140  0.204362  0.307779  1
  Al  Al5  1  0.252275  0.080349  0.171926  1
  Al  Al6  1  0.913465  0.413465  0.500000  1
  Al  Al7  1  0.727430  0.608604  0.118825  1
  Al  Al8  1  0.896582  0.204362  0.692221  1
  Al  Al9  1  0.488957  0.795504  0.693452  1
  Al  Al10  1  0.383851  0.999649  0.384201  1
  Al  Al11  1  0.615448  0.999649  0.615799  1
  Al  Al12  1  0.489778  0.608604  0.881175  1
  Al  Al13  1  0.102052  0.795504  0.306548  1
  Al  Al14  1  0.908422  0.080349  0.828074  1
  Al  Al15  1  0.748631  0.919568  0.829063  1
  Al  Al16  1  0.511268  0.392299  0.118969  1
  Al  Al17  1  0.085960  0.585960  0.500000  1
  Pt  Pt18  1  0.749417  0.500179  0.249238  1
  Pt  Pt19  1  0.025296  0.339520  0.685776  1
  Pt  Pt20  1  0.624222  0.124222  0.500000  1
  Pt  Pt21  1  0.250941  0.500179  0.750762  1
  Pt  Pt22  1  0.375843  0.875843  0.500000  1
  Pt  Pt23  1  0.000615  0.000615  0.000000  1
  Pt  Pt24  1  0.653743  0.339520  0.314224  1
  Pt  Pt25  1  0.346516  0.659896  0.686621  1
  Pt  Pt26  1  0.973275  0.659896  0.313379  1
