# generated using pymatgen
data_KNd2CoH12Ru
_symmetry_space_group_name_H-M   'P 1'
_cell_length_a   5.12209500
_cell_length_b   5.12209491
_cell_length_c   8.51692300
_cell_angle_alpha   90.00000000
_cell_angle_beta   90.00000000
_cell_angle_gamma   120.00000703
_symmetry_Int_Tables_number   1
_chemical_formula_structural   KNd2CoH12Ru
_chemical_formula_sum   'K1 Nd2 Co1 H12 Ru1'
_cell_volume   193.51229900
_cell_formula_units_Z   1
loop_
 _symmetry_equiv_pos_site_id
 _symmetry_equiv_pos_as_xyz
  1  'x, y, z'
loop_
 _atom_site_type_symbol
 _atom_site_label
 _atom_site_symmetry_multiplicity
 _atom_site_fract_x
 _atom_site_fract_y
 _atom_site_fract_z
 _atom_site_occupancy
  K  K0  1  0.000000  0.000000  0.009851  1
  Nd  Nd1  1  0.666667  0.333333  0.351511  1
  Nd  Nd2  1  0.333333  0.666667  0.636872  1
  Co  Co3  1  0.666667  0.333333  0.717056  1
  H  H4  1  0.169968  0.830032  0.393661  1
  H  H5  1  0.660064  0.830032  0.393661  1
  H  H6  1  0.169968  0.339936  0.393661  1
  H  H7  1  0.815704  0.184296  0.619754  1
  H  H8  1  0.368593  0.184296  0.619754  1
  H  H9  1  0.815704  0.631407  0.619754  1
  H  H10  1  0.535167  0.070334  0.832602  1
  H  H11  1  0.535167  0.464833  0.832602  1
  H  H12  1  0.929666  0.464833  0.832602  1
  H  H13  1  0.480042  0.960084  0.154314  1
  H  H14  1  0.480042  0.519958  0.154314  1
  H  H15  1  0.039916  0.519958  0.154314  1
  Ru  Ru16  1  0.333333  0.666667  0.283715  1
