# generated using pymatgen
data_Sc2Fe3P7IrRu8
_symmetry_space_group_name_H-M   'P 1'
_cell_length_a   9.20806231
_cell_length_b   9.25845423
_cell_length_c   3.82006800
_cell_angle_alpha   90.00000000
_cell_angle_beta   90.00000000
_cell_angle_gamma   119.66014629
_symmetry_Int_Tables_number   1
_chemical_formula_structural   Sc2Fe3P7IrRu8
_chemical_formula_sum   'Sc2 Fe3 P7 Ir1 Ru8'
_cell_volume   282.99944039
_cell_formula_units_Z   1
loop_
 _symmetry_equiv_pos_site_id
 _symmetry_equiv_pos_as_xyz
  1  'x, y, z'
loop_
 _atom_site_type_symbol
 _atom_site_label
 _atom_site_symmetry_multiplicity
 _atom_site_fract_x
 _atom_site_fract_y
 _atom_site_fract_z
 _atom_site_occupancy
  Sc  Sc0  1  0.667570  0.334247  0.500000  1
  Sc  Sc1  1  0.331059  0.663761  0.000000  1
  Fe  Fe2  1  0.729066  0.891887  0.000000  1
  Fe  Fe3  1  0.111334  0.840570  0.000000  1
  Fe  Fe4  1  0.159926  0.269063  0.000000  1
  P  P5  1  0.600253  0.715742  0.500000  1
  P  P6  1  0.999874  0.000265  0.000000  1
  P  P7  1  0.275836  0.878881  0.500000  1
  P  P8  1  0.119255  0.398617  0.500000  1
  P  P9  1  0.889404  0.584387  0.000000  1
  P  P10  1  0.419217  0.306581  0.000000  1
  P  P11  1  0.698302  0.116058  0.000000  1
  Ir  Ir12  1  0.552917  0.939360  0.500000  1
  Ru  Ru13  1  0.386908  0.439999  0.500000  1
  Ru  Ru14  1  0.911500  0.118716  0.500000  1
  Ru  Ru15  1  0.205462  0.087441  0.500000  1
  Ru  Ru16  1  0.882934  0.796778  0.500000  1
  Ru  Ru17  1  0.426752  0.065640  0.000000  1
  Ru  Ru18  1  0.937804  0.361446  0.000000  1
  Ru  Ru19  1  0.640527  0.578397  0.000000  1
  Ru  Ru20  1  0.054100  0.612165  0.500000  1
