# generated using pymatgen
data_Sm6P13PtRh19
_symmetry_space_group_name_H-M   'P 1'
_cell_length_a   13.41505200
_cell_length_b   13.41505042
_cell_length_c   3.96647200
_cell_angle_alpha   90.00000000
_cell_angle_beta   90.00000000
_cell_angle_gamma   120.00000390
_symmetry_Int_Tables_number   1
_chemical_formula_structural   Sm6P13PtRh19
_chemical_formula_sum   'Sm6 P13 Pt1 Rh19'
_cell_volume   618.18672853
_cell_formula_units_Z   1
loop_
 _symmetry_equiv_pos_site_id
 _symmetry_equiv_pos_as_xyz
  1  'x, y, z'
loop_
 _atom_site_type_symbol
 _atom_site_label
 _atom_site_symmetry_multiplicity
 _atom_site_fract_x
 _atom_site_fract_y
 _atom_site_fract_z
 _atom_site_occupancy
  Sm  Sm0  1  0.530787  0.718258  0.247482  1
  Sm  Sm1  1  0.281742  0.812529  0.247482  1
  Sm  Sm2  1  0.187471  0.469213  0.247482  1
  Sm  Sm3  1  0.470440  0.282042  0.752518  1
  Sm  Sm4  1  0.717958  0.188398  0.752518  1
  Sm  Sm5  1  0.811602  0.529560  0.752518  1
  P  P6  1  0.524002  0.137523  0.250910  1
  P  P7  1  0.862477  0.386480  0.250910  1
  P  P8  1  0.613520  0.475998  0.250910  1
  P  P9  1  0.946208  0.716840  0.255317  1
  P  P10  1  0.283160  0.229368  0.255317  1
  P  P11  1  0.770632  0.053792  0.255317  1
  P  P12  1  0.387724  0.522716  0.749677  1
  P  P13  1  0.477284  0.865006  0.749677  1
  P  P14  1  0.134994  0.612276  0.749677  1
  P  P15  1  0.717438  0.770836  0.745216  1
  P  P16  1  0.229164  0.946602  0.745216  1
  P  P17  1  0.053398  0.282562  0.745216  1
  P  P18  1  0.000000  0.000000  0.994450  1
  Pt  Pt19  1  0.333333  0.666667  0.749472  1
  Rh  Rh20  1  0.922593  0.249642  0.255552  1
  Rh  Rh21  1  0.750358  0.672951  0.255552  1
  Rh  Rh22  1  0.327049  0.077407  0.255552  1
  Rh  Rh23  1  0.437733  0.022654  0.752349  1
  Rh  Rh24  1  0.977346  0.415078  0.752349  1
  Rh  Rh25  1  0.584922  0.562267  0.752349  1
  Rh  Rh26  1  0.666667  0.333333  0.248646  1
  Rh  Rh27  1  0.093306  0.185262  0.246755  1
  Rh  Rh28  1  0.814738  0.908044  0.246755  1
  Rh  Rh29  1  0.091956  0.906694  0.246755  1
  Rh  Rh30  1  0.021977  0.584282  0.248414  1
  Rh  Rh31  1  0.415718  0.437693  0.248414  1
  Rh  Rh32  1  0.562307  0.978023  0.248414  1
  Rh  Rh33  1  0.672650  0.921959  0.744545  1
  Rh  Rh34  1  0.078041  0.750690  0.744545  1
  Rh  Rh35  1  0.249310  0.327350  0.744545  1
  Rh  Rh36  1  0.906279  0.813359  0.753744  1
  Rh  Rh37  1  0.186641  0.092921  0.753744  1
  Rh  Rh38  1  0.907079  0.093721  0.753744  1
