# generated using pymatgen
data_Cs4PuPbCl12
_symmetry_space_group_name_H-M   'P 1'
_cell_length_a   7.76225600
_cell_length_b   7.76225600
_cell_length_c   10.79028100
_cell_angle_alpha   90.00000000
_cell_angle_beta   90.00000000
_cell_angle_gamma   89.99997047
_symmetry_Int_Tables_number   1
_chemical_formula_structural   Cs4PuPbCl12
_chemical_formula_sum   'Cs4 Pu1 Pb1 Cl12'
_cell_volume   650.14268147
_cell_formula_units_Z   1
loop_
 _symmetry_equiv_pos_site_id
 _symmetry_equiv_pos_as_xyz
  1  'x, y, z'
loop_
 _atom_site_type_symbol
 _atom_site_label
 _atom_site_symmetry_multiplicity
 _atom_site_fract_x
 _atom_site_fract_y
 _atom_site_fract_z
 _atom_site_occupancy
  Cs  Cs0  1  0.500000  0.000000  0.748195  1
  Cs  Cs1  1  0.000000  0.500000  0.251805  1
  Cs  Cs2  1  0.500000  0.000000  0.251805  1
  Cs  Cs3  1  0.000000  0.500000  0.748195  1
  Pu  Pu4  1  0.000000  0.000000  0.000000  1
  Pb  Pb5  1  0.500000  0.500000  0.500000  1
  Cl  Cl6  1  0.000000  0.000000  0.758748  1
  Cl  Cl7  1  0.500000  0.500000  0.261698  1
  Cl  Cl8  1  0.735163  0.735163  0.500000  1
  Cl  Cl9  1  0.237176  0.237176  0.000000  1
  Cl  Cl10  1  0.735165  0.264835  0.500000  1
  Cl  Cl11  1  0.237179  0.762821  0.000000  1
  Cl  Cl12  1  0.000000  0.000000  0.241252  1
  Cl  Cl13  1  0.500000  0.500000  0.738302  1
  Cl  Cl14  1  0.264837  0.264837  0.500000  1
  Cl  Cl15  1  0.762824  0.762824  0.000000  1
  Cl  Cl16  1  0.264835  0.735165  0.500000  1
  Cl  Cl17  1  0.762821  0.237179  0.000000  1
