# generated using pymatgen
data_Nd6IrCl11
_symmetry_space_group_name_H-M   'P 1'
_cell_length_a   8.28577258
_cell_length_b   8.28577237
_cell_length_c   7.38205905
_cell_angle_alpha   87.08463203
_cell_angle_beta   87.08463032
_cell_angle_gamma   101.33835979
_symmetry_Int_Tables_number   1
_chemical_formula_structural   Nd6IrCl11
_chemical_formula_sum   'Nd6 Ir1 Cl11'
_cell_volume   495.31423960
_cell_formula_units_Z   1
loop_
 _symmetry_equiv_pos_site_id
 _symmetry_equiv_pos_as_xyz
  1  'x, y, z'
loop_
 _atom_site_type_symbol
 _atom_site_label
 _atom_site_symmetry_multiplicity
 _atom_site_fract_x
 _atom_site_fract_y
 _atom_site_fract_z
 _atom_site_occupancy
  Nd  Nd0  1  0.709474  0.017335  0.773148  1
  Nd  Nd1  1  0.193657  0.193657  0.759462  1
  Nd  Nd2  1  0.982665  0.290526  0.226852  1
  Nd  Nd3  1  0.017335  0.709474  0.773148  1
  Nd  Nd4  1  0.806343  0.806343  0.240538  1
  Nd  Nd5  1  0.290526  0.982665  0.226852  1
  Ir  Ir6  1  0.000000  0.000000  0.000000  1
  Cl  Cl7  1  0.000000  0.000000  0.500000  1
  Cl  Cl8  1  0.662203  0.094046  0.364717  1
  Cl  Cl9  1  0.489050  0.201003  0.942276  1
  Cl  Cl10  1  0.303080  0.303080  0.364887  1
  Cl  Cl11  1  0.905954  0.337797  0.635283  1
  Cl  Cl12  1  0.201003  0.489050  0.942276  1
  Cl  Cl13  1  0.798997  0.510950  0.057724  1
  Cl  Cl14  1  0.094046  0.662203  0.364717  1
  Cl  Cl15  1  0.696920  0.696920  0.635113  1
  Cl  Cl16  1  0.510950  0.798997  0.057724  1
  Cl  Cl17  1  0.337797  0.905954  0.635283  1
