# generated using pymatgen
data_Ho4TmB4P8Ir19
_symmetry_space_group_name_H-M   'P 1'
_cell_length_a   12.41725637
_cell_length_b   12.38632969
_cell_length_c   3.95597900
_cell_angle_alpha   90.00000000
_cell_angle_beta   90.00000000
_cell_angle_gamma   119.65410549
_symmetry_Int_Tables_number   1
_chemical_formula_structural   Ho4TmB4P8Ir19
_chemical_formula_sum   'Ho4 Tm1 B4 P8 Ir19'
_cell_volume   528.75694176
_cell_formula_units_Z   1
loop_
 _symmetry_equiv_pos_site_id
 _symmetry_equiv_pos_as_xyz
  1  'x, y, z'
loop_
 _atom_site_type_symbol
 _atom_site_label
 _atom_site_symmetry_multiplicity
 _atom_site_fract_x
 _atom_site_fract_y
 _atom_site_fract_z
 _atom_site_occupancy
  Ho  Ho0  1  0.332605  0.666562  0.500000  1
  Ho  Ho1  1  0.182694  0.187680  0.000000  1
  Ho  Ho2  1  0.815020  0.002854  0.000000  1
  Ho  Ho3  1  0.001709  0.815846  0.000000  1
  Tm  Tm4  1  0.674881  0.331016  0.500000  1
  B  B5  1  0.304878  0.815689  0.000000  1
  B  B6  1  0.177871  0.486826  0.000000  1
  B  B7  1  0.510606  0.692411  0.000000  1
  B  B8  1  0.822986  0.302770  0.000000  1
  P  P9  1  0.487200  0.174254  0.000000  1
  P  P10  1  0.692717  0.513360  0.000000  1
  P  P11  1  0.358901  0.364906  0.500000  1
  P  P12  1  0.639845  0.000913  0.500000  1
  P  P13  1  0.006275  0.639807  0.500000  1
  P  P14  1  0.816552  0.819911  0.500000  1
  P  P15  1  0.180696  0.998860  0.500000  1
  P  P16  1  0.002026  0.185943  0.500000  1
  Ir  Ir17  1  0.199899  0.818392  0.500000  1
  Ir  Ir18  1  0.181652  0.382425  0.500000  1
  Ir  Ir19  1  0.619408  0.803709  0.500000  1
  Ir  Ir20  1  0.821567  0.201565  0.500000  1
  Ir  Ir21  1  0.376359  0.181751  0.500000  1
  Ir  Ir22  1  0.806815  0.623103  0.500000  1
  Ir  Ir23  1  0.134535  0.637523  0.000000  1
  Ir  Ir24  1  0.359788  0.500199  0.000000  1
  Ir  Ir25  1  0.497316  0.859220  0.000000  1
  Ir  Ir26  1  0.642812  0.130056  0.000000  1
  Ir  Ir27  1  0.491468  0.363660  0.000000  1
  Ir  Ir28  1  0.868561  0.496642  0.000000  1
  Ir  Ir29  1  0.539688  0.549074  0.500000  1
  Ir  Ir30  1  0.453939  0.995110  0.500000  1
  Ir  Ir31  1  0.003145  0.455604  0.500000  1
  Ir  Ir32  1  0.701314  0.706805  0.000000  1
  Ir  Ir33  1  0.293135  0.994654  0.000000  1
  Ir  Ir34  1  0.001834  0.300033  0.000000  1
  Ir  Ir35  1  0.999302  0.000869  0.500000  1
