# generated using pymatgen
data_Tb3(CeRu)2
_symmetry_space_group_name_H-M   'P 1'
_cell_length_a   6.39409019
_cell_length_b   7.05892204
_cell_length_c   8.87744034
_cell_angle_alpha   95.14872052
_cell_angle_beta   111.10827182
_cell_angle_gamma   89.99999745
_symmetry_Int_Tables_number   1
_chemical_formula_structural   Tb3(CeRu)2
_chemical_formula_sum   'Tb6 Ce4 Ru4'
_cell_volume   372.06769675
_cell_formula_units_Z   2
loop_
 _symmetry_equiv_pos_site_id
 _symmetry_equiv_pos_as_xyz
  1  'x, y, z'
loop_
 _atom_site_type_symbol
 _atom_site_label
 _atom_site_symmetry_multiplicity
 _atom_site_fract_x
 _atom_site_fract_y
 _atom_site_fract_z
 _atom_site_occupancy
  Tb  Tb0  1  0.640991  0.815770  0.432399  1
  Tb  Tb1  1  0.208592  0.684230  0.567601  1
  Tb  Tb2  1  0.359009  0.184230  0.567601  1
  Tb  Tb3  1  0.791408  0.315770  0.432399  1
  Tb  Tb4  1  0.419998  0.750000  0.000000  1
  Tb  Tb5  1  0.580002  0.250000  0.000000  1
  Ce  Ce6  1  0.984187  0.903448  0.187162  1
  Ce  Ce7  1  0.797025  0.596552  0.812838  1
  Ce  Ce8  1  0.015813  0.096552  0.812838  1
  Ce  Ce9  1  0.202975  0.403448  0.187162  1
  Ru  Ru10  1  0.850458  0.593946  0.220859  1
  Ru  Ru11  1  0.629599  0.906054  0.779141  1
  Ru  Ru12  1  0.149542  0.406054  0.779141  1
  Ru  Ru13  1  0.370401  0.093946  0.220859  1
