# generated using pymatgen
data_YTh3(BRu)16
_symmetry_space_group_name_H-M   'P 1'
_cell_length_a   7.56226389
_cell_length_b   7.56226293
_cell_length_c   9.30730167
_cell_angle_alpha   114.09012587
_cell_angle_beta   114.09012300
_cell_angle_gamma   89.72937455
_symmetry_Int_Tables_number   1
_chemical_formula_structural   YTh3(BRu)16
_chemical_formula_sum   'Y1 Th3 B16 Ru16'
_cell_volume   435.13741635
_cell_formula_units_Z   1
loop_
 _symmetry_equiv_pos_site_id
 _symmetry_equiv_pos_as_xyz
  1  'x, y, z'
loop_
 _atom_site_type_symbol
 _atom_site_label
 _atom_site_symmetry_multiplicity
 _atom_site_fract_x
 _atom_site_fract_y
 _atom_site_fract_z
 _atom_site_occupancy
  Y  Y0  1  0.749999  0.749999  0.499999  1
  Th  Th1  1  0.500000  0.000000  0.000000  1
  Th  Th2  1  0.000000  0.500000  0.000000  1
  Th  Th3  1  0.250000  0.250000  0.499999  1
  B  B4  1  0.249283  0.225443  0.163979  1
  B  B5  1  0.749410  0.439141  0.167104  1
  B  B6  1  0.417694  0.727963  0.167104  1
  B  B7  1  0.914695  0.938536  0.163979  1
  B  B8  1  0.834608  0.024178  0.335159  1
  B  B9  1  0.500551  0.310981  0.335159  1
  B  B10  1  0.999607  0.525320  0.337257  1
  B  B11  1  0.337649  0.811936  0.337257  1
  B  B12  1  0.688064  0.162351  0.662744  1
  B  B13  1  0.974679  0.500393  0.662744  1
  B  B14  1  0.475823  0.665393  0.664842  1
  B  B15  1  0.189019  0.999450  0.664842  1
  B  B16  1  0.772037  0.082306  0.832896  1
  B  B17  1  0.274557  0.250717  0.836021  1
  B  B18  1  0.561464  0.585305  0.836021  1
  B  B19  1  0.060859  0.750591  0.832896  1
  Ru  Ru20  1  0.946301  0.208224  0.122412  1
  Ru  Ru21  1  0.447559  0.416343  0.123829  1
  Ru  Ru22  1  0.676269  0.707486  0.123829  1
  Ru  Ru23  1  0.176111  0.914188  0.122412  1
  Ru  Ru24  1  0.575807  0.042379  0.378247  1
  Ru  Ru25  1  0.802439  0.335869  0.378247  1
  Ru  Ru26  1  0.303293  0.541089  0.376887  1
  Ru  Ru27  1  0.073594  0.835797  0.376887  1
  Ru  Ru28  1  0.958910  0.196707  0.623113  1
  Ru  Ru29  1  0.664202  0.426406  0.623113  1
  Ru  Ru30  1  0.164132  0.697561  0.621753  1
  Ru  Ru31  1  0.457621  0.924193  0.621753  1
  Ru  Ru32  1  0.083657  0.052441  0.876171  1
  Ru  Ru33  1  0.585812  0.323889  0.877588  1
  Ru  Ru34  1  0.291776  0.553698  0.877588  1
  Ru  Ru35  1  0.792514  0.823730  0.876171  1
