# generated using pymatgen
data_Li3Yb16CdRu4
_symmetry_space_group_name_H-M   'P 1'
_cell_length_a   9.88163103
_cell_length_b   9.88163012
_cell_length_c   9.88163093
_cell_angle_alpha   59.82677965
_cell_angle_beta   59.82678306
_cell_angle_gamma   59.82677518
_symmetry_Int_Tables_number   1
_chemical_formula_structural   Li3Yb16CdRu4
_chemical_formula_sum   'Li3 Yb16 Cd1 Ru4'
_cell_volume   679.61040524
_cell_formula_units_Z   1
loop_
 _symmetry_equiv_pos_site_id
 _symmetry_equiv_pos_as_xyz
  1  'x, y, z'
loop_
 _atom_site_type_symbol
 _atom_site_label
 _atom_site_symmetry_multiplicity
 _atom_site_fract_x
 _atom_site_fract_y
 _atom_site_fract_z
 _atom_site_occupancy
  Li  Li0  1  0.673625  0.673625  0.973914  1
  Li  Li1  1  0.973914  0.673625  0.673625  1
  Li  Li2  1  0.673625  0.973914  0.673625  1
  Yb  Yb3  1  0.910623  0.910623  0.910623  1
  Yb  Yb4  1  0.439673  0.439673  0.059052  1
  Yb  Yb5  1  0.062629  0.062629  0.438173  1
  Yb  Yb6  1  0.438173  0.062629  0.062629  1
  Yb  Yb7  1  0.292141  0.709039  0.292141  1
  Yb  Yb8  1  0.707704  0.707704  0.296823  1
  Yb  Yb9  1  0.709039  0.292141  0.292141  1
  Yb  Yb10  1  0.270416  0.909304  0.909304  1
  Yb  Yb11  1  0.909304  0.270416  0.909304  1
  Yb  Yb12  1  0.296823  0.707704  0.707704  1
  Yb  Yb13  1  0.909304  0.909304  0.270416  1
  Yb  Yb14  1  0.062629  0.438173  0.062629  1
  Yb  Yb15  1  0.292141  0.292141  0.709039  1
  Yb  Yb16  1  0.059052  0.439673  0.439673  1
  Yb  Yb17  1  0.439673  0.059052  0.439673  1
  Yb  Yb18  1  0.707704  0.296823  0.707704  1
  Cd  Cd19  1  0.671794  0.671794  0.671794  1
  Ru  Ru20  1  0.114946  0.114946  0.654322  1
  Ru  Ru21  1  0.115800  0.115800  0.115800  1
  Ru  Ru22  1  0.114946  0.654322  0.114946  1
  Ru  Ru23  1  0.654322  0.114946  0.114946  1
