# generated using pymatgen
data_Ac3Si7Ni3
_symmetry_space_group_name_H-M   'P 1'
_cell_length_a   13.46343899
_cell_length_b   13.46343958
_cell_length_c   4.33289400
_cell_angle_alpha   90.00000000
_cell_angle_beta   90.00000000
_cell_angle_gamma   161.68315778
_symmetry_Int_Tables_number   1
_chemical_formula_structural   Ac3Si7Ni3
_chemical_formula_sum   'Ac3 Si7 Ni3'
_cell_volume   246.82840344
_cell_formula_units_Z   1
loop_
 _symmetry_equiv_pos_site_id
 _symmetry_equiv_pos_as_xyz
  1  'x, y, z'
loop_
 _atom_site_type_symbol
 _atom_site_label
 _atom_site_symmetry_multiplicity
 _atom_site_fract_x
 _atom_site_fract_y
 _atom_site_fract_z
 _atom_site_occupancy
  Ac  Ac0  1  0.000005  0.999995  0.000000  1
  Ac  Ac1  1  0.684373  0.315627  0.500000  1
  Ac  Ac2  1  0.319203  0.680797  0.500000  1
  Si  Si3  1  0.592417  0.407583  0.000000  1
  Si  Si4  1  0.410710  0.589290  0.000000  1
  Si  Si5  1  0.773537  0.226463  0.000000  1
  Si  Si6  1  0.228110  0.771890  0.000000  1
  Si  Si7  1  0.908139  0.091861  0.500000  1
  Si  Si8  1  0.091880  0.908120  0.500000  1
  Si  Si9  1  0.541859  0.458141  0.500000  1
  Ni  Ni10  1  0.866297  0.133703  0.000000  1
  Ni  Ni11  1  0.131545  0.868455  0.000000  1
  Ni  Ni12  1  0.451926  0.548074  0.500000  1
