# generated using pymatgen
data_Sm4Y6Co2Br15
_symmetry_space_group_name_H-M   'P 1'
_cell_length_a   9.36158053
_cell_length_b   10.18128077
_cell_length_c   10.95399200
_cell_angle_alpha   92.22125951
_cell_angle_beta   114.07676695
_cell_angle_gamma   110.65993393
_symmetry_Int_Tables_number   1
_chemical_formula_structural   Sm4Y6Co2Br15
_chemical_formula_sum   'Sm4 Y6 Co2 Br15'
_cell_volume   871.28767205
_cell_formula_units_Z   1
loop_
 _symmetry_equiv_pos_site_id
 _symmetry_equiv_pos_as_xyz
  1  'x, y, z'
loop_
 _atom_site_type_symbol
 _atom_site_label
 _atom_site_symmetry_multiplicity
 _atom_site_fract_x
 _atom_site_fract_y
 _atom_site_fract_z
 _atom_site_occupancy
  Sm  Sm0  1  0.800879  0.402380  0.270942  1
  Sm  Sm1  1  0.199121  0.597620  0.729058  1
  Sm  Sm2  1  0.668605  0.751008  0.821920  1
  Sm  Sm3  1  0.331395  0.248992  0.178080  1
  Y  Y4  1  0.527978  0.708062  0.101063  1
  Y  Y5  1  0.472022  0.291938  0.898937  1
  Y  Y6  1  0.591993  0.045828  0.334203  1
  Y  Y7  1  0.408007  0.954172  0.665797  1
  Y  Y8  1  0.728739  0.077995  0.048874  1
  Y  Y9  1  0.271261  0.922005  0.951126  1
  Co  Co10  1  0.467336  0.829621  0.882947  1
  Co  Co11  1  0.532664  0.170379  0.117053  1
  Br  Br12  1  0.000000  0.000000  0.000000  1
  Br  Br13  1  0.635703  0.889184  0.583153  1
  Br  Br14  1  0.364297  0.110816  0.416847  1
  Br  Br15  1  0.884682  0.300092  0.526897  1
  Br  Br16  1  0.115318  0.699908  0.473103  1
  Br  Br17  1  0.302850  0.766408  0.188669  1
  Br  Br18  1  0.697150  0.233592  0.811331  1
  Br  Br19  1  0.059443  0.337581  0.221904  1
  Br  Br20  1  0.170548  0.059119  0.699023  1
  Br  Br21  1  0.829452  0.940881  0.300977  1
  Br  Br22  1  0.247825  0.415395  0.948459  1
  Br  Br23  1  0.752175  0.584605  0.051541  1
  Br  Br24  1  0.406514  0.462693  0.668636  1
  Br  Br25  1  0.593486  0.537307  0.331364  1
  Br  Br26  1  0.940557  0.662419  0.778096  1
