# generated using pymatgen
data_Ti16Nb3Si16Mo
_symmetry_space_group_name_H-M   'P 1'
_cell_length_a   6.71200394
_cell_length_b   6.71200429
_cell_length_c   12.27788159
_cell_angle_alpha   90.06732026
_cell_angle_beta   89.93268150
_cell_angle_gamma   90.01868992
_symmetry_Int_Tables_number   1
_chemical_formula_structural   Ti16Nb3Si16Mo
_chemical_formula_sum   'Ti16 Nb3 Si16 Mo1'
_cell_volume   553.13004134
_cell_formula_units_Z   1
loop_
 _symmetry_equiv_pos_site_id
 _symmetry_equiv_pos_as_xyz
  1  'x, y, z'
loop_
 _atom_site_type_symbol
 _atom_site_label
 _atom_site_symmetry_multiplicity
 _atom_site_fract_x
 _atom_site_fract_y
 _atom_site_fract_z
 _atom_site_occupancy
  Ti  Ti0  1  0.994289  0.149185  0.620422  1
  Ti  Ti1  1  0.351076  0.494672  0.871166  1
  Ti  Ti2  1  0.648995  0.504576  0.371489  1
  Ti  Ti3  1  0.494672  0.351076  0.128834  1
  Ti  Ti4  1  0.504576  0.648995  0.628511  1
  Ti  Ti5  1  0.005070  0.850876  0.122253  1
  Ti  Ti6  1  0.149185  0.994289  0.379578  1
  Ti  Ti7  1  0.850876  0.005070  0.877747  1
  Ti  Ti8  1  0.002943  0.344225  0.220735  1
  Ti  Ti9  1  0.157393  0.502950  0.469983  1
  Ti  Ti10  1  0.843575  0.496585  0.969666  1
  Ti  Ti11  1  0.502950  0.157393  0.530017  1
  Ti  Ti12  1  0.496585  0.843575  0.030334  1
  Ti  Ti13  1  0.996275  0.656069  0.720110  1
  Ti  Ti14  1  0.344225  0.002943  0.779265  1
  Ti  Ti15  1  0.656069  0.996275  0.279890  1
  Nb  Nb16  1  0.170383  0.170383  0.000000  1
  Nb  Nb17  1  0.329068  0.670847  0.250964  1
  Nb  Nb18  1  0.670847  0.329068  0.749036  1
  Si  Si19  1  0.045952  0.302018  0.811864  1
  Si  Si20  1  0.197803  0.546297  0.062188  1
  Si  Si21  1  0.803018  0.458141  0.561492  1
  Si  Si22  1  0.546297  0.197803  0.937812  1
  Si  Si23  1  0.458141  0.803018  0.438508  1
  Si  Si24  1  0.952132  0.699963  0.313986  1
  Si  Si25  1  0.302018  0.045952  0.188136  1
  Si  Si26  1  0.699963  0.952132  0.686014  1
  Si  Si27  1  0.292009  0.358776  0.671556  1
  Si  Si28  1  0.140702  0.792170  0.921741  1
  Si  Si29  1  0.858100  0.205772  0.421948  1
  Si  Si30  1  0.792170  0.140702  0.078259  1
  Si  Si31  1  0.205772  0.858100  0.578052  1
  Si  Si32  1  0.707704  0.640971  0.172228  1
  Si  Si33  1  0.358776  0.292009  0.328444  1
  Si  Si34  1  0.640971  0.707704  0.827772  1
  Mo  Mo35  1  0.829419  0.829419  0.500000  1
