# generated using pymatgen
data_Ti2Nb8Al4Au
_symmetry_space_group_name_H-M   'P 1'
_cell_length_a   9.97569600
_cell_length_b   9.97569600
_cell_length_c   5.22094500
_cell_angle_alpha   90.00000000
_cell_angle_beta   90.00000000
_cell_angle_gamma   90.00000000
_symmetry_Int_Tables_number   1
_chemical_formula_structural   Ti2Nb8Al4Au
_chemical_formula_sum   'Ti4 Nb16 Al8 Au2'
_cell_volume   519.55978699
_cell_formula_units_Z   2
loop_
 _symmetry_equiv_pos_site_id
 _symmetry_equiv_pos_as_xyz
  1  'x, y, z'
loop_
 _atom_site_type_symbol
 _atom_site_label
 _atom_site_symmetry_multiplicity
 _atom_site_fract_x
 _atom_site_fract_y
 _atom_site_fract_z
 _atom_site_occupancy
  Ti  Ti0  1  0.395967  0.395967  0.000000  1
  Ti  Ti1  1  0.895967  0.104033  0.500000  1
  Ti  Ti2  1  0.104033  0.895967  0.500000  1
  Ti  Ti3  1  0.604033  0.604033  0.000000  1
  Nb  Nb4  1  0.129328  0.465491  0.000000  1
  Nb  Nb5  1  0.965491  0.370672  0.500000  1
  Nb  Nb6  1  0.034509  0.629328  0.500000  1
  Nb  Nb7  1  0.870672  0.534509  0.000000  1
  Nb  Nb8  1  0.370672  0.965491  0.500000  1
  Nb  Nb9  1  0.629328  0.034509  0.500000  1
  Nb  Nb10  1  0.465491  0.129328  0.000000  1
  Nb  Nb11  1  0.534509  0.870672  0.000000  1
  Nb  Nb12  1  0.184644  0.184644  0.253515  1
  Nb  Nb13  1  0.684644  0.315356  0.753515  1
  Nb  Nb14  1  0.315356  0.684644  0.753515  1
  Nb  Nb15  1  0.815356  0.815356  0.253515  1
  Nb  Nb16  1  0.315356  0.684644  0.246485  1
  Nb  Nb17  1  0.684644  0.315356  0.246485  1
  Nb  Nb18  1  0.184644  0.184644  0.746485  1
  Nb  Nb19  1  0.815356  0.815356  0.746485  1
  Al  Al20  1  0.260614  0.934824  0.000000  1
  Al  Al21  1  0.434824  0.239386  0.500000  1
  Al  Al22  1  0.565176  0.760614  0.500000  1
  Al  Al23  1  0.739386  0.065176  0.000000  1
  Al  Al24  1  0.239386  0.434824  0.500000  1
  Al  Al25  1  0.760614  0.565176  0.500000  1
  Al  Al26  1  0.934824  0.260614  0.000000  1
  Al  Al27  1  0.065176  0.739386  0.000000  1
  Au  Au28  1  0.000000  0.000000  0.000000  1
  Au  Au29  1  0.500000  0.500000  0.500000  1
