# generated using pymatgen
data_CaPm(CuGe)2
_symmetry_space_group_name_H-M   'P 1'
_cell_length_a   5.88884153
_cell_length_b   5.88884300
_cell_length_c   5.88884200
_cell_angle_alpha   138.85571391
_cell_angle_beta   104.82103772
_cell_angle_gamma   89.49259463
_symmetry_Int_Tables_number   1
_chemical_formula_structural   CaPm(CuGe)2
_chemical_formula_sum   'Ca1 Pm1 Cu2 Ge2'
_cell_volume   124.35520644
_cell_formula_units_Z   1
loop_
 _symmetry_equiv_pos_site_id
 _symmetry_equiv_pos_as_xyz
  1  'x, y, z'
loop_
 _atom_site_type_symbol
 _atom_site_label
 _atom_site_symmetry_multiplicity
 _atom_site_fract_x
 _atom_site_fract_y
 _atom_site_fract_z
 _atom_site_occupancy
  Ca  Ca0  1  0.998407  0.000000  0.998407  1
  Pm  Pm1  1  0.502664  0.500000  0.002664  1
  Cu  Cu2  1  0.916742  0.249932  0.666810  1
  Cu  Cu3  1  0.416878  0.750069  0.666809  1
  Ge  Ge4  1  0.578408  0.245753  0.332655  1
  Ge  Ge5  1  0.086903  0.754248  0.332656  1
