# generated using pymatgen
data_Tb8SiSBr12
_symmetry_space_group_name_H-M   'P 1'
_cell_length_a   4.03975100
_cell_length_b   13.16775043
_cell_length_c   13.93876877
_cell_angle_alpha   89.98330706
_cell_angle_beta   90.00000000
_cell_angle_gamma   90.00000000
_symmetry_Int_Tables_number   1
_chemical_formula_structural   Tb8SiSBr12
_chemical_formula_sum   'Tb8 Si1 S1 Br12'
_cell_volume   741.46486937
_cell_formula_units_Z   1
loop_
 _symmetry_equiv_pos_site_id
 _symmetry_equiv_pos_as_xyz
  1  'x, y, z'
loop_
 _atom_site_type_symbol
 _atom_site_label
 _atom_site_symmetry_multiplicity
 _atom_site_fract_x
 _atom_site_fract_y
 _atom_site_fract_z
 _atom_site_occupancy
  Tb  Tb0  1  0.500000  0.115012  0.345933  1
  Tb  Tb1  1  0.500000  0.884988  0.654067  1
  Tb  Tb2  1  0.500000  0.619063  0.159646  1
  Tb  Tb3  1  0.500000  0.380937  0.840354  1
  Tb  Tb4  1  0.000000  0.111391  0.574144  1
  Tb  Tb5  1  0.000000  0.888609  0.425856  1
  Tb  Tb6  1  0.000000  0.619284  0.920456  1
  Tb  Tb7  1  0.000000  0.380716  0.079544  1
  Si  Si8  1  0.500000  0.500000  0.000000  1
  S  S9  1  0.500000  0.000000  0.500000  1
  Br  Br10  1  0.500000  0.241066  0.166601  1
  Br  Br11  1  0.500000  0.758934  0.833399  1
  Br  Br12  1  0.500000  0.751116  0.340443  1
  Br  Br13  1  0.500000  0.248884  0.659557  1
  Br  Br14  1  0.000000  0.254370  0.414011  1
  Br  Br15  1  0.000000  0.745630  0.585989  1
  Br  Br16  1  0.000000  0.758447  0.088917  1
  Br  Br17  1  0.000000  0.241553  0.911083  1
  Br  Br18  1  0.000000  0.999910  0.244723  1
  Br  Br19  1  0.000000  0.000090  0.755277  1
  Br  Br20  1  0.000000  0.502035  0.260738  1
  Br  Br21  1  0.000000  0.497965  0.739262  1
