# generated using pymatgen
data_Tb3YMoOs7
_symmetry_space_group_name_H-M   'P 1'
_cell_length_a   5.30680879
_cell_length_b   5.30680740
_cell_length_c   8.91242005
_cell_angle_alpha   89.98916416
_cell_angle_beta   90.01083400
_cell_angle_gamma   118.14849647
_symmetry_Int_Tables_number   1
_chemical_formula_structural   Tb3YMoOs7
_chemical_formula_sum   'Tb3 Y1 Mo1 Os7'
_cell_volume   221.30792859
_cell_formula_units_Z   1
loop_
 _symmetry_equiv_pos_site_id
 _symmetry_equiv_pos_as_xyz
  1  'x, y, z'
loop_
 _atom_site_type_symbol
 _atom_site_label
 _atom_site_symmetry_multiplicity
 _atom_site_fract_x
 _atom_site_fract_y
 _atom_site_fract_z
 _atom_site_occupancy
  Tb  Tb0  1  0.329875  0.670125  0.438064  1
  Tb  Tb1  1  0.666006  0.333994  0.565859  1
  Tb  Tb2  1  0.666048  0.333952  0.934041  1
  Y  Y3  1  0.329824  0.670176  0.062213  1
  Mo  Mo4  1  0.833921  0.166079  0.249881  1
  Os  Os5  1  0.993092  0.006908  0.501861  1
  Os  Os6  1  0.993172  0.006828  0.998043  1
  Os  Os7  1  0.826132  0.652219  0.249815  1
  Os  Os8  1  0.347781  0.173868  0.249815  1
  Os  Os9  1  0.178921  0.821079  0.750136  1
  Os  Os10  1  0.172148  0.336920  0.750136  1
  Os  Os11  1  0.663080  0.827852  0.750136  1
