# generated using pymatgen
data_CoNiMo4C
_symmetry_space_group_name_H-M   'P 1'
_cell_length_a   7.98427390
_cell_length_b   7.99761850
_cell_length_c   7.98427300
_cell_angle_alpha   60.05518017
_cell_angle_beta   59.99999959
_cell_angle_gamma   60.05517554
_symmetry_Int_Tables_number   1
_chemical_formula_structural   CoNiMo4C
_chemical_formula_sum   'Co4 Ni4 Mo16 C4'
_cell_volume   360.80969113
_cell_formula_units_Z   4
loop_
 _symmetry_equiv_pos_site_id
 _symmetry_equiv_pos_as_xyz
  1  'x, y, z'
loop_
 _atom_site_type_symbol
 _atom_site_label
 _atom_site_symmetry_multiplicity
 _atom_site_fract_x
 _atom_site_fract_y
 _atom_site_fract_z
 _atom_site_occupancy
  Co  Co0  1  0.240078  0.919795  0.920063  1
  Co  Co1  1  0.920063  0.919795  0.920063  1
  Co  Co2  1  0.920063  0.919795  0.240078  1
  Co  Co3  1  0.330657  0.008030  0.330657  1
  Ni  Ni4  1  0.916518  0.250446  0.916518  1
  Ni  Ni5  1  0.332904  0.333232  0.000961  1
  Ni  Ni6  1  0.000961  0.333232  0.332904  1
  Ni  Ni7  1  0.332904  0.333232  0.332904  1
  Mo  Mo8  1  0.124198  0.627407  0.124198  1
  Mo  Mo9  1  0.127374  0.119295  0.625957  1
  Mo  Mo10  1  0.625957  0.119295  0.127374  1
  Mo  Mo11  1  0.127374  0.119295  0.127374  1
  Mo  Mo12  1  0.935050  0.935744  0.564603  1
  Mo  Mo13  1  0.689582  0.310376  0.310460  1
  Mo  Mo14  1  0.313979  0.688498  0.683543  1
  Mo  Mo15  1  0.683543  0.688498  0.313979  1
  Mo  Mo16  1  0.689582  0.310376  0.689582  1
  Mo  Mo17  1  0.313979  0.688498  0.313979  1
  Mo  Mo18  1  0.564603  0.935744  0.564603  1
  Mo  Mo19  1  0.564603  0.935744  0.935050  1
  Mo  Mo20  1  0.938257  0.564990  0.558495  1
  Mo  Mo21  1  0.938257  0.564990  0.938257  1
  Mo  Mo22  1  0.310460  0.310376  0.689582  1
  Mo  Mo23  1  0.558495  0.564990  0.938257  1
  C  C24  1  0.624040  0.127881  0.624040  1
  C  C25  1  0.625563  0.623482  0.125392  1
  C  C26  1  0.125392  0.623482  0.625563  1
  C  C27  1  0.625563  0.623482  0.625563  1
