# generated using pymatgen
data_Nd8Si(Pd5Pt7)2
_symmetry_space_group_name_H-M   'P 1'
_cell_length_a   8.47016000
_cell_length_b   8.46313607
_cell_length_c   8.51970507
_cell_angle_alpha   90.01436595
_cell_angle_beta   90.00000000
_cell_angle_gamma   90.00000000
_symmetry_Int_Tables_number   1
_chemical_formula_structural   Nd8Si(Pd5Pt7)2
_chemical_formula_sum   'Nd8 Si1 Pd10 Pt14'
_cell_volume   610.72751209
_cell_formula_units_Z   1
loop_
 _symmetry_equiv_pos_site_id
 _symmetry_equiv_pos_as_xyz
  1  'x, y, z'
loop_
 _atom_site_type_symbol
 _atom_site_label
 _atom_site_symmetry_multiplicity
 _atom_site_fract_x
 _atom_site_fract_y
 _atom_site_fract_z
 _atom_site_occupancy
  Nd  Nd0  1  0.252306  0.252335  0.252639  1
  Nd  Nd1  1  0.746603  0.746436  0.746061  1
  Nd  Nd2  1  0.747329  0.747368  0.252699  1
  Nd  Nd3  1  0.746889  0.253283  0.746042  1
  Nd  Nd4  1  0.253111  0.253283  0.746042  1
  Nd  Nd5  1  0.252671  0.747368  0.252699  1
  Nd  Nd6  1  0.253397  0.746436  0.746061  1
  Nd  Nd7  1  0.747694  0.252335  0.252639  1
  Si  Si8  1  0.000000  0.001715  0.008727  1
  Pd  Pd9  1  0.000000  0.741535  0.500263  1
  Pd  Pd10  1  0.500000  0.742161  0.999874  1
  Pd  Pd11  1  0.500000  0.999915  0.257160  1
  Pd  Pd12  1  0.259094  0.999937  0.500394  1
  Pd  Pd13  1  0.500000  0.000004  0.740236  1
  Pd  Pd14  1  0.740906  0.999937  0.500394  1
  Pd  Pd15  1  0.000000  0.500114  0.257195  1
  Pd  Pd16  1  0.000000  0.500195  0.739959  1
  Pd  Pd17  1  0.500000  0.499901  0.747521  1
  Pd  Pd18  1  0.000000  0.999764  0.722683  1
  Pt  Pt19  1  0.257730  0.499893  0.000044  1
  Pt  Pt20  1  0.742270  0.499893  0.000044  1
  Pt  Pt21  1  0.000000  0.258222  0.500006  1
  Pt  Pt22  1  0.500000  0.257674  0.999903  1
  Pt  Pt23  1  0.252722  0.499868  0.499209  1
  Pt  Pt24  1  0.747278  0.499868  0.499209  1
  Pt  Pt25  1  0.500000  0.252539  0.499348  1
  Pt  Pt26  1  0.500000  0.746619  0.499383  1
  Pt  Pt27  1  0.500000  0.499857  0.252294  1
  Pt  Pt28  1  0.281478  0.000015  0.998076  1
  Pt  Pt29  1  0.718522  0.000015  0.998076  1
  Pt  Pt30  1  0.000000  0.282406  0.998042  1
  Pt  Pt31  1  0.000000  0.719451  0.998265  1
  Pt  Pt32  1  0.000000  0.999660  0.288810  1
