# generated using pymatgen
data_Ce2CoGeI2
_symmetry_space_group_name_H-M   'P 1'
_cell_length_a   4.21003300
_cell_length_b   4.21003279
_cell_length_c   11.68532600
_cell_angle_alpha   90.00000000
_cell_angle_beta   90.00000000
_cell_angle_gamma   120.00000949
_symmetry_Int_Tables_number   1
_chemical_formula_structural   Ce2CoGeI2
_chemical_formula_sum   'Ce2 Co1 Ge1 I2'
_cell_volume   179.36694107
_cell_formula_units_Z   1
loop_
 _symmetry_equiv_pos_site_id
 _symmetry_equiv_pos_as_xyz
  1  'x, y, z'
loop_
 _atom_site_type_symbol
 _atom_site_label
 _atom_site_symmetry_multiplicity
 _atom_site_fract_x
 _atom_site_fract_y
 _atom_site_fract_z
 _atom_site_occupancy
  Ce  Ce0  1  0.000000  0.000000  0.847159  1
  Ce  Ce1  1  0.000000  0.000000  0.156379  1
  Co  Co2  1  0.333333  0.666667  0.988487  1
  Ge  Ge3  1  0.666667  0.333333  0.007718  1
  I  I4  1  0.333333  0.666667  0.340921  1
  I  I5  1  0.666667  0.333333  0.659337  1
