# generated using pymatgen
data_HoErTiO5
_symmetry_space_group_name_H-M   'P 1'
_cell_length_a   3.68252100
_cell_length_b   10.36928400
_cell_length_c   11.27593800
_cell_angle_alpha   90.00000000
_cell_angle_beta   90.00000000
_cell_angle_gamma   90.00000000
_symmetry_Int_Tables_number   1
_chemical_formula_structural   HoErTiO5
_chemical_formula_sum   'Ho4 Er4 Ti4 O20'
_cell_volume   430.57288874
_cell_formula_units_Z   4
loop_
 _symmetry_equiv_pos_site_id
 _symmetry_equiv_pos_as_xyz
  1  'x, y, z'
loop_
 _atom_site_type_symbol
 _atom_site_label
 _atom_site_symmetry_multiplicity
 _atom_site_fract_x
 _atom_site_fract_y
 _atom_site_fract_z
 _atom_site_occupancy
  Ho  Ho0  1  0.250000  0.615972  0.223993  1
  Ho  Ho1  1  0.250000  0.635094  0.556161  1
  Ho  Ho2  1  0.750000  0.864906  0.056161  1
  Ho  Ho3  1  0.750000  0.884028  0.723993  1
  Er  Er4  1  0.250000  0.116884  0.275977  1
  Er  Er5  1  0.250000  0.136485  0.944311  1
  Er  Er6  1  0.750000  0.363515  0.444311  1
  Er  Er7  1  0.750000  0.383116  0.775977  1
  Ti  Ti8  1  0.250000  0.173793  0.619161  1
  Ti  Ti9  1  0.750000  0.326207  0.119161  1
  Ti  Ti10  1  0.250000  0.673477  0.880877  1
  Ti  Ti11  1  0.750000  0.826523  0.380877  1
  O  O12  1  0.750000  0.007872  0.895208  1
  O  O13  1  0.250000  0.005995  0.654224  1
  O  O14  1  0.250000  0.223861  0.456228  1
  O  O15  1  0.750000  0.238941  0.616346  1
  O  O16  1  0.750000  0.243875  0.271610  1
  O  O17  1  0.250000  0.256125  0.771610  1
  O  O18  1  0.250000  0.261059  0.116346  1
  O  O19  1  0.750000  0.276139  0.956228  1
  O  O20  1  0.750000  0.494005  0.154224  1
  O  O21  1  0.250000  0.492128  0.395208  1
  O  O22  1  0.750000  0.505426  0.605109  1
  O  O23  1  0.250000  0.505611  0.844476  1
  O  O24  1  0.250000  0.724148  0.043632  1
  O  O25  1  0.750000  0.738895  0.883837  1
  O  O26  1  0.750000  0.743905  0.228848  1
  O  O27  1  0.250000  0.756095  0.728848  1
  O  O28  1  0.250000  0.761105  0.383837  1
  O  O29  1  0.750000  0.775852  0.543632  1
  O  O30  1  0.750000  0.994389  0.344476  1
  O  O31  1  0.250000  0.994574  0.105109  1
