# generated using pymatgen
data_K2Zr3(SbSe5)2
_symmetry_space_group_name_H-M   'P 1'
_cell_length_a   6.82158528
_cell_length_b   11.48641165
_cell_length_c   9.09706624
_cell_angle_alpha   60.54459436
_cell_angle_beta   68.38831776
_cell_angle_gamma   90.35199160
_symmetry_Int_Tables_number   1
_chemical_formula_structural   K2Zr3(SbSe5)2
_chemical_formula_sum   'K2 Zr3 Sb2 Se10'
_cell_volume   561.38468436
_cell_formula_units_Z   1
loop_
 _symmetry_equiv_pos_site_id
 _symmetry_equiv_pos_as_xyz
  1  'x, y, z'
loop_
 _atom_site_type_symbol
 _atom_site_label
 _atom_site_symmetry_multiplicity
 _atom_site_fract_x
 _atom_site_fract_y
 _atom_site_fract_z
 _atom_site_occupancy
  K  K0  1  0.785427  0.074498  0.425682  1
  K  K1  1  0.011308  0.524348  0.976157  1
  Zr  Zr2  1  0.401978  0.801731  0.198033  1
  Zr  Zr3  1  0.598348  0.198275  0.804910  1
  Zr  Zr4  1  0.999342  0.999998  0.998868  1
  Sb  Sb5  1  0.800534  0.600461  0.402515  1
  Sb  Sb6  1  0.199048  0.401445  0.593210  1
  Se  Se7  1  0.002637  0.845209  0.341999  1
  Se  Se8  1  0.596147  0.037079  0.150842  1
  Se  Se9  1  0.190370  0.229138  0.961857  1
  Se  Se10  1  0.771879  0.426455  0.768155  1
  Se  Se11  1  0.384422  0.651632  0.540561  1
  Se  Se12  1  0.401571  0.963274  0.852119  1
  Se  Se13  1  0.997110  0.152173  0.659411  1
  Se  Se14  1  0.620587  0.346704  0.457660  1
  Se  Se15  1  0.231838  0.574766  0.229468  1
  Se  Se16  1  0.807454  0.772812  0.038554  1
