# generated using pymatgen
data_Dy9YSn8
_symmetry_space_group_name_H-M   'P 1'
_cell_length_a   8.04505401
_cell_length_b   8.18989700
_cell_length_c   15.49384102
_cell_angle_alpha   89.99738268
_cell_angle_beta   89.99498957
_cell_angle_gamma   89.99974582
_symmetry_Int_Tables_number   1
_chemical_formula_structural   Dy9YSn8
_chemical_formula_sum   'Dy18 Y2 Sn16'
_cell_volume   1020.86072841
_cell_formula_units_Z   2
loop_
 _symmetry_equiv_pos_site_id
 _symmetry_equiv_pos_as_xyz
  1  'x, y, z'
loop_
 _atom_site_type_symbol
 _atom_site_label
 _atom_site_symmetry_multiplicity
 _atom_site_fract_x
 _atom_site_fract_y
 _atom_site_fract_z
 _atom_site_occupancy
  Dy  Dy0  1  0.367312  0.836063  0.878135  1
  Dy  Dy1  1  0.867306  0.663944  0.621860  1
  Dy  Dy2  1  0.632771  0.163888  0.378095  1
  Dy  Dy3  1  0.132764  0.336117  0.121909  1
  Dy  Dy4  1  0.632744  0.163932  0.121858  1
  Dy  Dy5  1  0.132751  0.336061  0.378147  1
  Dy  Dy6  1  0.367306  0.836037  0.621852  1
  Dy  Dy7  1  0.867313  0.663956  0.878143  1
  Dy  Dy8  1  0.522543  0.320518  0.901895  1
  Dy  Dy9  1  0.022540  0.179478  0.598103  1
  Dy  Dy10  1  0.477443  0.679495  0.401885  1
  Dy  Dy11  1  0.977442  0.820500  0.098116  1
  Dy  Dy12  1  0.477423  0.679483  0.098113  1
  Dy  Dy13  1  0.977424  0.820523  0.401888  1
  Dy  Dy14  1  0.198423  0.502832  0.749973  1
  Dy  Dy15  1  0.698425  0.997167  0.750016  1
  Dy  Dy16  1  0.801523  0.497249  0.249995  1
  Dy  Dy17  1  0.301522  0.002751  0.250015  1
  Y  Y18  1  0.522648  0.320574  0.598070  1
  Y  Y19  1  0.022652  0.179431  0.901934  1
  Sn  Sn20  1  0.292043  0.034174  0.041823  1
  Sn  Sn21  1  0.792026  0.465821  0.458182  1
  Sn  Sn22  1  0.708064  0.965672  0.541754  1
  Sn  Sn23  1  0.208047  0.534329  0.958244  1
  Sn  Sn24  1  0.707810  0.965649  0.958239  1
  Sn  Sn25  1  0.207826  0.534354  0.541756  1
  Sn  Sn26  1  0.291932  0.034170  0.458204  1
  Sn  Sn27  1  0.791948  0.465833  0.041801  1
  Sn  Sn28  1  0.565177  0.619674  0.750039  1
  Sn  Sn29  1  0.065177  0.880325  0.749936  1
  Sn  Sn30  1  0.434839  0.380396  0.250017  1
  Sn  Sn31  1  0.934840  0.119604  0.250006  1
  Sn  Sn32  1  0.330152  0.147074  0.750021  1
  Sn  Sn33  1  0.830150  0.352927  0.749953  1
  Sn  Sn34  1  0.669847  0.852834  0.250010  1
  Sn  Sn35  1  0.169847  0.647165  0.250014  1
