# generated using pymatgen
data_Tb10Y6Cd4Ir3Pt
_symmetry_space_group_name_H-M   'P 1'
_cell_length_a   9.68332866
_cell_length_b   9.68287887
_cell_length_c   9.68264360
_cell_angle_alpha   60.12994805
_cell_angle_beta   60.13612788
_cell_angle_gamma   60.14326003
_symmetry_Int_Tables_number   1
_chemical_formula_structural   Tb10Y6Cd4Ir3Pt
_chemical_formula_sum   'Tb10 Y6 Cd4 Ir3 Pt1'
_cell_volume   643.94443177
_cell_formula_units_Z   1
loop_
 _symmetry_equiv_pos_site_id
 _symmetry_equiv_pos_as_xyz
  1  'x, y, z'
loop_
 _atom_site_type_symbol
 _atom_site_label
 _atom_site_symmetry_multiplicity
 _atom_site_fract_x
 _atom_site_fract_y
 _atom_site_fract_z
 _atom_site_occupancy
  Tb  Tb0  1  0.347434  0.347593  0.347598  1
  Tb  Tb1  1  0.352244  0.352159  0.950060  1
  Tb  Tb2  1  0.352241  0.950042  0.352154  1
  Tb  Tb3  1  0.949937  0.352276  0.352270  1
  Tb  Tb4  1  0.805454  0.191053  0.191048  1
  Tb  Tb5  1  0.188099  0.809709  0.809705  1
  Tb  Tb6  1  0.191115  0.805497  0.190891  1
  Tb  Tb7  1  0.809782  0.187972  0.809713  1
  Tb  Tb8  1  0.191114  0.190898  0.805492  1
  Tb  Tb9  1  0.809780  0.809713  0.187960  1
  Y  Y10  1  0.938622  0.563028  0.563004  1
  Y  Y11  1  0.563657  0.937453  0.937456  1
  Y  Y12  1  0.562971  0.938613  0.563046  1
  Y  Y13  1  0.937440  0.563754  0.937414  1
  Y  Y14  1  0.562937  0.563037  0.938626  1
  Y  Y15  1  0.937442  0.937414  0.563744  1
  Cd  Cd16  1  0.580574  0.580558  0.580557  1
  Cd  Cd17  1  0.580795  0.580805  0.256076  1
  Cd  Cd18  1  0.580797  0.256081  0.580797  1
  Cd  Cd19  1  0.256030  0.580828  0.580822  1
  Ir  Ir20  1  0.141714  0.141788  0.575061  1
  Ir  Ir21  1  0.141705  0.575073  0.141805  1
  Ir  Ir22  1  0.575127  0.141724  0.141755  1
  Pt  Pt23  1  0.142988  0.142932  0.142944  1
