# generated using pymatgen
data_Dy3Tm5Cd2NiOs
_symmetry_space_group_name_H-M   'P 1'
_cell_length_a   9.50584803
_cell_length_b   9.50584797
_cell_length_c   9.60404300
_cell_angle_alpha   59.65769180
_cell_angle_beta   59.65769201
_cell_angle_gamma   59.45283598
_symmetry_Int_Tables_number   1
_chemical_formula_structural   Dy3Tm5Cd2NiOs
_chemical_formula_sum   'Dy6 Tm10 Cd4 Ni2 Os2'
_cell_volume   607.91774534
_cell_formula_units_Z   2
loop_
 _symmetry_equiv_pos_site_id
 _symmetry_equiv_pos_as_xyz
  1  'x, y, z'
loop_
 _atom_site_type_symbol
 _atom_site_label
 _atom_site_symmetry_multiplicity
 _atom_site_fract_x
 _atom_site_fract_y
 _atom_site_fract_z
 _atom_site_occupancy
  Dy  Dy0  1  0.190283  0.804971  0.815285  1
  Dy  Dy1  1  0.804971  0.190283  0.189462  1
  Dy  Dy2  1  0.804971  0.190283  0.815285  1
  Dy  Dy3  1  0.190283  0.804971  0.189462  1
  Dy  Dy4  1  0.814744  0.814744  0.185256  1
  Dy  Dy5  1  0.193008  0.193008  0.806992  1
  Tm  Tm6  1  0.600224  0.600224  0.591240  1
  Tm  Tm7  1  0.600224  0.600224  0.208315  1
  Tm  Tm8  1  0.601997  0.206844  0.595580  1
  Tm  Tm9  1  0.206844  0.601997  0.595580  1
  Tm  Tm10  1  0.061847  0.434728  0.439316  1
  Tm  Tm11  1  0.434728  0.061847  0.064108  1
  Tm  Tm12  1  0.434728  0.061847  0.439316  1
  Tm  Tm13  1  0.061847  0.434728  0.064108  1
  Tm  Tm14  1  0.437191  0.437191  0.062809  1
  Tm  Tm15  1  0.061095  0.061095  0.438905  1
  Cd  Cd16  1  0.828673  0.828673  0.832754  1
  Cd  Cd17  1  0.828673  0.828673  0.509898  1
  Cd  Cd18  1  0.829587  0.507140  0.831636  1
  Cd  Cd19  1  0.507140  0.829587  0.831636  1
  Ni  Ni20  1  0.391765  0.827354  0.390441  1
  Ni  Ni21  1  0.827354  0.391765  0.390441  1
  Os  Os22  1  0.393911  0.393911  0.388959  1
  Os  Os23  1  0.393911  0.393911  0.823219  1
