# generated using pymatgen
data_TbDy2Ni2Rh7
_symmetry_space_group_name_H-M   'P 1'
_cell_length_a   5.28151587
_cell_length_b   5.28151674
_cell_length_c   8.97536696
_cell_angle_alpha   72.88906600
_cell_angle_beta   72.88906130
_cell_angle_gamma   60.00001336
_symmetry_Int_Tables_number   1
_chemical_formula_structural   TbDy2Ni2Rh7
_chemical_formula_sum   'Tb1 Dy2 Ni2 Rh7'
_cell_volume   203.92385981
_cell_formula_units_Z   1
loop_
 _symmetry_equiv_pos_site_id
 _symmetry_equiv_pos_as_xyz
  1  'x, y, z'
loop_
 _atom_site_type_symbol
 _atom_site_label
 _atom_site_symmetry_multiplicity
 _atom_site_fract_x
 _atom_site_fract_y
 _atom_site_fract_z
 _atom_site_occupancy
  Tb  Tb0  1  0.000000  0.000000  0.000000  1
  Dy  Dy1  1  0.139384  0.139384  0.581849  1
  Dy  Dy2  1  0.860616  0.860616  0.418151  1
  Ni  Ni3  1  0.333344  0.333344  0.999967  1
  Ni  Ni4  1  0.666656  0.666656  0.000033  1
  Rh  Rh5  1  0.077954  0.580989  0.760068  1
  Rh  Rh6  1  0.580989  0.580989  0.760068  1
  Rh  Rh7  1  0.580989  0.077954  0.760068  1
  Rh  Rh8  1  0.922046  0.419011  0.239932  1
  Rh  Rh9  1  0.419011  0.419011  0.239932  1
  Rh  Rh10  1  0.419011  0.922046  0.239932  1
  Rh  Rh11  1  0.500000  0.500000  0.500000  1
