# generated using pymatgen
data_TbLu2IrO7
_symmetry_space_group_name_H-M   'P 1'
_cell_length_a   6.35667314
_cell_length_b   6.35667411
_cell_length_c   7.35352300
_cell_angle_alpha   90.00000000
_cell_angle_beta   90.00000000
_cell_angle_gamma   109.20996514
_symmetry_Int_Tables_number   1
_chemical_formula_structural   TbLu2IrO7
_chemical_formula_sum   'Tb2 Lu4 Ir2 O14'
_cell_volume   280.59122366
_cell_formula_units_Z   2
loop_
 _symmetry_equiv_pos_site_id
 _symmetry_equiv_pos_as_xyz
  1  'x, y, z'
loop_
 _atom_site_type_symbol
 _atom_site_label
 _atom_site_symmetry_multiplicity
 _atom_site_fract_x
 _atom_site_fract_y
 _atom_site_fract_z
 _atom_site_occupancy
  Tb  Tb0  1  0.500000  0.500000  0.500000  1
  Tb  Tb1  1  0.500000  0.500000  0.000000  1
  Lu  Lu2  1  0.532595  0.000692  0.750000  1
  Lu  Lu3  1  0.000692  0.532595  0.250000  1
  Lu  Lu4  1  0.467405  0.999308  0.250000  1
  Lu  Lu5  1  0.999308  0.467405  0.750000  1
  Ir  Ir6  1  0.000000  0.000000  0.500000  1
  Ir  Ir7  1  0.000000  0.000000  0.000000  1
  O  O8  1  0.674191  0.925952  0.471783  1
  O  O9  1  0.925952  0.674191  0.528217  1
  O  O10  1  0.674191  0.925952  0.028217  1
  O  O11  1  0.925952  0.674191  0.971783  1
  O  O12  1  0.325809  0.074048  0.528217  1
  O  O13  1  0.074048  0.325809  0.471783  1
  O  O14  1  0.325809  0.074048  0.971783  1
  O  O15  1  0.074048  0.325809  0.028217  1
  O  O16  1  0.923153  0.076847  0.750000  1
  O  O17  1  0.076847  0.923153  0.250000  1
  O  O18  1  0.363794  0.636206  0.750000  1
  O  O19  1  0.636206  0.363794  0.250000  1
  O  O20  1  0.640741  0.359259  0.750000  1
  O  O21  1  0.359259  0.640741  0.250000  1
