# generated using pymatgen
data_Tm5Lu11Cd4(TcNi)2
_symmetry_space_group_name_H-M   'P 1'
_cell_length_a   9.40317752
_cell_length_b   9.39841925
_cell_length_c   9.51136599
_cell_angle_alpha   59.77559878
_cell_angle_beta   59.77683418
_cell_angle_gamma   59.55899231
_symmetry_Int_Tables_number   1
_chemical_formula_structural   Tm5Lu11Cd4(TcNi)2
_chemical_formula_sum   'Tm5 Lu11 Cd4 Tc2 Ni2'
_cell_volume   590.36612666
_cell_formula_units_Z   1
loop_
 _symmetry_equiv_pos_site_id
 _symmetry_equiv_pos_as_xyz
  1  'x, y, z'
loop_
 _atom_site_type_symbol
 _atom_site_label
 _atom_site_symmetry_multiplicity
 _atom_site_fract_x
 _atom_site_fract_y
 _atom_site_fract_z
 _atom_site_occupancy
  Tm  Tm0  1  0.553032  0.938927  0.941706  1
  Tm  Tm1  1  0.553885  0.938514  0.566222  1
  Tm  Tm2  1  0.939006  0.553154  0.941170  1
  Tm  Tm3  1  0.564572  0.563858  0.934979  1
  Tm  Tm4  1  0.942584  0.942172  0.557351  1
  Lu  Lu5  1  0.351501  0.352005  0.339971  1
  Lu  Lu6  1  0.351588  0.351825  0.956668  1
  Lu  Lu7  1  0.353137  0.956967  0.344935  1
  Lu  Lu8  1  0.956644  0.353305  0.345158  1
  Lu  Lu9  1  0.811313  0.185813  0.189393  1
  Lu  Lu10  1  0.185995  0.811520  0.813473  1
  Lu  Lu11  1  0.185570  0.811077  0.189615  1
  Lu  Lu12  1  0.811665  0.186284  0.813281  1
  Lu  Lu13  1  0.187603  0.188157  0.812189  1
  Lu  Lu14  1  0.809057  0.808890  0.191225  1
  Lu  Lu15  1  0.938948  0.553573  0.565993  1
  Cd  Cd16  1  0.579625  0.579420  0.582723  1
  Cd  Cd17  1  0.579462  0.579423  0.258537  1
  Cd  Cd18  1  0.580203  0.256444  0.581800  1
  Cd  Cd19  1  0.256381  0.580041  0.581801  1
  Tc  Tc20  1  0.144065  0.143958  0.138599  1
  Tc  Tc21  1  0.143910  0.144149  0.573715  1
  Ni  Ni22  1  0.142236  0.577947  0.139900  1
  Ni  Ni23  1  0.578017  0.142577  0.139598  1
