# generated using pymatgen
data_Gd2Hf2(Al8Pt3)3
_symmetry_space_group_name_H-M   'P 1'
_cell_length_a   7.52657971
_cell_length_b   7.53036509
_cell_length_c   13.17140600
_cell_angle_alpha   84.64227679
_cell_angle_beta   100.89244993
_cell_angle_gamma   119.85952337
_symmetry_Int_Tables_number   1
_chemical_formula_structural   Gd2Hf2(Al8Pt3)3
_chemical_formula_sum   'Gd2 Hf2 Al24 Pt9'
_cell_volume   635.76055765
_cell_formula_units_Z   1
loop_
 _symmetry_equiv_pos_site_id
 _symmetry_equiv_pos_as_xyz
  1  'x, y, z'
loop_
 _atom_site_type_symbol
 _atom_site_label
 _atom_site_symmetry_multiplicity
 _atom_site_fract_x
 _atom_site_fract_y
 _atom_site_fract_z
 _atom_site_occupancy
  Gd  Gd0  1  0.768681  0.502187  0.808789  1
  Gd  Gd1  1  0.231319  0.497813  0.191211  1
  Hf  Hf2  1  0.437531  0.832745  0.807810  1
  Hf  Hf3  1  0.562469  0.167255  0.192190  1
  Al  Al4  1  0.483337  0.164040  0.943966  1
  Al  Al5  1  0.516663  0.835960  0.056034  1
  Al  Al6  1  0.020510  0.166835  0.562411  1
  Al  Al7  1  0.979490  0.833165  0.437589  1
  Al  Al8  1  0.353263  0.833349  0.560568  1
  Al  Al9  1  0.646737  0.166651  0.439432  1
  Al  Al10  1  0.615918  0.835544  0.327687  1
  Al  Al11  1  0.384082  0.164456  0.672313  1
  Al  Al12  1  0.058133  0.495450  0.672187  1
  Al  Al13  1  0.941867  0.504550  0.327813  1
  Al  Al14  1  0.728424  0.839763  0.671118  1
  Al  Al15  1  0.271576  0.160237  0.328882  1
  Al  Al16  1  0.150063  0.503166  0.942198  1
  Al  Al17  1  0.849937  0.496834  0.057802  1
  Al  Al18  1  0.813527  0.832379  0.951165  1
  Al  Al19  1  0.186473  0.167621  0.048835  1
  Al  Al20  1  0.313643  0.500416  0.440454  1
  Al  Al21  1  0.686357  0.499584  0.559546  1
  Al  Al22  1  0.108771  0.843216  0.183518  1
  Al  Al23  1  0.891229  0.156784  0.816482  1
  Al  Al24  1  0.307622  0.375068  0.815023  1
  Al  Al25  1  0.692378  0.624932  0.184977  1
  Al  Al26  1  0.111126  0.960692  0.815686  1
  Al  Al27  1  0.888874  0.039308  0.184314  1
  Pt  Pt28  1  0.387320  0.509545  0.638768  1
  Pt  Pt29  1  0.612680  0.490455  0.361232  1
  Pt  Pt30  1  0.170444  0.828501  0.999316  1
  Pt  Pt31  1  0.829556  0.171499  0.000684  1
  Pt  Pt32  1  0.296316  0.834582  0.361264  1
  Pt  Pt33  1  0.703684  0.165418  0.638736  1
  Pt  Pt34  1  0.047075  0.825448  0.637571  1
  Pt  Pt35  1  0.952925  0.174552  0.362429  1
  Pt  Pt36  1  0.500000  0.500000  0.000000  1
