# generated using pymatgen
data_Ho6MnAl24Cu3Ru4
_symmetry_space_group_name_H-M   'P 1'
_cell_length_a   8.75799497
_cell_length_b   8.79449746
_cell_length_c   9.42195687
_cell_angle_alpha   89.96586798
_cell_angle_beta   89.89131548
_cell_angle_gamma   119.46526260
_symmetry_Int_Tables_number   1
_chemical_formula_structural   Ho6MnAl24Cu3Ru4
_chemical_formula_sum   'Ho6 Mn1 Al24 Cu3 Ru4'
_cell_volume   631.83113294
_cell_formula_units_Z   1
loop_
 _symmetry_equiv_pos_site_id
 _symmetry_equiv_pos_as_xyz
  1  'x, y, z'
loop_
 _atom_site_type_symbol
 _atom_site_label
 _atom_site_symmetry_multiplicity
 _atom_site_fract_x
 _atom_site_fract_y
 _atom_site_fract_z
 _atom_site_occupancy
  Ho  Ho0  1  0.190480  0.383173  0.248018  1
  Ho  Ho1  1  0.809520  0.616827  0.751982  1
  Ho  Ho2  1  0.614594  0.810220  0.251970  1
  Ho  Ho3  1  0.385406  0.189780  0.748030  1
  Ho  Ho4  1  0.195779  0.808524  0.248521  1
  Ho  Ho5  1  0.804221  0.191476  0.751479  1
  Mn  Mn6  1  0.000000  0.000000  0.500000  1
  Al  Al7  1  0.335304  0.669455  0.023602  1
  Al  Al8  1  0.664696  0.330545  0.976398  1
  Al  Al9  1  0.668820  0.332169  0.521937  1
  Al  Al10  1  0.331180  0.667831  0.478063  1
  Al  Al11  1  0.152038  0.317113  0.575024  1
  Al  Al12  1  0.847962  0.682887  0.424976  1
  Al  Al13  1  0.681865  0.846431  0.576914  1
  Al  Al14  1  0.838126  0.677975  0.081021  1
  Al  Al15  1  0.318135  0.153569  0.423086  1
  Al  Al16  1  0.161874  0.322025  0.918979  1
  Al  Al17  1  0.160601  0.838478  0.575813  1
  Al  Al18  1  0.324269  0.157969  0.079172  1
  Al  Al19  1  0.839399  0.161522  0.424187  1
  Al  Al20  1  0.675731  0.842031  0.920828  1
  Al  Al21  1  0.832017  0.157733  0.080892  1
  Al  Al22  1  0.167983  0.842267  0.919108  1
  Al  Al23  1  0.561347  0.123233  0.250413  1
  Al  Al24  1  0.438653  0.876767  0.749587  1
  Al  Al25  1  0.875835  0.438581  0.252147  1
  Al  Al26  1  0.124165  0.561419  0.747853  1
  Al  Al27  1  0.561814  0.439426  0.250872  1
  Al  Al28  1  0.438186  0.560574  0.749128  1
  Al  Al29  1  0.000117  0.002746  0.255587  1
  Al  Al30  1  0.999883  0.997254  0.744413  1
  Cu  Cu31  1  0.000000  0.500000  0.000000  1
  Cu  Cu32  1  0.500000  0.500000  0.000000  1
  Cu  Cu33  1  0.500000  0.500000  0.500000  1
  Ru  Ru34  1  0.500000  0.000000  0.000000  1
  Ru  Ru35  1  0.500000  0.000000  0.500000  1
  Ru  Ru36  1  0.000000  0.500000  0.500000  1
  Ru  Ru37  1  0.000000  0.000000  0.000000  1
