# generated using pymatgen
data_YTi2GaAu3
_symmetry_space_group_name_H-M   'P 1'
_cell_length_a   5.66619574
_cell_length_b   5.66619524
_cell_length_c   5.60523005
_cell_angle_alpha   102.04031750
_cell_angle_beta   102.04031170
_cell_angle_gamma   125.96487399
_symmetry_Int_Tables_number   1
_chemical_formula_structural   YTi2GaAu3
_chemical_formula_sum   'Y1 Ti2 Ga1 Au3'
_cell_volume   129.39042179
_cell_formula_units_Z   1
loop_
 _symmetry_equiv_pos_site_id
 _symmetry_equiv_pos_as_xyz
  1  'x, y, z'
loop_
 _atom_site_type_symbol
 _atom_site_label
 _atom_site_symmetry_multiplicity
 _atom_site_fract_x
 _atom_site_fract_y
 _atom_site_fract_z
 _atom_site_occupancy
  Y  Y0  1  0.003721  0.996279  0.000000  1
  Ti  Ti1  1  0.247620  0.752380  0.500000  1
  Ti  Ti2  1  0.747620  0.252380  0.500000  1
  Ga  Ga3  1  0.303232  0.696768  0.000000  1
  Au  Au4  1  0.706286  0.293714  0.000000  1
  Au  Au5  1  0.684692  0.693171  0.377864  1
  Au  Au6  1  0.306829  0.315308  0.622136  1
