# generated using pymatgen
data_Y3Ho2Cd2(InPd)2
_symmetry_space_group_name_H-M   'P 1'
_cell_length_a   3.62297500
_cell_length_b   8.10360500
_cell_length_c   18.35759200
_cell_angle_alpha   90.00000000
_cell_angle_beta   90.00000000
_cell_angle_gamma   90.00000000
_symmetry_Int_Tables_number   1
_chemical_formula_structural   Y3Ho2Cd2(InPd)2
_chemical_formula_sum   'Y6 Ho4 Cd4 In4 Pd4'
_cell_volume   538.96344999
_cell_formula_units_Z   2
loop_
 _symmetry_equiv_pos_site_id
 _symmetry_equiv_pos_as_xyz
  1  'x, y, z'
loop_
 _atom_site_type_symbol
 _atom_site_label
 _atom_site_symmetry_multiplicity
 _atom_site_fract_x
 _atom_site_fract_y
 _atom_site_fract_z
 _atom_site_occupancy
  Y  Y0  1  0.000000  0.500000  0.500000  1
  Y  Y1  1  0.000000  0.000000  0.000000  1
  Y  Y2  1  0.000000  0.741456  0.281337  1
  Y  Y3  1  0.000000  0.258544  0.718663  1
  Y  Y4  1  0.000000  0.758544  0.781337  1
  Y  Y5  1  0.000000  0.241456  0.218663  1
  Ho  Ho6  1  0.000000  0.612012  0.083826  1
  Ho  Ho7  1  0.000000  0.387988  0.916174  1
  Ho  Ho8  1  0.000000  0.887988  0.583826  1
  Ho  Ho9  1  0.000000  0.112012  0.416174  1
  Cd  Cd10  1  0.500000  0.710703  0.931660  1
  Cd  Cd11  1  0.500000  0.289297  0.068340  1
  Cd  Cd12  1  0.500000  0.789297  0.431660  1
  Cd  Cd13  1  0.500000  0.210703  0.568340  1
  In  In14  1  0.500000  0.577025  0.647903  1
  In  In15  1  0.500000  0.422975  0.352097  1
  In  In16  1  0.500000  0.922975  0.147903  1
  In  In17  1  0.500000  0.077025  0.852097  1
  Pd  Pd18  1  0.500000  0.525547  0.195772  1
  Pd  Pd19  1  0.500000  0.474453  0.804228  1
  Pd  Pd20  1  0.500000  0.974453  0.695772  1
  Pd  Pd21  1  0.500000  0.025547  0.304228  1
