# generated using pymatgen
data_Pr3Ho(PPt)4
_symmetry_space_group_name_H-M   'P 1'
_cell_length_a   4.17108200
_cell_length_b   4.17108239
_cell_length_c   16.27079700
_cell_angle_alpha   90.00000000
_cell_angle_beta   90.00000000
_cell_angle_gamma   119.99998105
_symmetry_Int_Tables_number   1
_chemical_formula_structural   Pr3Ho(PPt)4
_chemical_formula_sum   'Pr3 Ho1 P4 Pt4'
_cell_volume   245.15290136
_cell_formula_units_Z   1
loop_
 _symmetry_equiv_pos_site_id
 _symmetry_equiv_pos_as_xyz
  1  'x, y, z'
loop_
 _atom_site_type_symbol
 _atom_site_label
 _atom_site_symmetry_multiplicity
 _atom_site_fract_x
 _atom_site_fract_y
 _atom_site_fract_z
 _atom_site_occupancy
  Pr  Pr0  1  0.000000  0.000000  0.508457  1
  Pr  Pr1  1  0.000000  0.000000  0.991543  1
  Pr  Pr2  1  0.000000  0.000000  0.250000  1
  Ho  Ho3  1  0.000000  0.000000  0.750000  1
  P  P4  1  0.333333  0.666667  0.873069  1
  P  P5  1  0.666667  0.333333  0.122604  1
  P  P6  1  0.666667  0.333333  0.377396  1
  P  P7  1  0.333333  0.666667  0.626931  1
  Pt  Pt8  1  0.333333  0.666667  0.379158  1
  Pt  Pt9  1  0.666667  0.333333  0.642779  1
  Pt  Pt10  1  0.666667  0.333333  0.857221  1
  Pt  Pt11  1  0.333333  0.666667  0.120842  1
