# generated using pymatgen
data_CsCd3Pt2
_symmetry_space_group_name_H-M   'P 1'
_cell_length_a   7.50662116
_cell_length_b   7.50662080
_cell_length_c   5.88569700
_cell_angle_alpha   90.00000000
_cell_angle_beta   90.00000000
_cell_angle_gamma   107.16520923
_symmetry_Int_Tables_number   1
_chemical_formula_structural   CsCd3Pt2
_chemical_formula_sum   'Cs2 Cd6 Pt4'
_cell_volume   316.88257751
_cell_formula_units_Z   2
loop_
 _symmetry_equiv_pos_site_id
 _symmetry_equiv_pos_as_xyz
  1  'x, y, z'
loop_
 _atom_site_type_symbol
 _atom_site_label
 _atom_site_symmetry_multiplicity
 _atom_site_fract_x
 _atom_site_fract_y
 _atom_site_fract_z
 _atom_site_occupancy
  Cs  Cs0  1  0.640391  0.640391  0.250000  1
  Cs  Cs1  1  0.359609  0.359609  0.750000  1
  Cd  Cd2  1  0.946404  0.946404  0.750000  1
  Cd  Cd3  1  0.053596  0.053596  0.250000  1
  Cd  Cd4  1  0.520135  0.945754  0.750000  1
  Cd  Cd5  1  0.479865  0.054246  0.250000  1
  Cd  Cd6  1  0.945754  0.520135  0.750000  1
  Cd  Cd7  1  0.054246  0.479865  0.250000  1
  Pt  Pt8  1  0.806627  0.193373  0.500000  1
  Pt  Pt9  1  0.193373  0.806627  0.000000  1
  Pt  Pt10  1  0.806627  0.193373  0.000000  1
  Pt  Pt11  1  0.193373  0.806627  0.500000  1
