# generated using pymatgen
data_Rb2NaTbBi2
_symmetry_space_group_name_H-M   'P 1'
_cell_length_a   10.23322261
_cell_length_b   10.23322202
_cell_length_c   10.23322143
_cell_angle_alpha   135.81409264
_cell_angle_beta   64.21338113
_cell_angle_gamma   135.88456913
_symmetry_Int_Tables_number   1
_chemical_formula_structural   Rb2NaTbBi2
_chemical_formula_sum   'Rb4 Na2 Tb2 Bi4'
_cell_volume   512.84150745
_cell_formula_units_Z   2
loop_
 _symmetry_equiv_pos_site_id
 _symmetry_equiv_pos_as_xyz
  1  'x, y, z'
loop_
 _atom_site_type_symbol
 _atom_site_label
 _atom_site_symmetry_multiplicity
 _atom_site_fract_x
 _atom_site_fract_y
 _atom_site_fract_z
 _atom_site_occupancy
  Rb  Rb0  1  0.822327  0.276460  0.098788  1
  Rb  Rb1  1  0.677672  0.776460  0.454134  1
  Rb  Rb2  1  0.322327  0.223540  0.545866  1
  Rb  Rb3  1  0.177673  0.723539  0.901211  1
  Na  Na4  1  0.750000  0.250000  0.500000  1
  Na  Na5  1  0.250000  0.750000  0.500000  1
  Tb  Tb6  1  0.250000  0.250000  0.000000  1
  Tb  Tb7  1  0.750001  0.750001  0.000000  1
  Bi  Bi8  1  0.399887  0.729150  0.129039  1
  Bi  Bi9  1  0.100112  0.229151  0.329263  1
  Bi  Bi10  1  0.899887  0.770849  0.670737  1
  Bi  Bi11  1  0.600112  0.270849  0.870961  1
