# generated using pymatgen
data_YbPr(TaS2)8
_symmetry_space_group_name_H-M   'P 1'
_cell_length_a   6.67783800
_cell_length_b   6.67783770
_cell_length_c   14.27559300
_cell_angle_alpha   90.00000000
_cell_angle_beta   90.00000000
_cell_angle_gamma   120.00000150
_symmetry_Int_Tables_number   1
_chemical_formula_structural   YbPr(TaS2)8
_chemical_formula_sum   'Yb1 Pr1 Ta8 S16'
_cell_volume   551.31082674
_cell_formula_units_Z   1
loop_
 _symmetry_equiv_pos_site_id
 _symmetry_equiv_pos_as_xyz
  1  'x, y, z'
loop_
 _atom_site_type_symbol
 _atom_site_label
 _atom_site_symmetry_multiplicity
 _atom_site_fract_x
 _atom_site_fract_y
 _atom_site_fract_z
 _atom_site_occupancy
  Yb  Yb0  1  0.000000  0.000000  0.000000  1
  Pr  Pr1  1  0.000000  0.000000  0.500000  1
  Ta  Ta2  1  0.504886  0.495114  0.753286  1
  Ta  Ta3  1  0.009771  0.504886  0.246714  1
  Ta  Ta4  1  0.495114  0.990229  0.246714  1
  Ta  Ta5  1  0.504886  0.009771  0.753286  1
  Ta  Ta6  1  0.990229  0.495114  0.753286  1
  Ta  Ta7  1  0.495114  0.504886  0.246714  1
  Ta  Ta8  1  0.000000  0.000000  0.752022  1
  Ta  Ta9  1  0.000000  0.000000  0.247978  1
  S  S10  1  0.830203  0.169797  0.356243  1
  S  S11  1  0.830203  0.660407  0.356244  1
  S  S12  1  0.339593  0.169797  0.356244  1
  S  S13  1  0.664082  0.832041  0.861614  1
  S  S14  1  0.169797  0.339593  0.643756  1
  S  S15  1  0.167959  0.832041  0.861614  1
  S  S16  1  0.167959  0.335918  0.861614  1
  S  S17  1  0.832041  0.167959  0.138386  1
  S  S18  1  0.335918  0.167959  0.138386  1
  S  S19  1  0.660407  0.830203  0.643756  1
  S  S20  1  0.333333  0.666667  0.134791  1
  S  S21  1  0.666667  0.333333  0.640814  1
  S  S22  1  0.666667  0.333333  0.865209  1
  S  S23  1  0.333333  0.666667  0.359186  1
  S  S24  1  0.832041  0.664082  0.138386  1
  S  S25  1  0.169797  0.830203  0.643757  1
