# generated using pymatgen
data_NaNdSm3I7N2
_symmetry_space_group_name_H-M   'P 1'
_cell_length_a   14.53559302
_cell_length_b   11.19173600
_cell_length_c   12.04498109
_cell_angle_alpha   90.00000000
_cell_angle_beta   90.19161476
_cell_angle_gamma   90.00000000
_symmetry_Int_Tables_number   1
_chemical_formula_structural   NaNdSm3I7N2
_chemical_formula_sum   'Na4 Nd4 Sm12 I28 N8'
_cell_volume   1959.44873584
_cell_formula_units_Z   4
loop_
 _symmetry_equiv_pos_site_id
 _symmetry_equiv_pos_as_xyz
  1  'x, y, z'
loop_
 _atom_site_type_symbol
 _atom_site_label
 _atom_site_symmetry_multiplicity
 _atom_site_fract_x
 _atom_site_fract_y
 _atom_site_fract_z
 _atom_site_occupancy
  Na  Na0  1  0.899327  0.051325  0.257124  1
  Na  Na1  1  0.399327  0.448674  0.257124  1
  Na  Na2  1  0.601275  0.550929  0.758439  1
  Na  Na3  1  0.101275  0.949072  0.758439  1
  Nd  Nd4  1  0.915868  0.621969  0.817190  1
  Nd  Nd5  1  0.415868  0.878032  0.817190  1
  Nd  Nd6  1  0.599301  0.083067  0.828071  1
  Nd  Nd7  1  0.099301  0.416934  0.828071  1
  Sm  Sm8  1  0.413586  0.097579  0.064010  1
  Sm  Sm9  1  0.913586  0.402422  0.064010  1
  Sm  Sm10  1  0.077917  0.621442  0.086607  1
  Sm  Sm11  1  0.577916  0.878559  0.086607  1
  Sm  Sm12  1  0.581761  0.120860  0.318370  1
  Sm  Sm13  1  0.081761  0.379140  0.318370  1
  Sm  Sm14  1  0.901638  0.578185  0.326527  1
  Sm  Sm15  1  0.401638  0.921814  0.326527  1
  Sm  Sm16  1  0.085591  0.596596  0.563113  1
  Sm  Sm17  1  0.585591  0.903403  0.563113  1
  Sm  Sm18  1  0.421867  0.123221  0.583963  1
  Sm  Sm19  1  0.921867  0.376779  0.583963  1
  I  I20  1  0.744204  0.055301  0.038028  1
  I  I21  1  0.244204  0.444698  0.038028  1
  I  I22  1  0.777632  0.631385  0.102814  1
  I  I23  1  0.277632  0.868614  0.102814  1
  I  I24  1  0.043370  0.187046  0.113629  1
  I  I25  1  0.543369  0.312954  0.113629  1
  I  I26  1  0.516183  0.692623  0.289635  1
  I  I27  1  0.016182  0.807377  0.289635  1
  I  I28  1  0.294576  0.187691  0.289247  1
  I  I29  1  0.794576  0.312309  0.289247  1
  I  I30  1  0.225520  0.590885  0.338210  1
  I  I31  1  0.725520  0.909115  0.338210  1
  I  I32  1  0.014637  0.154275  0.458665  1
  I  I33  1  0.514637  0.345723  0.458665  1
  I  I34  1  0.758962  0.558142  0.537649  1
  I  I35  1  0.258961  0.941858  0.537649  1
  I  I36  1  0.723193  0.130966  0.600345  1
  I  I37  1  0.223193  0.369035  0.600345  1
  I  I38  1  0.458601  0.685061  0.614570  1
  I  I39  1  0.958601  0.814940  0.614570  1
  I  I40  1  0.979963  0.188502  0.786812  1
  I  I41  1  0.479963  0.311499  0.786812  1
  I  I42  1  0.206093  0.687808  0.787946  1
  I  I43  1  0.706093  0.812192  0.787946  1
  I  I44  1  0.271693  0.094314  0.840193  1
  I  I45  1  0.771693  0.405688  0.840193  1
  I  I46  1  0.488023  0.654088  0.961084  1
  I  I47  1  0.988023  0.845912  0.961084  1
  N  N48  1  0.496755  0.005515  0.198498  1
  N  N49  1  0.996756  0.494485  0.198498  1
  N  N50  1  0.497500  0.018339  0.448195  1
  N  N51  1  0.997500  0.481660  0.448195  1
  N  N52  1  0.002904  0.503387  0.696684  1
  N  N53  1  0.502903  0.996613  0.696684  1
  N  N54  1  0.002060  0.516929  0.950184  1
  N  N55  1  0.502060  0.983071  0.950184  1
