# generated using pymatgen
data_Nd2ThZn3CuPd2
_symmetry_space_group_name_H-M   'P 1'
_cell_length_a   7.39386051
_cell_length_b   7.39386036
_cell_length_c   3.99076800
_cell_angle_alpha   90.00000000
_cell_angle_beta   90.00000000
_cell_angle_gamma   119.97509179
_symmetry_Int_Tables_number   1
_chemical_formula_structural   Nd2ThZn3CuPd2
_chemical_formula_sum   'Nd2 Th1 Zn3 Cu1 Pd2'
_cell_volume   188.98988472
_cell_formula_units_Z   1
loop_
 _symmetry_equiv_pos_site_id
 _symmetry_equiv_pos_as_xyz
  1  'x, y, z'
loop_
 _atom_site_type_symbol
 _atom_site_label
 _atom_site_symmetry_multiplicity
 _atom_site_fract_x
 _atom_site_fract_y
 _atom_site_fract_z
 _atom_site_occupancy
  Nd  Nd0  1  0.593289  0.999498  0.000000  1
  Nd  Nd1  1  0.999498  0.593289  0.000000  1
  Th  Th2  1  0.408617  0.408617  0.000000  1
  Zn  Zn3  1  0.769788  0.769788  0.500000  1
  Zn  Zn4  1  0.237348  0.997501  0.500000  1
  Zn  Zn5  1  0.997501  0.237348  0.500000  1
  Cu  Cu6  1  0.003380  0.003380  0.000000  1
  Pd  Pd7  1  0.655892  0.334686  0.500000  1
  Pd  Pd8  1  0.334686  0.655892  0.500000  1
