# generated using pymatgen
data_Be8TcMoRu2
_symmetry_space_group_name_H-M   'P 1'
_cell_length_a   4.36840000
_cell_length_b   4.36839968
_cell_length_c   7.15346700
_cell_angle_alpha   90.00000000
_cell_angle_beta   90.00000000
_cell_angle_gamma   120.00000245
_symmetry_Int_Tables_number   1
_chemical_formula_structural   Be8TcMoRu2
_chemical_formula_sum   'Be8 Tc1 Mo1 Ru2'
_cell_volume   118.22027457
_cell_formula_units_Z   1
loop_
 _symmetry_equiv_pos_site_id
 _symmetry_equiv_pos_as_xyz
  1  'x, y, z'
loop_
 _atom_site_type_symbol
 _atom_site_label
 _atom_site_symmetry_multiplicity
 _atom_site_fract_x
 _atom_site_fract_y
 _atom_site_fract_z
 _atom_site_occupancy
  Be  Be0  1  0.000000  0.000000  0.500847  1
  Be  Be1  1  0.000000  0.000000  0.999383  1
  Be  Be2  1  0.830638  0.169362  0.242902  1
  Be  Be3  1  0.830638  0.661276  0.242902  1
  Be  Be4  1  0.338724  0.169362  0.242902  1
  Be  Be5  1  0.168550  0.831450  0.756525  1
  Be  Be6  1  0.168550  0.337102  0.756525  1
  Be  Be7  1  0.662898  0.831450  0.756525  1
  Tc  Tc8  1  0.666667  0.333333  0.555963  1
  Mo  Mo9  1  0.333333  0.666667  0.440671  1
  Ru  Ru10  1  0.666667  0.333333  0.935243  1
  Ru  Ru11  1  0.333333  0.666667  0.069610  1
