# generated using pymatgen
data_Tm2ThIn3Pt2Rh
_symmetry_space_group_name_H-M   'P 1'
_cell_length_a   7.77737443
_cell_length_b   7.68556423
_cell_length_c   3.81045900
_cell_angle_alpha   90.00000000
_cell_angle_beta   90.00000000
_cell_angle_gamma   119.61026599
_symmetry_Int_Tables_number   1
_chemical_formula_structural   Tm2ThIn3Pt2Rh
_chemical_formula_sum   'Tm2 Th1 In3 Pt2 Rh1'
_cell_volume   198.01992759
_cell_formula_units_Z   1
loop_
 _symmetry_equiv_pos_site_id
 _symmetry_equiv_pos_as_xyz
  1  'x, y, z'
loop_
 _atom_site_type_symbol
 _atom_site_label
 _atom_site_symmetry_multiplicity
 _atom_site_fract_x
 _atom_site_fract_y
 _atom_site_fract_z
 _atom_site_occupancy
  Tm  Tm0  1  0.594996  0.591050  0.500000  1
  Tm  Tm1  1  0.405004  0.996055  0.500000  1
  Th  Th2  1  0.000000  0.405163  0.500000  1
  In  In3  1  0.270410  0.256488  0.000000  1
  In  In4  1  0.000000  0.754394  0.000000  1
  In  In5  1  0.729590  0.986079  0.000000  1
  Pt  Pt6  1  0.329293  0.663233  0.000000  1
  Pt  Pt7  1  0.670707  0.333939  0.000000  1
  Rh  Rh8  1  0.000000  0.013598  0.500000  1
