# generated using pymatgen
data_Tb10Pr6MgIn(AgIr2)2
_symmetry_space_group_name_H-M   'P 1'
_cell_length_a   9.75345401
_cell_length_b   9.76219101
_cell_length_c   9.76219000
_cell_angle_alpha   59.99999666
_cell_angle_beta   59.97035988
_cell_angle_gamma   59.97036161
_symmetry_Int_Tables_number   1
_chemical_formula_structural   Tb10Pr6MgIn(AgIr2)2
_chemical_formula_sum   'Tb10 Pr6 Mg1 In1 Ag2 Ir4'
_cell_volume   656.96658503
_cell_formula_units_Z   1
loop_
 _symmetry_equiv_pos_site_id
 _symmetry_equiv_pos_as_xyz
  1  'x, y, z'
loop_
 _atom_site_type_symbol
 _atom_site_label
 _atom_site_symmetry_multiplicity
 _atom_site_fract_x
 _atom_site_fract_y
 _atom_site_fract_z
 _atom_site_occupancy
  Tb  Tb0  1  0.347105  0.346966  0.346966  1
  Tb  Tb1  1  0.346898  0.346938  0.958999  1
  Tb  Tb2  1  0.346898  0.958999  0.346938  1
  Tb  Tb3  1  0.951339  0.349457  0.349457  1
  Tb  Tb4  1  0.811507  0.187830  0.187830  1
  Tb  Tb5  1  0.187181  0.812863  0.812863  1
  Tb  Tb6  1  0.184486  0.814708  0.185916  1
  Tb  Tb7  1  0.809719  0.189872  0.811573  1
  Tb  Tb8  1  0.184486  0.185916  0.814708  1
  Tb  Tb9  1  0.809719  0.811573  0.189872  1
  Pr  Pr10  1  0.941506  0.560872  0.560872  1
  Pr  Pr11  1  0.558914  0.940520  0.940520  1
  Pr  Pr12  1  0.558923  0.943409  0.561208  1
  Pr  Pr13  1  0.938967  0.561071  0.940184  1
  Pr  Pr14  1  0.558923  0.561208  0.943409  1
  Pr  Pr15  1  0.938967  0.940184  0.561071  1
  Mg  Mg16  1  0.287154  0.568750  0.568750  1
  In  In17  1  0.582225  0.578783  0.578783  1
  Ag  Ag18  1  0.580748  0.581393  0.256657  1
  Ag  Ag19  1  0.580748  0.256657  0.581393  1
  Ir  Ir20  1  0.138960  0.142523  0.142523  1
  Ir  Ir21  1  0.139764  0.142386  0.575371  1
  Ir  Ir22  1  0.139764  0.575371  0.142386  1
  Ir  Ir23  1  0.575100  0.141751  0.141751  1
