# generated using pymatgen
data_Ta5Ga2GeB
_symmetry_space_group_name_H-M   'P 1'
_cell_length_a   7.77919565
_cell_length_b   7.77919646
_cell_length_c   5.33954200
_cell_angle_alpha   90.00000000
_cell_angle_beta   90.00000000
_cell_angle_gamma   120.04675747
_symmetry_Int_Tables_number   1
_chemical_formula_structural   Ta5Ga2GeB
_chemical_formula_sum   'Ta10 Ga4 Ge2 B2'
_cell_volume   279.70437367
_cell_formula_units_Z   2
loop_
 _symmetry_equiv_pos_site_id
 _symmetry_equiv_pos_as_xyz
  1  'x, y, z'
loop_
 _atom_site_type_symbol
 _atom_site_label
 _atom_site_symmetry_multiplicity
 _atom_site_fract_x
 _atom_site_fract_y
 _atom_site_fract_z
 _atom_site_occupancy
  Ta  Ta0  1  0.666734  0.332844  0.498611  1
  Ta  Ta1  1  0.332844  0.666734  0.498611  1
  Ta  Ta2  1  0.332844  0.666734  0.001389  1
  Ta  Ta3  1  0.666734  0.332844  0.001389  1
  Ta  Ta4  1  0.756270  0.756270  0.250000  1
  Ta  Ta5  1  0.243483  0.999459  0.250000  1
  Ta  Ta6  1  0.999459  0.243483  0.250000  1
  Ta  Ta7  1  0.242917  0.242917  0.750000  1
  Ta  Ta8  1  0.757441  0.000655  0.750000  1
  Ta  Ta9  1  0.000655  0.757441  0.750000  1
  Ga  Ga10  1  0.401210  0.401210  0.250000  1
  Ga  Ga11  1  0.599595  0.999496  0.250000  1
  Ga  Ga12  1  0.999496  0.599595  0.250000  1
  Ga  Ga13  1  0.598760  0.598760  0.750000  1
  Ge  Ge14  1  0.402357  0.000068  0.750000  1
  Ge  Ge15  1  0.000068  0.402357  0.750000  1
  B  B16  1  0.999566  0.999566  0.499845  1
  B  B17  1  0.999566  0.999566  0.000155  1
