# generated using pymatgen
data_DyY7(Tc3Ge4)4
_symmetry_space_group_name_H-M   'P 1'
_cell_length_a   6.96925913
_cell_length_b   6.96884708
_cell_length_c   13.06820700
_cell_angle_alpha   90.00299270
_cell_angle_beta   89.98895069
_cell_angle_gamma   90.00828805
_symmetry_Int_Tables_number   1
_chemical_formula_structural   DyY7(Tc3Ge4)4
_chemical_formula_sum   'Dy1 Y7 Tc12 Ge16'
_cell_volume   634.69275286
_cell_formula_units_Z   1
loop_
 _symmetry_equiv_pos_site_id
 _symmetry_equiv_pos_as_xyz
  1  'x, y, z'
loop_
 _atom_site_type_symbol
 _atom_site_label
 _atom_site_symmetry_multiplicity
 _atom_site_fract_x
 _atom_site_fract_y
 _atom_site_fract_z
 _atom_site_occupancy
  Dy  Dy0  1  0.339737  0.992606  0.472151  1
  Y  Y1  1  0.007120  0.660232  0.028079  1
  Y  Y2  1  0.992666  0.339917  0.528114  1
  Y  Y3  1  0.659966  0.007310  0.971811  1
  Y  Y4  1  0.159949  0.492635  0.778066  1
  Y  Y5  1  0.839807  0.507199  0.278218  1
  Y  Y6  1  0.492702  0.160174  0.221835  1
  Y  Y7  1  0.507198  0.839901  0.721852  1
  Tc  Tc8  1  0.312416  0.481079  0.377445  1
  Tc  Tc9  1  0.812042  0.019434  0.372294  1
  Tc  Tc10  1  0.980513  0.188408  0.127916  1
  Tc  Tc11  1  0.019399  0.811840  0.627402  1
  Tc  Tc12  1  0.480188  0.310697  0.621853  1
  Tc  Tc13  1  0.188633  0.980669  0.872290  1
  Tc  Tc14  1  0.662252  0.663023  0.499990  1
  Tc  Tc15  1  0.837200  0.162773  0.749965  1
  Tc  Tc16  1  0.162756  0.837522  0.250044  1
  Tc  Tc17  1  0.337259  0.337380  0.000034  1
  Tc  Tc18  1  0.518862  0.687722  0.122613  1
  Tc  Tc19  1  0.688992  0.519708  0.877930  1
  Ge  Ge20  1  0.017421  0.726325  0.434818  1
  Ge  Ge21  1  0.983103  0.273538  0.935036  1
  Ge  Ge22  1  0.725990  0.016987  0.565002  1
  Ge  Ge23  1  0.225785  0.482723  0.184831  1
  Ge  Ge24  1  0.773075  0.516881  0.684953  1
  Ge  Ge25  1  0.483198  0.226788  0.814920  1
  Ge  Ge26  1  0.517185  0.774598  0.315412  1
  Ge  Ge27  1  0.273623  0.982875  0.065101  1
  Ge  Ge28  1  0.811191  0.887741  0.182841  1
  Ge  Ge29  1  0.311466  0.612087  0.567152  1
  Ge  Ge30  1  0.688773  0.387758  0.067302  1
  Ge  Ge31  1  0.612060  0.310909  0.432668  1
  Ge  Ge32  1  0.387982  0.688596  0.932751  1
  Ge  Ge33  1  0.112728  0.188628  0.317508  1
  Ge  Ge34  1  0.188627  0.111893  0.682644  1
  Ge  Ge35  1  0.888136  0.811445  0.817158  1
