# generated using pymatgen
data_Er5ScC2I7
_symmetry_space_group_name_H-M   'P 1'
_cell_length_a   10.92795976
_cell_length_b   10.92795960
_cell_length_c   12.72361061
_cell_angle_alpha   58.18813412
_cell_angle_beta   58.18813393
_cell_angle_gamma   20.65023031
_symmetry_Int_Tables_number   1
_chemical_formula_structural   Er5ScC2I7
_chemical_formula_sum   'Er5 Sc1 C2 I7'
_cell_volume   452.44369947
_cell_formula_units_Z   1
loop_
 _symmetry_equiv_pos_site_id
 _symmetry_equiv_pos_as_xyz
  1  'x, y, z'
loop_
 _atom_site_type_symbol
 _atom_site_label
 _atom_site_symmetry_multiplicity
 _atom_site_fract_x
 _atom_site_fract_y
 _atom_site_fract_z
 _atom_site_occupancy
  Er  Er0  1  0.307197  0.307197  0.378295  1
  Er  Er1  1  0.136216  0.136216  0.447277  1
  Er  Er2  1  0.862657  0.862657  0.555925  1
  Er  Er3  1  0.692326  0.692326  0.625000  1
  Er  Er4  1  0.762423  0.762423  0.194508  1
  Sc  Sc5  1  0.239615  0.239615  0.795917  1
  C  C6  1  0.280104  0.280104  0.597298  1
  C  C7  1  0.719018  0.719018  0.405495  1
  I  I8  1  0.159162  0.159162  0.179973  1
  I  I9  1  0.833768  0.833768  0.823516  1
  I  I10  1  0.057398  0.057398  0.722899  1
  I  I11  1  0.941831  0.941831  0.280137  1
  I  I12  1  0.499565  0.499565  0.500939  1
  I  I13  1  0.387314  0.387314  0.072341  1
  I  I14  1  0.621405  0.621405  0.920480  1
