# generated using pymatgen
data_Y3Ho3Al24Ir5Os3
_symmetry_space_group_name_H-M   'P 1'
_cell_length_a   8.83084915
_cell_length_b   8.78627762
_cell_length_c   9.55947804
_cell_angle_alpha   89.99826692
_cell_angle_beta   89.82383974
_cell_angle_gamma   119.87029875
_symmetry_Int_Tables_number   1
_chemical_formula_structural   Y3Ho3Al24Ir5Os3
_chemical_formula_sum   'Y3 Ho3 Al24 Ir5 Os3'
_cell_volume   643.18449009
_cell_formula_units_Z   1
loop_
 _symmetry_equiv_pos_site_id
 _symmetry_equiv_pos_as_xyz
  1  'x, y, z'
loop_
 _atom_site_type_symbol
 _atom_site_label
 _atom_site_symmetry_multiplicity
 _atom_site_fract_x
 _atom_site_fract_y
 _atom_site_fract_z
 _atom_site_occupancy
  Y  Y0  1  0.189798  0.385126  0.250869  1
  Y  Y1  1  0.810074  0.614877  0.749132  1
  Y  Y2  1  0.615682  0.807910  0.250085  1
  Ho  Ho3  1  0.385721  0.192838  0.749876  1
  Ho  Ho4  1  0.190192  0.803750  0.251047  1
  Ho  Ho5  1  0.809639  0.196055  0.748952  1
  Al  Al6  1  0.333083  0.666547  0.030196  1
  Al  Al7  1  0.666804  0.333400  0.969282  1
  Al  Al8  1  0.668319  0.334214  0.529504  1
  Al  Al9  1  0.331635  0.665764  0.470989  1
  Al  Al10  1  0.163377  0.328279  0.576321  1
  Al  Al11  1  0.836564  0.671355  0.424158  1
  Al  Al12  1  0.672758  0.836581  0.575946  1
  Al  Al13  1  0.834785  0.671654  0.076122  1
  Al  Al14  1  0.327059  0.163342  0.424686  1
  Al  Al15  1  0.165162  0.327964  0.923396  1
  Al  Al16  1  0.163632  0.835246  0.575785  1
  Al  Al17  1  0.326699  0.163113  0.075944  1
  Al  Al18  1  0.836329  0.165061  0.424674  1
  Al  Al19  1  0.673157  0.836810  0.923438  1
  Al  Al20  1  0.834564  0.163023  0.075499  1
  Al  Al21  1  0.165394  0.837322  0.924023  1
  Al  Al22  1  0.560834  0.124058  0.249727  1
  Al  Al23  1  0.438901  0.876048  0.750291  1
  Al  Al24  1  0.873882  0.436971  0.250586  1
  Al  Al25  1  0.125991  0.562963  0.749442  1
  Al  Al26  1  0.561077  0.436764  0.249736  1
  Al  Al27  1  0.438665  0.562896  0.750279  1
  Al  Al28  1  0.999039  0.998215  0.250023  1
  Al  Al29  1  0.002746  0.002642  0.749998  1
  Ir  Ir30  1  0.499738  0.000278  0.999574  1
  Ir  Ir31  1  0.999852  0.499926  0.999900  1
  Ir  Ir32  1  0.499746  0.000314  0.500452  1
  Ir  Ir33  1  0.499731  0.499453  0.999578  1
  Ir  Ir34  1  0.499741  0.499427  0.500453  1
  Os  Os35  1  0.000071  0.500041  0.500024  1
  Os  Os36  1  0.999794  0.999894  0.000007  1
  Os  Os37  1  0.999765  0.999881  0.500005  1
