# generated using pymatgen
data_CsGeAsIr2
_symmetry_space_group_name_H-M   'P 1'
_cell_length_a   8.02958761
_cell_length_b   8.02958740
_cell_length_c   8.02958714
_cell_angle_alpha   150.46197975
_cell_angle_beta   150.46197536
_cell_angle_gamma   42.26368635
_symmetry_Int_Tables_number   1
_chemical_formula_structural   CsGeAsIr2
_chemical_formula_sum   'Cs1 Ge1 As1 Ir2'
_cell_volume   125.52316093
_cell_formula_units_Z   1
loop_
 _symmetry_equiv_pos_site_id
 _symmetry_equiv_pos_as_xyz
  1  'x, y, z'
loop_
 _atom_site_type_symbol
 _atom_site_label
 _atom_site_symmetry_multiplicity
 _atom_site_fract_x
 _atom_site_fract_y
 _atom_site_fract_z
 _atom_site_occupancy
  Cs  Cs0  1  0.000532  0.000532  0.000000  1
  Ge  Ge1  1  0.343420  0.343420  0.000000  1
  As  As2  1  0.658687  0.658687  0.000000  1
  Ir  Ir3  1  0.748680  0.248680  0.500000  1
  Ir  Ir4  1  0.248680  0.748680  0.500000  1
