# generated using pymatgen
data_Al4SnS7
_symmetry_space_group_name_H-M   'P 1'
_cell_length_a   6.10051000
_cell_length_b   6.31698900
_cell_length_c   15.27233300
_cell_angle_alpha   90.00000000
_cell_angle_beta   90.00000000
_cell_angle_gamma   90.00000000
_symmetry_Int_Tables_number   1
_chemical_formula_structural   Al4SnS7
_chemical_formula_sum   'Al8 Sn2 S14'
_cell_volume   588.54767568
_cell_formula_units_Z   2
loop_
 _symmetry_equiv_pos_site_id
 _symmetry_equiv_pos_as_xyz
  1  'x, y, z'
loop_
 _atom_site_type_symbol
 _atom_site_label
 _atom_site_symmetry_multiplicity
 _atom_site_fract_x
 _atom_site_fract_y
 _atom_site_fract_z
 _atom_site_occupancy
  Al  Al0  1  0.391640  0.848219  0.122414  1
  Al  Al1  1  0.409169  0.333694  0.250007  1
  Al  Al2  1  0.909169  0.666306  0.249993  1
  Al  Al3  1  0.891638  0.151781  0.377586  1
  Al  Al4  1  0.891638  0.151781  0.622415  1
  Al  Al5  1  0.909169  0.666306  0.750008  1
  Al  Al6  1  0.409169  0.333694  0.749993  1
  Al  Al7  1  0.391640  0.848219  0.877586  1
  Sn  Sn8  1  0.168023  0.425390  0.000000  1
  Sn  Sn9  1  0.668023  0.574610  0.500000  1
  S  S10  1  0.516783  0.677389  0.000000  1
  S  S11  1  0.494527  0.188773  0.120585  1
  S  S12  1  0.030526  0.776584  0.118936  1
  S  S13  1  0.528336  0.679771  0.244437  1
  S  S14  1  0.028337  0.320230  0.255564  1
  S  S15  1  0.530527  0.223417  0.381065  1
  S  S16  1  0.994526  0.811227  0.379414  1
  S  S17  1  0.016782  0.322610  0.500000  1
  S  S18  1  0.994526  0.811227  0.620586  1
  S  S19  1  0.530527  0.223417  0.618936  1
  S  S20  1  0.028337  0.320230  0.744437  1
  S  S21  1  0.528336  0.679771  0.755564  1
  S  S22  1  0.030526  0.776584  0.881065  1
  S  S23  1  0.494527  0.188773  0.879415  1
