# generated using pymatgen
data_Li4Tb4PdPt3
_symmetry_space_group_name_H-M   'P 1'
_cell_length_a   4.01207400
_cell_length_b   7.09905338
_cell_length_c   8.41800037
_cell_angle_alpha   90.54182542
_cell_angle_beta   90.00000000
_cell_angle_gamma   90.00000000
_symmetry_Int_Tables_number   1
_chemical_formula_structural   Li4Tb4PdPt3
_chemical_formula_sum   'Li4 Tb4 Pd1 Pt3'
_cell_volume   239.75015539
_cell_formula_units_Z   1
loop_
 _symmetry_equiv_pos_site_id
 _symmetry_equiv_pos_as_xyz
  1  'x, y, z'
loop_
 _atom_site_type_symbol
 _atom_site_label
 _atom_site_symmetry_multiplicity
 _atom_site_fract_x
 _atom_site_fract_y
 _atom_site_fract_z
 _atom_site_occupancy
  Li  Li0  1  0.750000  0.626741  0.440690  1
  Li  Li1  1  0.250000  0.371900  0.560641  1
  Li  Li2  1  0.750000  0.126402  0.057749  1
  Li  Li3  1  0.250000  0.873135  0.941673  1
  Tb  Tb4  1  0.750000  0.542762  0.821693  1
  Tb  Tb5  1  0.250000  0.956485  0.313173  1
  Tb  Tb6  1  0.250000  0.452935  0.185331  1
  Tb  Tb7  1  0.750000  0.051326  0.681983  1
  Pd  Pd8  1  0.250000  0.753076  0.619305  1
  Pt  Pt9  1  0.250000  0.253519  0.875789  1
  Pt  Pt10  1  0.750000  0.745293  0.123440  1
  Pt  Pt11  1  0.750000  0.246425  0.378532  1
