# generated using pymatgen
data_DyEr(Tm5Os2)2
_symmetry_space_group_name_H-M   'P 1'
_cell_length_a   7.37158709
_cell_length_b   8.91143100
_cell_length_c   6.23491349
_cell_angle_alpha   90.00000000
_cell_angle_beta   90.14377605
_cell_angle_gamma   90.00000000
_symmetry_Int_Tables_number   1
_chemical_formula_structural   DyEr(Tm5Os2)2
_chemical_formula_sum   'Dy1 Er1 Tm10 Os4'
_cell_volume   409.57884221
_cell_formula_units_Z   1
loop_
 _symmetry_equiv_pos_site_id
 _symmetry_equiv_pos_as_xyz
  1  'x, y, z'
loop_
 _atom_site_type_symbol
 _atom_site_label
 _atom_site_symmetry_multiplicity
 _atom_site_fract_x
 _atom_site_fract_y
 _atom_site_fract_z
 _atom_site_occupancy
  Dy  Dy0  1  0.960702  0.750000  0.371481  1
  Er  Er1  1  0.039351  0.250000  0.628679  1
  Tm  Tm2  1  0.459948  0.750000  0.129086  1
  Tm  Tm3  1  0.540132  0.250000  0.870773  1
  Tm  Tm4  1  0.175733  0.062809  0.164594  1
  Tm  Tm5  1  0.824409  0.937587  0.835547  1
  Tm  Tm6  1  0.327068  0.937557  0.667269  1
  Tm  Tm7  1  0.824409  0.562413  0.835547  1
  Tm  Tm8  1  0.672878  0.062603  0.332825  1
  Tm  Tm9  1  0.175733  0.437191  0.164594  1
  Tm  Tm10  1  0.672878  0.437397  0.332825  1
  Tm  Tm11  1  0.327068  0.562443  0.667269  1
  Os  Os12  1  0.382650  0.250000  0.461045  1
  Os  Os13  1  0.616756  0.750000  0.539340  1
  Os  Os14  1  0.118495  0.750000  0.958850  1
  Os  Os15  1  0.881790  0.250000  0.040274  1
