# generated using pymatgen
data_Ho12Co5Pb
_symmetry_space_group_name_H-M   'P 1'
_cell_length_a   8.26115804
_cell_length_b   8.26116549
_cell_length_c   8.26115434
_cell_angle_alpha   106.89167725
_cell_angle_beta   110.76341008
_cell_angle_gamma   110.78899973
_symmetry_Int_Tables_number   1
_chemical_formula_structural   Ho12Co5Pb
_chemical_formula_sum   'Ho12 Co5 Pb1'
_cell_volume   433.35509469
_cell_formula_units_Z   1
loop_
 _symmetry_equiv_pos_site_id
 _symmetry_equiv_pos_as_xyz
  1  'x, y, z'
loop_
 _atom_site_type_symbol
 _atom_site_label
 _atom_site_symmetry_multiplicity
 _atom_site_fract_x
 _atom_site_fract_y
 _atom_site_fract_z
 _atom_site_occupancy
  Ho  Ho0  1  0.806685  0.208505  0.015188  1
  Ho  Ho1  1  0.474959  0.289993  0.184970  1
  Ho  Ho2  1  0.894980  0.710010  0.184969  1
  Ho  Ho3  1  0.692932  0.005984  0.313049  1
  Ho  Ho4  1  0.307068  0.620120  0.313051  1
  Ho  Ho5  1  0.193318  0.208504  0.401821  1
  Ho  Ho6  1  0.806682  0.791496  0.598179  1
  Ho  Ho7  1  0.692931  0.379880  0.686948  1
  Ho  Ho8  1  0.307067  0.994015  0.686951  1
  Ho  Ho9  1  0.105019  0.289989  0.815030  1
  Ho  Ho10  1  0.525041  0.710007  0.815029  1
  Ho  Ho11  1  0.193315  0.791495  0.984812  1
  Co  Co12  1  0.000000  0.000000  0.000000  1
  Co  Co13  1  0.500001  0.611980  0.111983  1
  Co  Co14  1  0.376352  0.000002  0.376353  1
  Co  Co15  1  0.623649  0.999998  0.623648  1
  Co  Co16  1  0.499999  0.388020  0.888017  1
  Pb  Pb17  1  0.000000  0.500000  0.500000  1
