# generated using pymatgen
data_Nd3Dy5Cd2OsPt
_symmetry_space_group_name_H-M   'P 1'
_cell_length_a   9.76689581
_cell_length_b   9.76689563
_cell_length_c   9.82233500
_cell_angle_alpha   59.81204934
_cell_angle_beta   59.81204996
_cell_angle_gamma   59.78773037
_symmetry_Int_Tables_number   1
_chemical_formula_structural   Nd3Dy5Cd2OsPt
_chemical_formula_sum   'Nd6 Dy10 Cd4 Os2 Pt2'
_cell_volume   659.59238148
_cell_formula_units_Z   2
loop_
 _symmetry_equiv_pos_site_id
 _symmetry_equiv_pos_as_xyz
  1  'x, y, z'
loop_
 _atom_site_type_symbol
 _atom_site_label
 _atom_site_symmetry_multiplicity
 _atom_site_fract_x
 _atom_site_fract_y
 _atom_site_fract_z
 _atom_site_occupancy
  Nd  Nd0  1  0.940424  0.553712  0.563635  1
  Nd  Nd1  1  0.553712  0.940424  0.942229  1
  Nd  Nd2  1  0.553712  0.940424  0.563635  1
  Nd  Nd3  1  0.940424  0.553712  0.942229  1
  Nd  Nd4  1  0.561010  0.561010  0.938990  1
  Nd  Nd5  1  0.941657  0.941657  0.558343  1
  Dy  Dy6  1  0.348508  0.348508  0.351472  1
  Dy  Dy7  1  0.348508  0.348508  0.951512  1
  Dy  Dy8  1  0.344376  0.959613  0.348006  1
  Dy  Dy9  1  0.959613  0.344376  0.348006  1
  Dy  Dy10  1  0.816703  0.185835  0.189271  1
  Dy  Dy11  1  0.185835  0.816703  0.808192  1
  Dy  Dy12  1  0.185835  0.816703  0.189271  1
  Dy  Dy13  1  0.816703  0.185835  0.808192  1
  Dy  Dy14  1  0.186661  0.186661  0.813339  1
  Dy  Dy15  1  0.809811  0.809811  0.190189  1
  Cd  Cd16  1  0.579128  0.579128  0.579651  1
  Cd  Cd17  1  0.579128  0.579128  0.262095  1
  Cd  Cd18  1  0.580172  0.259871  0.579980  1
  Cd  Cd19  1  0.259871  0.580172  0.579980  1
  Os  Os20  1  0.143937  0.143937  0.137002  1
  Os  Os21  1  0.143937  0.143937  0.575123  1
  Pt  Pt22  1  0.144709  0.575629  0.139831  1
  Pt  Pt23  1  0.575629  0.144709  0.139831  1
