# generated using pymatgen
data_TbHo5Al24NiOs7
_symmetry_space_group_name_H-M   'P 1'
_cell_length_a   8.80381200
_cell_length_b   8.80044612
_cell_length_c   9.52472501
_cell_angle_alpha   90.00365779
_cell_angle_beta   90.00000000
_cell_angle_gamma   120.01265273
_symmetry_Int_Tables_number   1
_chemical_formula_structural   TbHo5Al24NiOs7
_chemical_formula_sum   'Tb1 Ho5 Al24 Ni1 Os7'
_cell_volume   639.00335561
_cell_formula_units_Z   1
loop_
 _symmetry_equiv_pos_site_id
 _symmetry_equiv_pos_as_xyz
  1  'x, y, z'
loop_
 _atom_site_type_symbol
 _atom_site_label
 _atom_site_symmetry_multiplicity
 _atom_site_fract_x
 _atom_site_fract_y
 _atom_site_fract_z
 _atom_site_occupancy
  Tb  Tb0  1  0.193789  0.387577  0.249341  1
  Ho  Ho1  1  0.806012  0.612026  0.750697  1
  Ho  Ho2  1  0.611890  0.805980  0.249261  1
  Ho  Ho3  1  0.388070  0.194045  0.750677  1
  Ho  Ho4  1  0.194090  0.805980  0.249261  1
  Ho  Ho5  1  0.805974  0.194045  0.750677  1
  Al  Al6  1  0.333482  0.666965  0.017257  1
  Al  Al7  1  0.666676  0.333352  0.982601  1
  Al  Al8  1  0.666654  0.333308  0.516299  1
  Al  Al9  1  0.333453  0.666907  0.483794  1
  Al  Al10  1  0.161830  0.323659  0.577786  1
  Al  Al11  1  0.838127  0.676254  0.422487  1
  Al  Al12  1  0.676312  0.838154  0.577544  1
  Al  Al13  1  0.838107  0.676215  0.076626  1
  Al  Al14  1  0.323829  0.161712  0.422563  1
  Al  Al15  1  0.161838  0.323676  0.923068  1
  Al  Al16  1  0.161842  0.838154  0.577544  1
  Al  Al17  1  0.323846  0.161733  0.076558  1
  Al  Al18  1  0.837883  0.161712  0.422563  1
  Al  Al19  1  0.676289  0.838139  0.923327  1
  Al  Al20  1  0.837886  0.161733  0.076558  1
  Al  Al21  1  0.161850  0.838139  0.923327  1
  Al  Al22  1  0.560530  0.121061  0.249758  1
  Al  Al23  1  0.439463  0.878927  0.750243  1
  Al  Al24  1  0.878505  0.439507  0.249739  1
  Al  Al25  1  0.121027  0.560527  0.750262  1
  Al  Al26  1  0.561002  0.439507  0.249739  1
  Al  Al27  1  0.439500  0.560527  0.750262  1
  Al  Al28  1  0.999774  0.999547  0.243202  1
  Al  Al29  1  0.000009  0.000019  0.756821  1
  Ni  Ni30  1  0.000035  0.000071  0.000013  1
  Os  Os31  1  0.500064  0.000127  0.999898  1
  Os  Os32  1  0.999815  0.500129  0.999741  1
  Os  Os33  1  0.500081  0.000162  0.500137  1
  Os  Os34  1  0.500314  0.500129  0.999741  1
  Os  Os35  1  0.999815  0.500128  0.500282  1
  Os  Os36  1  0.500313  0.500128  0.500282  1
  Os  Os37  1  0.000021  0.000042  0.500063  1
