# generated using pymatgen
data_Zr12Al8ZnCo3C4
_symmetry_space_group_name_H-M   'P 1'
_cell_length_a   8.60628573
_cell_length_b   8.60628599
_cell_length_c   8.63931451
_cell_angle_alpha   60.12638555
_cell_angle_beta   60.12638513
_cell_angle_gamma   59.99999809
_symmetry_Int_Tables_number   1
_chemical_formula_structural   Zr12Al8ZnCo3C4
_chemical_formula_sum   'Zr12 Al8 Zn1 Co3 C4'
_cell_volume   453.33872359
_cell_formula_units_Z   1
loop_
 _symmetry_equiv_pos_site_id
 _symmetry_equiv_pos_as_xyz
  1  'x, y, z'
loop_
 _atom_site_type_symbol
 _atom_site_label
 _atom_site_symmetry_multiplicity
 _atom_site_fract_x
 _atom_site_fract_y
 _atom_site_fract_z
 _atom_site_occupancy
  Zr  Zr0  1  0.558034  0.944897  0.552172  1
  Zr  Zr1  1  0.305103  0.691966  0.697828  1
  Zr  Zr2  1  0.695253  0.303752  0.305742  1
  Zr  Zr3  1  0.303752  0.695253  0.305742  1
  Zr  Zr4  1  0.695253  0.695253  0.305742  1
  Zr  Zr5  1  0.305103  0.305103  0.697828  1
  Zr  Zr6  1  0.554747  0.554747  0.944258  1
  Zr  Zr7  1  0.944897  0.558034  0.552172  1
  Zr  Zr8  1  0.554747  0.946248  0.944258  1
  Zr  Zr9  1  0.944897  0.944897  0.552172  1
  Zr  Zr10  1  0.691966  0.305103  0.697828  1
  Zr  Zr11  1  0.946248  0.554747  0.944258  1
  Al  Al12  1  0.914401  0.914401  0.933990  1
  Al  Al13  1  0.012792  0.335599  0.316010  1
  Al  Al14  1  0.335599  0.012792  0.316010  1
  Al  Al15  1  0.329306  0.329306  0.012083  1
  Al  Al16  1  0.914401  0.237208  0.933990  1
  Al  Al17  1  0.920694  0.920694  0.237917  1
  Al  Al18  1  0.237208  0.914401  0.933990  1
  Al  Al19  1  0.335599  0.335599  0.316010  1
  Zn  Zn20  1  0.125000  0.125000  0.625000  1
  Co  Co21  1  0.125000  0.125000  0.125000  1
  Co  Co22  1  0.625000  0.125000  0.125000  1
  Co  Co23  1  0.125000  0.625000  0.125000  1
  C  C24  1  0.625000  0.625000  0.625000  1
  C  C25  1  0.125000  0.625000  0.625000  1
  C  C26  1  0.625000  0.125000  0.625000  1
  C  C27  1  0.625000  0.625000  0.125000  1
