# generated using pymatgen
data_YErB6Ru
_symmetry_space_group_name_H-M   'P 1'
_cell_length_a   3.65239500
_cell_length_b   9.12206800
_cell_length_c   11.50964500
_cell_angle_alpha   90.00000000
_cell_angle_beta   90.00000000
_cell_angle_gamma   90.00000000
_symmetry_Int_Tables_number   1
_chemical_formula_structural   YErB6Ru
_chemical_formula_sum   'Y4 Er4 B24 Ru4'
_cell_volume   383.47139514
_cell_formula_units_Z   4
loop_
 _symmetry_equiv_pos_site_id
 _symmetry_equiv_pos_as_xyz
  1  'x, y, z'
loop_
 _atom_site_type_symbol
 _atom_site_label
 _atom_site_symmetry_multiplicity
 _atom_site_fract_x
 _atom_site_fract_y
 _atom_site_fract_z
 _atom_site_occupancy
  Y  Y0  1  0.000000  0.321992  0.414370  1
  Y  Y1  1  0.000000  0.678008  0.585630  1
  Y  Y2  1  0.000000  0.821992  0.085630  1
  Y  Y3  1  0.000000  0.178008  0.914370  1
  Er  Er4  1  0.000000  0.943523  0.372098  1
  Er  Er5  1  0.000000  0.056477  0.627902  1
  Er  Er6  1  0.000000  0.443523  0.127902  1
  Er  Er7  1  0.000000  0.556477  0.872098  1
  B  B8  1  0.500000  0.554217  0.432869  1
  B  B9  1  0.500000  0.445783  0.567131  1
  B  B10  1  0.500000  0.054217  0.067131  1
  B  B11  1  0.500000  0.945783  0.932869  1
  B  B12  1  0.500000  0.748677  0.419316  1
  B  B13  1  0.500000  0.251323  0.580684  1
  B  B14  1  0.500000  0.248677  0.080684  1
  B  B15  1  0.500000  0.751323  0.919316  1
  B  B16  1  0.500000  0.790947  0.265956  1
  B  B17  1  0.500000  0.209053  0.734044  1
  B  B18  1  0.500000  0.290947  0.234044  1
  B  B19  1  0.500000  0.709053  0.765956  1
  B  B20  1  0.500000  0.630913  0.184800  1
  B  B21  1  0.500000  0.369087  0.815200  1
  B  B22  1  0.500000  0.130913  0.315200  1
  B  B23  1  0.500000  0.869087  0.684800  1
  B  B24  1  0.500000  0.983145  0.213066  1
  B  B25  1  0.500000  0.016855  0.786934  1
  B  B26  1  0.500000  0.483145  0.286934  1
  B  B27  1  0.500000  0.516855  0.713066  1
  B  B28  1  0.500000  0.605750  0.029148  1
  B  B29  1  0.500000  0.394250  0.970852  1
  B  B30  1  0.500000  0.105750  0.470852  1
  B  B31  1  0.500000  0.894250  0.529148  1
  Ru  Ru32  1  0.000000  0.637860  0.320759  1
  Ru  Ru33  1  0.000000  0.362140  0.679241  1
  Ru  Ru34  1  0.000000  0.137860  0.179241  1
  Ru  Ru35  1  0.000000  0.862140  0.820759  1
