# generated using pymatgen
data_Tm5Lu7Tc3Ru
_symmetry_space_group_name_H-M   'P 1'
_cell_length_a   6.16009046
_cell_length_b   7.34603119
_cell_length_c   8.90297659
_cell_angle_alpha   89.98919910
_cell_angle_beta   90.04018030
_cell_angle_gamma   90.02108393
_symmetry_Int_Tables_number   1
_chemical_formula_structural   Tm5Lu7Tc3Ru
_chemical_formula_sum   'Tm5 Lu7 Tc3 Ru1'
_cell_volume   402.87929177
_cell_formula_units_Z   1
loop_
 _symmetry_equiv_pos_site_id
 _symmetry_equiv_pos_as_xyz
  1  'x, y, z'
loop_
 _atom_site_type_symbol
 _atom_site_label
 _atom_site_symmetry_multiplicity
 _atom_site_fract_x
 _atom_site_fract_y
 _atom_site_fract_z
 _atom_site_occupancy
  Tm  Tm0  1  0.339557  0.675901  0.062468  1
  Tm  Tm1  1  0.874473  0.540143  0.250195  1
  Tm  Tm2  1  0.625177  0.039332  0.250138  1
  Tm  Tm3  1  0.129389  0.457966  0.749799  1
  Tm  Tm4  1  0.375589  0.958764  0.749817  1
  Lu  Lu5  1  0.157556  0.175251  0.437874  1
  Lu  Lu6  1  0.658658  0.325424  0.562684  1
  Lu  Lu7  1  0.841232  0.824709  0.937555  1
  Lu  Lu8  1  0.658889  0.325159  0.937207  1
  Lu  Lu9  1  0.841353  0.824620  0.562279  1
  Lu  Lu10  1  0.339482  0.675719  0.437747  1
  Lu  Lu11  1  0.157449  0.175282  0.062151  1
  Tc  Tc12  1  0.041955  0.883309  0.250328  1
  Tc  Tc13  1  0.459282  0.384268  0.250198  1
  Tc  Tc14  1  0.959069  0.116763  0.750024  1
  Ru  Ru15  1  0.540890  0.617388  0.749534  1
