# generated using pymatgen
data_Pr4V3RhF28
_symmetry_space_group_name_H-M   'P 1'
_cell_length_a   5.68783151
_cell_length_b   9.17628930
_cell_length_c   12.19323510
_cell_angle_alpha   62.54594748
_cell_angle_beta   90.30660260
_cell_angle_gamma   90.06691470
_symmetry_Int_Tables_number   1
_chemical_formula_structural   Pr4V3RhF28
_chemical_formula_sum   'Pr4 V3 Rh1 F28'
_cell_volume   564.72385250
_cell_formula_units_Z   1
loop_
 _symmetry_equiv_pos_site_id
 _symmetry_equiv_pos_as_xyz
  1  'x, y, z'
loop_
 _atom_site_type_symbol
 _atom_site_label
 _atom_site_symmetry_multiplicity
 _atom_site_fract_x
 _atom_site_fract_y
 _atom_site_fract_z
 _atom_site_occupancy
  Pr  Pr0  1  0.759129  0.806444  0.767812  1
  Pr  Pr1  1  0.262057  0.192328  0.731561  1
  Pr  Pr2  1  0.238791  0.192143  0.234846  1
  Pr  Pr3  1  0.741364  0.806722  0.267663  1
  V  V4  1  0.253924  0.725718  0.543325  1
  V  V5  1  0.245085  0.725187  0.043997  1
  V  V6  1  0.746217  0.274410  0.456995  1
  Rh  Rh7  1  0.755834  0.272895  0.957138  1
  F  F8  1  0.441398  0.709754  0.924509  1
  F  F9  1  0.943541  0.291002  0.576371  1
  F  F10  1  0.568122  0.294194  0.080635  1
  F  F11  1  0.056677  0.709614  0.423484  1
  F  F12  1  0.471232  0.286525  0.542519  1
  F  F13  1  0.969587  0.714360  0.957571  1
  F  F14  1  0.527774  0.714300  0.456880  1
  F  F15  1  0.048735  0.285417  0.040716  1
  F  F16  1  0.763091  0.508629  0.860238  1
  F  F17  1  0.261854  0.500107  0.633661  1
  F  F18  1  0.236269  0.498816  0.134728  1
  F  F19  1  0.737829  0.499927  0.366229  1
  F  F20  1  0.757532  0.037051  0.047884  1
  F  F21  1  0.260181  0.950708  0.453413  1
  F  F22  1  0.239239  0.949523  0.953982  1
  F  F23  1  0.739097  0.050165  0.546188  1
  F  F24  1  0.985634  0.734017  0.632286  1
  F  F25  1  0.466540  0.268482  0.868514  1
  F  F26  1  0.015353  0.267400  0.367900  1
  F  F27  1  0.513661  0.729381  0.135619  1
  F  F28  1  0.050072  0.742243  0.165102  1
  F  F29  1  0.550342  0.256957  0.335724  1
  F  F30  1  0.942572  0.256222  0.830234  1
  F  F31  1  0.449502  0.745113  0.663591  1
  F  F32  1  0.411164  0.972193  0.227911  1
  F  F33  1  0.907663  0.031768  0.271510  1
  F  F34  1  0.591854  0.030809  0.771200  1
  F  F35  1  0.091082  0.969478  0.728062  1
