# generated using pymatgen
data_Sr12Si7SnP16
_symmetry_space_group_name_H-M   'P 1'
_cell_length_a   18.11378645
_cell_length_b   7.23682908
_cell_length_c   7.48820702
_cell_angle_alpha   67.77683509
_cell_angle_beta   89.99149231
_cell_angle_gamma   89.75540031
_symmetry_Int_Tables_number   1
_chemical_formula_structural   Sr12Si7SnP16
_chemical_formula_sum   'Sr12 Si7 Sn1 P16'
_cell_volume   908.67690126
_cell_formula_units_Z   1
loop_
 _symmetry_equiv_pos_site_id
 _symmetry_equiv_pos_as_xyz
  1  'x, y, z'
loop_
 _atom_site_type_symbol
 _atom_site_label
 _atom_site_symmetry_multiplicity
 _atom_site_fract_x
 _atom_site_fract_y
 _atom_site_fract_z
 _atom_site_occupancy
  Sr  Sr0  1  0.315944  0.013442  0.784742  1
  Sr  Sr1  1  0.814734  0.490214  0.217925  1
  Sr  Sr2  1  0.685446  0.989384  0.217728  1
  Sr  Sr3  1  0.185231  0.513526  0.786363  1
  Sr  Sr4  1  0.443874  0.996706  0.258922  1
  Sr  Sr5  1  0.940632  0.503954  0.739690  1
  Sr  Sr6  1  0.557668  0.005147  0.739530  1
  Sr  Sr7  1  0.055984  0.492445  0.262118  1
  Sr  Sr8  1  0.439296  0.512719  0.741993  1
  Sr  Sr9  1  0.933034  0.988941  0.255215  1
  Sr  Sr10  1  0.564700  0.488926  0.255032  1
  Sr  Sr11  1  0.063387  0.011913  0.743887  1
  Si  Si12  1  0.631343  0.525992  0.784326  1
  Si  Si13  1  0.121176  0.962126  0.208914  1
  Si  Si14  1  0.370767  0.478142  0.210473  1
  Si  Si15  1  0.869285  0.024915  0.784415  1
  Si  Si16  1  0.740966  0.407933  0.687759  1
  Si  Si17  1  0.759139  0.908088  0.688400  1
  Si  Si18  1  0.260294  0.589158  0.317146  1
  Sn  Sn19  1  0.239087  0.091927  0.310157  1
  P  P20  1  0.428939  0.269140  0.480275  1
  P  P21  1  0.928428  0.230455  0.516627  1
  P  P22  1  0.572464  0.732488  0.515273  1
  P  P23  1  0.067123  0.765353  0.484853  1
  P  P24  1  0.437426  0.739217  0.016219  1
  P  P25  1  0.936251  0.764606  0.983678  1
  P  P26  1  0.565608  0.265632  0.982909  1
  P  P27  1  0.060601  0.234979  0.014066  1
  P  P28  1  0.185631  0.778649  0.059325  1
  P  P29  1  0.686670  0.715413  0.941651  1
  P  P30  1  0.813259  0.214495  0.941797  1
  P  P31  1  0.321370  0.301459  0.035528  1
  P  P32  1  0.796866  0.715080  0.514901  1
  P  P33  1  0.703073  0.215740  0.514717  1
  P  P34  1  0.200037  0.301224  0.504254  1
  P  P35  1  0.304271  0.760472  0.499194  1
