# generated using pymatgen
data_SmDy7(Er3Sn4)4
_symmetry_space_group_name_H-M   'P 1'
_cell_length_a   8.00715310
_cell_length_b   8.14448731
_cell_length_c   15.39244979
_cell_angle_alpha   89.98506473
_cell_angle_beta   89.94682998
_cell_angle_gamma   90.02808450
_symmetry_Int_Tables_number   1
_chemical_formula_structural   SmDy7(Er3Sn4)4
_chemical_formula_sum   'Sm1 Dy7 Er12 Sn16'
_cell_volume   1003.80504796
_cell_formula_units_Z   1
loop_
 _symmetry_equiv_pos_site_id
 _symmetry_equiv_pos_as_xyz
  1  'x, y, z'
loop_
 _atom_site_type_symbol
 _atom_site_label
 _atom_site_symmetry_multiplicity
 _atom_site_fract_x
 _atom_site_fract_y
 _atom_site_fract_z
 _atom_site_occupancy
  Sm  Sm0  1  0.521161  0.320248  0.902743  1
  Dy  Dy1  1  0.021504  0.179629  0.597413  1
  Dy  Dy2  1  0.478520  0.679684  0.402496  1
  Dy  Dy3  1  0.978574  0.820251  0.097504  1
  Dy  Dy4  1  0.478596  0.679827  0.097582  1
  Dy  Dy5  1  0.978529  0.820324  0.402503  1
  Dy  Dy6  1  0.521529  0.320248  0.597599  1
  Dy  Dy7  1  0.021502  0.179539  0.902496  1
  Er  Er8  1  0.367589  0.836077  0.877829  1
  Er  Er9  1  0.867696  0.663871  0.622158  1
  Er  Er10  1  0.632329  0.163843  0.377798  1
  Er  Er11  1  0.132387  0.336253  0.122204  1
  Er  Er12  1  0.632479  0.163702  0.122342  1
  Er  Er13  1  0.132312  0.336195  0.377821  1
  Er  Er14  1  0.367668  0.836141  0.622126  1
  Er  Er15  1  0.867741  0.664056  0.877848  1
  Er  Er16  1  0.197998  0.503642  0.749840  1
  Er  Er17  1  0.698388  0.996362  0.749890  1
  Er  Er18  1  0.801777  0.496583  0.249956  1
  Er  Er19  1  0.301774  0.003439  0.250000  1
  Sn  Sn20  1  0.292842  0.035673  0.041870  1
  Sn  Sn21  1  0.792964  0.464179  0.458181  1
  Sn  Sn22  1  0.707045  0.964211  0.541794  1
  Sn  Sn23  1  0.205951  0.536561  0.958403  1
  Sn  Sn24  1  0.707454  0.963532  0.958296  1
  Sn  Sn25  1  0.207103  0.535758  0.541791  1
  Sn  Sn26  1  0.292917  0.035815  0.458168  1
  Sn  Sn27  1  0.793811  0.464611  0.042199  1
  Sn  Sn28  1  0.565033  0.620526  0.749885  1
  Sn  Sn29  1  0.064992  0.879984  0.749983  1
  Sn  Sn30  1  0.435024  0.379896  0.250035  1
  Sn  Sn31  1  0.935041  0.120035  0.249999  1
  Sn  Sn32  1  0.329090  0.146417  0.749467  1
  Sn  Sn33  1  0.830252  0.352915  0.749763  1
  Sn  Sn34  1  0.670200  0.852856  0.250017  1
  Sn  Sn35  1  0.170229  0.647120  0.250003  1
