# generated using pymatgen
data_Hf4Zr12Pd2Pt3Rh3N4
_symmetry_space_group_name_H-M   'P 1'
_cell_length_a   8.81311927
_cell_length_b   8.81312011
_cell_length_c   8.81312000
_cell_angle_alpha   60.05810206
_cell_angle_beta   60.05809141
_cell_angle_gamma   60.05810138
_symmetry_Int_Tables_number   1
_chemical_formula_structural   Hf4Zr12Pd2Pt3Rh3N4
_chemical_formula_sum   'Hf4 Zr12 Pd2 Pt3 Rh3 N4'
_cell_volume   484.66929086
_cell_formula_units_Z   1
loop_
 _symmetry_equiv_pos_site_id
 _symmetry_equiv_pos_as_xyz
  1  'x, y, z'
loop_
 _atom_site_type_symbol
 _atom_site_label
 _atom_site_symmetry_multiplicity
 _atom_site_fract_x
 _atom_site_fract_y
 _atom_site_fract_z
 _atom_site_occupancy
  Hf  Hf0  1  0.111522  0.629387  0.629387  1
  Hf  Hf1  1  0.630032  0.116813  0.626608  1
  Hf  Hf2  1  0.630032  0.626608  0.116813  1
  Hf  Hf3  1  0.629713  0.626334  0.626334  1
  Zr  Zr4  1  0.816749  0.817053  0.182737  1
  Zr  Zr5  1  0.179246  0.184687  0.817976  1
  Zr  Zr6  1  0.816749  0.182737  0.817053  1
  Zr  Zr7  1  0.179246  0.817976  0.184687  1
  Zr  Zr8  1  0.179731  0.817189  0.817189  1
  Zr  Zr9  1  0.817388  0.182399  0.182399  1
  Zr  Zr10  1  0.432668  0.432383  0.067245  1
  Zr  Zr11  1  0.067348  0.066821  0.432870  1
  Zr  Zr12  1  0.432668  0.067245  0.432383  1
  Zr  Zr13  1  0.067348  0.432870  0.066821  1
  Zr  Zr14  1  0.067431  0.432674  0.432674  1
  Zr  Zr15  1  0.432828  0.067434  0.067434  1
  Pd  Pd16  1  0.412453  0.412611  0.412611  1
  Pd  Pd17  1  0.478943  0.840531  0.840531  1
  Pt  Pt18  1  0.769946  0.409800  0.409800  1
  Pt  Pt19  1  0.409781  0.769470  0.410091  1
  Pt  Pt20  1  0.409781  0.410091  0.769470  1
  Rh  Rh21  1  0.842429  0.471666  0.843087  1
  Rh  Rh22  1  0.842429  0.843087  0.471666  1
  Rh  Rh23  1  0.841775  0.842064  0.842064  1
  N  N24  1  0.625546  0.124931  0.124931  1
  N  N25  1  0.125327  0.625325  0.124778  1
  N  N26  1  0.125327  0.124778  0.625325  1
  N  N27  1  0.125564  0.125039  0.125039  1
