# generated using pymatgen
data_Y8Be4Si11Ge
_symmetry_space_group_name_H-M   'P 1'
_cell_length_a   7.87511100
_cell_length_b   7.87302060
_cell_length_c   8.12597000
_cell_angle_alpha   90.00103569
_cell_angle_beta   90.00000000
_cell_angle_gamma   120.00878774
_symmetry_Int_Tables_number   1
_chemical_formula_structural   Y8Be4Si11Ge
_chemical_formula_sum   'Y8 Be4 Si11 Ge1'
_cell_volume   436.28015002
_cell_formula_units_Z   1
loop_
 _symmetry_equiv_pos_site_id
 _symmetry_equiv_pos_as_xyz
  1  'x, y, z'
loop_
 _atom_site_type_symbol
 _atom_site_label
 _atom_site_symmetry_multiplicity
 _atom_site_fract_x
 _atom_site_fract_y
 _atom_site_fract_z
 _atom_site_occupancy
  Y  Y0  1  0.999294  0.998588  0.250848  1
  Y  Y1  1  0.999295  0.998590  0.749152  1
  Y  Y2  1  0.998791  0.500473  0.251147  1
  Y  Y3  1  0.501683  0.500473  0.251147  1
  Y  Y4  1  0.499894  0.999790  0.749633  1
  Y  Y5  1  0.500063  0.000125  0.250365  1
  Y  Y6  1  0.501524  0.500658  0.748842  1
  Y  Y7  1  0.999134  0.500658  0.748842  1
  Be  Be8  1  0.335730  0.671460  0.999336  1
  Be  Be9  1  0.333283  0.666568  0.500696  1
  Be  Be10  1  0.667068  0.334136  0.000694  1
  Be  Be11  1  0.666678  0.333355  0.499301  1
  Si  Si12  1  0.655026  0.826973  0.000044  1
  Si  Si13  1  0.172635  0.345270  0.499956  1
  Si  Si14  1  0.348252  0.169793  0.999946  1
  Si  Si15  1  0.171947  0.826973  0.000044  1
  Si  Si16  1  0.655103  0.827498  0.499949  1
  Si  Si17  1  0.827307  0.654614  0.999958  1
  Si  Si18  1  0.345184  0.172598  0.500041  1
  Si  Si19  1  0.172396  0.827498  0.499949  1
  Si  Si20  1  0.827333  0.654667  0.500045  1
  Si  Si21  1  0.821541  0.169793  0.999946  1
  Si  Si22  1  0.827414  0.172598  0.500041  1
  Ge  Ge23  1  0.173426  0.346852  0.000077  1
