# generated using pymatgen
data_Er5Sc(Rh2Pb)6
_symmetry_space_group_name_H-M   'P 1'
_cell_length_a   4.57287601
_cell_length_b   7.25006900
_cell_length_c   13.56142302
_cell_angle_alpha   90.00000000
_cell_angle_beta   89.99453083
_cell_angle_gamma   90.00000000
_symmetry_Int_Tables_number   1
_chemical_formula_structural   Er5Sc(Rh2Pb)6
_chemical_formula_sum   'Er5 Sc1 Rh12 Pb6'
_cell_volume   449.61089477
_cell_formula_units_Z   1
loop_
 _symmetry_equiv_pos_site_id
 _symmetry_equiv_pos_as_xyz
  1  'x, y, z'
loop_
 _atom_site_type_symbol
 _atom_site_label
 _atom_site_symmetry_multiplicity
 _atom_site_fract_x
 _atom_site_fract_y
 _atom_site_fract_z
 _atom_site_occupancy
  Er  Er0  1  0.000032  0.000000  0.999020  1
  Er  Er1  1  0.500040  0.500000  0.165530  1
  Er  Er2  1  0.999998  0.000000  0.333344  1
  Er  Er3  1  0.500008  0.500000  0.501100  1
  Er  Er4  1  0.999922  0.000000  0.667711  1
  Sc  Sc5  1  0.499976  0.500000  0.833321  1
  Rh  Rh6  1  0.499998  0.254824  0.996759  1
  Rh  Rh7  1  0.499998  0.745176  0.996759  1
  Rh  Rh8  1  0.000035  0.249966  0.166168  1
  Rh  Rh9  1  0.000035  0.750034  0.166168  1
  Rh  Rh10  1  0.500031  0.250535  0.333349  1
  Rh  Rh11  1  0.500031  0.749465  0.333349  1
  Rh  Rh12  1  0.000017  0.249999  0.500495  1
  Rh  Rh13  1  0.000017  0.750002  0.500495  1
  Rh  Rh14  1  0.499970  0.254817  0.669898  1
  Rh  Rh15  1  0.499970  0.745183  0.669898  1
  Rh  Rh16  1  0.999961  0.256669  0.833332  1
  Rh  Rh17  1  0.999961  0.743331  0.833332  1
  Pb  Pb18  1  0.000010  0.500000  0.997621  1
  Pb  Pb19  1  0.500047  0.000000  0.165398  1
  Pb  Pb20  1  0.000024  0.500000  0.333283  1
  Pb  Pb21  1  0.499962  0.000000  0.501300  1
  Pb  Pb22  1  0.999959  0.500000  0.669050  1
  Pb  Pb23  1  0.499992  0.000000  0.833322  1
