# generated using pymatgen
data_Ta8Ge2B4MoW
_symmetry_space_group_name_H-M   'P 1'
_cell_length_a   7.30508184
_cell_length_b   7.30508248
_cell_length_c   7.30508218
_cell_angle_alpha   129.59356358
_cell_angle_beta   129.59356454
_cell_angle_gamma   74.05735485
_symmetry_Int_Tables_number   1
_chemical_formula_structural   Ta8Ge2B4MoW
_chemical_formula_sum   'Ta8 Ge2 B4 Mo1 W1'
_cell_volume   225.73181308
_cell_formula_units_Z   1
loop_
 _symmetry_equiv_pos_site_id
 _symmetry_equiv_pos_as_xyz
  1  'x, y, z'
loop_
 _atom_site_type_symbol
 _atom_site_label
 _atom_site_symmetry_multiplicity
 _atom_site_fract_x
 _atom_site_fract_y
 _atom_site_fract_z
 _atom_site_occupancy
  Ta  Ta0  1  0.528170  0.696691  0.499883  1
  Ta  Ta1  1  0.196809  0.028287  0.500117  1
  Ta  Ta2  1  0.028287  0.528170  0.831479  1
  Ta  Ta3  1  0.696691  0.196809  0.168521  1
  Ta  Ta4  1  0.471830  0.303309  0.500117  1
  Ta  Ta5  1  0.803191  0.971713  0.499883  1
  Ta  Ta6  1  0.971713  0.471830  0.168521  1
  Ta  Ta7  1  0.303309  0.803191  0.831479  1
  Ge  Ge8  1  0.250043  0.250043  0.000000  1
  Ge  Ge9  1  0.749957  0.749957  0.000000  1
  B  B10  1  0.878460  0.621658  0.500118  1
  B  B11  1  0.121540  0.378342  0.499882  1
  B  B12  1  0.378342  0.878460  0.256802  1
  B  B13  1  0.621658  0.121540  0.743198  1
  Mo  Mo14  1  0.500000  0.500000  0.000000  1
  W  W15  1  0.000000  0.000000  0.000000  1
