# generated using pymatgen
data_Er2TmThPt4
_symmetry_space_group_name_H-M   'P 1'
_cell_length_a   4.55120600
_cell_length_b   5.60473770
_cell_length_c   7.01395176
_cell_angle_alpha   89.72174393
_cell_angle_beta   90.00000000
_cell_angle_gamma   90.00000000
_symmetry_Int_Tables_number   1
_chemical_formula_structural   Er2TmThPt4
_chemical_formula_sum   'Er2 Tm1 Th1 Pt4'
_cell_volume   178.91198711
_cell_formula_units_Z   1
loop_
 _symmetry_equiv_pos_site_id
 _symmetry_equiv_pos_as_xyz
  1  'x, y, z'
loop_
 _atom_site_type_symbol
 _atom_site_label
 _atom_site_symmetry_multiplicity
 _atom_site_fract_x
 _atom_site_fract_y
 _atom_site_fract_z
 _atom_site_occupancy
  Er  Er0  1  0.750000  0.356339  0.813680  1
  Er  Er1  1  0.750000  0.142658  0.321274  1
  Tm  Tm2  1  0.250000  0.859017  0.682942  1
  Th  Th3  1  0.250000  0.641379  0.182809  1
  Pt  Pt4  1  0.250000  0.157882  0.041649  1
  Pt  Pt5  1  0.750000  0.843082  0.950141  1
  Pt  Pt6  1  0.750000  0.659676  0.461979  1
  Pt  Pt7  1  0.250000  0.339967  0.545527  1
