# generated using pymatgen
data_LiLa2Zn(BiSb)2
_symmetry_space_group_name_H-M   'P 1'
_cell_length_a   4.53394700
_cell_length_b   4.53394700
_cell_length_c   10.72899800
_cell_angle_alpha   90.00000000
_cell_angle_beta   90.00000000
_cell_angle_gamma   90.00000000
_symmetry_Int_Tables_number   1
_chemical_formula_structural   LiLa2Zn(BiSb)2
_chemical_formula_sum   'Li1 La2 Zn1 Bi2 Sb2'
_cell_volume   220.55252924
_cell_formula_units_Z   1
loop_
 _symmetry_equiv_pos_site_id
 _symmetry_equiv_pos_as_xyz
  1  'x, y, z'
loop_
 _atom_site_type_symbol
 _atom_site_label
 _atom_site_symmetry_multiplicity
 _atom_site_fract_x
 _atom_site_fract_y
 _atom_site_fract_z
 _atom_site_occupancy
  Li  Li0  1  0.500000  0.500000  0.000000  1
  La  La1  1  0.000000  0.500000  0.257601  1
  La  La2  1  0.500000  0.000000  0.742399  1
  Zn  Zn3  1  0.000000  0.000000  0.000000  1
  Bi  Bi4  1  0.000000  0.000000  0.500000  1
  Bi  Bi5  1  0.500000  0.500000  0.500000  1
  Sb  Sb6  1  0.000000  0.500000  0.843124  1
  Sb  Sb7  1  0.500000  0.000000  0.156876  1
