# generated using pymatgen
data_Sm2Si4Tc3
_symmetry_space_group_name_H-M   'P 1'
_cell_length_a   8.14545400
_cell_length_b   5.65352755
_cell_length_c   6.99812543
_cell_angle_alpha   76.80437763
_cell_angle_beta   90.00000000
_cell_angle_gamma   90.00000000
_symmetry_Int_Tables_number   1
_chemical_formula_structural   Sm2Si4Tc3
_chemical_formula_sum   'Sm4 Si8 Tc6'
_cell_volume   313.75847536
_cell_formula_units_Z   2
loop_
 _symmetry_equiv_pos_site_id
 _symmetry_equiv_pos_as_xyz
  1  'x, y, z'
loop_
 _atom_site_type_symbol
 _atom_site_label
 _atom_site_symmetry_multiplicity
 _atom_site_fract_x
 _atom_site_fract_y
 _atom_site_fract_z
 _atom_site_occupancy
  Sm  Sm0  1  0.931665  0.564263  0.251281  1
  Sm  Sm1  1  0.431665  0.935737  0.748719  1
  Sm  Sm2  1  0.068335  0.435737  0.748719  1
  Sm  Sm3  1  0.568335  0.064263  0.251281  1
  Si  Si4  1  0.589397  0.612318  0.112250  1
  Si  Si5  1  0.089397  0.887682  0.887750  1
  Si  Si6  1  0.410603  0.387682  0.887750  1
  Si  Si7  1  0.910603  0.112318  0.112250  1
  Si  Si8  1  0.752216  0.718126  0.587183  1
  Si  Si9  1  0.252216  0.781874  0.412817  1
  Si  Si10  1  0.247784  0.281874  0.412817  1
  Si  Si11  1  0.747784  0.218126  0.587183  1
  Tc  Tc12  1  0.293128  0.610787  0.120489  1
  Tc  Tc13  1  0.793128  0.889213  0.879511  1
  Tc  Tc14  1  0.706872  0.389213  0.879511  1
  Tc  Tc15  1  0.206872  0.110787  0.120489  1
  Tc  Tc16  1  0.500000  0.500000  0.500000  1
  Tc  Tc17  1  0.000000  0.000000  0.500000  1
