# generated using pymatgen
data_Li2PrSmBiPb
_symmetry_space_group_name_H-M   'P 1'
_cell_length_a   4.87665800
_cell_length_b   4.87665738
_cell_length_c   7.52954900
_cell_angle_alpha   90.00000000
_cell_angle_beta   90.00000000
_cell_angle_gamma   120.00000419
_symmetry_Int_Tables_number   1
_chemical_formula_structural   Li2PrSmBiPb
_chemical_formula_sum   'Li2 Pr1 Sm1 Bi1 Pb1'
_cell_volume   155.07583254
_cell_formula_units_Z   1
loop_
 _symmetry_equiv_pos_site_id
 _symmetry_equiv_pos_as_xyz
  1  'x, y, z'
loop_
 _atom_site_type_symbol
 _atom_site_label
 _atom_site_symmetry_multiplicity
 _atom_site_fract_x
 _atom_site_fract_y
 _atom_site_fract_z
 _atom_site_occupancy
  Li  Li0  1  0.666667  0.333333  0.735963  1
  Li  Li1  1  0.333333  0.666667  0.263309  1
  Pr  Pr2  1  0.000000  0.000000  0.004857  1
  Sm  Sm3  1  0.000000  0.000000  0.495103  1
  Bi  Bi4  1  0.333333  0.666667  0.743642  1
  Pb  Pb5  1  0.666667  0.333333  0.257127  1
