# generated using pymatgen
data_ScMnBeB2Rh5
_symmetry_space_group_name_H-M   'P 1'
_cell_length_a   9.19783200
_cell_length_b   2.94347400
_cell_length_c   9.17860000
_cell_angle_alpha   90.00000000
_cell_angle_beta   90.00000000
_cell_angle_gamma   90.00000000
_symmetry_Int_Tables_number   1
_chemical_formula_structural   ScMnBeB2Rh5
_chemical_formula_sum   'Sc2 Mn2 Be2 B4 Rh10'
_cell_volume   248.49755541
_cell_formula_units_Z   2
loop_
 _symmetry_equiv_pos_site_id
 _symmetry_equiv_pos_as_xyz
  1  'x, y, z'
loop_
 _atom_site_type_symbol
 _atom_site_label
 _atom_site_symmetry_multiplicity
 _atom_site_fract_x
 _atom_site_fract_y
 _atom_site_fract_z
 _atom_site_occupancy
  Sc  Sc0  1  0.823910  0.000000  0.672392  1
  Sc  Sc1  1  0.323909  0.000000  0.827609  1
  Mn  Mn2  1  0.679346  0.000000  0.178863  1
  Mn  Mn3  1  0.179345  0.000000  0.321136  1
  Be  Be4  1  0.001613  0.000000  0.994051  1
  Be  Be5  1  0.501613  0.000000  0.505949  1
  B  B6  1  0.367592  0.000000  0.136167  1
  B  B7  1  0.867593  0.000000  0.363832  1
  B  B8  1  0.127406  0.000000  0.623528  1
  B  B9  1  0.627405  0.000000  0.876471  1
  Rh  Rh10  1  0.502188  0.500000  0.007907  1
  Rh  Rh11  1  0.206294  0.500000  0.071345  1
  Rh  Rh12  1  0.931957  0.500000  0.203764  1
  Rh  Rh13  1  0.431957  0.500000  0.296235  1
  Rh  Rh14  1  0.706295  0.500000  0.428655  1
  Rh  Rh15  1  0.002188  0.500000  0.492093  1
  Rh  Rh16  1  0.291456  0.500000  0.566103  1
  Rh  Rh17  1  0.568236  0.500000  0.711816  1
  Rh  Rh18  1  0.068236  0.500000  0.788184  1
  Rh  Rh19  1  0.791456  0.500000  0.933897  1
