# generated using pymatgen
data_Y5Tm15Cd6NiRh
_symmetry_space_group_name_H-M   'P 1'
_cell_length_a   9.55500310
_cell_length_b   9.55500421
_cell_length_c   9.67752400
_cell_angle_alpha   90.00000000
_cell_angle_beta   90.00000000
_cell_angle_gamma   119.98305763
_symmetry_Int_Tables_number   1
_chemical_formula_structural   Y5Tm15Cd6NiRh
_chemical_formula_sum   'Y5 Tm15 Cd6 Ni1 Rh1'
_cell_volume   765.29825433
_cell_formula_units_Z   1
loop_
 _symmetry_equiv_pos_site_id
 _symmetry_equiv_pos_as_xyz
  1  'x, y, z'
loop_
 _atom_site_type_symbol
 _atom_site_label
 _atom_site_symmetry_multiplicity
 _atom_site_fract_x
 _atom_site_fract_y
 _atom_site_fract_z
 _atom_site_occupancy
  Y  Y0  1  0.542210  0.457790  0.250000  1
  Y  Y1  1  0.542195  0.084135  0.250000  1
  Y  Y2  1  0.915865  0.457805  0.250000  1
  Y  Y3  1  0.457556  0.914315  0.750000  1
  Y  Y4  1  0.085685  0.542444  0.750000  1
  Tm  Tm5  1  0.999961  0.000039  0.499489  1
  Tm  Tm6  1  0.999961  0.000039  0.000511  1
  Tm  Tm7  1  0.457723  0.542277  0.750000  1
  Tm  Tm8  1  0.208992  0.791008  0.440257  1
  Tm  Tm9  1  0.209676  0.418238  0.440711  1
  Tm  Tm10  1  0.581762  0.790324  0.440711  1
  Tm  Tm11  1  0.789125  0.210875  0.563082  1
  Tm  Tm12  1  0.788359  0.578393  0.563404  1
  Tm  Tm13  1  0.421607  0.211641  0.563404  1
  Tm  Tm14  1  0.789125  0.210875  0.936918  1
  Tm  Tm15  1  0.788359  0.578393  0.936596  1
  Tm  Tm16  1  0.421607  0.211641  0.936596  1
  Tm  Tm17  1  0.208992  0.791008  0.059743  1
  Tm  Tm18  1  0.209676  0.418238  0.059289  1
  Tm  Tm19  1  0.581762  0.790324  0.059289  1
  Cd  Cd20  1  0.885891  0.114109  0.250000  1
  Cd  Cd21  1  0.885637  0.771636  0.250000  1
  Cd  Cd22  1  0.228364  0.114363  0.250000  1
  Cd  Cd23  1  0.114412  0.885588  0.750000  1
  Cd  Cd24  1  0.115594  0.229791  0.750000  1
  Cd  Cd25  1  0.770209  0.884406  0.750000  1
  Ni  Ni26  1  0.666486  0.333514  0.750000  1
  Rh  Rh27  1  0.333211  0.666789  0.250000  1
