# generated using pymatgen
data_Yb3Sc(Ni4As3)2
_symmetry_space_group_name_H-M   'P 1'
_cell_length_a   3.89666300
_cell_length_b   11.25579600
_cell_length_c   13.03684900
_cell_angle_alpha   90.00000000
_cell_angle_beta   90.00000000
_cell_angle_gamma   90.00000000
_symmetry_Int_Tables_number   1
_chemical_formula_structural   Yb3Sc(Ni4As3)2
_chemical_formula_sum   'Yb6 Sc2 Ni16 As12'
_cell_volume   571.79676827
_cell_formula_units_Z   2
loop_
 _symmetry_equiv_pos_site_id
 _symmetry_equiv_pos_as_xyz
  1  'x, y, z'
loop_
 _atom_site_type_symbol
 _atom_site_label
 _atom_site_symmetry_multiplicity
 _atom_site_fract_x
 _atom_site_fract_y
 _atom_site_fract_z
 _atom_site_occupancy
  Yb  Yb0  1  0.000000  0.500000  0.529516  1
  Yb  Yb1  1  0.500000  0.000000  0.470484  1
  Yb  Yb2  1  0.500000  0.822227  0.205682  1
  Yb  Yb3  1  0.500000  0.177773  0.205682  1
  Yb  Yb4  1  0.000000  0.677773  0.794318  1
  Yb  Yb5  1  0.000000  0.322227  0.794318  1
  Sc  Sc6  1  0.500000  0.500000  0.156214  1
  Sc  Sc7  1  0.000000  0.000000  0.843786  1
  Ni  Ni8  1  0.500000  0.500000  0.702529  1
  Ni  Ni9  1  0.000000  0.000000  0.297471  1
  Ni  Ni10  1  0.000000  0.500000  0.986015  1
  Ni  Ni11  1  0.500000  0.000000  0.013985  1
  Ni  Ni12  1  0.500000  0.332329  0.994769  1
  Ni  Ni13  1  0.500000  0.667671  0.994769  1
  Ni  Ni14  1  0.000000  0.167671  0.005231  1
  Ni  Ni15  1  0.000000  0.832329  0.005231  1
  Ni  Ni16  1  0.500000  0.300685  0.429703  1
  Ni  Ni17  1  0.500000  0.699315  0.429703  1
  Ni  Ni18  1  0.000000  0.199315  0.570297  1
  Ni  Ni19  1  0.000000  0.800685  0.570297  1
  Ni  Ni20  1  0.500000  0.879634  0.705008  1
  Ni  Ni21  1  0.500000  0.120366  0.705008  1
  Ni  Ni22  1  0.000000  0.620366  0.294992  1
  Ni  Ni23  1  0.000000  0.379634  0.294992  1
  As  As24  1  0.500000  0.500000  0.881585  1
  As  As25  1  0.000000  0.000000  0.118415  1
  As  As26  1  0.500000  0.500000  0.360999  1
  As  As27  1  0.000000  0.000000  0.639001  1
  As  As28  1  0.500000  0.312293  0.615547  1
  As  As29  1  0.500000  0.687707  0.615547  1
  As  As30  1  0.000000  0.187707  0.384453  1
  As  As31  1  0.000000  0.812293  0.384453  1
  As  As32  1  0.500000  0.839344  0.892671  1
  As  As33  1  0.500000  0.160656  0.892671  1
  As  As34  1  0.000000  0.660656  0.107329  1
  As  As35  1  0.000000  0.339344  0.107329  1
