# generated using pymatgen
data_Tm4Mn17(P4W)3
_symmetry_space_group_name_H-M   'P 1'
_cell_length_a   3.61636300
_cell_length_b   10.70484832
_cell_length_c   12.28668179
_cell_angle_alpha   90.22372786
_cell_angle_beta   90.00000000
_cell_angle_gamma   90.00000000
_symmetry_Int_Tables_number   1
_chemical_formula_structural   Tm4Mn17(P4W)3
_chemical_formula_sum   'Tm4 Mn17 P12 W3'
_cell_volume   475.64598490
_cell_formula_units_Z   1
loop_
 _symmetry_equiv_pos_site_id
 _symmetry_equiv_pos_as_xyz
  1  'x, y, z'
loop_
 _atom_site_type_symbol
 _atom_site_label
 _atom_site_symmetry_multiplicity
 _atom_site_fract_x
 _atom_site_fract_y
 _atom_site_fract_z
 _atom_site_occupancy
  Tm  Tm0  1  0.250000  0.585329  0.705333  1
  Tm  Tm1  1  0.250000  0.914524  0.207932  1
  Tm  Tm2  1  0.750000  0.413170  0.293425  1
  Tm  Tm3  1  0.750000  0.085210  0.793830  1
  Mn  Mn4  1  0.750000  0.208228  0.513791  1
  Mn  Mn5  1  0.250000  0.407029  0.493268  1
  Mn  Mn6  1  0.250000  0.089834  0.993468  1
  Mn  Mn7  1  0.750000  0.587415  0.507185  1
  Mn  Mn8  1  0.750000  0.910997  0.008221  1
  Mn  Mn9  1  0.250000  0.212906  0.182737  1
  Mn  Mn10  1  0.250000  0.287075  0.678746  1
  Mn  Mn11  1  0.750000  0.787214  0.818317  1
  Mn  Mn12  1  0.750000  0.713851  0.320060  1
  Mn  Mn13  1  0.250000  0.884047  0.695203  1
  Mn  Mn14  1  0.250000  0.616777  0.194939  1
  Mn  Mn15  1  0.750000  0.119059  0.306947  1
  Mn  Mn16  1  0.750000  0.381479  0.802585  1
  Mn  Mn17  1  0.250000  0.464449  0.933065  1
  Mn  Mn18  1  0.250000  0.037215  0.436675  1
  Mn  Mn19  1  0.750000  0.534557  0.065459  1
  Mn  Mn20  1  0.750000  0.968161  0.566749  1
  P  P21  1  0.250000  0.414500  0.118797  1
  P  P22  1  0.250000  0.088472  0.616031  1
  P  P23  1  0.750000  0.584168  0.880386  1
  P  P24  1  0.750000  0.919386  0.383458  1
  P  P25  1  0.250000  0.262600  0.869033  1
  P  P26  1  0.250000  0.236217  0.374748  1
  P  P27  1  0.750000  0.737327  0.129797  1
  P  P28  1  0.750000  0.764603  0.628549  1
  P  P29  1  0.250000  0.587304  0.383742  1
  P  P30  1  0.250000  0.910586  0.883639  1
  P  P31  1  0.750000  0.405645  0.613662  1
  P  P32  1  0.750000  0.090341  0.118288  1
  W  W33  1  0.250000  0.709693  0.983769  1
  W  W34  1  0.250000  0.790560  0.482772  1
  W  W35  1  0.750000  0.290068  0.015397  1
