# generated using pymatgen
data_YbTmIr3W
_symmetry_space_group_name_H-M   'P 1'
_cell_length_a   5.60040647
_cell_length_b   5.60040681
_cell_length_c   5.17784134
_cell_angle_alpha   57.26152543
_cell_angle_beta   57.26151971
_cell_angle_gamma   59.99999298
_symmetry_Int_Tables_number   1
_chemical_formula_structural   YbTmIr3W
_chemical_formula_sum   'Yb1 Tm1 Ir3 W1'
_cell_volume   109.84933733
_cell_formula_units_Z   1
loop_
 _symmetry_equiv_pos_site_id
 _symmetry_equiv_pos_as_xyz
  1  'x, y, z'
loop_
 _atom_site_type_symbol
 _atom_site_label
 _atom_site_symmetry_multiplicity
 _atom_site_fract_x
 _atom_site_fract_y
 _atom_site_fract_z
 _atom_site_occupancy
  Yb  Yb0  1  0.750268  0.750268  0.749194  1
  Tm  Tm1  1  0.499436  0.499436  0.501693  1
  Ir  Ir2  1  0.625651  0.124725  0.124899  1
  Ir  Ir3  1  0.124725  0.124725  0.124899  1
  Ir  Ir4  1  0.124725  0.625651  0.124899  1
  W  W5  1  0.125194  0.125194  0.624418  1
