# generated using pymatgen
data_Tb20Bi8OsRu3
_symmetry_space_group_name_H-M   'P 1'
_cell_length_a   8.02092149
_cell_length_b   9.04406400
_cell_length_c   12.52810083
_cell_angle_alpha   90.00000000
_cell_angle_beta   90.05246045
_cell_angle_gamma   90.00000000
_symmetry_Int_Tables_number   1
_chemical_formula_structural   Tb20Bi8OsRu3
_chemical_formula_sum   'Tb20 Bi8 Os1 Ru3'
_cell_volume   908.80969295
_cell_formula_units_Z   1
loop_
 _symmetry_equiv_pos_site_id
 _symmetry_equiv_pos_as_xyz
  1  'x, y, z'
loop_
 _atom_site_type_symbol
 _atom_site_label
 _atom_site_symmetry_multiplicity
 _atom_site_fract_x
 _atom_site_fract_y
 _atom_site_fract_z
 _atom_site_occupancy
  Tb  Tb0  1  0.842927  0.750000  0.792673  1
  Tb  Tb1  1  0.156423  0.250000  0.206699  1
  Tb  Tb2  1  0.343767  0.250000  0.706887  1
  Tb  Tb3  1  0.656330  0.750000  0.292904  1
  Tb  Tb4  1  0.376923  0.750000  0.694371  1
  Tb  Tb5  1  0.623202  0.250000  0.306643  1
  Tb  Tb6  1  0.876990  0.250000  0.806800  1
  Tb  Tb7  1  0.122986  0.750000  0.192536  1
  Tb  Tb8  1  0.943546  0.750000  0.504171  1
  Tb  Tb9  1  0.054559  0.250000  0.495356  1
  Tb  Tb10  1  0.446433  0.250000  0.995986  1
  Tb  Tb11  1  0.552825  0.750000  0.003879  1
  Tb  Tb12  1  0.676849  0.041471  0.564020  1
  Tb  Tb13  1  0.324609  0.957574  0.436495  1
  Tb  Tb14  1  0.176043  0.958972  0.935854  1
  Tb  Tb15  1  0.324609  0.542426  0.436495  1
  Tb  Tb16  1  0.822938  0.041273  0.064069  1
  Tb  Tb17  1  0.676849  0.458529  0.564020  1
  Tb  Tb18  1  0.822938  0.458727  0.064069  1
  Tb  Tb19  1  0.176043  0.541028  0.935854  1
  Bi  Bi20  1  0.571277  0.492063  0.827915  1
  Bi  Bi21  1  0.428688  0.507280  0.172411  1
  Bi  Bi22  1  0.071131  0.507226  0.672449  1
  Bi  Bi23  1  0.428688  0.992720  0.172411  1
  Bi  Bi24  1  0.929521  0.492825  0.327240  1
  Bi  Bi25  1  0.571277  0.007937  0.827915  1
  Bi  Bi26  1  0.929521  0.007175  0.327240  1
  Bi  Bi27  1  0.071131  0.992774  0.672449  1
  Os  Os28  1  0.575735  0.750000  0.511813  1
  Ru  Ru29  1  0.425836  0.250000  0.488711  1
  Ru  Ru30  1  0.073264  0.250000  0.988671  1
  Ru  Ru31  1  0.926143  0.750000  0.010989  1
