# generated using pymatgen
data_InSb12(OsRh)2
_symmetry_space_group_name_H-M   'P 1'
_cell_length_a   8.17601768
_cell_length_b   8.17601639
_cell_length_c   8.15750412
_cell_angle_alpha   109.46268745
_cell_angle_beta   109.48162498
_cell_angle_gamma   109.56111598
_symmetry_Int_Tables_number   1
_chemical_formula_structural   InSb12(OsRh)2
_chemical_formula_sum   'In1 Sb12 Os2 Rh2'
_cell_volume   419.30099316
_cell_formula_units_Z   1
loop_
 _symmetry_equiv_pos_site_id
 _symmetry_equiv_pos_as_xyz
  1  'x, y, z'
loop_
 _atom_site_type_symbol
 _atom_site_label
 _atom_site_symmetry_multiplicity
 _atom_site_fract_x
 _atom_site_fract_y
 _atom_site_fract_z
 _atom_site_occupancy
  In  In0  1  0.000000  0.000000  0.000000  1
  Sb  Sb1  1  0.843061  0.661418  0.504479  1
  Sb  Sb2  1  0.156939  0.338582  0.495521  1
  Sb  Sb3  1  0.155301  0.659106  0.814408  1
  Sb  Sb4  1  0.844699  0.340894  0.185592  1
  Sb  Sb5  1  0.659519  0.503957  0.843432  1
  Sb  Sb6  1  0.340481  0.496043  0.156568  1
  Sb  Sb7  1  0.660524  0.816088  0.156568  1
  Sb  Sb8  1  0.339476  0.183912  0.843432  1
  Sb  Sb9  1  0.503847  0.842886  0.659036  1
  Sb  Sb10  1  0.496153  0.157114  0.340964  1
  Sb  Sb11  1  0.183849  0.844811  0.340964  1
  Sb  Sb12  1  0.816151  0.155189  0.659036  1
  Os  Os13  1  0.500000  0.500000  0.500000  1
  Os  Os14  1  0.000000  0.000000  0.500000  1
  Rh  Rh15  1  0.500000  0.000000  0.000000  1
  Rh  Rh16  1  0.000000  0.500000  0.000000  1
