# generated using pymatgen
data_Nd4Ga16Rh3
_symmetry_space_group_name_H-M   'P 1'
_cell_length_a   6.22592400
_cell_length_b   6.22592400
_cell_length_c   11.38960700
_cell_angle_alpha   90.00000000
_cell_angle_beta   90.00000000
_cell_angle_gamma   90.00000000
_symmetry_Int_Tables_number   1
_chemical_formula_structural   Nd4Ga16Rh3
_chemical_formula_sum   'Nd4 Ga16 Rh3'
_cell_volume   441.48542324
_cell_formula_units_Z   1
loop_
 _symmetry_equiv_pos_site_id
 _symmetry_equiv_pos_as_xyz
  1  'x, y, z'
loop_
 _atom_site_type_symbol
 _atom_site_label
 _atom_site_symmetry_multiplicity
 _atom_site_fract_x
 _atom_site_fract_y
 _atom_site_fract_z
 _atom_site_occupancy
  Nd  Nd0  1  0.500000  0.000000  0.807191  1
  Nd  Nd1  1  0.000000  0.500000  0.807191  1
  Nd  Nd2  1  0.500000  0.000000  0.192809  1
  Nd  Nd3  1  0.000000  0.500000  0.192809  1
  Ga  Ga4  1  0.249524  0.249524  0.617586  1
  Ga  Ga5  1  0.750476  0.750476  0.617586  1
  Ga  Ga6  1  0.750476  0.249524  0.617586  1
  Ga  Ga7  1  0.249524  0.750476  0.617586  1
  Ga  Ga8  1  0.750476  0.750476  0.382414  1
  Ga  Ga9  1  0.249524  0.249524  0.382414  1
  Ga  Ga10  1  0.249524  0.750476  0.382414  1
  Ga  Ga11  1  0.750476  0.249524  0.382414  1
  Ga  Ga12  1  0.287327  0.287327  0.000000  1
  Ga  Ga13  1  0.712673  0.712673  0.000000  1
  Ga  Ga14  1  0.712673  0.287327  0.000000  1
  Ga  Ga15  1  0.287327  0.712673  0.000000  1
  Ga  Ga16  1  0.500000  0.500000  0.804233  1
  Ga  Ga17  1  0.500000  0.500000  0.195767  1
  Ga  Ga18  1  0.000000  0.000000  0.776282  1
  Ga  Ga19  1  0.000000  0.000000  0.223718  1
  Rh  Rh20  1  0.500000  0.000000  0.500000  1
  Rh  Rh21  1  0.000000  0.500000  0.500000  1
  Rh  Rh22  1  0.000000  0.000000  0.000000  1
