# generated using pymatgen
data_Lu3Sc2V3(P3Ir4)4
_symmetry_space_group_name_H-M   'P 1'
_cell_length_a   12.62655500
_cell_length_b   12.63405060
_cell_length_c   3.91715500
_cell_angle_alpha   90.00000000
_cell_angle_beta   90.00000000
_cell_angle_gamma   119.98037359
_symmetry_Int_Tables_number   1
_chemical_formula_structural   Lu3Sc2V3(P3Ir4)4
_chemical_formula_sum   'Lu3 Sc2 V3 P12 Ir16'
_cell_volume   541.27096492
_cell_formula_units_Z   1
loop_
 _symmetry_equiv_pos_site_id
 _symmetry_equiv_pos_as_xyz
  1  'x, y, z'
loop_
 _atom_site_type_symbol
 _atom_site_label
 _atom_site_symmetry_multiplicity
 _atom_site_fract_x
 _atom_site_fract_y
 _atom_site_fract_z
 _atom_site_occupancy
  Lu  Lu0  1  0.333323  0.666682  0.000000  1
  Lu  Lu1  1  0.666642  0.333318  0.000000  1
  Lu  Lu2  1  0.813248  0.000000  0.500000  1
  Sc  Sc3  1  0.999989  0.811838  0.500000  1
  Sc  Sc4  1  0.188151  0.188162  0.500000  1
  V  V5  1  0.450900  0.000000  0.000000  1
  V  V6  1  0.999979  0.451194  0.000000  1
  V  V7  1  0.548784  0.548806  0.000000  1
  P  P8  1  0.175547  0.000000  0.000000  1
  P  P9  1  0.000937  0.175667  0.000000  1
  P  P10  1  0.825270  0.824333  0.000000  1
  P  P11  1  0.167492  0.483384  0.500000  1
  P  P12  1  0.516673  0.683837  0.500000  1
  P  P13  1  0.315612  0.832742  0.500000  1
  P  P14  1  0.684108  0.516616  0.500000  1
  P  P15  1  0.832835  0.316163  0.500000  1
  P  P16  1  0.482869  0.167258  0.500000  1
  P  P17  1  0.637576  0.000000  0.000000  1
  P  P18  1  0.000017  0.638785  0.000000  1
  P  P19  1  0.361232  0.361215  0.000000  1
  Ir  Ir20  1  0.357852  0.491521  0.500000  1
  Ir  Ir21  1  0.508050  0.866147  0.500000  1
  Ir  Ir22  1  0.133647  0.642114  0.500000  1
  Ir  Ir23  1  0.866331  0.508479  0.500000  1
  Ir  Ir24  1  0.641903  0.133853  0.500000  1
  Ir  Ir25  1  0.491533  0.357886  0.500000  1
  Ir  Ir26  1  0.179059  0.370722  0.000000  1
  Ir  Ir27  1  0.628065  0.806969  0.000000  1
  Ir  Ir28  1  0.191724  0.821006  0.000000  1
  Ir  Ir29  1  0.808338  0.629278  0.000000  1
  Ir  Ir30  1  0.821097  0.193031  0.000000  1
  Ir  Ir31  1  0.370719  0.178994  0.000000  1
  Ir  Ir32  1  0.283790  0.000000  0.500000  1
  Ir  Ir33  1  0.000375  0.284638  0.500000  1
  Ir  Ir34  1  0.715738  0.715362  0.500000  1
  Ir  Ir35  1  0.000591  0.000000  0.000000  1
