# generated using pymatgen
data_Tb13YTh2(CdPt)4
_symmetry_space_group_name_H-M   'P 1'
_cell_length_a   9.79441041
_cell_length_b   9.79440986
_cell_length_c   9.77845800
_cell_angle_alpha   60.05386135
_cell_angle_beta   60.05386320
_cell_angle_gamma   60.03562153
_symmetry_Int_Tables_number   1
_chemical_formula_structural   Tb13YTh2(CdPt)4
_chemical_formula_sum   'Tb13 Y1 Th2 Cd4 Pt4'
_cell_volume   664.02129967
_cell_formula_units_Z   1
loop_
 _symmetry_equiv_pos_site_id
 _symmetry_equiv_pos_as_xyz
  1  'x, y, z'
loop_
 _atom_site_type_symbol
 _atom_site_label
 _atom_site_symmetry_multiplicity
 _atom_site_fract_x
 _atom_site_fract_y
 _atom_site_fract_z
 _atom_site_occupancy
  Tb  Tb0  1  0.352660  0.941764  0.352788  1
  Tb  Tb1  1  0.941764  0.352660  0.352788  1
  Tb  Tb2  1  0.811359  0.190087  0.189290  1
  Tb  Tb3  1  0.190087  0.811359  0.809263  1
  Tb  Tb4  1  0.190087  0.811359  0.189290  1
  Tb  Tb5  1  0.811359  0.190087  0.809263  1
  Tb  Tb6  1  0.188727  0.188727  0.811273  1
  Tb  Tb7  1  0.809856  0.809856  0.190144  1
  Tb  Tb8  1  0.935903  0.565313  0.566054  1
  Tb  Tb9  1  0.565313  0.935903  0.932730  1
  Tb  Tb10  1  0.565313  0.935903  0.566054  1
  Tb  Tb11  1  0.935903  0.565313  0.932730  1
  Tb  Tb12  1  0.566423  0.566423  0.933577  1
  Y  Y13  1  0.935367  0.935367  0.564633  1
  Th  Th14  1  0.349864  0.349864  0.353013  1
  Th  Th15  1  0.349864  0.349864  0.947259  1
  Cd  Cd16  1  0.582801  0.582801  0.580868  1
  Cd  Cd17  1  0.582801  0.582801  0.253532  1
  Cd  Cd18  1  0.584082  0.252018  0.581950  1
  Cd  Cd19  1  0.252018  0.584082  0.581950  1
  Pt  Pt20  1  0.142419  0.142419  0.145469  1
  Pt  Pt21  1  0.142419  0.142419  0.569693  1
  Pt  Pt22  1  0.143657  0.569953  0.143195  1
  Pt  Pt23  1  0.569953  0.143657  0.143195  1
