# generated using pymatgen
data_Lu2Zr3Sc3(P3Ir4)4
_symmetry_space_group_name_H-M   'P 1'
_cell_length_a   12.84257800
_cell_length_b   12.84257681
_cell_length_c   3.92982100
_cell_angle_alpha   90.00000000
_cell_angle_beta   90.00000000
_cell_angle_gamma   119.99999792
_symmetry_Int_Tables_number   1
_chemical_formula_structural   Lu2Zr3Sc3(P3Ir4)4
_chemical_formula_sum   'Lu2 Zr3 Sc3 P12 Ir16'
_cell_volume   561.31648096
_cell_formula_units_Z   1
loop_
 _symmetry_equiv_pos_site_id
 _symmetry_equiv_pos_as_xyz
  1  'x, y, z'
loop_
 _atom_site_type_symbol
 _atom_site_label
 _atom_site_symmetry_multiplicity
 _atom_site_fract_x
 _atom_site_fract_y
 _atom_site_fract_z
 _atom_site_occupancy
  Lu  Lu0  1  0.333333  0.666667  0.000000  1
  Lu  Lu1  1  0.666667  0.333333  0.000000  1
  Zr  Zr2  1  0.449597  0.000000  0.000000  1
  Zr  Zr3  1  0.000000  0.449597  0.000000  1
  Zr  Zr4  1  0.550403  0.550403  0.000000  1
  Sc  Sc5  1  0.816181  0.000000  0.500000  1
  Sc  Sc6  1  0.000000  0.816181  0.500000  1
  Sc  Sc7  1  0.183819  0.183819  0.500000  1
  P  P8  1  0.173309  0.000000  0.000000  1
  P  P9  1  0.000000  0.173309  0.000000  1
  P  P10  1  0.826691  0.826691  0.000000  1
  P  P11  1  0.169823  0.482183  0.500000  1
  P  P12  1  0.517817  0.687639  0.500000  1
  P  P13  1  0.312361  0.830177  0.500000  1
  P  P14  1  0.687639  0.517817  0.500000  1
  P  P15  1  0.830177  0.312361  0.500000  1
  P  P16  1  0.482183  0.169823  0.500000  1
  P  P17  1  0.652731  0.000000  0.000000  1
  P  P18  1  0.000000  0.652731  0.000000  1
  P  P19  1  0.347269  0.347269  0.000000  1
  Ir  Ir20  1  0.357130  0.494250  0.500000  1
  Ir  Ir21  1  0.505750  0.862880  0.500000  1
  Ir  Ir22  1  0.137120  0.642870  0.500000  1
  Ir  Ir23  1  0.862880  0.505750  0.500000  1
  Ir  Ir24  1  0.642870  0.137120  0.500000  1
  Ir  Ir25  1  0.494250  0.357130  0.500000  1
  Ir  Ir26  1  0.177941  0.367580  0.000000  1
  Ir  Ir27  1  0.632420  0.810362  0.000000  1
  Ir  Ir28  1  0.189638  0.822059  0.000000  1
  Ir  Ir29  1  0.810362  0.632420  0.000000  1
  Ir  Ir30  1  0.822059  0.189638  0.000000  1
  Ir  Ir31  1  0.367580  0.177941  0.000000  1
  Ir  Ir32  1  0.275304  0.000000  0.500000  1
  Ir  Ir33  1  0.000000  0.275304  0.500000  1
  Ir  Ir34  1  0.724696  0.724696  0.500000  1
  Ir  Ir35  1  0.000000  0.000000  0.000000  1
