# generated using pymatgen
data_Hg2Bi3Sb3O14
_symmetry_space_group_name_H-M   'P 1'
_cell_length_a   7.49134538
_cell_length_b   7.49136333
_cell_length_c   7.49135569
_cell_angle_alpha   61.85845853
_cell_angle_beta   61.85832132
_cell_angle_gamma   61.85841018
_symmetry_Int_Tables_number   1
_chemical_formula_structural   Hg2Bi3Sb3O14
_chemical_formula_sum   'Hg2 Bi3 Sb3 O14'
_cell_volume   309.65020349
_cell_formula_units_Z   1
loop_
 _symmetry_equiv_pos_site_id
 _symmetry_equiv_pos_as_xyz
  1  'x, y, z'
loop_
 _atom_site_type_symbol
 _atom_site_label
 _atom_site_symmetry_multiplicity
 _atom_site_fract_x
 _atom_site_fract_y
 _atom_site_fract_z
 _atom_site_occupancy
  Hg  Hg0  1  0.999999  0.499990  0.000005  1
  Hg  Hg1  1  0.500006  0.999996  0.500004  1
  Bi  Bi2  1  0.000002  0.000008  0.499989  1
  Bi  Bi3  1  0.500021  0.000026  0.999999  1
  Bi  Bi4  1  0.499990  0.500005  0.499981  1
  Sb  Sb5  1  0.499999  0.499999  0.999999  1
  Sb  Sb6  1  0.000000  0.500001  0.500002  1
  Sb  Sb7  1  0.999999  0.999999  0.000001  1
  O  O8  1  0.617299  0.117297  0.617300  1
  O  O9  1  0.382705  0.882702  0.382706  1
  O  O10  1  0.078050  0.190776  0.690781  1
  O  O11  1  0.690774  0.190770  0.078046  1
  O  O12  1  0.690780  0.578050  0.690782  1
  O  O13  1  0.921947  0.809221  0.309222  1
  O  O14  1  0.309215  0.809217  0.921946  1
  O  O15  1  0.309223  0.421948  0.309227  1
  O  O16  1  0.623880  0.603112  0.103122  1
  O  O17  1  0.103120  0.603118  0.623878  1
  O  O18  1  0.103112  0.123881  0.103120  1
  O  O19  1  0.376117  0.396879  0.896887  1
  O  O20  1  0.896885  0.396883  0.376117  1
  O  O21  1  0.896878  0.876120  0.896885  1
