# generated using pymatgen
data_Tb10PrCd9Pd4
_symmetry_space_group_name_H-M   'P 1'
_cell_length_a   13.26063443
_cell_length_b   13.26063541
_cell_length_c   3.71971700
_cell_angle_alpha   90.00000000
_cell_angle_beta   90.00000000
_cell_angle_gamma   112.40847086
_symmetry_Int_Tables_number   1
_chemical_formula_structural   Tb10PrCd9Pd4
_chemical_formula_sum   'Tb10 Pr1 Cd9 Pd4'
_cell_volume   604.70088780
_cell_formula_units_Z   1
loop_
 _symmetry_equiv_pos_site_id
 _symmetry_equiv_pos_as_xyz
  1  'x, y, z'
loop_
 _atom_site_type_symbol
 _atom_site_label
 _atom_site_symmetry_multiplicity
 _atom_site_fract_x
 _atom_site_fract_y
 _atom_site_fract_z
 _atom_site_occupancy
  Tb  Tb0  1  0.417578  0.075032  0.000000  1
  Tb  Tb1  1  0.582422  0.924968  0.000000  1
  Tb  Tb2  1  0.075032  0.417578  0.000000  1
  Tb  Tb3  1  0.924968  0.582422  0.000000  1
  Tb  Tb4  1  0.163407  0.836593  0.000000  1
  Tb  Tb5  1  0.836593  0.163407  0.000000  1
  Tb  Tb6  1  0.373560  0.626440  0.000000  1
  Tb  Tb7  1  0.626440  0.373560  0.000000  1
  Tb  Tb8  1  0.308075  0.308075  0.000000  1
  Tb  Tb9  1  0.691925  0.691925  0.000000  1
  Pr  Pr10  1  0.000000  0.000000  0.000000  1
  Cd  Cd11  1  0.366182  0.840966  0.500000  1
  Cd  Cd12  1  0.633818  0.159034  0.500000  1
  Cd  Cd13  1  0.840966  0.366182  0.500000  1
  Cd  Cd14  1  0.159034  0.633818  0.500000  1
  Cd  Cd15  1  0.220358  0.071523  0.500000  1
  Cd  Cd16  1  0.779642  0.928477  0.500000  1
  Cd  Cd17  1  0.071523  0.220358  0.500000  1
  Cd  Cd18  1  0.928477  0.779642  0.500000  1
  Cd  Cd19  1  0.500000  0.500000  0.500000  1
  Pd  Pd20  1  0.450978  0.249368  0.500000  1
  Pd  Pd21  1  0.549022  0.750632  0.500000  1
  Pd  Pd22  1  0.249368  0.450978  0.500000  1
  Pd  Pd23  1  0.750632  0.549022  0.500000  1
