# generated using pymatgen
data_LaPr7Hg4
_symmetry_space_group_name_H-M   'P 1'
_cell_length_a   7.24922240
_cell_length_b   5.31247700
_cell_length_c   9.83968567
_cell_angle_alpha   90.00000000
_cell_angle_beta   90.21147126
_cell_angle_gamma   90.00000000
_symmetry_Int_Tables_number   1
_chemical_formula_structural   LaPr7Hg4
_chemical_formula_sum   'La1 Pr7 Hg4'
_cell_volume   378.93677436
_cell_formula_units_Z   1
loop_
 _symmetry_equiv_pos_site_id
 _symmetry_equiv_pos_as_xyz
  1  'x, y, z'
loop_
 _atom_site_type_symbol
 _atom_site_label
 _atom_site_symmetry_multiplicity
 _atom_site_fract_x
 _atom_site_fract_y
 _atom_site_fract_z
 _atom_site_occupancy
  La  La0  1  0.825343  0.250000  0.076907  1
  Pr  Pr1  1  0.515172  0.750001  0.193518  1
  Pr  Pr2  1  0.016685  0.750001  0.307319  1
  Pr  Pr3  1  0.327669  0.250000  0.423484  1
  Pr  Pr4  1  0.672770  0.750001  0.575740  1
  Pr  Pr5  1  0.984376  0.250000  0.692714  1
  Pr  Pr6  1  0.482824  0.250000  0.807284  1
  Pr  Pr7  1  0.173848  0.750001  0.922938  1
  Hg  Hg8  1  0.270287  0.250000  0.103176  1
  Hg  Hg9  1  0.767732  0.250000  0.398368  1
  Hg  Hg10  1  0.231583  0.750001  0.603091  1
  Hg  Hg11  1  0.731706  0.750001  0.895468  1
