# generated using pymatgen
data_Mg(Nb2B5)2
_symmetry_space_group_name_H-M   'P 1'
_cell_length_a   6.19133204
_cell_length_b   7.05070376
_cell_length_c   7.43744851
_cell_angle_alpha   94.26661726
_cell_angle_beta   102.06889867
_cell_angle_gamma   116.02246949
_symmetry_Int_Tables_number   1
_chemical_formula_structural   Mg(Nb2B5)2
_chemical_formula_sum   'Mg2 Nb8 B20'
_cell_volume   280.16106318
_cell_formula_units_Z   2
loop_
 _symmetry_equiv_pos_site_id
 _symmetry_equiv_pos_as_xyz
  1  'x, y, z'
loop_
 _atom_site_type_symbol
 _atom_site_label
 _atom_site_symmetry_multiplicity
 _atom_site_fract_x
 _atom_site_fract_y
 _atom_site_fract_z
 _atom_site_occupancy
  Mg  Mg0  1  0.999423  0.997134  0.997677  1
  Mg  Mg1  1  0.000493  0.602838  0.802257  1
  Nb  Nb2  1  0.499087  0.999801  0.000583  1
  Nb  Nb3  1  0.500147  0.800207  0.399899  1
  Nb  Nb4  1  0.000498  0.396059  0.202594  1
  Nb  Nb5  1  0.502906  0.200751  0.600152  1
  Nb  Nb6  1  0.000078  0.800171  0.399907  1
  Nb  Nb7  1  0.500532  0.599582  0.799490  1
  Nb  Nb8  1  0.497355  0.399445  0.199895  1
  Nb  Nb9  1  0.999506  0.204148  0.597641  1
  B  B10  1  0.331811  0.232207  0.867639  1
  B  B11  1  0.331352  0.632238  0.065735  1
  B  B12  1  0.165870  0.366299  0.934002  1
  B  B13  1  0.331532  0.032377  0.264303  1
  B  B14  1  0.164722  0.765950  0.131759  1
  B  B15  1  0.834009  0.233479  0.866430  1
  B  B16  1  0.166497  0.165290  0.330823  1
  B  B17  1  0.834994  0.633458  0.066033  1
  B  B18  1  0.334187  0.433838  0.466044  1
  B  B19  1  0.668139  0.367554  0.932649  1
  B  B20  1  0.832947  0.031138  0.264576  1
  B  B21  1  0.667365  0.767110  0.131510  1
  B  B22  1  0.332728  0.832903  0.668128  1
  B  B23  1  0.167121  0.569000  0.535210  1
  B  B24  1  0.665878  0.166262  0.333956  1
  B  B25  1  0.833638  0.434901  0.469133  1
  B  B26  1  0.164965  0.966494  0.733879  1
  B  B27  1  0.835143  0.834004  0.668167  1
  B  B28  1  0.668480  0.567829  0.535406  1
  B  B29  1  0.668598  0.967535  0.734524  1
