# generated using pymatgen
data_ScTcP
_symmetry_space_group_name_H-M   'P 1'
_cell_length_a   6.80335200
_cell_length_b   6.80335229
_cell_length_c   3.40125200
_cell_angle_alpha   90.00000000
_cell_angle_beta   90.00000000
_cell_angle_gamma   119.99999858
_symmetry_Int_Tables_number   1
_chemical_formula_structural   ScTcP
_chemical_formula_sum   'Sc3 Tc3 P3'
_cell_volume   136.33750745
_cell_formula_units_Z   3
loop_
 _symmetry_equiv_pos_site_id
 _symmetry_equiv_pos_as_xyz
  1  'x, y, z'
loop_
 _atom_site_type_symbol
 _atom_site_label
 _atom_site_symmetry_multiplicity
 _atom_site_fract_x
 _atom_site_fract_y
 _atom_site_fract_z
 _atom_site_occupancy
  Sc  Sc0  1  0.403132  0.403132  0.500000  1
  Sc  Sc1  1  0.596868  0.000000  0.500000  1
  Sc  Sc2  1  0.000000  0.596868  0.500000  1
  Tc  Tc3  1  0.000000  0.251036  0.000000  1
  Tc  Tc4  1  0.251036  0.000000  0.000000  1
  Tc  Tc5  1  0.748964  0.748964  0.000000  1
  P  P6  1  0.666667  0.333333  0.000000  1
  P  P7  1  0.333333  0.666667  0.000000  1
  P  P8  1  0.000000  0.000000  0.500000  1
