# generated using pymatgen
data_Na(CoO2)6
_symmetry_space_group_name_H-M   'P 1'
_cell_length_a   8.58079887
_cell_length_b   9.82874884
_cell_length_c   8.01273615
_cell_angle_alpha   66.94260540
_cell_angle_beta   57.61270366
_cell_angle_gamma   43.36514712
_symmetry_Int_Tables_number   1
_chemical_formula_structural   Na(CoO2)6
_chemical_formula_sum   'Na2 Co12 O24'
_cell_volume   391.83958623
_cell_formula_units_Z   2
loop_
 _symmetry_equiv_pos_site_id
 _symmetry_equiv_pos_as_xyz
  1  'x, y, z'
loop_
 _atom_site_type_symbol
 _atom_site_label
 _atom_site_symmetry_multiplicity
 _atom_site_fract_x
 _atom_site_fract_y
 _atom_site_fract_z
 _atom_site_occupancy
  Na  Na0  1  0.244199  0.994844  0.006450  1
  Na  Na1  1  0.760943  0.000459  0.000454  1
  Co  Co2  1  0.006058  0.485250  0.182957  1
  Co  Co3  1  0.255546  0.185629  0.516434  1
  Co  Co4  1  0.342144  0.484386  0.182384  1
  Co  Co5  1  0.075775  0.817722  0.487903  1
  Co  Co6  1  0.590129  0.182963  0.518429  1
  Co  Co7  1  0.332108  0.515635  0.814776  1
  Co  Co8  1  0.671531  0.483945  0.182801  1
  Co  Co9  1  0.414675  0.817291  0.480755  1
  Co  Co10  1  0.922451  0.184257  0.516519  1
  Co  Co11  1  0.666114  0.512147  0.817648  1
  Co  Co12  1  0.743803  0.816837  0.483965  1
  Co  Co13  1  0.995944  0.517088  0.815628  1
  O  O14  1  0.013651  0.356087  0.047446  1
  O  O15  1  0.142099  0.045883  0.642196  1
  O  O16  1  0.064495  0.297934  0.377990  1
  O  O17  1  0.000656  0.625444  0.292110  1
  O  O18  1  0.349133  0.355854  0.047197  1
  O  O19  1  0.472149  0.045965  0.645692  1
  O  O20  1  0.399452  0.296152  0.379450  1
  O  O21  1  0.334263  0.376962  0.706284  1
  O  O22  1  0.338912  0.622668  0.288249  1
  O  O23  1  0.684881  0.350990  0.048190  1
  O  O24  1  0.272738  0.702632  0.622070  1
  O  O25  1  0.192736  0.955183  0.356522  1
  O  O26  1  0.805071  0.048092  0.648763  1
  O  O27  1  0.733173  0.293834  0.378363  1
  O  O28  1  0.323711  0.642405  0.952807  1
  O  O29  1  0.670063  0.375500  0.704113  1
  O  O30  1  0.669037  0.623843  0.293292  1
  O  O31  1  0.602384  0.708201  0.617702  1
  O  O32  1  0.528417  0.957208  0.353236  1
  O  O33  1  0.654764  0.643194  0.953333  1
  O  O34  1  0.002596  0.376382  0.704274  1
  O  O35  1  0.938698  0.701609  0.622157  1
  O  O36  1  0.858872  0.954899  0.359610  1
  O  O37  1  0.989631  0.644629  0.951851  1
