# generated using pymatgen
data_PaNiB4
_symmetry_space_group_name_H-M   'P 1'
_cell_length_a   6.82256018
_cell_length_b   6.82257746
_cell_length_c   6.82258583
_cell_angle_alpha   112.84935321
_cell_angle_beta   112.94130111
_cell_angle_gamma   102.82037138
_symmetry_Int_Tables_number   1
_chemical_formula_structural   PaNiB4
_chemical_formula_sum   'Pa4 Ni4 B16'
_cell_volume   242.03890711
_cell_formula_units_Z   4
loop_
 _symmetry_equiv_pos_site_id
 _symmetry_equiv_pos_as_xyz
  1  'x, y, z'
loop_
 _atom_site_type_symbol
 _atom_site_label
 _atom_site_symmetry_multiplicity
 _atom_site_fract_x
 _atom_site_fract_y
 _atom_site_fract_z
 _atom_site_occupancy
  Pa  Pa0  1  0.199518  0.199517  0.999999  1
  Pa  Pa1  1  0.800482  0.800483  0.000001  1
  Pa  Pa2  1  0.749965  0.249965  0.499999  1
  Pa  Pa3  1  0.250035  0.750035  0.500001  1
  Ni  Ni4  1  0.499996  0.270969  0.770973  1
  Ni  Ni5  1  0.500004  0.729031  0.229027  1
  Ni  Ni6  1  0.729922  0.500002  0.229920  1
  Ni  Ni7  1  0.270078  0.499998  0.770080  1
  B  B8  1  0.110124  0.273905  0.384030  1
  B  B9  1  0.889876  0.726095  0.615970  1
  B  B10  1  0.889874  0.273904  0.163779  1
  B  B11  1  0.110126  0.726096  0.836221  1
  B  B12  1  0.725983  0.889879  0.615863  1
  B  B13  1  0.274017  0.110121  0.384137  1
  B  B14  1  0.725981  0.110123  0.836103  1
  B  B15  1  0.274019  0.889877  0.163897  1
  B  B16  1  0.420775  0.420752  0.534080  1
  B  B17  1  0.886673  0.886696  0.465920  1
  B  B18  1  0.579223  0.113303  0.999976  1
  B  B19  1  0.113327  0.579247  0.000024  1
  B  B20  1  0.579225  0.579248  0.465920  1
  B  B21  1  0.113327  0.113304  0.534080  1
  B  B22  1  0.886673  0.420753  0.999976  1
  B  B23  1  0.420777  0.886697  0.000024  1
