# generated using pymatgen
data_Mg4Ta2Sb6(PtRh)3
_symmetry_space_group_name_H-M   'P 1'
_cell_length_a   7.70684587
_cell_length_b   7.70188812
_cell_length_c   7.72351722
_cell_angle_alpha   99.49636657
_cell_angle_beta   99.89152006
_cell_angle_gamma   119.84718943
_symmetry_Int_Tables_number   1
_chemical_formula_structural   Mg4Ta2Sb6(PtRh)3
_chemical_formula_sum   'Mg4 Ta2 Sb6 Pt3 Rh3'
_cell_volume   374.51655194
_cell_formula_units_Z   1
loop_
 _symmetry_equiv_pos_site_id
 _symmetry_equiv_pos_as_xyz
  1  'x, y, z'
loop_
 _atom_site_type_symbol
 _atom_site_label
 _atom_site_symmetry_multiplicity
 _atom_site_fract_x
 _atom_site_fract_y
 _atom_site_fract_z
 _atom_site_occupancy
  Mg  Mg0  1  0.329535  0.164576  0.494794  1
  Mg  Mg1  1  0.997081  0.501830  0.495860  1
  Mg  Mg2  1  0.167489  0.332554  0.002715  1
  Mg  Mg3  1  0.504548  0.000050  0.003614  1
  Ta  Ta4  1  0.667854  0.830391  0.495263  1
  Ta  Ta5  1  0.832869  0.670606  0.005130  1
  Sb  Sb6  1  0.918383  0.094232  0.242057  1
  Sb  Sb7  1  0.252968  0.747612  0.243880  1
  Sb  Sb8  1  0.573859  0.403384  0.250259  1
  Sb  Sb9  1  0.098107  0.920967  0.753081  1
  Sb  Sb10  1  0.751680  0.256844  0.755278  1
  Sb  Sb11  1  0.408654  0.577438  0.761304  1
  Pt  Pt12  1  0.025557  0.193104  0.617571  1
  Pt  Pt13  1  0.388459  0.872522  0.618366  1
  Pt  Pt14  1  0.710188  0.557088  0.633909  1
  Rh  Rh15  1  0.187052  0.019608  0.117494  1
  Rh  Rh16  1  0.873720  0.394600  0.118967  1
  Rh  Rh17  1  0.561954  0.712555  0.140456  1
