# generated using pymatgen
data_Zr10Zn2Sn3Bi2Sb
_symmetry_space_group_name_H-M   'P 1'
_cell_length_a   8.75440515
_cell_length_b   8.75163814
_cell_length_c   5.89875700
_cell_angle_alpha   90.00000000
_cell_angle_beta   90.00000000
_cell_angle_gamma   119.98954742
_symmetry_Int_Tables_number   1
_chemical_formula_structural   Zr10Zn2Sn3Bi2Sb
_chemical_formula_sum   'Zr10 Zn2 Sn3 Bi2 Sb1'
_cell_volume   391.42887967
_cell_formula_units_Z   1
loop_
 _symmetry_equiv_pos_site_id
 _symmetry_equiv_pos_as_xyz
  1  'x, y, z'
loop_
 _atom_site_type_symbol
 _atom_site_label
 _atom_site_symmetry_multiplicity
 _atom_site_fract_x
 _atom_site_fract_y
 _atom_site_fract_z
 _atom_site_occupancy
  Zr  Zr0  1  0.670483  0.336516  0.003257  1
  Zr  Zr1  1  0.329517  0.666034  0.003257  1
  Zr  Zr2  1  0.329517  0.666034  0.496743  1
  Zr  Zr3  1  0.670483  0.336516  0.496743  1
  Zr  Zr4  1  0.738088  0.732046  0.750000  1
  Zr  Zr5  1  0.261912  0.993959  0.750000  1
  Zr  Zr6  1  0.000000  0.269922  0.750000  1
  Zr  Zr7  1  0.267858  0.268405  0.250000  1
  Zr  Zr8  1  0.732142  0.000547  0.250000  1
  Zr  Zr9  1  0.000000  0.729710  0.250000  1
  Zn  Zn10  1  0.000000  0.000569  0.003475  1
  Zn  Zn11  1  0.000000  0.000569  0.496525  1
  Sn  Sn12  1  0.616301  0.617510  0.250000  1
  Sn  Sn13  1  0.383699  0.001210  0.250000  1
  Sn  Sn14  1  0.000000  0.382721  0.250000  1
  Bi  Bi15  1  0.385931  0.385277  0.750000  1
  Bi  Bi16  1  0.614069  0.999346  0.750000  1
  Sb  Sb17  1  0.000000  0.613109  0.750000  1
