# generated using pymatgen
data_Rb4Na2Co2O5
_symmetry_space_group_name_H-M   'P 1'
_cell_length_a   6.84686345
_cell_length_b   6.63716889
_cell_length_c   11.30868111
_cell_angle_alpha   90.02210749
_cell_angle_beta   90.00516311
_cell_angle_gamma   90.32366308
_symmetry_Int_Tables_number   1
_chemical_formula_structural   Rb4Na2Co2O5
_chemical_formula_sum   'Rb8 Na4 Co4 O10'
_cell_volume   513.90107934
_cell_formula_units_Z   2
loop_
 _symmetry_equiv_pos_site_id
 _symmetry_equiv_pos_as_xyz
  1  'x, y, z'
loop_
 _atom_site_type_symbol
 _atom_site_label
 _atom_site_symmetry_multiplicity
 _atom_site_fract_x
 _atom_site_fract_y
 _atom_site_fract_z
 _atom_site_occupancy
  Rb  Rb0  1  0.999464  0.501456  0.746478  1
  Rb  Rb1  1  0.000115  0.998746  0.246536  1
  Rb  Rb2  1  0.999062  0.499708  0.254416  1
  Rb  Rb3  1  0.001300  0.002150  0.754259  1
  Rb  Rb4  1  0.685578  0.312040  0.999914  1
  Rb  Rb5  1  0.683844  0.808411  0.501151  1
  Rb  Rb6  1  0.316676  0.692454  0.002434  1
  Rb  Rb7  1  0.315490  0.190236  0.499070  1
  Na  Na8  1  0.497066  0.496836  0.735582  1
  Na  Na9  1  0.502947  0.001043  0.235642  1
  Na  Na10  1  0.500783  0.501685  0.263293  1
  Na  Na11  1  0.498787  0.997840  0.763510  1
  Co  Co12  1  0.780533  0.305361  0.500688  1
  Co  Co13  1  0.219258  0.194129  0.000445  1
  Co  Co14  1  0.781943  0.807581  0.997341  1
  Co  Co15  1  0.218673  0.693474  0.499047  1
  O  O16  1  0.000914  0.000268  0.001496  1
  O  O17  1  0.999164  0.499930  0.501109  1
  O  O18  1  0.691640  0.732284  0.144549  1
  O  O19  1  0.688032  0.227977  0.646207  1
  O  O20  1  0.310262  0.267142  0.854014  1
  O  O21  1  0.312610  0.769410  0.353777  1
  O  O22  1  0.312484  0.271284  0.145685  1
  O  O23  1  0.308615  0.767624  0.645848  1
  O  O24  1  0.686236  0.728992  0.853315  1
  O  O25  1  0.688525  0.231939  0.354192  1
