# generated using pymatgen
data_HoTh8(ScAu4)5
_symmetry_space_group_name_H-M   'P 1'
_cell_length_a   8.74175415
_cell_length_b   8.74171593
_cell_length_c   10.40253000
_cell_angle_alpha   89.70676614
_cell_angle_beta   90.29279999
_cell_angle_gamma   107.46683485
_symmetry_Int_Tables_number   1
_chemical_formula_structural   HoTh8(ScAu4)5
_chemical_formula_sum   'Ho1 Th8 Sc5 Au20'
_cell_volume   758.27057319
_cell_formula_units_Z   1
loop_
 _symmetry_equiv_pos_site_id
 _symmetry_equiv_pos_as_xyz
  1  'x, y, z'
loop_
 _atom_site_type_symbol
 _atom_site_label
 _atom_site_symmetry_multiplicity
 _atom_site_fract_x
 _atom_site_fract_y
 _atom_site_fract_z
 _atom_site_occupancy
  Ho  Ho0  1  0.493865  0.993868  0.749988  1
  Th  Th1  1  0.696614  0.303930  0.000811  1
  Th  Th2  1  0.194539  0.802703  0.499937  1
  Th  Th3  1  0.805475  0.804948  0.299138  1
  Th  Th4  1  0.304933  0.305468  0.200860  1
  Th  Th5  1  0.803938  0.196629  0.499173  1
  Th  Th6  1  0.302707  0.694519  0.000081  1
  Th  Th7  1  0.697804  0.694779  0.802746  1
  Th  Th8  1  0.194760  0.197768  0.697259  1
  Sc  Sc9  1  0.506343  0.006344  0.249996  1
  Sc  Sc10  1  0.992390  0.492383  0.749999  1
  Sc  Sc11  1  0.002499  0.002192  0.003873  1
  Sc  Sc12  1  0.006724  0.506736  0.249997  1
  Sc  Sc13  1  0.502187  0.502495  0.496156  1
  Au  Au14  1  0.151934  0.439894  0.490342  1
  Au  Au15  1  0.897396  0.899014  0.596724  1
  Au  Au16  1  0.558861  0.847091  0.502642  1
  Au  Au17  1  0.866069  0.157345  0.206768  1
  Au  Au18  1  0.364078  0.655959  0.293499  1
  Au  Au19  1  0.657328  0.366080  0.293227  1
  Au  Au20  1  0.399012  0.397394  0.903265  1
  Au  Au21  1  0.939902  0.651932  0.009663  1
  Au  Au22  1  0.343187  0.626594  0.704081  1
  Au  Au23  1  0.347088  0.058857  0.997349  1
  Au  Au24  1  0.599789  0.599143  0.098655  1
  Au  Au25  1  0.655145  0.939757  0.012189  1
  Au  Au26  1  0.099142  0.099781  0.401345  1
  Au  Au27  1  0.634116  0.350875  0.702726  1
  Au  Au28  1  0.126583  0.843172  0.795931  1
  Au  Au29  1  0.058981  0.350012  0.994566  1
  Au  Au30  1  0.850008  0.558996  0.505430  1
  Au  Au31  1  0.155966  0.864084  0.206512  1
  Au  Au32  1  0.439764  0.155154  0.487805  1
  Au  Au33  1  0.850870  0.134107  0.797266  1
