# generated using pymatgen
data_LiEr5(P2Ir3)6
_symmetry_space_group_name_H-M   'P 1'
_cell_length_a   12.67380287
_cell_length_b   12.67380343
_cell_length_c   3.95681600
_cell_angle_alpha   90.00000000
_cell_angle_beta   90.00000000
_cell_angle_gamma   119.51484974
_symmetry_Int_Tables_number   1
_chemical_formula_structural   LiEr5(P2Ir3)6
_chemical_formula_sum   'Li1 Er5 P12 Ir18'
_cell_volume   553.08622716
_cell_formula_units_Z   1
loop_
 _symmetry_equiv_pos_site_id
 _symmetry_equiv_pos_as_xyz
  1  'x, y, z'
loop_
 _atom_site_type_symbol
 _atom_site_label
 _atom_site_symmetry_multiplicity
 _atom_site_fract_x
 _atom_site_fract_y
 _atom_site_fract_z
 _atom_site_occupancy
  Li  Li0  1  0.556022  0.556022  0.000000  1
  Er  Er1  1  0.191026  0.191026  0.500000  1
  Er  Er2  1  0.813653  0.000867  0.500000  1
  Er  Er3  1  0.000867  0.813653  0.500000  1
  Er  Er4  1  0.336467  0.665839  0.000000  1
  Er  Er5  1  0.665839  0.336467  0.000000  1
  P  P6  1  0.820768  0.820768  0.000000  1
  P  P7  1  0.176556  0.998426  0.000000  1
  P  P8  1  0.998426  0.176556  0.000000  1
  P  P9  1  0.171556  0.480676  0.500000  1
  P  P10  1  0.515724  0.683205  0.500000  1
  P  P11  1  0.311929  0.826059  0.500000  1
  P  P12  1  0.683205  0.515724  0.500000  1
  P  P13  1  0.826059  0.311929  0.500000  1
  P  P14  1  0.480676  0.171556  0.500000  1
  P  P15  1  0.366108  0.366108  0.000000  1
  P  P16  1  0.643507  0.001419  0.000000  1
  P  P17  1  0.001419  0.643507  0.000000  1
  Ir  Ir18  1  0.462116  0.999706  0.000000  1
  Ir  Ir19  1  0.999706  0.462116  0.000000  1
  Ir  Ir20  1  0.718851  0.718851  0.500000  1
  Ir  Ir21  1  0.281006  0.996612  0.500000  1
  Ir  Ir22  1  0.996612  0.281006  0.500000  1
  Ir  Ir23  1  0.174255  0.371878  0.000000  1
  Ir  Ir24  1  0.626254  0.808904  0.000000  1
  Ir  Ir25  1  0.195992  0.817640  0.000000  1
  Ir  Ir26  1  0.808904  0.626254  0.000000  1
  Ir  Ir27  1  0.817640  0.195992  0.000000  1
  Ir  Ir28  1  0.371878  0.174255  0.000000  1
  Ir  Ir29  1  0.357614  0.488841  0.500000  1
  Ir  Ir30  1  0.506312  0.865488  0.500000  1
  Ir  Ir31  1  0.132975  0.637494  0.500000  1
  Ir  Ir32  1  0.865488  0.506312  0.500000  1
  Ir  Ir33  1  0.637494  0.132975  0.500000  1
  Ir  Ir34  1  0.488841  0.357614  0.500000  1
  Ir  Ir35  1  0.998254  0.998254  0.000000  1
