# generated using pymatgen
data_Ba4Al8Si7Sn
_symmetry_space_group_name_H-M   'P 1'
_cell_length_a   4.32110400
_cell_length_b   10.19426495
_cell_length_c   11.04899324
_cell_angle_alpha   89.62266569
_cell_angle_beta   90.00000000
_cell_angle_gamma   90.00000000
_symmetry_Int_Tables_number   1
_chemical_formula_structural   Ba4Al8Si7Sn
_chemical_formula_sum   'Ba4 Al8 Si7 Sn1'
_cell_volume   486.70289081
_cell_formula_units_Z   1
loop_
 _symmetry_equiv_pos_site_id
 _symmetry_equiv_pos_as_xyz
  1  'x, y, z'
loop_
 _atom_site_type_symbol
 _atom_site_label
 _atom_site_symmetry_multiplicity
 _atom_site_fract_x
 _atom_site_fract_y
 _atom_site_fract_z
 _atom_site_occupancy
  Ba  Ba0  1  0.250000  0.250549  0.172931  1
  Ba  Ba1  1  0.750000  0.748248  0.829595  1
  Ba  Ba2  1  0.250000  0.745049  0.323802  1
  Ba  Ba3  1  0.750000  0.259782  0.674988  1
  Al  Al4  1  0.250000  0.599189  0.047924  1
  Al  Al5  1  0.750000  0.400872  0.953379  1
  Al  Al6  1  0.250000  0.106670  0.443923  1
  Al  Al7  1  0.750000  0.889302  0.533689  1
  Al  Al8  1  0.250000  0.541706  0.619489  1
  Al  Al9  1  0.750000  0.457972  0.379033  1
  Al  Al10  1  0.250000  0.045315  0.898218  1
  Al  Al11  1  0.750000  0.957624  0.118381  1
  Si  Si12  1  0.750000  0.024802  0.340314  1
  Si  Si13  1  0.250000  0.475597  0.845364  1
  Si  Si14  1  0.750000  0.525004  0.154181  1
  Si  Si15  1  0.250000  0.357959  0.456302  1
  Si  Si16  1  0.750000  0.639512  0.539781  1
  Si  Si17  1  0.250000  0.852974  0.045566  1
  Si  Si18  1  0.750000  0.149367  0.962171  1
  Sn  Sn19  1  0.250000  0.972507  0.660967  1
