# generated using pymatgen
data_Dy3Ho5Tc2(B12Rh)2
_symmetry_space_group_name_H-M   'P 1'
_cell_length_a   3.67524300
_cell_length_b   9.13375743
_cell_length_c   11.52447707
_cell_angle_alpha   90.39718482
_cell_angle_beta   90.00000000
_cell_angle_gamma   90.00000000
_symmetry_Int_Tables_number   1
_chemical_formula_structural   Dy3Ho5Tc2(B12Rh)2
_chemical_formula_sum   'Dy3 Ho5 Tc2 B24 Rh2'
_cell_volume   386.85331778
_cell_formula_units_Z   1
loop_
 _symmetry_equiv_pos_site_id
 _symmetry_equiv_pos_as_xyz
  1  'x, y, z'
loop_
 _atom_site_type_symbol
 _atom_site_label
 _atom_site_symmetry_multiplicity
 _atom_site_fract_x
 _atom_site_fract_y
 _atom_site_fract_z
 _atom_site_occupancy
  Dy  Dy0  1  0.500000  0.319052  0.410910  1
  Dy  Dy1  1  0.500000  0.680950  0.589085  1
  Dy  Dy2  1  0.500000  0.173259  0.917123  1
  Ho  Ho3  1  0.500000  0.826778  0.082786  1
  Ho  Ho4  1  0.500000  0.441994  0.126833  1
  Ho  Ho5  1  0.500000  0.558104  0.873214  1
  Ho  Ho6  1  0.500000  0.054086  0.628489  1
  Ho  Ho7  1  0.500000  0.945885  0.371485  1
  Tc  Tc8  1  0.500000  0.139060  0.179886  1
  Tc  Tc9  1  0.500000  0.860760  0.820176  1
  B  B10  1  0.000000  0.108300  0.470885  1
  B  B11  1  0.000000  0.891696  0.529112  1
  B  B12  1  0.000000  0.392961  0.970307  1
  B  B13  1  0.000000  0.607289  0.029757  1
  B  B14  1  0.000000  0.132345  0.314709  1
  B  B15  1  0.000000  0.867626  0.685280  1
  B  B16  1  0.000000  0.367356  0.816377  1
  B  B17  1  0.000000  0.632810  0.183539  1
  B  B18  1  0.000000  0.053100  0.067601  1
  B  B19  1  0.000000  0.946656  0.932520  1
  B  B20  1  0.000000  0.445580  0.566136  1
  B  B21  1  0.000000  0.554432  0.433847  1
  B  B22  1  0.000000  0.483889  0.287546  1
  B  B23  1  0.000000  0.516142  0.712451  1
  B  B24  1  0.000000  0.016341  0.786951  1
  B  B25  1  0.000000  0.983430  0.212987  1
  B  B26  1  0.000000  0.248033  0.081280  1
  B  B27  1  0.000000  0.751968  0.918918  1
  B  B28  1  0.000000  0.250892  0.578848  1
  B  B29  1  0.000000  0.749096  0.421129  1
  B  B30  1  0.000000  0.292718  0.234456  1
  B  B31  1  0.000000  0.707281  0.765570  1
  B  B32  1  0.000000  0.208608  0.734614  1
  B  B33  1  0.000000  0.791453  0.265258  1
  Rh  Rh34  1  0.500000  0.361915  0.678593  1
  Rh  Rh35  1  0.500000  0.638154  0.321342  1
