# generated using pymatgen
data_TmPu9O20
_symmetry_space_group_name_H-M   'P 1'
_cell_length_a   6.58943773
_cell_length_b   7.60072813
_cell_length_c   8.49828000
_cell_angle_alpha   102.91068438
_cell_angle_beta   97.44109317
_cell_angle_gamma   106.76955039
_symmetry_Int_Tables_number   1
_chemical_formula_structural   TmPu9O20
_chemical_formula_sum   'Tm1 Pu9 O20'
_cell_volume   388.55435060
_cell_formula_units_Z   1
loop_
 _symmetry_equiv_pos_site_id
 _symmetry_equiv_pos_as_xyz
  1  'x, y, z'
loop_
 _atom_site_type_symbol
 _atom_site_label
 _atom_site_symmetry_multiplicity
 _atom_site_fract_x
 _atom_site_fract_y
 _atom_site_fract_z
 _atom_site_occupancy
  Tm  Tm0  1  0.000000  0.000000  0.000000  1
  Pu  Pu1  1  0.800519  0.601074  0.601293  1
  Pu  Pu2  1  0.000000  0.500000  0.000000  1
  Pu  Pu3  1  0.599992  0.199197  0.199301  1
  Pu  Pu4  1  0.800295  0.099659  0.600996  1
  Pu  Pu5  1  0.601409  0.700861  0.199575  1
  Pu  Pu6  1  0.199481  0.398926  0.398707  1
  Pu  Pu7  1  0.398591  0.299139  0.800425  1
  Pu  Pu8  1  0.199705  0.900341  0.399004  1
  Pu  Pu9  1  0.400008  0.800803  0.800699  1
  O  O10  1  0.850077  0.325003  0.451788  1
  O  O11  1  0.648079  0.924056  0.051174  1
  O  O12  1  0.950171  0.772817  0.151022  1
  O  O13  1  0.851326  0.826010  0.450514  1
  O  O14  1  0.448064  0.523449  0.649827  1
  O  O15  1  0.648423  0.425185  0.049250  1
  O  O16  1  0.747010  0.374124  0.750418  1
  O  O17  1  0.252092  0.125722  0.251253  1
  O  O18  1  0.448440  0.025356  0.648753  1
  O  O19  1  0.949194  0.277525  0.151162  1
  O  O20  1  0.551560  0.974644  0.351247  1
  O  O21  1  0.050806  0.722475  0.848838  1
  O  O22  1  0.252990  0.625876  0.249582  1
  O  O23  1  0.747908  0.874278  0.748747  1
  O  O24  1  0.351577  0.574815  0.950750  1
  O  O25  1  0.049829  0.227183  0.848978  1
  O  O26  1  0.551936  0.476551  0.350173  1
  O  O27  1  0.148674  0.173990  0.549486  1
  O  O28  1  0.351921  0.075944  0.948826  1
  O  O29  1  0.149923  0.674997  0.548212  1
