# generated using pymatgen
data_Dy5Er3Sc12(SiGe)8
_symmetry_space_group_name_H-M   'P 1'
_cell_length_a   7.15945664
_cell_length_b   7.40485650
_cell_length_c   14.06075271
_cell_angle_alpha   89.98100967
_cell_angle_beta   90.03092670
_cell_angle_gamma   89.96255181
_symmetry_Int_Tables_number   1
_chemical_formula_structural   Dy5Er3Sc12(SiGe)8
_chemical_formula_sum   'Dy5 Er3 Sc12 Si8 Ge8'
_cell_volume   745.42696715
_cell_formula_units_Z   1
loop_
 _symmetry_equiv_pos_site_id
 _symmetry_equiv_pos_as_xyz
  1  'x, y, z'
loop_
 _atom_site_type_symbol
 _atom_site_label
 _atom_site_symmetry_multiplicity
 _atom_site_fract_x
 _atom_site_fract_y
 _atom_site_fract_z
 _atom_site_occupancy
  Dy  Dy0  1  0.995265  0.823264  0.598788  1
  Dy  Dy1  1  0.504613  0.322795  0.097934  1
  Dy  Dy2  1  0.004714  0.176735  0.401518  1
  Dy  Dy3  1  0.504586  0.323243  0.401072  1
  Dy  Dy4  1  0.495498  0.676836  0.598822  1
  Er  Er5  1  0.004294  0.177100  0.098490  1
  Er  Er6  1  0.996031  0.822569  0.901437  1
  Er  Er7  1  0.495322  0.677566  0.901443  1
  Sc  Sc8  1  0.170487  0.501208  0.750529  1
  Sc  Sc9  1  0.829814  0.499351  0.249591  1
  Sc  Sc10  1  0.329573  0.000927  0.249505  1
  Sc  Sc11  1  0.670487  0.998848  0.750561  1
  Sc  Sc12  1  0.340355  0.172806  0.626658  1
  Sc  Sc13  1  0.659543  0.827403  0.373497  1
  Sc  Sc14  1  0.159399  0.672848  0.373338  1
  Sc  Sc15  1  0.659182  0.827482  0.125910  1
  Sc  Sc16  1  0.840300  0.327619  0.626776  1
  Sc  Sc17  1  0.340564  0.172058  0.874099  1
  Sc  Sc18  1  0.840751  0.326921  0.873962  1
  Sc  Sc19  1  0.158993  0.672780  0.126062  1
  Si  Si20  1  0.042549  0.116788  0.750402  1
  Si  Si21  1  0.957496  0.883097  0.249621  1
  Si  Si22  1  0.457615  0.617717  0.249629  1
  Si  Si23  1  0.542305  0.383082  0.750585  1
  Si  Si24  1  0.293901  0.871452  0.750827  1
  Si  Si25  1  0.706613  0.128118  0.249423  1
  Si  Si26  1  0.205617  0.371556  0.249441  1
  Si  Si27  1  0.793777  0.628608  0.750875  1
  Ge  Ge28  1  0.173348  0.460315  0.540713  1
  Ge  Ge29  1  0.826643  0.539833  0.459654  1
  Ge  Ge30  1  0.326843  0.960223  0.459546  1
  Ge  Ge31  1  0.825886  0.539717  0.040142  1
  Ge  Ge32  1  0.673346  0.040066  0.540606  1
  Ge  Ge33  1  0.174408  0.460920  0.959157  1
  Ge  Ge34  1  0.676021  0.038281  0.959074  1
  Ge  Ge35  1  0.323864  0.959867  0.040315  1
