# generated using pymatgen
data_DyEr3(B2Ir5)2
_symmetry_space_group_name_H-M   'P 1'
_cell_length_a   11.00363409
_cell_length_b   11.00363383
_cell_length_c   11.00363401
_cell_angle_alpha   28.74657554
_cell_angle_beta   28.74657648
_cell_angle_gamma   28.74657517
_symmetry_Int_Tables_number   1
_chemical_formula_structural   DyEr3(B2Ir5)2
_chemical_formula_sum   'Dy1 Er3 B4 Ir10'
_cell_volume   272.47041999
_cell_formula_units_Z   1
loop_
 _symmetry_equiv_pos_site_id
 _symmetry_equiv_pos_as_xyz
  1  'x, y, z'
loop_
 _atom_site_type_symbol
 _atom_site_label
 _atom_site_symmetry_multiplicity
 _atom_site_fract_x
 _atom_site_fract_y
 _atom_site_fract_z
 _atom_site_occupancy
  Dy  Dy0  1  0.151862  0.151862  0.151862  1
  Er  Er1  1  0.950259  0.950259  0.950259  1
  Er  Er2  1  0.848110  0.848110  0.848110  1
  Er  Er3  1  0.049741  0.049741  0.049741  1
  B  B4  1  0.617310  0.617310  0.617310  1
  B  B5  1  0.716081  0.716081  0.716081  1
  B  B6  1  0.382710  0.382710  0.382710  1
  B  B7  1  0.283909  0.283909  0.283909  1
  Ir  Ir8  1  0.405365  0.900035  0.405365  1
  Ir  Ir9  1  0.900035  0.405365  0.405365  1
  Ir  Ir10  1  0.499979  0.499979  0.000014  1
  Ir  Ir11  1  0.499979  0.000014  0.499979  1
  Ir  Ir12  1  0.000014  0.499979  0.499979  1
  Ir  Ir13  1  0.500043  0.500043  0.500043  1
  Ir  Ir14  1  0.594756  0.099724  0.594756  1
  Ir  Ir15  1  0.594756  0.594756  0.099724  1
  Ir  Ir16  1  0.099724  0.594756  0.594756  1
  Ir  Ir17  1  0.405365  0.405365  0.900035  1
