# generated using pymatgen
data_Ba12Si15P
_symmetry_space_group_name_H-M   'P 1'
_cell_length_a   8.59293575
_cell_length_b   8.59293575
_cell_length_c   11.83415213
_cell_angle_alpha   90.28560638
_cell_angle_beta   90.28560638
_cell_angle_gamma   90.42585312
_symmetry_Int_Tables_number   1
_chemical_formula_structural   Ba12Si15P
_chemical_formula_sum   'Ba12 Si15 P1'
_cell_volume   873.77056055
_cell_formula_units_Z   1
loop_
 _symmetry_equiv_pos_site_id
 _symmetry_equiv_pos_as_xyz
  1  'x, y, z'
loop_
 _atom_site_type_symbol
 _atom_site_label
 _atom_site_symmetry_multiplicity
 _atom_site_fract_x
 _atom_site_fract_y
 _atom_site_fract_z
 _atom_site_occupancy
  Ba  Ba0  1  0.499947  0.998505  0.746227  1
  Ba  Ba1  1  0.500299  0.002953  0.252798  1
  Ba  Ba2  1  0.998505  0.499947  0.746227  1
  Ba  Ba3  1  0.002953  0.500299  0.252798  1
  Ba  Ba4  1  0.997998  0.997998  0.829538  1
  Ba  Ba5  1  0.499001  0.499001  0.333174  1
  Ba  Ba6  1  0.500296  0.500296  0.667441  1
  Ba  Ba7  1  0.000792  0.000792  0.169210  1
  Ba  Ba8  1  0.662809  0.662809  0.004220  1
  Ba  Ba9  1  0.834116  0.166495  0.500680  1
  Ba  Ba10  1  0.166495  0.834116  0.500680  1
  Ba  Ba11  1  0.334466  0.334466  0.999070  1
  Si  Si12  1  0.201292  0.201292  0.647174  1
  Si  Si13  1  0.796294  0.796294  0.350640  1
  Si  Si14  1  0.300667  0.700321  0.145902  1
  Si  Si15  1  0.700321  0.300667  0.145902  1
  Si  Si16  1  0.700644  0.299999  0.853008  1
  Si  Si17  1  0.299999  0.700644  0.853008  1
  Si  Si18  1  0.201602  0.201602  0.355153  1
  Si  Si19  1  0.699420  0.101506  0.998986  1
  Si  Si20  1  0.300362  0.900031  0.999873  1
  Si  Si21  1  0.101506  0.699420  0.998986  1
  Si  Si22  1  0.603305  0.805340  0.499999  1
  Si  Si23  1  0.900031  0.300362  0.999873  1
  Si  Si24  1  0.195831  0.400836  0.501526  1
  Si  Si25  1  0.805340  0.603305  0.499999  1
  Si  Si26  1  0.400836  0.195831  0.501526  1
  P  P27  1  0.794872  0.794872  0.646379  1
