# generated using pymatgen
data_EuDy5HoPtI12
_symmetry_space_group_name_H-M   'P 1'
_cell_length_a   9.81434786
_cell_length_b   9.80962092
_cell_length_c   9.82526392
_cell_angle_alpha   106.50707440
_cell_angle_beta   106.50932117
_cell_angle_gamma   106.51640441
_symmetry_Int_Tables_number   1
_chemical_formula_structural   EuDy5HoPtI12
_chemical_formula_sum   'Eu1 Dy5 Ho1 Pt1 I12'
_cell_volume   798.05424345
_cell_formula_units_Z   1
loop_
 _symmetry_equiv_pos_site_id
 _symmetry_equiv_pos_as_xyz
  1  'x, y, z'
loop_
 _atom_site_type_symbol
 _atom_site_label
 _atom_site_symmetry_multiplicity
 _atom_site_fract_x
 _atom_site_fract_y
 _atom_site_fract_z
 _atom_site_occupancy
  Eu  Eu0  1  0.999906  0.999816  0.000061  1
  Dy  Dy1  1  0.403951  0.477067  0.201278  1
  Dy  Dy2  1  0.201168  0.404230  0.476924  1
  Dy  Dy3  1  0.476848  0.201109  0.404017  1
  Dy  Dy4  1  0.596049  0.523053  0.798803  1
  Dy  Dy5  1  0.798980  0.596364  0.523193  1
  Ho  Ho6  1  0.523311  0.797669  0.595718  1
  Pt  Pt7  1  0.500125  0.500100  0.500175  1
  I  I8  1  0.047466  0.359378  0.126790  1
  I  I9  1  0.126833  0.047676  0.359551  1
  I  I10  1  0.359494  0.126968  0.047675  1
  I  I11  1  0.952576  0.640492  0.873083  1
  I  I12  1  0.872391  0.952572  0.640551  1
  I  I13  1  0.640051  0.873195  0.951361  1
  I  I14  1  0.722808  0.573963  0.176074  1
  I  I15  1  0.176995  0.723424  0.574081  1
  I  I16  1  0.573597  0.175267  0.722321  1
  I  I17  1  0.277191  0.426081  0.823880  1
  I  I18  1  0.823889  0.277436  0.426115  1
  I  I19  1  0.426372  0.824139  0.278349  1
