# generated using pymatgen
data_Ac9(BiO)5
_symmetry_space_group_name_H-M   'P 1'
_cell_length_a   10.85208900
_cell_length_b   10.85208900
_cell_length_c   9.70870200
_cell_angle_alpha   90.00000000
_cell_angle_beta   90.00000000
_cell_angle_gamma   90.00000000
_symmetry_Int_Tables_number   1
_chemical_formula_structural   Ac9(BiO)5
_chemical_formula_sum   'Ac18 Bi10 O10'
_cell_volume   1143.37282165
_cell_formula_units_Z   2
loop_
 _symmetry_equiv_pos_site_id
 _symmetry_equiv_pos_as_xyz
  1  'x, y, z'
loop_
 _atom_site_type_symbol
 _atom_site_label
 _atom_site_symmetry_multiplicity
 _atom_site_fract_x
 _atom_site_fract_y
 _atom_site_fract_z
 _atom_site_occupancy
  Ac  Ac0  1  0.000000  0.500000  0.330789  1
  Ac  Ac1  1  0.500000  0.000000  0.669211  1
  Ac  Ac2  1  0.796005  0.103898  0.344238  1
  Ac  Ac3  1  0.603898  0.703995  0.344238  1
  Ac  Ac4  1  0.396102  0.296005  0.344238  1
  Ac  Ac5  1  0.203995  0.896102  0.344238  1
  Ac  Ac6  1  0.703995  0.396102  0.655762  1
  Ac  Ac7  1  0.896102  0.796005  0.655762  1
  Ac  Ac8  1  0.103898  0.203995  0.655762  1
  Ac  Ac9  1  0.296005  0.603898  0.655762  1
  Ac  Ac10  1  0.080622  0.727775  0.997542  1
  Ac  Ac11  1  0.227775  0.419378  0.997542  1
  Ac  Ac12  1  0.772225  0.580622  0.997542  1
  Ac  Ac13  1  0.919378  0.272225  0.997542  1
  Ac  Ac14  1  0.419378  0.772225  0.002458  1
  Ac  Ac15  1  0.272225  0.080622  0.002458  1
  Ac  Ac16  1  0.727775  0.919378  0.002458  1
  Ac  Ac17  1  0.580622  0.227775  0.002458  1
  Bi  Bi18  1  0.000000  0.500000  0.695321  1
  Bi  Bi19  1  0.500000  0.000000  0.304679  1
  Bi  Bi20  1  0.696502  0.402565  0.295189  1
  Bi  Bi21  1  0.902565  0.803498  0.295189  1
  Bi  Bi22  1  0.097435  0.196502  0.295189  1
  Bi  Bi23  1  0.303498  0.597435  0.295189  1
  Bi  Bi24  1  0.803498  0.097435  0.704811  1
  Bi  Bi25  1  0.597435  0.696502  0.704811  1
  Bi  Bi26  1  0.402565  0.303498  0.704811  1
  Bi  Bi27  1  0.196502  0.902565  0.704811  1
  O  O28  1  0.000000  0.500000  0.073260  1
  O  O29  1  0.500000  0.000000  0.926740  1
  O  O30  1  0.878056  0.775728  0.907888  1
  O  O31  1  0.275728  0.621944  0.907888  1
  O  O32  1  0.724272  0.378056  0.907888  1
  O  O33  1  0.121944  0.224272  0.907888  1
  O  O34  1  0.621944  0.724272  0.092112  1
  O  O35  1  0.224272  0.878056  0.092112  1
  O  O36  1  0.775728  0.121944  0.092112  1
  O  O37  1  0.378056  0.275728  0.092112  1
