# generated using pymatgen
data_Nd9Th(Sb3Se)2
_symmetry_space_group_name_H-M   'P 1'
_cell_length_a   9.41366300
_cell_length_b   9.41366422
_cell_length_c   6.77043100
_cell_angle_alpha   90.00000000
_cell_angle_beta   90.00000000
_cell_angle_gamma   119.99999219
_symmetry_Int_Tables_number   1
_chemical_formula_structural   Nd9Th(Sb3Se)2
_chemical_formula_sum   'Nd9 Th1 Sb6 Se2'
_cell_volume   519.59424532
_cell_formula_units_Z   1
loop_
 _symmetry_equiv_pos_site_id
 _symmetry_equiv_pos_as_xyz
  1  'x, y, z'
loop_
 _atom_site_type_symbol
 _atom_site_label
 _atom_site_symmetry_multiplicity
 _atom_site_fract_x
 _atom_site_fract_y
 _atom_site_fract_z
 _atom_site_occupancy
  Nd  Nd0  1  0.741777  0.740440  0.250255  1
  Nd  Nd1  1  0.259560  0.001338  0.250255  1
  Nd  Nd2  1  0.998662  0.258223  0.250255  1
  Nd  Nd3  1  0.259560  0.258223  0.749745  1
  Nd  Nd4  1  0.741777  0.001338  0.749745  1
  Nd  Nd5  1  0.998662  0.740440  0.749745  1
  Nd  Nd6  1  0.333333  0.666667  0.500000  1
  Nd  Nd7  1  0.333333  0.666667  0.000000  1
  Nd  Nd8  1  0.666667  0.333333  0.000000  1
  Th  Th9  1  0.666667  0.333333  0.500000  1
  Sb  Sb10  1  0.392417  0.392832  0.249874  1
  Sb  Sb11  1  0.607168  0.999585  0.249874  1
  Sb  Sb12  1  0.000415  0.607583  0.249874  1
  Sb  Sb13  1  0.607168  0.607583  0.750126  1
  Sb  Sb14  1  0.392417  0.999585  0.750126  1
  Sb  Sb15  1  0.000415  0.392832  0.750126  1
  Se  Se16  1  0.000000  0.000000  0.500000  1
  Se  Se17  1  0.000000  0.000000  0.000000  1
