# generated using pymatgen
data_Lu2Hf2Re7Mo
_symmetry_space_group_name_H-M   'P 1'
_cell_length_a   5.32682400
_cell_length_b   5.32682402
_cell_length_c   8.74627700
_cell_angle_alpha   90.00012907
_cell_angle_beta   89.99988168
_cell_angle_gamma   119.99894419
_symmetry_Int_Tables_number   1
_chemical_formula_structural   Lu2Hf2Re7Mo
_chemical_formula_sum   'Lu2 Hf2 Re7 Mo1'
_cell_volume   214.92907853
_cell_formula_units_Z   1
loop_
 _symmetry_equiv_pos_site_id
 _symmetry_equiv_pos_as_xyz
  1  'x, y, z'
loop_
 _atom_site_type_symbol
 _atom_site_label
 _atom_site_symmetry_multiplicity
 _atom_site_fract_x
 _atom_site_fract_y
 _atom_site_fract_z
 _atom_site_occupancy
  Lu  Lu0  1  0.333330  0.666670  0.061018  1
  Lu  Lu1  1  0.666670  0.333330  0.938982  1
  Hf  Hf2  1  0.666675  0.333325  0.564844  1
  Hf  Hf3  1  0.333325  0.666675  0.435156  1
  Re  Re4  1  0.000000  0.000000  0.000000  1
  Re  Re5  1  0.171117  0.342148  0.746068  1
  Re  Re6  1  0.171099  0.828901  0.746067  1
  Re  Re7  1  0.657852  0.828883  0.746068  1
  Re  Re8  1  0.828883  0.657852  0.253932  1
  Re  Re9  1  0.828901  0.171099  0.253933  1
  Re  Re10  1  0.342148  0.171117  0.253932  1
  Mo  Mo11  1  0.000000  0.000000  0.500000  1
