# generated using pymatgen
data_Hf8TiNbSn6
_symmetry_space_group_name_H-M   'P 1'
_cell_length_a   8.38703200
_cell_length_b   8.38703170
_cell_length_c   5.64851100
_cell_angle_alpha   90.00000000
_cell_angle_beta   90.00000000
_cell_angle_gamma   119.99999331
_symmetry_Int_Tables_number   1
_chemical_formula_structural   Hf8TiNbSn6
_chemical_formula_sum   'Hf8 Ti1 Nb1 Sn6'
_cell_volume   344.09726768
_cell_formula_units_Z   1
loop_
 _symmetry_equiv_pos_site_id
 _symmetry_equiv_pos_as_xyz
  1  'x, y, z'
loop_
 _atom_site_type_symbol
 _atom_site_label
 _atom_site_symmetry_multiplicity
 _atom_site_fract_x
 _atom_site_fract_y
 _atom_site_fract_z
 _atom_site_occupancy
  Hf  Hf0  1  0.756649  0.757505  0.749782  1
  Hf  Hf1  1  0.242495  0.999144  0.749782  1
  Hf  Hf2  1  0.000856  0.243351  0.749782  1
  Hf  Hf3  1  0.242495  0.243351  0.250218  1
  Hf  Hf4  1  0.756649  0.999144  0.250218  1
  Hf  Hf5  1  0.000856  0.757505  0.250218  1
  Hf  Hf6  1  0.333333  0.666667  0.500000  1
  Hf  Hf7  1  0.666667  0.333333  0.500000  1
  Ti  Ti8  1  0.666667  0.333333  0.000000  1
  Nb  Nb9  1  0.333333  0.666667  0.000000  1
  Sn  Sn10  1  0.396405  0.394592  0.756434  1
  Sn  Sn11  1  0.605408  0.001813  0.756434  1
  Sn  Sn12  1  0.998187  0.603595  0.756434  1
  Sn  Sn13  1  0.605408  0.603595  0.243566  1
  Sn  Sn14  1  0.396405  0.001813  0.243566  1
  Sn  Sn15  1  0.998187  0.394592  0.243566  1
