# generated using pymatgen
data_Pr6Dy9Y(CdIr)4
_symmetry_space_group_name_H-M   'P 1'
_cell_length_a   9.78047357
_cell_length_b   9.78047279
_cell_length_c   9.78134700
_cell_angle_alpha   59.99704656
_cell_angle_beta   59.99704921
_cell_angle_gamma   60.09669270
_symmetry_Int_Tables_number   1
_chemical_formula_structural   Pr6Dy9Y(CdIr)4
_chemical_formula_sum   'Pr6 Dy9 Y1 Cd4 Ir4'
_cell_volume   662.06457516
_cell_formula_units_Z   1
loop_
 _symmetry_equiv_pos_site_id
 _symmetry_equiv_pos_as_xyz
  1  'x, y, z'
loop_
 _atom_site_type_symbol
 _atom_site_label
 _atom_site_symmetry_multiplicity
 _atom_site_fract_x
 _atom_site_fract_y
 _atom_site_fract_z
 _atom_site_occupancy
  Pr  Pr0  1  0.941424  0.558190  0.559094  1
  Pr  Pr1  1  0.558190  0.941424  0.941291  1
  Pr  Pr2  1  0.558190  0.941424  0.559094  1
  Pr  Pr3  1  0.941424  0.558190  0.941291  1
  Pr  Pr4  1  0.558892  0.558892  0.941108  1
  Pr  Pr5  1  0.941701  0.941701  0.558299  1
  Dy  Dy6  1  0.347341  0.347341  0.346811  1
  Dy  Dy7  1  0.347341  0.347341  0.958506  1
  Dy  Dy8  1  0.347905  0.957995  0.347050  1
  Dy  Dy9  1  0.957995  0.347905  0.347050  1
  Dy  Dy10  1  0.811743  0.187116  0.188280  1
  Dy  Dy11  1  0.187116  0.811743  0.812861  1
  Dy  Dy12  1  0.187116  0.811743  0.188280  1
  Dy  Dy13  1  0.811743  0.187116  0.812861  1
  Dy  Dy14  1  0.187718  0.187718  0.812282  1
  Y  Y15  1  0.811958  0.811958  0.188042  1
  Cd  Cd16  1  0.579323  0.579323  0.578999  1
  Cd  Cd17  1  0.579323  0.579323  0.262355  1
  Cd  Cd18  1  0.579426  0.261953  0.579310  1
  Cd  Cd19  1  0.261953  0.579426  0.579310  1
  Ir  Ir20  1  0.141662  0.141662  0.140584  1
  Ir  Ir21  1  0.141662  0.141662  0.576093  1
  Ir  Ir22  1  0.143251  0.575602  0.140574  1
  Ir  Ir23  1  0.575602  0.143251  0.140574  1
