# generated using pymatgen
data_K2In2Te3
_symmetry_space_group_name_H-M   'P 1'
_cell_length_a   8.11035620
_cell_length_b   8.11035556
_cell_length_c   10.15790728
_cell_angle_alpha   82.34506084
_cell_angle_beta   82.34506302
_cell_angle_gamma   120.08777105
_symmetry_Int_Tables_number   1
_chemical_formula_structural   K2In2Te3
_chemical_formula_sum   'K4 In4 Te6'
_cell_volume   557.18474946
_cell_formula_units_Z   2
loop_
 _symmetry_equiv_pos_site_id
 _symmetry_equiv_pos_as_xyz
  1  'x, y, z'
loop_
 _atom_site_type_symbol
 _atom_site_label
 _atom_site_symmetry_multiplicity
 _atom_site_fract_x
 _atom_site_fract_y
 _atom_site_fract_z
 _atom_site_occupancy
  K  K0  1  0.666469  0.333531  0.000000  1
  K  K1  1  0.333531  0.666469  0.000000  1
  K  K2  1  0.000000  0.000000  0.000000  1
  K  K3  1  0.500000  0.500000  0.500000  1
  In  In4  1  0.881455  0.214072  0.355565  1
  In  In5  1  0.785928  0.118545  0.644435  1
  In  In6  1  0.214072  0.881455  0.355565  1
  In  In7  1  0.118545  0.785928  0.644435  1
  Te  Te8  1  0.414943  0.074947  0.758243  1
  Te  Te9  1  0.074947  0.414943  0.758243  1
  Te  Te10  1  0.925053  0.585057  0.241757  1
  Te  Te11  1  0.752890  0.752890  0.758606  1
  Te  Te12  1  0.585057  0.925053  0.241757  1
  Te  Te13  1  0.247110  0.247110  0.241394  1
