# generated using pymatgen
data_LiEr3Al2Si2Pd
_symmetry_space_group_name_H-M   'P 1'
_cell_length_a   6.90019100
_cell_length_b   6.82804142
_cell_length_c   4.27176600
_cell_angle_alpha   90.00000000
_cell_angle_beta   90.00000000
_cell_angle_gamma   120.35016707
_symmetry_Int_Tables_number   1
_chemical_formula_structural   LiEr3Al2Si2Pd
_chemical_formula_sum   'Li1 Er3 Al2 Si2 Pd1'
_cell_volume   173.68091194
_cell_formula_units_Z   1
loop_
 _symmetry_equiv_pos_site_id
 _symmetry_equiv_pos_as_xyz
  1  'x, y, z'
loop_
 _atom_site_type_symbol
 _atom_site_label
 _atom_site_symmetry_multiplicity
 _atom_site_fract_x
 _atom_site_fract_y
 _atom_site_fract_z
 _atom_site_occupancy
  Li  Li0  1  0.759690  0.000000  0.500001  1
  Er  Er1  1  0.422924  0.000000  0.000000  1
  Er  Er2  1  0.996350  0.415845  0.000000  1
  Er  Er3  1  0.580505  0.584155  0.000000  1
  Al  Al4  1  0.235061  0.236612  0.500001  1
  Al  Al5  1  0.998450  0.763388  0.500001  1
  Si  Si6  1  0.664718  0.337622  0.500001  1
  Si  Si7  1  0.327094  0.662378  0.500001  1
  Pd  Pd8  1  0.015208  0.000000  0.000000  1
