# generated using pymatgen
data_Ho7ErTi7Si16Tc5
_symmetry_space_group_name_H-M   'P 1'
_cell_length_a   6.91170612
_cell_length_b   6.92161061
_cell_length_c   12.73904410
_cell_angle_alpha   89.80628837
_cell_angle_beta   89.93083775
_cell_angle_gamma   89.94148460
_symmetry_Int_Tables_number   1
_chemical_formula_structural   Ho7ErTi7Si16Tc5
_chemical_formula_sum   'Ho7 Er1 Ti7 Si16 Tc5'
_cell_volume   609.43339044
_cell_formula_units_Z   1
loop_
 _symmetry_equiv_pos_site_id
 _symmetry_equiv_pos_as_xyz
  1  'x, y, z'
loop_
 _atom_site_type_symbol
 _atom_site_label
 _atom_site_symmetry_multiplicity
 _atom_site_fract_x
 _atom_site_fract_y
 _atom_site_fract_z
 _atom_site_occupancy
  Ho  Ho0  1  0.498496  0.840372  0.719741  1
  Ho  Ho1  1  0.499559  0.159099  0.218727  1
  Ho  Ho2  1  0.839441  0.498513  0.279950  1
  Ho  Ho3  1  0.159695  0.499117  0.781983  1
  Ho  Ho4  1  0.658957  0.999601  0.968316  1
  Ho  Ho5  1  0.000781  0.340745  0.531228  1
  Ho  Ho6  1  0.997506  0.658350  0.029011  1
  Er  Er7  1  0.340466  0.000017  0.469948  1
  Ti  Ti8  1  0.493534  0.657899  0.126927  1
  Ti  Ti9  1  0.501744  0.346018  0.628617  1
  Ti  Ti10  1  0.655979  0.496634  0.873363  1
  Ti  Ti11  1  0.346139  0.505002  0.373481  1
  Ti  Ti12  1  0.846259  0.996644  0.376627  1
  Ti  Ti13  1  0.004094  0.155615  0.126006  1
  Ti  Ti14  1  0.995884  0.846831  0.622732  1
  Si  Si15  1  0.196689  0.127756  0.687133  1
  Si  Si16  1  0.375529  0.702142  0.933960  1
  Si  Si17  1  0.627904  0.299675  0.434313  1
  Si  Si18  1  0.700262  0.371550  0.065674  1
  Si  Si19  1  0.300150  0.629536  0.566160  1
  Si  Si20  1  0.800222  0.870960  0.183408  1
  Si  Si21  1  0.129520  0.200412  0.317466  1
  Si  Si22  1  0.875384  0.806072  0.815785  1
  Si  Si23  1  0.289843  0.958671  0.062115  1
  Si  Si24  1  0.546751  0.791017  0.317696  1
  Si  Si25  1  0.446474  0.210634  0.819246  1
  Si  Si26  1  0.790340  0.548464  0.682881  1
  Si  Si27  1  0.209388  0.453730  0.182773  1
  Si  Si28  1  0.709134  0.046653  0.567194  1
  Si  Si29  1  0.961805  0.279572  0.931840  1
  Si  Si30  1  0.046515  0.710252  0.431817  1
  Tc  Tc31  1  0.328807  0.332125  0.001130  1
  Tc  Tc32  1  0.169885  0.830822  0.247571  1
  Tc  Tc33  1  0.826051  0.169953  0.748309  1
  Tc  Tc34  1  0.670035  0.670020  0.500436  1
  Tc  Tc35  1  0.160776  0.989530  0.876438  1
