# generated using pymatgen
data_Cs6In3SbBr18
_symmetry_space_group_name_H-M   'P 1'
_cell_length_a   7.96329800
_cell_length_b   7.96329805
_cell_length_c   20.35991400
_cell_angle_alpha   90.00000000
_cell_angle_beta   90.00000000
_cell_angle_gamma   119.99999149
_symmetry_Int_Tables_number   1
_chemical_formula_structural   Cs6In3SbBr18
_chemical_formula_sum   'Cs6 In3 Sb1 Br18'
_cell_volume   1118.13063590
_cell_formula_units_Z   1
loop_
 _symmetry_equiv_pos_site_id
 _symmetry_equiv_pos_as_xyz
  1  'x, y, z'
loop_
 _atom_site_type_symbol
 _atom_site_label
 _atom_site_symmetry_multiplicity
 _atom_site_fract_x
 _atom_site_fract_y
 _atom_site_fract_z
 _atom_site_occupancy
  Cs  Cs0  1  0.333333  0.666667  0.073275  1
  Cs  Cs1  1  0.666667  0.333333  0.930782  1
  Cs  Cs2  1  0.666667  0.333333  0.571966  1
  Cs  Cs3  1  0.333333  0.666667  0.431795  1
  Cs  Cs4  1  0.000000  0.000000  0.250603  1
  Cs  Cs5  1  0.000000  0.000000  0.745474  1
  In  In6  1  0.333333  0.666667  0.656336  1
  In  In7  1  0.666667  0.333333  0.343844  1
  In  In8  1  0.666667  0.333333  0.156666  1
  Sb  Sb9  1  0.333333  0.666667  0.843452  1
  Br  Br10  1  0.169296  0.338594  0.590018  1
  Br  Br11  1  0.830985  0.661970  0.408667  1
  Br  Br12  1  0.661406  0.830704  0.590018  1
  Br  Br13  1  0.830516  0.661030  0.090304  1
  Br  Br14  1  0.338030  0.169015  0.408667  1
  Br  Br15  1  0.168662  0.337325  0.915147  1
  Br  Br16  1  0.169296  0.830704  0.590018  1
  Br  Br17  1  0.338970  0.169484  0.090304  1
  Br  Br18  1  0.830985  0.169015  0.408667  1
  Br  Br19  1  0.662675  0.831338  0.915147  1
  Br  Br20  1  0.830516  0.169484  0.090304  1
  Br  Br21  1  0.168662  0.831338  0.915147  1
  Br  Br22  1  0.513257  0.026513  0.249605  1
  Br  Br23  1  0.494156  0.988313  0.744860  1
  Br  Br24  1  0.973487  0.486743  0.249605  1
  Br  Br25  1  0.011687  0.505844  0.744860  1
  Br  Br26  1  0.513257  0.486743  0.249605  1
  Br  Br27  1  0.494156  0.505844  0.744860  1
