# generated using pymatgen
data_Pr8Zn5In3Rh8
_symmetry_space_group_name_H-M   'P 1'
_cell_length_a   4.08375600
_cell_length_b   7.55379199
_cell_length_c   16.81835156
_cell_angle_alpha   90.24122191
_cell_angle_beta   90.00000000
_cell_angle_gamma   90.00000000
_symmetry_Int_Tables_number   1
_chemical_formula_structural   Pr8Zn5In3Rh8
_chemical_formula_sum   'Pr8 Zn5 In3 Rh8'
_cell_volume   518.80527699
_cell_formula_units_Z   1
loop_
 _symmetry_equiv_pos_site_id
 _symmetry_equiv_pos_as_xyz
  1  'x, y, z'
loop_
 _atom_site_type_symbol
 _atom_site_label
 _atom_site_symmetry_multiplicity
 _atom_site_fract_x
 _atom_site_fract_y
 _atom_site_fract_z
 _atom_site_occupancy
  Pr  Pr0  1  0.750000  0.339056  0.440276  1
  Pr  Pr1  1  0.250000  0.055701  0.712762  1
  Pr  Pr2  1  0.250000  0.541603  0.781679  1
  Pr  Pr3  1  0.250000  0.666598  0.563152  1
  Pr  Pr4  1  0.750000  0.819587  0.058435  1
  Pr  Pr5  1  0.250000  0.180131  0.940449  1
  Pr  Pr6  1  0.750000  0.457222  0.217623  1
  Pr  Pr7  1  0.750000  0.942686  0.284218  1
  Zn  Zn8  1  0.750000  0.003610  0.565270  1
  Zn  Zn9  1  0.250000  0.501548  0.060778  1
  Zn  Zn10  1  0.750000  0.378483  0.650007  1
  Zn  Zn11  1  0.750000  0.498319  0.938541  1
  Zn  Zn12  1  0.250000  0.617395  0.348777  1
  In  In13  1  0.250000  0.120846  0.151039  1
  In  In14  1  0.250000  0.999633  0.439588  1
  In  In15  1  0.750000  0.879338  0.847828  1
  Rh  Rh16  1  0.750000  0.252778  0.814970  1
  Rh  Rh17  1  0.250000  0.250166  0.314511  1
  Rh  Rh18  1  0.250000  0.730547  0.935642  1
  Rh  Rh19  1  0.250000  0.248548  0.567082  1
  Rh  Rh20  1  0.250000  0.746881  0.184241  1
  Rh  Rh21  1  0.750000  0.746433  0.435172  1
  Rh  Rh22  1  0.750000  0.270027  0.063514  1
  Rh  Rh23  1  0.750000  0.752864  0.684444  1
