# generated using pymatgen
data_Ti3Mn2Cr(BRu)6
_symmetry_space_group_name_H-M   'P 1'
_cell_length_a   3.00412200
_cell_length_b   8.69940226
_cell_length_c   8.72215137
_cell_angle_alpha   119.91375268
_cell_angle_beta   90.00000000
_cell_angle_gamma   90.00000000
_symmetry_Int_Tables_number   1
_chemical_formula_structural   Ti3Mn2Cr(BRu)6
_chemical_formula_sum   'Ti3 Mn2 Cr1 B6 Ru6'
_cell_volume   197.57774010
_cell_formula_units_Z   1
loop_
 _symmetry_equiv_pos_site_id
 _symmetry_equiv_pos_as_xyz
  1  'x, y, z'
loop_
 _atom_site_type_symbol
 _atom_site_label
 _atom_site_symmetry_multiplicity
 _atom_site_fract_x
 _atom_site_fract_y
 _atom_site_fract_z
 _atom_site_occupancy
  Ti  Ti0  1  0.000000  0.585380  0.000000  1
  Ti  Ti1  1  0.000000  0.413772  0.413839  1
  Ti  Ti2  1  0.000000  0.999934  0.586161  1
  Mn  Mn3  1  0.000000  0.830036  0.829286  1
  Mn  Mn4  1  0.000000  0.000751  0.170714  1
  Cr  Cr5  1  0.000000  0.175944  0.000000  1
  B  B6  1  0.500000  0.999402  0.000000  1
  B  B7  1  0.500000  0.796670  0.000000  1
  B  B8  1  0.500000  0.201398  0.204652  1
  B  B9  1  0.500000  0.996746  0.795348  1
  B  B10  1  0.000000  0.333678  0.664445  1
  B  B11  1  0.000000  0.669234  0.335555  1
  Ru  Ru12  1  0.500000  0.540500  0.725532  1
  Ru  Ru13  1  0.500000  0.184147  0.460202  1
  Ru  Ru14  1  0.500000  0.274093  0.814792  1
  Ru  Ru15  1  0.500000  0.814969  0.274468  1
  Ru  Ru16  1  0.500000  0.723945  0.539798  1
  Ru  Ru17  1  0.500000  0.459302  0.185208  1
