# generated using pymatgen
data_Ce3Al3Si2Ru
_symmetry_space_group_name_H-M   'P 1'
_cell_length_a   6.92750800
_cell_length_b   6.92750808
_cell_length_c   4.37317100
_cell_angle_alpha   90.00000000
_cell_angle_beta   90.00000000
_cell_angle_gamma   119.99999964
_symmetry_Int_Tables_number   1
_chemical_formula_structural   Ce3Al3Si2Ru
_chemical_formula_sum   'Ce3 Al3 Si2 Ru1'
_cell_volume   181.75282483
_cell_formula_units_Z   1
loop_
 _symmetry_equiv_pos_site_id
 _symmetry_equiv_pos_as_xyz
  1  'x, y, z'
loop_
 _atom_site_type_symbol
 _atom_site_label
 _atom_site_symmetry_multiplicity
 _atom_site_fract_x
 _atom_site_fract_y
 _atom_site_fract_z
 _atom_site_occupancy
  Ce  Ce0  1  0.414545  0.000000  0.000000  1
  Ce  Ce1  1  0.000000  0.414545  0.000000  1
  Ce  Ce2  1  0.585454  0.585454  0.000000  1
  Al  Al3  1  0.770318  0.000000  0.500000  1
  Al  Al4  1  0.229682  0.229682  0.500000  1
  Al  Al5  1  0.000000  0.770318  0.500000  1
  Si  Si6  1  0.666667  0.333333  0.500000  1
  Si  Si7  1  0.333333  0.666666  0.500000  1
  Ru  Ru8  1  0.000000  0.000000  0.000000  1
