# generated using pymatgen
data_LiCe2BRh5
_symmetry_space_group_name_H-M   'P 1'
_cell_length_a   5.91935269
_cell_length_b   5.83059137
_cell_length_c   5.83059216
_cell_angle_alpha   61.00976469
_cell_angle_beta   59.49512301
_cell_angle_gamma   59.49512459
_symmetry_Int_Tables_number   1
_chemical_formula_structural   LiCe2BRh5
_chemical_formula_sum   'Li1 Ce2 B1 Rh5'
_cell_volume   142.22634735
_cell_formula_units_Z   1
loop_
 _symmetry_equiv_pos_site_id
 _symmetry_equiv_pos_as_xyz
  1  'x, y, z'
loop_
 _atom_site_type_symbol
 _atom_site_label
 _atom_site_symmetry_multiplicity
 _atom_site_fract_x
 _atom_site_fract_y
 _atom_site_fract_z
 _atom_site_occupancy
  Li  Li0  1  0.726058  0.273942  0.273942  1
  Ce  Ce1  1  0.250978  0.249020  0.249020  1
  Ce  Ce2  1  0.750978  0.749020  0.749020  1
  B  B3  1  0.009250  0.990750  0.990750  1
  Rh  Rh4  1  0.747855  0.748173  0.252145  1
  Rh  Rh5  1  0.251827  0.748173  0.252145  1
  Rh  Rh6  1  0.263368  0.736632  0.736632  1
  Rh  Rh7  1  0.251827  0.252145  0.748173  1
  Rh  Rh8  1  0.747855  0.252145  0.748173  1
