# generated using pymatgen
data_Y8Tc4B23C
_symmetry_space_group_name_H-M   'P 1'
_cell_length_a   9.19022779
_cell_length_b   11.48273608
_cell_length_c   3.69086700
_cell_angle_alpha   90.00000000
_cell_angle_beta   90.00000000
_cell_angle_gamma   89.59875904
_symmetry_Int_Tables_number   1
_chemical_formula_structural   Y8Tc4B23C
_chemical_formula_sum   'Y8 Tc4 B23 C1'
_cell_volume   389.48380617
_cell_formula_units_Z   1
loop_
 _symmetry_equiv_pos_site_id
 _symmetry_equiv_pos_as_xyz
  1  'x, y, z'
loop_
 _atom_site_type_symbol
 _atom_site_label
 _atom_site_symmetry_multiplicity
 _atom_site_fract_x
 _atom_site_fract_y
 _atom_site_fract_z
 _atom_site_occupancy
  Y  Y0  1  0.827085  0.086852  0.000000  1
  Y  Y1  1  0.446440  0.125356  0.000000  1
  Y  Y2  1  0.943109  0.369899  0.000000  1
  Y  Y3  1  0.324791  0.412900  0.000000  1
  Y  Y4  1  0.675600  0.586289  0.000000  1
  Y  Y5  1  0.056120  0.631333  0.000000  1
  Y  Y6  1  0.555004  0.874674  0.000000  1
  Y  Y7  1  0.173502  0.914081  0.000000  1
  Tc  Tc8  1  0.140813  0.179665  0.000000  1
  Tc  Tc9  1  0.640290  0.317257  0.000000  1
  Tc  Tc10  1  0.360933  0.679173  0.000000  1
  Tc  Tc11  1  0.857893  0.823242  0.000000  1
  B  B12  1  0.054122  0.067532  0.500001  1
  B  B13  1  0.248285  0.080606  0.500001  1
  B  B14  1  0.635872  0.179660  0.500001  1
  B  B15  1  0.984774  0.212346  0.500001  1
  B  B16  1  0.293670  0.233256  0.500001  1
  B  B17  1  0.794009  0.263779  0.500001  1
  B  B18  1  0.484542  0.283863  0.500001  1
  B  B19  1  0.132429  0.314498  0.500001  1
  B  B20  1  0.748092  0.416974  0.500001  1
  B  B21  1  0.553834  0.430212  0.500001  1
  B  B22  1  0.101095  0.472080  0.500001  1
  B  B23  1  0.897641  0.528799  0.500001  1
  B  B24  1  0.446111  0.566567  0.500001  1
  B  B25  1  0.250926  0.581425  0.500001  1
  B  B26  1  0.866555  0.687599  0.500001  1
  B  B27  1  0.516620  0.713016  0.500001  1
  B  B28  1  0.206647  0.735058  0.500001  1
  B  B29  1  0.705654  0.768749  0.500001  1
  B  B30  1  0.014676  0.789365  0.500001  1
  B  B31  1  0.367226  0.814084  0.500001  1
  B  B32  1  0.749258  0.925051  0.500001  1
  B  B33  1  0.945530  0.934944  0.500001  1
  B  B34  1  0.378315  0.966231  0.500001  1
  C  C35  1  0.622541  0.033593  0.500001  1
