# generated using pymatgen
data_U4MnFe(CoB8)2
_symmetry_space_group_name_H-M   'P 1'
_cell_length_a   3.38781300
_cell_length_b   5.88132007
_cell_length_c   11.39899129
_cell_angle_alpha   89.99616736
_cell_angle_beta   90.00000000
_cell_angle_gamma   90.00000000
_symmetry_Int_Tables_number   1
_chemical_formula_structural   U4MnFe(CoB8)2
_chemical_formula_sum   'U4 Mn1 Fe1 Co2 B16'
_cell_volume   227.12276477
_cell_formula_units_Z   1
loop_
 _symmetry_equiv_pos_site_id
 _symmetry_equiv_pos_as_xyz
  1  'x, y, z'
loop_
 _atom_site_type_symbol
 _atom_site_label
 _atom_site_symmetry_multiplicity
 _atom_site_fract_x
 _atom_site_fract_y
 _atom_site_fract_z
 _atom_site_occupancy
  U  U0  1  0.000000  0.627352  0.348966  1
  U  U1  1  0.000000  0.373800  0.650212  1
  U  U2  1  0.000000  0.126396  0.149806  1
  U  U3  1  0.000000  0.872142  0.849861  1
  Mn  Mn4  1  0.000000  0.632671  0.088063  1
  Fe  Fe5  1  0.000000  0.867498  0.587788  1
  Co  Co6  1  0.000000  0.364014  0.910775  1
  Co  Co7  1  0.000000  0.133857  0.410859  1
  B  B8  1  0.500000  0.782909  0.186606  1
  B  B9  1  0.500000  0.216901  0.813310  1
  B  B10  1  0.500000  0.283429  0.313746  1
  B  B11  1  0.500000  0.717386  0.686518  1
  B  B12  1  0.500000  0.864379  0.033744  1
  B  B13  1  0.500000  0.135507  0.966155  1
  B  B14  1  0.500000  0.364711  0.466049  1
  B  B15  1  0.500000  0.635810  0.533725  1
  B  B16  1  0.500000  0.885559  0.454618  1
  B  B17  1  0.500000  0.112219  0.546773  1
  B  B18  1  0.500000  0.388394  0.047099  1
  B  B19  1  0.500000  0.614921  0.955024  1
  B  B20  1  0.500000  0.974932  0.308755  1
  B  B21  1  0.500000  0.024563  0.691697  1
  B  B22  1  0.500000  0.474703  0.191661  1
  B  B23  1  0.500000  0.525949  0.808194  1
