# generated using pymatgen
data_SnP4PbO14
_symmetry_space_group_name_H-M   'P 1'
_cell_length_a   5.20975910
_cell_length_b   6.91785760
_cell_length_c   8.55877913
_cell_angle_alpha   68.96003801
_cell_angle_beta   88.42448909
_cell_angle_gamma   88.46980280
_symmetry_Int_Tables_number   1
_chemical_formula_structural   SnP4PbO14
_chemical_formula_sum   'Sn1 P4 Pb1 O14'
_cell_volume   287.74084291
_cell_formula_units_Z   1
loop_
 _symmetry_equiv_pos_site_id
 _symmetry_equiv_pos_as_xyz
  1  'x, y, z'
loop_
 _atom_site_type_symbol
 _atom_site_label
 _atom_site_symmetry_multiplicity
 _atom_site_fract_x
 _atom_site_fract_y
 _atom_site_fract_z
 _atom_site_occupancy
  Sn  Sn0  1  0.755618  0.788442  0.267632  1
  P  P1  1  0.245974  0.108880  0.172971  1
  P  P2  1  0.269839  0.455269  0.306317  1
  P  P3  1  0.720295  0.552543  0.687923  1
  P  P4  1  0.763526  0.885104  0.834452  1
  Pb  Pb5  1  0.245564  0.213924  0.732061  1
  O  O6  1  0.166061  0.297011  0.469963  1
  O  O7  1  0.047804  0.927951  0.782259  1
  O  O8  1  0.088674  0.640977  0.229757  1
  O  O9  1  0.280014  0.337871  0.175253  1
  O  O10  1  0.312839  0.134324  0.993732  1
  O  O11  1  0.438846  0.960547  0.293930  1
  O  O12  1  0.436659  0.505028  0.673872  1
  O  O13  1  0.545908  0.521823  0.315152  1
  O  O14  1  0.586040  0.040220  0.706798  1
  O  O15  1  0.701454  0.859220  0.014818  1
  O  O16  1  0.718743  0.661715  0.824597  1
  O  O17  1  0.881261  0.355618  0.768672  1
  O  O18  1  0.966998  0.050667  0.228349  1
  O  O19  1  0.827884  0.702867  0.521492  1
