# generated using pymatgen
data_Nd7Th(GePt)8
_symmetry_space_group_name_H-M   'P 1'
_cell_length_a   4.48180500
_cell_length_b   7.73341700
_cell_length_c   14.63221400
_cell_angle_alpha   90.00000000
_cell_angle_beta   90.00000000
_cell_angle_gamma   90.00000000
_symmetry_Int_Tables_number   1
_chemical_formula_structural   Nd7Th(GePt)8
_chemical_formula_sum   'Nd7 Th1 Ge8 Pt8'
_cell_volume   507.14766439
_cell_formula_units_Z   1
loop_
 _symmetry_equiv_pos_site_id
 _symmetry_equiv_pos_as_xyz
  1  'x, y, z'
loop_
 _atom_site_type_symbol
 _atom_site_label
 _atom_site_symmetry_multiplicity
 _atom_site_fract_x
 _atom_site_fract_y
 _atom_site_fract_z
 _atom_site_occupancy
  Nd  Nd0  1  0.500000  0.788447  0.748322  1
  Nd  Nd1  1  0.000000  0.209908  0.753511  1
  Nd  Nd2  1  0.500000  0.788447  0.251678  1
  Nd  Nd3  1  0.000000  0.209908  0.246489  1
  Nd  Nd4  1  0.500000  0.709421  0.000000  1
  Nd  Nd5  1  0.500000  0.705302  0.500000  1
  Nd  Nd6  1  0.000000  0.296124  0.000000  1
  Th  Th7  1  0.000000  0.292369  0.500000  1
  Ge  Ge8  1  0.500000  0.411719  0.648229  1
  Ge  Ge9  1  0.000000  0.589362  0.850347  1
  Ge  Ge10  1  0.500000  0.411719  0.351771  1
  Ge  Ge11  1  0.000000  0.589362  0.149653  1
  Ge  Ge12  1  0.500000  0.087528  0.095001  1
  Ge  Ge13  1  0.000000  0.909844  0.403642  1
  Ge  Ge14  1  0.500000  0.087528  0.904999  1
  Ge  Ge15  1  0.000000  0.909844  0.596358  1
  Pt  Pt16  1  0.500000  0.082235  0.607696  1
  Pt  Pt17  1  0.000000  0.921342  0.891175  1
  Pt  Pt18  1  0.500000  0.082235  0.392304  1
  Pt  Pt19  1  0.000000  0.921342  0.108825  1
  Pt  Pt20  1  0.500000  0.418371  0.151177  1
  Pt  Pt21  1  0.000000  0.579636  0.350920  1
  Pt  Pt22  1  0.500000  0.418371  0.848823  1
  Pt  Pt23  1  0.000000  0.579636  0.649080  1
