# generated using pymatgen
data_Th4HgPbAu4
_symmetry_space_group_name_H-M   'P 1'
_cell_length_a   8.26103400
_cell_length_b   8.26103400
_cell_length_c   7.47655100
_cell_angle_alpha   90.00000000
_cell_angle_beta   90.00000000
_cell_angle_gamma   90.00000000
_symmetry_Int_Tables_number   1
_chemical_formula_structural   Th4HgPbAu4
_chemical_formula_sum   'Th8 Hg2 Pb2 Au8'
_cell_volume   510.23485105
_cell_formula_units_Z   2
loop_
 _symmetry_equiv_pos_site_id
 _symmetry_equiv_pos_as_xyz
  1  'x, y, z'
loop_
 _atom_site_type_symbol
 _atom_site_label
 _atom_site_symmetry_multiplicity
 _atom_site_fract_x
 _atom_site_fract_y
 _atom_site_fract_z
 _atom_site_occupancy
  Th  Th0  1  0.842951  0.157049  0.500000  1
  Th  Th1  1  0.157049  0.842951  0.500000  1
  Th  Th2  1  0.342951  0.342951  0.000000  1
  Th  Th3  1  0.657049  0.657049  0.000000  1
  Th  Th4  1  0.691419  0.691419  0.500000  1
  Th  Th5  1  0.308581  0.308581  0.500000  1
  Th  Th6  1  0.191419  0.808581  0.000000  1
  Th  Th7  1  0.808581  0.191419  0.000000  1
  Hg  Hg8  1  0.500000  0.000000  0.250000  1
  Hg  Hg9  1  0.000000  0.500000  0.750000  1
  Pb  Pb10  1  0.500000  0.000000  0.750000  1
  Pb  Pb11  1  0.000000  0.500000  0.250000  1
  Au  Au12  1  0.622141  0.372304  0.287126  1
  Au  Au13  1  0.377859  0.627696  0.287126  1
  Au  Au14  1  0.122141  0.127696  0.787126  1
  Au  Au15  1  0.877859  0.872304  0.787126  1
  Au  Au16  1  0.372304  0.622141  0.712874  1
  Au  Au17  1  0.627696  0.377859  0.712874  1
  Au  Au18  1  0.872304  0.877859  0.212874  1
  Au  Au19  1  0.127696  0.122141  0.212874  1
