# generated using pymatgen
data_TbSm7(Er3Si4)4
_symmetry_space_group_name_H-M   'P 1'
_cell_length_a   7.68718727
_cell_length_b   7.68596709
_cell_length_c   14.22299200
_cell_angle_alpha   90.00376457
_cell_angle_beta   89.93957517
_cell_angle_gamma   89.94100087
_symmetry_Int_Tables_number   1
_chemical_formula_structural   TbSm7(Er3Si4)4
_chemical_formula_sum   'Tb1 Sm7 Er12 Si16'
_cell_volume   840.34278402
_cell_formula_units_Z   1
loop_
 _symmetry_equiv_pos_site_id
 _symmetry_equiv_pos_as_xyz
  1  'x, y, z'
loop_
 _atom_site_type_symbol
 _atom_site_label
 _atom_site_symmetry_multiplicity
 _atom_site_fract_x
 _atom_site_fract_y
 _atom_site_fract_z
 _atom_site_occupancy
  Tb  Tb0  1  0.360993  0.007543  0.457266  1
  Sm  Sm1  1  0.991995  0.639974  0.042264  1
  Sm  Sm2  1  0.007991  0.360540  0.542611  1
  Sm  Sm3  1  0.639865  0.991776  0.957632  1
  Sm  Sm4  1  0.140061  0.507624  0.792541  1
  Sm  Sm5  1  0.859863  0.491933  0.292564  1
  Sm  Sm6  1  0.507335  0.139360  0.207331  1
  Sm  Sm7  1  0.492399  0.859958  0.707509  1
  Er  Er8  1  0.361556  0.490736  0.375659  1
  Er  Er9  1  0.861583  0.009286  0.374359  1
  Er  Er10  1  0.991311  0.138132  0.125567  1
  Er  Er11  1  0.009176  0.862127  0.625494  1
  Er  Er12  1  0.638184  0.508545  0.875461  1
  Er  Er13  1  0.491253  0.362185  0.624490  1
  Er  Er14  1  0.508644  0.638424  0.124356  1
  Er  Er15  1  0.138389  0.991097  0.874372  1
  Er  Er16  1  0.683050  0.684327  0.499958  1
  Er  Er17  1  0.816793  0.182796  0.750042  1
  Er  Er18  1  0.183201  0.816775  0.250139  1
  Er  Er19  1  0.316660  0.316728  0.999912  1
  Si  Si20  1  0.064151  0.710286  0.438262  1
  Si  Si21  1  0.936475  0.290458  0.938383  1
  Si  Si22  1  0.708096  0.063022  0.561363  1
  Si  Si23  1  0.209235  0.436265  0.188339  1
  Si  Si24  1  0.790901  0.563507  0.688389  1
  Si  Si25  1  0.436847  0.209066  0.811721  1
  Si  Si26  1  0.562132  0.791601  0.312082  1
  Si  Si27  1  0.290447  0.936378  0.061535  1
  Si  Si28  1  0.845743  0.797463  0.811309  1
  Si  Si29  1  0.155718  0.200841  0.311945  1
  Si  Si30  1  0.797327  0.845397  0.188700  1
  Si  Si31  1  0.298805  0.656306  0.560654  1
  Si  Si32  1  0.702095  0.345172  0.060978  1
  Si  Si33  1  0.653849  0.297667  0.439097  1
  Si  Si34  1  0.345329  0.702075  0.938793  1
  Si  Si35  1  0.202551  0.154632  0.688923  1
