# generated using pymatgen
data_LaSmTeO6
_symmetry_space_group_name_H-M   'P 1'
_cell_length_a   5.51459800
_cell_length_b   9.43058600
_cell_length_c   10.32773100
_cell_angle_alpha   90.00000000
_cell_angle_beta   90.00000000
_cell_angle_gamma   90.00000000
_symmetry_Int_Tables_number   1
_chemical_formula_structural   LaSmTeO6
_chemical_formula_sum   'La4 Sm4 Te4 O24'
_cell_volume   537.10284951
_cell_formula_units_Z   4
loop_
 _symmetry_equiv_pos_site_id
 _symmetry_equiv_pos_as_xyz
  1  'x, y, z'
loop_
 _atom_site_type_symbol
 _atom_site_label
 _atom_site_symmetry_multiplicity
 _atom_site_fract_x
 _atom_site_fract_y
 _atom_site_fract_z
 _atom_site_occupancy
  La  La0  1  0.530284  0.218961  0.357743  1
  La  La1  1  0.030284  0.281039  0.642257  1
  La  La2  1  0.469716  0.718961  0.142257  1
  La  La3  1  0.969716  0.781039  0.857743  1
  Sm  Sm4  1  0.523891  0.103505  0.956293  1
  Sm  Sm5  1  0.023891  0.396495  0.043707  1
  Sm  Sm6  1  0.476109  0.603505  0.543707  1
  Sm  Sm7  1  0.976109  0.896495  0.456293  1
  Te  Te8  1  0.462389  0.992749  0.640935  1
  Te  Te9  1  0.962389  0.507251  0.359065  1
  Te  Te10  1  0.537611  0.492749  0.859065  1
  Te  Te11  1  0.037611  0.007251  0.140935  1
  O  O12  1  0.305499  0.140096  0.170386  1
  O  O13  1  0.805499  0.359904  0.829614  1
  O  O14  1  0.694501  0.640096  0.329614  1
  O  O15  1  0.194501  0.859904  0.670386  1
  O  O16  1  0.722843  0.108632  0.562659  1
  O  O17  1  0.222843  0.391368  0.437341  1
  O  O18  1  0.277157  0.608632  0.937341  1
  O  O19  1  0.777157  0.891368  0.062659  1
  O  O20  1  0.674269  0.634743  0.744182  1
  O  O21  1  0.174269  0.865257  0.255818  1
  O  O22  1  0.325731  0.134743  0.755818  1
  O  O23  1  0.825731  0.365257  0.244182  1
  O  O24  1  0.665874  0.948531  0.787978  1
  O  O25  1  0.165874  0.551469  0.212022  1
  O  O26  1  0.334126  0.448531  0.712022  1
  O  O27  1  0.834126  0.051469  0.287978  1
  O  O28  1  0.254041  0.079708  0.505789  1
  O  O29  1  0.754041  0.420292  0.494211  1
  O  O30  1  0.745959  0.579708  0.994211  1
  O  O31  1  0.245959  0.920292  0.005789  1
  O  O32  1  0.086662  0.655406  0.473324  1
  O  O33  1  0.586662  0.844594  0.526676  1
  O  O34  1  0.913338  0.155406  0.026676  1
  O  O35  1  0.413338  0.344594  0.973324  1
