# generated using pymatgen
data_Zr4Mn5FeOs2
_symmetry_space_group_name_H-M   'P 1'
_cell_length_a   5.04220300
_cell_length_b   5.02333705
_cell_length_c   8.35608700
_cell_angle_alpha   90.00000000
_cell_angle_beta   90.00000000
_cell_angle_gamma   120.12430765
_symmetry_Int_Tables_number   1
_chemical_formula_structural   Zr4Mn5FeOs2
_chemical_formula_sum   'Zr4 Mn5 Fe1 Os2'
_cell_volume   183.06312252
_cell_formula_units_Z   1
loop_
 _symmetry_equiv_pos_site_id
 _symmetry_equiv_pos_as_xyz
  1  'x, y, z'
loop_
 _atom_site_type_symbol
 _atom_site_label
 _atom_site_symmetry_multiplicity
 _atom_site_fract_x
 _atom_site_fract_y
 _atom_site_fract_z
 _atom_site_occupancy
  Zr  Zr0  1  0.666873  0.333745  0.063462  1
  Zr  Zr1  1  0.666873  0.333745  0.436538  1
  Zr  Zr2  1  0.333558  0.667114  0.563568  1
  Zr  Zr3  1  0.333558  0.667114  0.936432  1
  Mn  Mn4  1  0.171824  0.343648  0.250000  1
  Mn  Mn5  1  0.171031  0.828452  0.250000  1
  Mn  Mn6  1  0.657421  0.828452  0.250000  1
  Mn  Mn7  1  0.339951  0.169490  0.750000  1
  Mn  Mn8  1  0.829538  0.169490  0.750000  1
  Fe  Fe9  1  0.828825  0.657650  0.750000  1
  Os  Os10  1  0.000275  0.000551  0.001249  1
  Os  Os11  1  0.000275  0.000551  0.498751  1
