# generated using pymatgen
data_HoEr3Mo4F28
_symmetry_space_group_name_H-M   'P 1'
_cell_length_a   5.63053603
_cell_length_b   8.96055687
_cell_length_c   12.10816300
_cell_angle_alpha   62.56147840
_cell_angle_beta   89.99414886
_cell_angle_gamma   89.99623598
_symmetry_Int_Tables_number   1
_chemical_formula_structural   HoEr3Mo4F28
_chemical_formula_sum   'Ho1 Er3 Mo4 F28'
_cell_volume   542.16838363
_cell_formula_units_Z   1
loop_
 _symmetry_equiv_pos_site_id
 _symmetry_equiv_pos_as_xyz
  1  'x, y, z'
loop_
 _atom_site_type_symbol
 _atom_site_label
 _atom_site_symmetry_multiplicity
 _atom_site_fract_x
 _atom_site_fract_y
 _atom_site_fract_z
 _atom_site_occupancy
  Ho  Ho0  1  0.751008  0.814626  0.767617  1
  Er  Er1  1  0.251188  0.185993  0.732326  1
  Er  Er2  1  0.248922  0.185480  0.232385  1
  Er  Er3  1  0.749249  0.814729  0.267697  1
  Mo  Mo4  1  0.755756  0.272261  0.956090  1
  Mo  Mo5  1  0.255551  0.727139  0.543723  1
  Mo  Mo6  1  0.244431  0.726937  0.044910  1
  Mo  Mo7  1  0.744009  0.273275  0.455383  1
  F  F8  1  0.461757  0.707097  0.917532  1
  F  F9  1  0.962459  0.292819  0.582547  1
  F  F10  1  0.537456  0.292665  0.082585  1
  F  F11  1  0.037915  0.707145  0.416850  1
  F  F12  1  0.450760  0.276197  0.547683  1
  F  F13  1  0.951665  0.723329  0.952934  1
  F  F14  1  0.549350  0.724036  0.452107  1
  F  F15  1  0.049542  0.275540  0.047976  1
  F  F16  1  0.779740  0.520101  0.859788  1
  F  F17  1  0.279096  0.479189  0.639931  1
  F  F18  1  0.221075  0.479077  0.140523  1
  F  F19  1  0.720510  0.521051  0.359561  1
  F  F20  1  0.758951  0.025561  0.054220  1
  F  F21  1  0.258798  0.973826  0.445615  1
  F  F22  1  0.241052  0.973636  0.946046  1
  F  F23  1  0.740803  0.026412  0.553608  1
  F  F24  1  0.974961  0.732653  0.640123  1
  F  F25  1  0.475108  0.267197  0.859186  1
  F  F26  1  0.023858  0.267213  0.358637  1
  F  F27  1  0.524174  0.732926  0.141575  1
  F  F28  1  0.032320  0.747590  0.174563  1
  F  F29  1  0.531338  0.252747  0.325856  1
  F  F30  1  0.968492  0.251800  0.826469  1
  F  F31  1  0.466609  0.747454  0.673756  1
  F  F32  1  0.428159  0.971009  0.234265  1
  F  F33  1  0.927658  0.029373  0.265886  1
  F  F34  1  0.572460  0.030741  0.765843  1
  F  F35  1  0.073814  0.971172  0.734202  1
