# generated using pymatgen
data_Gd3Zn3Ni2Rh
_symmetry_space_group_name_H-M   'P 1'
_cell_length_a   7.12959700
_cell_length_b   7.12959785
_cell_length_c   3.81923600
_cell_angle_alpha   90.00000000
_cell_angle_beta   90.00000000
_cell_angle_gamma   119.99999772
_symmetry_Int_Tables_number   1
_chemical_formula_structural   Gd3Zn3Ni2Rh
_chemical_formula_sum   'Gd3 Zn3 Ni2 Rh1'
_cell_volume   168.12687975
_cell_formula_units_Z   1
loop_
 _symmetry_equiv_pos_site_id
 _symmetry_equiv_pos_as_xyz
  1  'x, y, z'
loop_
 _atom_site_type_symbol
 _atom_site_label
 _atom_site_symmetry_multiplicity
 _atom_site_fract_x
 _atom_site_fract_y
 _atom_site_fract_z
 _atom_site_occupancy
  Gd  Gd0  1  0.407963  0.408759  0.500000  1
  Gd  Gd1  1  0.591241  0.999204  0.500000  1
  Gd  Gd2  1  0.000796  0.592037  0.500000  1
  Zn  Zn3  1  0.755324  0.759361  0.000000  1
  Zn  Zn4  1  0.240639  0.995963  0.000000  1
  Zn  Zn5  1  0.004037  0.244676  0.000000  1
  Ni  Ni6  1  0.333333  0.666667  0.000000  1
  Ni  Ni7  1  0.000000  0.000000  0.500000  1
  Rh  Rh8  1  0.666667  0.333333  0.000000  1
