# generated using pymatgen
data_Ca4Yb3Tm3Pt8
_symmetry_space_group_name_H-M   'P 1'
_cell_length_a   7.49306600
_cell_length_b   7.61190627
_cell_length_c   14.42929400
_cell_angle_alpha   90.07917034
_cell_angle_beta   90.00000000
_cell_angle_gamma   90.00000000
_symmetry_Int_Tables_number   1
_chemical_formula_structural   Ca4Yb3Tm3Pt8
_chemical_formula_sum   'Ca8 Yb6 Tm6 Pt16'
_cell_volume   822.99587304
_cell_formula_units_Z   2
loop_
 _symmetry_equiv_pos_site_id
 _symmetry_equiv_pos_as_xyz
  1  'x, y, z'
loop_
 _atom_site_type_symbol
 _atom_site_label
 _atom_site_symmetry_multiplicity
 _atom_site_fract_x
 _atom_site_fract_y
 _atom_site_fract_z
 _atom_site_occupancy
  Ca  Ca0  1  0.499251  0.325250  0.903589  1
  Ca  Ca1  1  0.999251  0.174750  0.596411  1
  Ca  Ca2  1  0.501073  0.677239  0.405315  1
  Ca  Ca3  1  0.001073  0.822761  0.094685  1
  Ca  Ca4  1  0.500868  0.675984  0.095195  1
  Ca  Ca5  1  0.000868  0.824016  0.404805  1
  Ca  Ca6  1  0.499173  0.322783  0.596764  1
  Ca  Ca7  1  0.999173  0.177217  0.903236  1
  Yb  Yb8  1  0.338629  0.833847  0.621344  1
  Yb  Yb9  1  0.838629  0.666153  0.878656  1
  Yb  Yb10  1  0.178832  0.491355  0.750109  1
  Yb  Yb11  1  0.678832  0.008645  0.749891  1
  Yb  Yb12  1  0.819913  0.512451  0.250049  1
  Yb  Yb13  1  0.319913  0.987549  0.249951  1
  Tm  Tm14  1  0.338039  0.835555  0.877307  1
  Tm  Tm15  1  0.838039  0.664445  0.622693  1
  Tm  Tm16  1  0.660814  0.165851  0.376945  1
  Tm  Tm17  1  0.160814  0.334149  0.123055  1
  Tm  Tm18  1  0.662241  0.165626  0.122497  1
  Tm  Tm19  1  0.162241  0.334374  0.377503  1
  Pt  Pt20  1  0.327359  0.041827  0.042612  1
  Pt  Pt21  1  0.827359  0.458173  0.457388  1
  Pt  Pt22  1  0.674603  0.958651  0.540221  1
  Pt  Pt23  1  0.174603  0.541349  0.959779  1
  Pt  Pt24  1  0.665929  0.966119  0.958490  1
  Pt  Pt25  1  0.165929  0.533881  0.541510  1
  Pt  Pt26  1  0.334089  0.043954  0.455757  1
  Pt  Pt27  1  0.834089  0.456046  0.044243  1
  Pt  Pt28  1  0.542949  0.629211  0.752117  1
  Pt  Pt29  1  0.042949  0.870789  0.747883  1
  Pt  Pt30  1  0.457890  0.368980  0.249191  1
  Pt  Pt31  1  0.957890  0.131020  0.250809  1
  Pt  Pt32  1  0.301730  0.128785  0.753236  1
  Pt  Pt33  1  0.801730  0.371215  0.746764  1
  Pt  Pt34  1  0.696620  0.874449  0.249839  1
  Pt  Pt35  1  0.196620  0.625551  0.250161  1
