# generated using pymatgen
data_La20TcNi3Sb8
_symmetry_space_group_name_H-M   'P 1'
_cell_length_a   8.37918875
_cell_length_b   9.24119500
_cell_length_c   12.82799344
_cell_angle_alpha   90.00000000
_cell_angle_beta   90.39613727
_cell_angle_gamma   90.00000000
_symmetry_Int_Tables_number   1
_chemical_formula_structural   La20TcNi3Sb8
_chemical_formula_sum   'La20 Tc1 Ni3 Sb8'
_cell_volume   993.29547420
_cell_formula_units_Z   1
loop_
 _symmetry_equiv_pos_site_id
 _symmetry_equiv_pos_as_xyz
  1  'x, y, z'
loop_
 _atom_site_type_symbol
 _atom_site_label
 _atom_site_symmetry_multiplicity
 _atom_site_fract_x
 _atom_site_fract_y
 _atom_site_fract_z
 _atom_site_occupancy
  La  La0  1  0.157191  0.750000  0.209751  1
  La  La1  1  0.353243  0.750000  0.702997  1
  La  La2  1  0.848738  0.250000  0.795229  1
  La  La3  1  0.652759  0.250000  0.295143  1
  La  La4  1  0.451006  0.750000  0.996079  1
  La  La5  1  0.042119  0.750000  0.497461  1
  La  La6  1  0.543253  0.250000  0.002523  1
  La  La7  1  0.950250  0.250000  0.504960  1
  La  La8  1  0.625498  0.750000  0.303148  1
  La  La9  1  0.871300  0.750000  0.802442  1
  La  La10  1  0.368778  0.250000  0.701138  1
  La  La11  1  0.130396  0.250000  0.197608  1
  La  La12  1  0.814129  0.531474  0.060809  1
  La  La13  1  0.684288  0.959317  0.563341  1
  La  La14  1  0.186840  0.031495  0.937824  1
  La  La15  1  0.316263  0.469691  0.434745  1
  La  La16  1  0.186840  0.468505  0.937824  1
  La  La17  1  0.316263  0.030309  0.434745  1
  La  La18  1  0.814129  0.968526  0.060809  1
  La  La19  1  0.684288  0.540683  0.563341  1
  Tc  Tc20  1  0.408999  0.750000  0.484008  1
  Ni  Ni21  1  0.069390  0.750000  0.992581  1
  Ni  Ni22  1  0.582520  0.250000  0.514066  1
  Ni  Ni23  1  0.933663  0.250000  0.010497  1
  Sb  Sb24  1  0.925832  0.504732  0.325844  1
  Sb  Sb25  1  0.576536  0.995189  0.826423  1
  Sb  Sb26  1  0.073772  0.005459  0.674619  1
  Sb  Sb27  1  0.427789  0.494276  0.171579  1
  Sb  Sb28  1  0.073772  0.494541  0.674619  1
  Sb  Sb29  1  0.427789  0.005724  0.171579  1
  Sb  Sb30  1  0.925832  0.995268  0.325844  1
  Sb  Sb31  1  0.576536  0.504811  0.826423  1
