# generated using pymatgen
data_La3TaN3
_symmetry_space_group_name_H-M   'P 1'
_cell_length_a   6.98343294
_cell_length_b   5.45711600
_cell_length_c   6.98376419
_cell_angle_alpha   90.00000000
_cell_angle_beta   98.76071873
_cell_angle_gamma   90.00000000
_symmetry_Int_Tables_number   1
_chemical_formula_structural   La3TaN3
_chemical_formula_sum   'La6 Ta2 N6'
_cell_volume   263.04195946
_cell_formula_units_Z   2
loop_
 _symmetry_equiv_pos_site_id
 _symmetry_equiv_pos_as_xyz
  1  'x, y, z'
loop_
 _atom_site_type_symbol
 _atom_site_label
 _atom_site_symmetry_multiplicity
 _atom_site_fract_x
 _atom_site_fract_y
 _atom_site_fract_z
 _atom_site_occupancy
  La  La0  1  0.890853  0.250000  0.109220  1
  La  La1  1  0.405904  0.250000  0.171503  1
  La  La2  1  0.171644  0.749999  0.405884  1
  La  La3  1  0.828356  0.250000  0.594116  1
  La  La4  1  0.594095  0.749999  0.828497  1
  La  La5  1  0.109146  0.749999  0.890780  1
  Ta  Ta6  1  0.683107  0.749999  0.316929  1
  Ta  Ta7  1  0.316892  0.250000  0.683071  1
  N  N8  1  0.871418  0.749999  0.128704  1
  N  N9  1  0.414560  0.749999  0.155258  1
  N  N10  1  0.155319  0.250000  0.414534  1
  N  N11  1  0.844681  0.749999  0.585465  1
  N  N12  1  0.585441  0.250000  0.844742  1
  N  N13  1  0.128582  0.250000  0.871297  1
