# generated using pymatgen
data_CdPt2AuO7
_symmetry_space_group_name_H-M   'P 1'
_cell_length_a   7.22169389
_cell_length_b   7.22169464
_cell_length_c   7.09007000
_cell_angle_alpha   60.60111107
_cell_angle_beta   60.60110773
_cell_angle_gamma   61.14050009
_symmetry_Int_Tables_number   1
_chemical_formula_structural   CdPt2AuO7
_chemical_formula_sum   'Cd2 Pt4 Au2 O14'
_cell_volume   266.05558029
_cell_formula_units_Z   2
loop_
 _symmetry_equiv_pos_site_id
 _symmetry_equiv_pos_as_xyz
  1  'x, y, z'
loop_
 _atom_site_type_symbol
 _atom_site_label
 _atom_site_symmetry_multiplicity
 _atom_site_fract_x
 _atom_site_fract_y
 _atom_site_fract_z
 _atom_site_occupancy
  Cd  Cd0  1  0.625000  0.125000  0.625000  1
  Cd  Cd1  1  0.125000  0.625000  0.625000  1
  Pt  Pt2  1  0.625000  0.125000  0.125000  1
  Pt  Pt3  1  0.125000  0.125000  0.125000  1
  Pt  Pt4  1  0.125000  0.625000  0.125000  1
  Pt  Pt5  1  0.125000  0.125000  0.625000  1
  Au  Au6  1  0.625000  0.625000  0.125000  1
  Au  Au7  1  0.625000  0.625000  0.625000  1
  O  O8  1  0.039971  0.457901  0.460973  1
  O  O9  1  0.798537  0.798537  0.201463  1
  O  O10  1  0.792099  0.210029  0.208846  1
  O  O11  1  0.039971  0.457901  0.041154  1
  O  O12  1  0.457901  0.039971  0.460973  1
  O  O13  1  0.726929  0.726929  0.773071  1
  O  O14  1  0.035235  0.035235  0.464765  1
  O  O15  1  0.792099  0.210029  0.789027  1
  O  O16  1  0.523071  0.523071  0.476929  1
  O  O17  1  0.214765  0.214765  0.785235  1
  O  O18  1  0.210029  0.792099  0.208846  1
  O  O19  1  0.457901  0.039971  0.041154  1
  O  O20  1  0.451463  0.451463  0.048537  1
  O  O21  1  0.210029  0.792099  0.789027  1
