# generated using pymatgen
data_La2TaFe5Ge4
_symmetry_space_group_name_H-M   'P 1'
_cell_length_a   4.12783100
_cell_length_b   4.12783031
_cell_length_c   14.19795700
_cell_angle_alpha   90.00000000
_cell_angle_beta   90.00000000
_cell_angle_gamma   119.99999752
_symmetry_Int_Tables_number   1
_chemical_formula_structural   La2TaFe5Ge4
_chemical_formula_sum   'La2 Ta1 Fe5 Ge4'
_cell_volume   209.50782246
_cell_formula_units_Z   1
loop_
 _symmetry_equiv_pos_site_id
 _symmetry_equiv_pos_as_xyz
  1  'x, y, z'
loop_
 _atom_site_type_symbol
 _atom_site_label
 _atom_site_symmetry_multiplicity
 _atom_site_fract_x
 _atom_site_fract_y
 _atom_site_fract_z
 _atom_site_occupancy
  La  La0  1  0.000000  0.000000  0.252088  1
  La  La1  1  0.000000  0.000000  0.747912  1
  Ta  Ta2  1  0.000000  0.000000  0.000000  1
  Fe  Fe3  1  0.666667  0.333334  0.061065  1
  Fe  Fe4  1  0.666667  0.333334  0.436504  1
  Fe  Fe5  1  0.000000  0.000000  0.500000  1
  Fe  Fe6  1  0.333334  0.666667  0.563497  1
  Fe  Fe7  1  0.333334  0.666667  0.938935  1
  Ge  Ge8  1  0.333334  0.666667  0.112931  1
  Ge  Ge9  1  0.333334  0.666667  0.393751  1
  Ge  Ge10  1  0.666667  0.333334  0.606249  1
  Ge  Ge11  1  0.666667  0.333334  0.887069  1
