# generated using pymatgen
data_MgGa6Rh7
_symmetry_space_group_name_H-M   'P 1'
_cell_length_a   6.81080447
_cell_length_b   6.81080454
_cell_length_c   6.81080500
_cell_angle_alpha   113.43230940
_cell_angle_beta   113.43230964
_cell_angle_gamma   113.43229705
_symmetry_Int_Tables_number   1
_chemical_formula_structural   MgGa6Rh7
_chemical_formula_sum   'Mg1 Ga6 Rh7'
_cell_volume   199.76754650
_cell_formula_units_Z   1
loop_
 _symmetry_equiv_pos_site_id
 _symmetry_equiv_pos_as_xyz
  1  'x, y, z'
loop_
 _atom_site_type_symbol
 _atom_site_label
 _atom_site_symmetry_multiplicity
 _atom_site_fract_x
 _atom_site_fract_y
 _atom_site_fract_z
 _atom_site_occupancy
  Mg  Mg0  1  0.500000  0.500000  0.500000  1
  Ga  Ga1  1  0.363435  0.224136  0.943563  1
  Ga  Ga2  1  0.943563  0.363435  0.224136  1
  Ga  Ga3  1  0.224136  0.943563  0.363435  1
  Ga  Ga4  1  0.636565  0.775864  0.056437  1
  Ga  Ga5  1  0.056437  0.636565  0.775864  1
  Ga  Ga6  1  0.775864  0.056437  0.636565  1
  Rh  Rh7  1  0.000000  0.000000  0.000000  1
  Rh  Rh8  1  0.866036  0.720170  0.426010  1
  Rh  Rh9  1  0.426010  0.866036  0.720170  1
  Rh  Rh10  1  0.720170  0.426010  0.866036  1
  Rh  Rh11  1  0.133964  0.279830  0.573990  1
  Rh  Rh12  1  0.573990  0.133964  0.279830  1
  Rh  Rh13  1  0.279830  0.573990  0.133964  1
