# generated using pymatgen
data_Tb3Al10Si2OsRu3
_symmetry_space_group_name_H-M   'P 1'
_cell_length_a   8.69452276
_cell_length_b   8.69452335
_cell_length_c   9.63659800
_cell_angle_alpha   90.00000000
_cell_angle_beta   90.00000000
_cell_angle_gamma   120.03855948
_symmetry_Int_Tables_number   1
_chemical_formula_structural   Tb3Al10Si2OsRu3
_chemical_formula_sum   'Tb6 Al20 Si4 Os2 Ru6'
_cell_volume   630.63348110
_cell_formula_units_Z   2
loop_
 _symmetry_equiv_pos_site_id
 _symmetry_equiv_pos_as_xyz
  1  'x, y, z'
loop_
 _atom_site_type_symbol
 _atom_site_label
 _atom_site_symmetry_multiplicity
 _atom_site_fract_x
 _atom_site_fract_y
 _atom_site_fract_z
 _atom_site_occupancy
  Tb  Tb0  1  0.196794  0.389179  0.250000  1
  Tb  Tb1  1  0.803206  0.610821  0.750000  1
  Tb  Tb2  1  0.610821  0.803206  0.250000  1
  Tb  Tb3  1  0.389179  0.196794  0.750000  1
  Tb  Tb4  1  0.194748  0.805252  0.250000  1
  Tb  Tb5  1  0.805252  0.194748  0.750000  1
  Al  Al6  1  0.164568  0.330475  0.576633  1
  Al  Al7  1  0.835432  0.669525  0.423367  1
  Al  Al8  1  0.669525  0.835432  0.576633  1
  Al  Al9  1  0.835432  0.669525  0.076633  1
  Al  Al10  1  0.330475  0.164568  0.423367  1
  Al  Al11  1  0.164568  0.330475  0.923367  1
  Al  Al12  1  0.164894  0.835106  0.577376  1
  Al  Al13  1  0.330475  0.164568  0.076633  1
  Al  Al14  1  0.835106  0.164894  0.422624  1
  Al  Al15  1  0.669525  0.835432  0.923367  1
  Al  Al16  1  0.835106  0.164894  0.077376  1
  Al  Al17  1  0.164894  0.835106  0.922624  1
  Al  Al18  1  0.563633  0.126139  0.250000  1
  Al  Al19  1  0.436367  0.873861  0.750000  1
  Al  Al20  1  0.873861  0.436367  0.250000  1
  Al  Al21  1  0.126139  0.563633  0.750000  1
  Al  Al22  1  0.564775  0.435225  0.250000  1
  Al  Al23  1  0.435225  0.564775  0.750000  1
  Al  Al24  1  0.000003  0.999997  0.250000  1
  Al  Al25  1  0.999997  0.000003  0.750000  1
  Si  Si26  1  0.333381  0.666619  0.036510  1
  Si  Si27  1  0.666619  0.333381  0.963490  1
  Si  Si28  1  0.666619  0.333381  0.536510  1
  Si  Si29  1  0.333381  0.666619  0.463490  1
  Os  Os30  1  0.500000  0.500000  0.000000  1
  Os  Os31  1  0.500000  0.500000  0.500000  1
  Ru  Ru32  1  0.500000  0.000000  0.000000  1
  Ru  Ru33  1  0.000000  0.500000  0.000000  1
  Ru  Ru34  1  0.500000  0.000000  0.500000  1
  Ru  Ru35  1  0.000000  0.500000  0.500000  1
  Ru  Ru36  1  0.000000  0.000000  0.000000  1
  Ru  Ru37  1  0.000000  0.000000  0.500000  1
