# generated using pymatgen
data_Cs8Sm6CoBr20
_symmetry_space_group_name_H-M   'P 1'
_cell_length_a   12.69143241
_cell_length_b   12.69143136
_cell_length_c   12.69143100
_cell_angle_alpha   59.99999834
_cell_angle_beta   60.00000108
_cell_angle_gamma   59.99999798
_symmetry_Int_Tables_number   1
_chemical_formula_structural   Cs8Sm6CoBr20
_chemical_formula_sum   'Cs8 Sm6 Co1 Br20'
_cell_volume   1445.49579750
_cell_formula_units_Z   1
loop_
 _symmetry_equiv_pos_site_id
 _symmetry_equiv_pos_as_xyz
  1  'x, y, z'
loop_
 _atom_site_type_symbol
 _atom_site_label
 _atom_site_symmetry_multiplicity
 _atom_site_fract_x
 _atom_site_fract_y
 _atom_site_fract_z
 _atom_site_occupancy
  Cs  Cs0  1  0.359328  0.359328  0.359328  1
  Cs  Cs1  1  0.640672  0.640672  0.640672  1
  Cs  Cs2  1  0.359328  0.359328  0.922016  1
  Cs  Cs3  1  0.359328  0.922016  0.359328  1
  Cs  Cs4  1  0.640672  0.640672  0.077984  1
  Cs  Cs5  1  0.640672  0.077984  0.640672  1
  Cs  Cs6  1  0.922016  0.359328  0.359328  1
  Cs  Cs7  1  0.077984  0.640672  0.640672  1
  Sm  Sm8  1  0.846518  0.153482  0.153482  1
  Sm  Sm9  1  0.153482  0.846518  0.846518  1
  Sm  Sm10  1  0.153482  0.846518  0.153482  1
  Sm  Sm11  1  0.846518  0.153482  0.846518  1
  Sm  Sm12  1  0.153482  0.153482  0.846518  1
  Sm  Sm13  1  0.846518  0.846518  0.153482  1
  Co  Co14  1  0.000000  0.000000  0.000000  1
  Br  Br15  1  0.328074  0.000000  0.000000  1
  Br  Br16  1  0.671926  0.000000  0.000000  1
  Br  Br17  1  0.000000  0.328074  0.671926  1
  Br  Br18  1  0.000000  0.671926  0.328074  1
  Br  Br19  1  0.000000  0.328074  0.000000  1
  Br  Br20  1  0.671926  0.000000  0.328074  1
  Br  Br21  1  0.000000  0.671926  0.000000  1
  Br  Br22  1  0.328074  0.000000  0.671926  1
  Br  Br23  1  0.000000  0.000000  0.328074  1
  Br  Br24  1  0.000000  0.000000  0.671926  1
  Br  Br25  1  0.671926  0.328074  0.000000  1
  Br  Br26  1  0.328074  0.671926  0.000000  1
  Br  Br27  1  0.681979  0.318021  0.318021  1
  Br  Br28  1  0.318021  0.681979  0.681979  1
  Br  Br29  1  0.318021  0.681979  0.318021  1
  Br  Br30  1  0.681979  0.318021  0.681979  1
  Br  Br31  1  0.318021  0.318021  0.681979  1
  Br  Br32  1  0.681979  0.681979  0.318021  1
  Br  Br33  1  0.250000  0.250000  0.250000  1
  Br  Br34  1  0.750000  0.750000  0.750000  1
