# generated using pymatgen
data_Nd12CuIr2Os
_symmetry_space_group_name_H-M   'P 1'
_cell_length_a   6.54574772
_cell_length_b   7.36980197
_cell_length_c   9.88843100
_cell_angle_alpha   90.00000000
_cell_angle_beta   90.00000000
_cell_angle_gamma   90.08346872
_symmetry_Int_Tables_number   1
_chemical_formula_structural   Nd12CuIr2Os
_chemical_formula_sum   'Nd12 Cu1 Ir2 Os1'
_cell_volume   477.02595347
_cell_formula_units_Z   1
loop_
 _symmetry_equiv_pos_site_id
 _symmetry_equiv_pos_as_xyz
  1  'x, y, z'
loop_
 _atom_site_type_symbol
 _atom_site_label
 _atom_site_symmetry_multiplicity
 _atom_site_fract_x
 _atom_site_fract_y
 _atom_site_fract_z
 _atom_site_occupancy
  Nd  Nd0  1  0.335002  0.673654  0.064682  1
  Nd  Nd1  1  0.173563  0.180214  0.436471  1
  Nd  Nd2  1  0.671159  0.323847  0.562620  1
  Nd  Nd3  1  0.829563  0.824400  0.931704  1
  Nd  Nd4  1  0.671159  0.323847  0.937380  1
  Nd  Nd5  1  0.829563  0.824400  0.568296  1
  Nd  Nd6  1  0.335002  0.673654  0.435318  1
  Nd  Nd7  1  0.173563  0.180214  0.063529  1
  Nd  Nd8  1  0.857666  0.523514  0.250000  1
  Nd  Nd9  1  0.631056  0.038826  0.250000  1
  Nd  Nd10  1  0.139614  0.463644  0.750000  1
  Nd  Nd11  1  0.358056  0.964302  0.750000  1
  Cu  Cu12  1  0.059433  0.885880  0.250000  1
  Ir  Ir13  1  0.937434  0.118765  0.750000  1
  Ir  Ir14  1  0.559621  0.617098  0.750000  1
  Os  Os15  1  0.438548  0.383743  0.250000  1
