# generated using pymatgen
data_Ca10HoTcN10
_symmetry_space_group_name_H-M   'P 1'
_cell_length_a   7.08094650
_cell_length_b   7.08094579
_cell_length_c   8.95301419
_cell_angle_alpha   80.44335630
_cell_angle_beta   80.44334672
_cell_angle_gamma   59.77428694
_symmetry_Int_Tables_number   1
_chemical_formula_structural   Ca10HoTcN10
_chemical_formula_sum   'Ca10 Ho1 Tc1 N10'
_cell_volume   380.69589310
_cell_formula_units_Z   1
loop_
 _symmetry_equiv_pos_site_id
 _symmetry_equiv_pos_as_xyz
  1  'x, y, z'
loop_
 _atom_site_type_symbol
 _atom_site_label
 _atom_site_symmetry_multiplicity
 _atom_site_fract_x
 _atom_site_fract_y
 _atom_site_fract_z
 _atom_site_occupancy
  Ca  Ca0  1  0.874482  0.360740  0.823136  1
  Ca  Ca1  1  0.873464  0.873464  0.810965  1
  Ca  Ca2  1  0.736705  0.736705  0.530710  1
  Ca  Ca3  1  0.744558  0.259946  0.513943  1
  Ca  Ca4  1  0.623371  0.139463  0.149894  1
  Ca  Ca5  1  0.360740  0.874482  0.823136  1
  Ca  Ca6  1  0.259946  0.744558  0.513943  1
  Ca  Ca7  1  0.241010  0.241010  0.503255  1
  Ca  Ca8  1  0.141189  0.141189  0.160168  1
  Ca  Ca9  1  0.139463  0.623371  0.149894  1
  Ho  Ho10  1  0.369321  0.369321  0.783812  1
  Tc  Tc11  1  0.632143  0.632143  0.228605  1
  N  N12  1  0.898445  0.475255  0.315710  1
  N  N13  1  0.992178  0.992178  0.025252  1
  N  N14  1  0.674687  0.674687  0.024368  1
  N  N15  1  0.552780  0.552780  0.682757  1
  N  N16  1  0.475255  0.898445  0.315710  1
  N  N17  1  0.553891  0.064288  0.660021  1
  N  N18  1  0.478708  0.478708  0.297176  1
  N  N19  1  0.314981  0.314981  0.030215  1
  N  N20  1  0.060684  0.060684  0.643116  1
  N  N21  1  0.064288  0.553891  0.660021  1
