# generated using pymatgen
data_Pr3Ti(Co4P3)2
_symmetry_space_group_name_H-M   'P 1'
_cell_length_a   3.78609700
_cell_length_b   10.80783000
_cell_length_c   12.54157500
_cell_angle_alpha   90.00000000
_cell_angle_beta   90.00000000
_cell_angle_gamma   90.00000000
_symmetry_Int_Tables_number   1
_chemical_formula_structural   Pr3Ti(Co4P3)2
_chemical_formula_sum   'Pr6 Ti2 Co16 P12'
_cell_volume   513.19488715
_cell_formula_units_Z   2
loop_
 _symmetry_equiv_pos_site_id
 _symmetry_equiv_pos_as_xyz
  1  'x, y, z'
loop_
 _atom_site_type_symbol
 _atom_site_label
 _atom_site_symmetry_multiplicity
 _atom_site_fract_x
 _atom_site_fract_y
 _atom_site_fract_z
 _atom_site_occupancy
  Pr  Pr0  1  0.000000  0.500000  0.524407  1
  Pr  Pr1  1  0.500000  0.000000  0.475593  1
  Pr  Pr2  1  0.500000  0.819642  0.204900  1
  Pr  Pr3  1  0.500000  0.180358  0.204900  1
  Pr  Pr4  1  0.000000  0.680358  0.795100  1
  Pr  Pr5  1  0.000000  0.319642  0.795100  1
  Ti  Ti6  1  0.500000  0.500000  0.150297  1
  Ti  Ti7  1  0.000000  0.000000  0.849703  1
  Co  Co8  1  0.500000  0.500000  0.704594  1
  Co  Co9  1  0.000000  0.000000  0.295406  1
  Co  Co10  1  0.000000  0.500000  0.988473  1
  Co  Co11  1  0.500000  0.000000  0.011527  1
  Co  Co12  1  0.500000  0.332422  0.994884  1
  Co  Co13  1  0.500000  0.667578  0.994884  1
  Co  Co14  1  0.000000  0.167578  0.005116  1
  Co  Co15  1  0.000000  0.832422  0.005116  1
  Co  Co16  1  0.500000  0.296024  0.431551  1
  Co  Co17  1  0.500000  0.703976  0.431551  1
  Co  Co18  1  0.000000  0.203976  0.568449  1
  Co  Co19  1  0.000000  0.796024  0.568449  1
  Co  Co20  1  0.500000  0.880941  0.707021  1
  Co  Co21  1  0.500000  0.119059  0.707021  1
  Co  Co22  1  0.000000  0.619059  0.292979  1
  Co  Co23  1  0.000000  0.380941  0.292979  1
  P  P24  1  0.500000  0.500000  0.888004  1
  P  P25  1  0.000000  0.000000  0.111996  1
  P  P26  1  0.500000  0.500000  0.346927  1
  P  P27  1  0.000000  0.000000  0.653073  1
  P  P28  1  0.500000  0.304800  0.613652  1
  P  P29  1  0.500000  0.695200  0.613652  1
  P  P30  1  0.000000  0.195200  0.386348  1
  P  P31  1  0.000000  0.804800  0.386348  1
  P  P32  1  0.500000  0.845065  0.895684  1
  P  P33  1  0.500000  0.154935  0.895684  1
  P  P34  1  0.000000  0.654935  0.104316  1
  P  P35  1  0.000000  0.345065  0.104316  1
