# generated using pymatgen
data_Li2YHo15(InRh2)2
_symmetry_space_group_name_H-M   'P 1'
_cell_length_a   9.61000870
_cell_length_b   9.61000868
_cell_length_c   9.63718200
_cell_angle_alpha   59.90642628
_cell_angle_beta   59.90642633
_cell_angle_gamma   59.86615569
_symmetry_Int_Tables_number   1
_chemical_formula_structural   Li2YHo15(InRh2)2
_chemical_formula_sum   'Li2 Y1 Ho15 In2 Rh4'
_cell_volume   627.80813508
_cell_formula_units_Z   1
loop_
 _symmetry_equiv_pos_site_id
 _symmetry_equiv_pos_as_xyz
  1  'x, y, z'
loop_
 _atom_site_type_symbol
 _atom_site_label
 _atom_site_symmetry_multiplicity
 _atom_site_fract_x
 _atom_site_fract_y
 _atom_site_fract_z
 _atom_site_occupancy
  Li  Li0  1  0.822915  0.822915  0.825449  1
  Li  Li1  1  0.822915  0.822915  0.528723  1
  Y  Y2  1  0.185502  0.185502  0.814498  1
  Ho  Ho3  1  0.599136  0.599136  0.200829  1
  Ho  Ho4  1  0.438614  0.061763  0.438745  1
  Ho  Ho5  1  0.441755  0.441755  0.058245  1
  Ho  Ho6  1  0.813089  0.186047  0.814092  1
  Ho  Ho7  1  0.186047  0.813089  0.186773  1
  Ho  Ho8  1  0.438614  0.061763  0.060878  1
  Ho  Ho9  1  0.186047  0.813089  0.814092  1
  Ho  Ho10  1  0.061763  0.438614  0.060878  1
  Ho  Ho11  1  0.812154  0.812154  0.187846  1
  Ho  Ho12  1  0.207544  0.597692  0.597381  1
  Ho  Ho13  1  0.061763  0.438614  0.438745  1
  Ho  Ho14  1  0.066309  0.066309  0.433691  1
  Ho  Ho15  1  0.813089  0.186047  0.186773  1
  Ho  Ho16  1  0.597692  0.207544  0.597381  1
  Ho  Ho17  1  0.599136  0.599136  0.600899  1
  In  In18  1  0.506251  0.833981  0.829884  1
  In  In19  1  0.833981  0.506251  0.829884  1
  Rh  Rh20  1  0.395281  0.823359  0.390680  1
  Rh  Rh21  1  0.393523  0.393523  0.389627  1
  Rh  Rh22  1  0.823359  0.395281  0.390680  1
  Rh  Rh23  1  0.393523  0.393523  0.823327  1
