# generated using pymatgen
data_Tb13Dy4Th3Sn16
_symmetry_space_group_name_H-M   'P 1'
_cell_length_a   8.11073623
_cell_length_b   8.23417515
_cell_length_c   15.56257700
_cell_angle_alpha   90.05687011
_cell_angle_beta   90.13109735
_cell_angle_gamma   89.92464398
_symmetry_Int_Tables_number   1
_chemical_formula_structural   Tb13Dy4Th3Sn16
_chemical_formula_sum   'Tb13 Dy4 Th3 Sn16'
_cell_volume   1039.34604303
_cell_formula_units_Z   1
loop_
 _symmetry_equiv_pos_site_id
 _symmetry_equiv_pos_as_xyz
  1  'x, y, z'
loop_
 _atom_site_type_symbol
 _atom_site_label
 _atom_site_symmetry_multiplicity
 _atom_site_fract_x
 _atom_site_fract_y
 _atom_site_fract_z
 _atom_site_occupancy
  Tb  Tb0  1  0.367018  0.834830  0.878368  1
  Tb  Tb1  1  0.866568  0.664992  0.622463  1
  Tb  Tb2  1  0.633742  0.163978  0.377058  1
  Tb  Tb3  1  0.132916  0.336414  0.122380  1
  Tb  Tb4  1  0.633090  0.162587  0.122495  1
  Tb  Tb5  1  0.134056  0.337440  0.377439  1
  Tb  Tb6  1  0.366329  0.837232  0.622604  1
  Tb  Tb7  1  0.867514  0.662674  0.877853  1
  Tb  Tb8  1  0.525639  0.322302  0.900512  1
  Tb  Tb9  1  0.024861  0.177358  0.599755  1
  Tb  Tb10  1  0.476348  0.677741  0.400966  1
  Tb  Tb11  1  0.976318  0.821572  0.100053  1
  Tb  Tb12  1  0.478856  0.677378  0.097552  1
  Dy  Dy13  1  0.196820  0.500566  0.750460  1
  Dy  Dy14  1  0.696252  0.999261  0.749791  1
  Dy  Dy15  1  0.802578  0.500351  0.249467  1
  Dy  Dy16  1  0.302939  0.001793  0.248877  1
  Th  Th17  1  0.981540  0.819529  0.402516  1
  Th  Th18  1  0.518162  0.320630  0.596478  1
  Th  Th19  1  0.018813  0.179523  0.904222  1
  Sn  Sn20  1  0.291511  0.032867  0.042702  1
  Sn  Sn21  1  0.791827  0.466647  0.457144  1
  Sn  Sn22  1  0.709112  0.967371  0.542438  1
  Sn  Sn23  1  0.210767  0.532742  0.957456  1
  Sn  Sn24  1  0.705466  0.961642  0.958631  1
  Sn  Sn25  1  0.204495  0.540017  0.540785  1
  Sn  Sn26  1  0.295013  0.039174  0.459213  1
  Sn  Sn27  1  0.792482  0.462509  0.041306  1
  Sn  Sn28  1  0.563491  0.621145  0.749004  1
  Sn  Sn29  1  0.063957  0.879741  0.751320  1
  Sn  Sn30  1  0.436196  0.380189  0.249743  1
  Sn  Sn31  1  0.935669  0.120468  0.251037  1
  Sn  Sn32  1  0.328280  0.145048  0.751633  1
  Sn  Sn33  1  0.828885  0.355140  0.748262  1
  Sn  Sn34  1  0.668862  0.852583  0.249800  1
  Sn  Sn35  1  0.173630  0.644565  0.248215  1
