# generated using pymatgen
data_Pr8Nb12Si15Ge
_symmetry_space_group_name_H-M   'P 1'
_cell_length_a   7.03051312
_cell_length_b   7.26044253
_cell_length_c   13.67750225
_cell_angle_alpha   90.03821645
_cell_angle_beta   89.94098776
_cell_angle_gamma   90.02490138
_symmetry_Int_Tables_number   1
_chemical_formula_structural   Pr8Nb12Si15Ge
_chemical_formula_sum   'Pr8 Nb12 Si15 Ge1'
_cell_volume   698.16253906
_cell_formula_units_Z   1
loop_
 _symmetry_equiv_pos_site_id
 _symmetry_equiv_pos_as_xyz
  1  'x, y, z'
loop_
 _atom_site_type_symbol
 _atom_site_label
 _atom_site_symmetry_multiplicity
 _atom_site_fract_x
 _atom_site_fract_y
 _atom_site_fract_z
 _atom_site_occupancy
  Pr  Pr0  1  0.504761  0.331413  0.095963  1
  Pr  Pr1  1  0.003908  0.168405  0.403626  1
  Pr  Pr2  1  0.498006  0.670394  0.596690  1
  Pr  Pr3  1  0.995061  0.831317  0.904497  1
  Pr  Pr4  1  0.495100  0.668507  0.904372  1
  Pr  Pr5  1  0.995244  0.831597  0.596178  1
  Pr  Pr6  1  0.504989  0.330276  0.403241  1
  Pr  Pr7  1  0.004706  0.168995  0.095742  1
  Nb  Nb8  1  0.662768  0.013237  0.750201  1
  Nb  Nb9  1  0.162764  0.485974  0.752005  1
  Nb  Nb10  1  0.336888  0.986819  0.249754  1
  Nb  Nb11  1  0.837201  0.513617  0.249771  1
  Nb  Nb12  1  0.836089  0.323671  0.627067  1
  Nb  Nb13  1  0.337866  0.175632  0.873721  1
  Nb  Nb14  1  0.161883  0.675810  0.126318  1
  Nb  Nb15  1  0.661508  0.824730  0.373065  1
  Nb  Nb16  1  0.160758  0.677973  0.372009  1
  Nb  Nb17  1  0.661263  0.824159  0.126310  1
  Nb  Nb18  1  0.838145  0.324158  0.873706  1
  Nb  Nb19  1  0.340815  0.172276  0.627679  1
  Si  Si20  1  0.798877  0.612961  0.750311  1
  Si  Si21  1  0.297700  0.885723  0.750655  1
  Si  Si22  1  0.201641  0.386963  0.249680  1
  Si  Si23  1  0.701814  0.113195  0.249568  1
  Si  Si24  1  0.542958  0.369162  0.750453  1
  Si  Si25  1  0.042949  0.130900  0.750016  1
  Si  Si26  1  0.456678  0.630927  0.249795  1
  Si  Si27  1  0.956146  0.869730  0.249136  1
  Si  Si28  1  0.658037  0.041557  0.542302  1
  Si  Si29  1  0.157122  0.458998  0.957352  1
  Si  Si30  1  0.342459  0.959238  0.042711  1
  Si  Si31  1  0.838965  0.542240  0.456173  1
  Si  Si32  1  0.342259  0.958510  0.457430  1
  Si  Si33  1  0.842825  0.541037  0.042881  1
  Si  Si34  1  0.657075  0.041121  0.957291  1
  Ge  Ge35  1  0.162777  0.458779  0.542332  1
