# generated using pymatgen
data_Y8MoOs(RuC4)2
_symmetry_space_group_name_H-M   'P 1'
_cell_length_a   5.12092600
_cell_length_b   6.55569303
_cell_length_c   9.86436631
_cell_angle_alpha   90.19165952
_cell_angle_beta   90.00000000
_cell_angle_gamma   90.00000000
_symmetry_Int_Tables_number   1
_chemical_formula_structural   Y8MoOs(RuC4)2
_chemical_formula_sum   'Y8 Mo1 Os1 Ru2 C8'
_cell_volume   331.15694780
_cell_formula_units_Z   1
loop_
 _symmetry_equiv_pos_site_id
 _symmetry_equiv_pos_as_xyz
  1  'x, y, z'
loop_
 _atom_site_type_symbol
 _atom_site_label
 _atom_site_symmetry_multiplicity
 _atom_site_fract_x
 _atom_site_fract_y
 _atom_site_fract_z
 _atom_site_occupancy
  Y  Y0  1  0.250000  0.677233  0.556799  1
  Y  Y1  1  0.750000  0.319200  0.443452  1
  Y  Y2  1  0.750000  0.823304  0.055460  1
  Y  Y3  1  0.250000  0.174763  0.944079  1
  Y  Y4  1  0.250000  0.530059  0.215322  1
  Y  Y5  1  0.750000  0.469460  0.786264  1
  Y  Y6  1  0.750000  0.968621  0.713395  1
  Y  Y7  1  0.250000  0.032389  0.280576  1
  Mo  Mo8  1  0.750000  0.779514  0.366952  1
  Os  Os9  1  0.250000  0.220472  0.636089  1
  Ru  Ru10  1  0.250000  0.721248  0.863348  1
  Ru  Ru11  1  0.750000  0.278190  0.133219  1
  C  C12  1  0.250000  0.453477  0.757579  1
  C  C13  1  0.750000  0.543692  0.241316  1
  C  C14  1  0.750000  0.048158  0.259666  1
  C  C15  1  0.250000  0.957154  0.740887  1
  C  C16  1  0.250000  0.825184  0.049164  1
  C  C17  1  0.750000  0.177883  0.949311  1
  C  C18  1  0.750000  0.677453  0.555092  1
  C  C19  1  0.250000  0.322546  0.452030  1
