# generated using pymatgen
data_DyY3Al18Rh5Au
_symmetry_space_group_name_H-M   'P 1'
_cell_length_a   7.59608029
_cell_length_b   7.59602913
_cell_length_c   9.49306902
_cell_angle_alpha   89.98338226
_cell_angle_beta   89.98391951
_cell_angle_gamma   119.60079874
_symmetry_Int_Tables_number   1
_chemical_formula_structural   DyY3Al18Rh5Au
_chemical_formula_sum   'Dy1 Y3 Al18 Rh5 Au1'
_cell_volume   476.26245982
_cell_formula_units_Z   1
loop_
 _symmetry_equiv_pos_site_id
 _symmetry_equiv_pos_as_xyz
  1  'x, y, z'
loop_
 _atom_site_type_symbol
 _atom_site_label
 _atom_site_symmetry_multiplicity
 _atom_site_fract_x
 _atom_site_fract_y
 _atom_site_fract_z
 _atom_site_occupancy
  Dy  Dy0  1  0.332677  0.007634  0.249466  1
  Y  Y1  1  0.992350  0.667305  0.750577  1
  Y  Y2  1  0.002004  0.328438  0.249856  1
  Y  Y3  1  0.671498  0.997940  0.750143  1
  Al  Al4  1  0.126267  0.124272  0.751187  1
  Al  Al5  1  0.875882  0.873680  0.248813  1
  Al  Al6  1  0.011822  0.335292  0.578280  1
  Al  Al7  1  0.008603  0.675038  0.421984  1
  Al  Al8  1  0.002321  0.665982  0.073810  1
  Al  Al9  1  0.334167  0.997869  0.926519  1
  Al  Al10  1  0.000836  0.334532  0.925415  1
  Al  Al11  1  0.665306  0.999150  0.074732  1
  Al  Al12  1  0.664548  0.988193  0.421550  1
  Al  Al13  1  0.325121  0.991583  0.577680  1
  Al  Al14  1  0.331492  0.331824  0.049677  1
  Al  Al15  1  0.668018  0.668505  0.950473  1
  Al  Al16  1  0.665695  0.673020  0.557338  1
  Al  Al17  1  0.327019  0.334167  0.442485  1
  Al  Al18  1  0.340656  0.551796  0.751466  1
  Al  Al19  1  0.660145  0.458385  0.241325  1
  Al  Al20  1  0.541398  0.339552  0.758712  1
  Al  Al21  1  0.448216  0.659523  0.248531  1
  Rh  Rh22  1  0.328650  0.671416  0.499924  1
  Rh  Rh23  1  0.328487  0.671562  0.000059  1
  Rh  Rh24  1  0.672630  0.327332  0.000031  1
  Rh  Rh25  1  0.000017  0.000103  0.499933  1
  Rh  Rh26  1  0.000517  0.999635  0.000076  1
  Au  Au27  1  0.673659  0.326273  0.499959  1
