# generated using pymatgen
data_Sr5(RuO6)2
_symmetry_space_group_name_H-M   'P 1'
_cell_length_a   7.90348358
_cell_length_b   7.89982394
_cell_length_c   10.55322828
_cell_angle_alpha   111.97368902
_cell_angle_beta   111.98542969
_cell_angle_gamma   90.00826727
_symmetry_Int_Tables_number   1
_chemical_formula_structural   Sr5(RuO6)2
_chemical_formula_sum   'Sr10 Ru4 O24'
_cell_volume   559.01782224
_cell_formula_units_Z   2
loop_
 _symmetry_equiv_pos_site_id
 _symmetry_equiv_pos_as_xyz
  1  'x, y, z'
loop_
 _atom_site_type_symbol
 _atom_site_label
 _atom_site_symmetry_multiplicity
 _atom_site_fract_x
 _atom_site_fract_y
 _atom_site_fract_z
 _atom_site_occupancy
  Sr  Sr0  1  0.499907  0.499917  0.999756  1
  Sr  Sr1  1  0.999930  0.999947  0.999865  1
  Sr  Sr2  1  0.440125  0.317795  0.286300  1
  Sr  Sr3  1  0.968686  0.440123  0.286397  1
  Sr  Sr4  1  0.317739  0.846211  0.286384  1
  Sr  Sr5  1  0.846175  0.968632  0.286397  1
  Sr  Sr6  1  0.153844  0.031585  0.713616  1
  Sr  Sr7  1  0.682057  0.153817  0.713615  1
  Sr  Sr8  1  0.031507  0.559865  0.713609  1
  Sr  Sr9  1  0.559870  0.682037  0.713710  1
  Ru  Ru10  1  0.500015  0.999992  0.000016  1
  Ru  Ru11  1  0.000013  0.500027  0.000029  1
  Ru  Ru12  1  0.251314  0.251217  0.502475  1
  Ru  Ru13  1  0.748672  0.748772  0.497479  1
  O  O14  1  0.292078  0.120983  0.999975  1
  O  O15  1  0.878851  0.292033  0.999978  1
  O  O16  1  0.121147  0.708006  0.000063  1
  O  O17  1  0.707959  0.879013  0.000066  1
  O  O18  1  0.659864  0.225330  0.153935  1
  O  O19  1  0.225165  0.494079  0.154068  1
  O  O20  1  0.928797  0.659984  0.153968  1
  O  O21  1  0.494162  0.928908  0.154093  1
  O  O22  1  0.133644  0.133680  0.267268  1
  O  O23  1  0.643878  0.644001  0.287814  1
  O  O24  1  0.469815  0.181581  0.477906  1
  O  O25  1  0.008225  0.296343  0.478075  1
  O  O26  1  0.296370  0.469752  0.477965  1
  O  O27  1  0.181566  0.008152  0.477871  1
  O  O28  1  0.818410  0.991771  0.522143  1
  O  O29  1  0.703665  0.530345  0.522058  1
  O  O30  1  0.991690  0.703708  0.521954  1
  O  O31  1  0.530273  0.818409  0.522108  1
  O  O32  1  0.355975  0.355812  0.711860  1
  O  O33  1  0.866331  0.866304  0.732682  1
  O  O34  1  0.505845  0.071146  0.846018  1
  O  O35  1  0.071352  0.340167  0.846191  1
  O  O36  1  0.774817  0.505949  0.846086  1
  O  O37  1  0.340275  0.774613  0.846213  1
