# generated using pymatgen
data_Pr3Er(SiTc2)8
_symmetry_space_group_name_H-M   'P 1'
_cell_length_a   4.18278900
_cell_length_b   7.28314265
_cell_length_c   15.50121300
_cell_angle_alpha   89.94261093
_cell_angle_beta   90.00000000
_cell_angle_gamma   90.00000000
_symmetry_Int_Tables_number   1
_chemical_formula_structural   Pr3Er(SiTc2)8
_chemical_formula_sum   'Pr3 Er1 Si8 Tc16'
_cell_volume   472.22637490
_cell_formula_units_Z   1
loop_
 _symmetry_equiv_pos_site_id
 _symmetry_equiv_pos_as_xyz
  1  'x, y, z'
loop_
 _atom_site_type_symbol
 _atom_site_label
 _atom_site_symmetry_multiplicity
 _atom_site_fract_x
 _atom_site_fract_y
 _atom_site_fract_z
 _atom_site_occupancy
  Pr  Pr0  1  0.000000  0.582757  0.117228  1
  Pr  Pr1  1  0.000000  0.418125  0.881427  1
  Pr  Pr2  1  0.500000  0.080852  0.384175  1
  Er  Er3  1  0.500000  0.915737  0.617158  1
  Si  Si4  1  0.000000  0.823377  0.477299  1
  Si  Si5  1  0.000000  0.169869  0.526645  1
  Si  Si6  1  0.500000  0.322018  0.025475  1
  Si  Si7  1  0.500000  0.678857  0.973053  1
  Si  Si8  1  0.000000  0.297884  0.274049  1
  Si  Si9  1  0.000000  0.709271  0.724467  1
  Si  Si10  1  0.500000  0.797680  0.227516  1
  Si  Si11  1  0.500000  0.202838  0.770093  1
  Tc  Tc12  1  0.000000  0.136847  0.052180  1
  Tc  Tc13  1  0.000000  0.863859  0.946341  1
  Tc  Tc14  1  0.500000  0.635871  0.450206  1
  Tc  Tc15  1  0.500000  0.356702  0.554128  1
  Tc  Tc16  1  0.000000  0.730413  0.321597  1
  Tc  Tc17  1  0.000000  0.265690  0.678577  1
  Tc  Tc18  1  0.500000  0.230978  0.180541  1
  Tc  Tc19  1  0.500000  0.772245  0.817775  1
  Tc  Tc20  1  0.000000  0.434958  0.421022  1
  Tc  Tc21  1  0.000000  0.564108  0.582536  1
  Tc  Tc22  1  0.500000  0.936107  0.080547  1
  Tc  Tc23  1  0.500000  0.065063  0.917929  1
  Tc  Tc24  1  0.000000  0.993149  0.206563  1
  Tc  Tc25  1  0.000000  0.008817  0.791843  1
  Tc  Tc26  1  0.500000  0.493341  0.295153  1
  Tc  Tc27  1  0.500000  0.512585  0.704476  1
