# generated using pymatgen
data_Na3Y2Hf3(Ni4As3)4
_symmetry_space_group_name_H-M   'P 1'
_cell_length_a   12.77595241
_cell_length_b   12.77595205
_cell_length_c   3.90516500
_cell_angle_alpha   90.00000000
_cell_angle_beta   90.00000000
_cell_angle_gamma   120.20482664
_symmetry_Int_Tables_number   1
_chemical_formula_structural   Na3Y2Hf3(Ni4As3)4
_chemical_formula_sum   'Na3 Y2 Hf3 Ni16 As12'
_cell_volume   550.87936271
_cell_formula_units_Z   1
loop_
 _symmetry_equiv_pos_site_id
 _symmetry_equiv_pos_as_xyz
  1  'x, y, z'
loop_
 _atom_site_type_symbol
 _atom_site_label
 _atom_site_symmetry_multiplicity
 _atom_site_fract_x
 _atom_site_fract_y
 _atom_site_fract_z
 _atom_site_occupancy
  Na  Na0  1  0.182205  0.182205  0.500000  1
  Na  Na1  1  0.333595  0.667258  0.000000  1
  Na  Na2  1  0.667258  0.333595  0.000000  1
  Y  Y3  1  0.816741  0.000670  0.500000  1
  Y  Y4  1  0.000670  0.816741  0.500000  1
  Hf  Hf5  1  0.562007  0.562007  0.000000  1
  Hf  Hf6  1  0.436107  0.999418  0.000000  1
  Hf  Hf7  1  0.999418  0.436107  0.000000  1
  Ni  Ni8  1  0.721365  0.721365  0.500000  1
  Ni  Ni9  1  0.278358  0.999721  0.500000  1
  Ni  Ni10  1  0.999721  0.278358  0.500000  1
  Ni  Ni11  1  0.184332  0.380421  0.000000  1
  Ni  Ni12  1  0.622046  0.805594  0.000000  1
  Ni  Ni13  1  0.194663  0.819822  0.000000  1
  Ni  Ni14  1  0.805594  0.622046  0.000000  1
  Ni  Ni15  1  0.819822  0.194663  0.000000  1
  Ni  Ni16  1  0.380421  0.184332  0.000000  1
  Ni  Ni17  1  0.361143  0.480392  0.500000  1
  Ni  Ni18  1  0.518803  0.880776  0.500000  1
  Ni  Ni19  1  0.119184  0.638035  0.500000  1
  Ni  Ni20  1  0.880776  0.518803  0.500000  1
  Ni  Ni21  1  0.638035  0.119184  0.500000  1
  Ni  Ni22  1  0.480392  0.361143  0.500000  1
  Ni  Ni23  1  0.998020  0.998020  0.000000  1
  As  As24  1  0.820082  0.820082  0.000000  1
  As  As25  1  0.178715  0.002475  0.000000  1
  As  As26  1  0.002475  0.178715  0.000000  1
  As  As27  1  0.173091  0.481716  0.500000  1
  As  As28  1  0.519251  0.691905  0.500000  1
  As  As29  1  0.307556  0.826802  0.500000  1
  As  As30  1  0.691905  0.519251  0.500000  1
  As  As31  1  0.826802  0.307556  0.500000  1
  As  As32  1  0.481716  0.173091  0.500000  1
  As  As33  1  0.352566  0.352566  0.000000  1
  As  As34  1  0.644597  0.000566  0.000000  1
  As  As35  1  0.000566  0.644597  0.000000  1
