# generated using pymatgen
data_La10IrOs3
_symmetry_space_group_name_H-M   'P 1'
_cell_length_a   9.14278676
_cell_length_b   9.11946699
_cell_length_c   7.45496353
_cell_angle_alpha   84.91586132
_cell_angle_beta   84.85435270
_cell_angle_gamma   43.34873464
_symmetry_Int_Tables_number   1
_chemical_formula_structural   La10IrOs3
_chemical_formula_sum   'La10 Ir1 Os3'
_cell_volume   424.70371617
_cell_formula_units_Z   1
loop_
 _symmetry_equiv_pos_site_id
 _symmetry_equiv_pos_as_xyz
  1  'x, y, z'
loop_
 _atom_site_type_symbol
 _atom_site_label
 _atom_site_symmetry_multiplicity
 _atom_site_fract_x
 _atom_site_fract_y
 _atom_site_fract_z
 _atom_site_occupancy
  La  La0  1  0.015559  0.802151  0.907696  1
  La  La1  1  0.196011  0.988858  0.592101  1
  La  La2  1  0.990200  0.195646  0.091858  1
  La  La3  1  0.808401  0.009663  0.411445  1
  La  La4  1  0.355857  0.212572  0.820015  1
  La  La5  1  0.785351  0.644483  0.678365  1
  La  La6  1  0.642992  0.783775  0.177682  1
  La  La7  1  0.210017  0.360651  0.322792  1
  La  La8  1  0.570977  0.430941  0.747285  1
  La  La9  1  0.430974  0.570132  0.250017  1
  Ir  Ir10  1  0.597240  0.176539  0.079033  1
  Os  Os11  1  0.174807  0.602007  0.579271  1
  Os  Os12  1  0.397257  0.825384  0.922412  1
  Os  Os13  1  0.824358  0.397200  0.420030  1
