# generated using pymatgen
data_Sr3Tb(SbPt)4
_symmetry_space_group_name_H-M   'P 1'
_cell_length_a   4.71629500
_cell_length_b   7.69486284
_cell_length_c   8.02099339
_cell_angle_alpha   90.09533850
_cell_angle_beta   90.00000000
_cell_angle_gamma   90.00000000
_symmetry_Int_Tables_number   1
_chemical_formula_structural   Sr3Tb(SbPt)4
_chemical_formula_sum   'Sr3 Tb1 Sb4 Pt4'
_cell_volume   291.09141866
_cell_formula_units_Z   1
loop_
 _symmetry_equiv_pos_site_id
 _symmetry_equiv_pos_as_xyz
  1  'x, y, z'
loop_
 _atom_site_type_symbol
 _atom_site_label
 _atom_site_symmetry_multiplicity
 _atom_site_fract_x
 _atom_site_fract_y
 _atom_site_fract_z
 _atom_site_occupancy
  Sr  Sr0  1  0.250000  0.006015  0.304837  1
  Sr  Sr1  1  0.750000  0.490617  0.800556  1
  Sr  Sr2  1  0.250000  0.508378  0.199396  1
  Tb  Tb3  1  0.750000  0.989433  0.700131  1
  Sb  Sb4  1  0.750000  0.308764  0.411752  1
  Sb  Sb5  1  0.250000  0.180458  0.907694  1
  Sb  Sb6  1  0.250000  0.684886  0.591526  1
  Sb  Sb7  1  0.750000  0.814970  0.085741  1
  Pt  Pt8  1  0.250000  0.822731  0.903719  1
  Pt  Pt9  1  0.250000  0.290240  0.587130  1
  Pt  Pt10  1  0.750000  0.714945  0.429222  1
  Pt  Pt11  1  0.750000  0.188565  0.078294  1
