# generated using pymatgen
data_Cs6Tb3Bi(SbS3)6
_symmetry_space_group_name_H-M   'P 1'
_cell_length_a   13.74557706
_cell_length_b   13.74557695
_cell_length_c   9.51408086
_cell_angle_alpha   84.33951171
_cell_angle_beta   84.33951243
_cell_angle_gamma   140.21064092
_symmetry_Int_Tables_number   1
_chemical_formula_structural   Cs6Tb3Bi(SbS3)6
_chemical_formula_sum   'Cs6 Tb3 Bi1 Sb6 S18'
_cell_volume   1101.01971393
_cell_formula_units_Z   1
loop_
 _symmetry_equiv_pos_site_id
 _symmetry_equiv_pos_as_xyz
  1  'x, y, z'
loop_
 _atom_site_type_symbol
 _atom_site_label
 _atom_site_symmetry_multiplicity
 _atom_site_fract_x
 _atom_site_fract_y
 _atom_site_fract_z
 _atom_site_occupancy
  Cs  Cs0  1  0.420395  0.579605  0.500000  1
  Cs  Cs1  1  0.581118  0.418882  0.500000  1
  Cs  Cs2  1  0.015745  0.452059  0.239233  1
  Cs  Cs3  1  0.446993  0.014692  0.242305  1
  Cs  Cs4  1  0.985308  0.553007  0.757695  1
  Cs  Cs5  1  0.547941  0.984255  0.760767  1
  Tb  Tb6  1  0.423092  0.576908  0.000000  1
  Tb  Tb7  1  0.576985  0.423015  0.000000  1
  Tb  Tb8  1  0.924279  0.075721  0.500000  1
  Bi  Bi9  1  0.073554  0.926446  0.500000  1
  Sb  Sb10  1  0.034442  0.277931  0.838455  1
  Sb  Sb11  1  0.279835  0.033775  0.838074  1
  Sb  Sb12  1  0.966225  0.720165  0.161926  1
  Sb  Sb13  1  0.722069  0.965558  0.161545  1
  Sb  Sb14  1  0.871143  0.872809  0.879587  1
  Sb  Sb15  1  0.127191  0.128857  0.120413  1
  S  S16  1  0.126562  0.128571  0.621726  1
  S  S17  1  0.871429  0.873438  0.378274  1
  S  S18  1  0.809150  0.190850  0.000000  1
  S  S19  1  0.191991  0.808009  0.000000  1
  S  S20  1  0.246870  0.554771  0.843217  1
  S  S21  1  0.555980  0.247127  0.846473  1
  S  S22  1  0.752873  0.444020  0.153527  1
  S  S23  1  0.445229  0.753130  0.156783  1
  S  S24  1  0.995747  0.308257  0.600543  1
  S  S25  1  0.317988  0.998730  0.602685  1
  S  S26  1  0.001270  0.682012  0.397315  1
  S  S27  1  0.691743  0.004253  0.399457  1
  S  S28  1  0.366239  0.366488  0.887677  1
  S  S29  1  0.633512  0.633761  0.112323  1
  S  S30  1  0.696562  0.847167  0.772113  1
  S  S31  1  0.842915  0.695205  0.775741  1
  S  S32  1  0.304795  0.157085  0.224259  1
  S  S33  1  0.152833  0.303438  0.227887  1
