# generated using pymatgen
data_SrLa(Sn2Pd)2
_symmetry_space_group_name_H-M   'P 1'
_cell_length_a   9.23141973
_cell_length_b   9.23141859
_cell_length_c   9.67398700
_cell_angle_alpha   90.00000000
_cell_angle_beta   90.00000000
_cell_angle_gamma   150.06935826
_symmetry_Int_Tables_number   1
_chemical_formula_structural   SrLa(Sn2Pd)2
_chemical_formula_sum   'Sr2 La2 Sn8 Pd4'
_cell_volume   411.33966081
_cell_formula_units_Z   2
loop_
 _symmetry_equiv_pos_site_id
 _symmetry_equiv_pos_as_xyz
  1  'x, y, z'
loop_
 _atom_site_type_symbol
 _atom_site_label
 _atom_site_symmetry_multiplicity
 _atom_site_fract_x
 _atom_site_fract_y
 _atom_site_fract_z
 _atom_site_occupancy
  Sr  Sr0  1  0.500000  0.500000  0.500000  1
  Sr  Sr1  1  0.500000  0.500000  0.000000  1
  La  La2  1  0.297560  0.702440  0.250000  1
  La  La3  1  0.702440  0.297560  0.750000  1
  Sn  Sn4  1  0.910226  0.089774  0.750000  1
  Sn  Sn5  1  0.926633  0.073367  0.250000  1
  Sn  Sn6  1  0.089774  0.910226  0.250000  1
  Sn  Sn7  1  0.073367  0.926633  0.750000  1
  Sn  Sn8  1  0.696358  0.303642  0.406032  1
  Sn  Sn9  1  0.303642  0.696358  0.593968  1
  Sn  Sn10  1  0.303642  0.696358  0.906032  1
  Sn  Sn11  1  0.696358  0.303642  0.093968  1
  Pd  Pd12  1  0.151754  0.848246  0.507077  1
  Pd  Pd13  1  0.848246  0.151754  0.007077  1
  Pd  Pd14  1  0.151754  0.848246  0.992923  1
  Pd  Pd15  1  0.848246  0.151754  0.492923  1
