# generated using pymatgen
data_LuBeOs2C
_symmetry_space_group_name_H-M   'P 1'
_cell_length_a   5.61951761
_cell_length_b   5.61951671
_cell_length_c   6.98776100
_cell_angle_alpha   90.00000000
_cell_angle_beta   90.00000000
_cell_angle_gamma   140.57761588
_symmetry_Int_Tables_number   1
_chemical_formula_structural   LuBeOs2C
_chemical_formula_sum   'Lu2 Be2 Os4 C2'
_cell_volume   140.13025044
_cell_formula_units_Z   2
loop_
 _symmetry_equiv_pos_site_id
 _symmetry_equiv_pos_as_xyz
  1  'x, y, z'
loop_
 _atom_site_type_symbol
 _atom_site_label
 _atom_site_symmetry_multiplicity
 _atom_site_fract_x
 _atom_site_fract_y
 _atom_site_fract_z
 _atom_site_occupancy
  Lu  Lu0  1  0.544764  0.455236  0.250000  1
  Lu  Lu1  1  0.455236  0.544764  0.750000  1
  Be  Be2  1  0.269739  0.730261  0.250000  1
  Be  Be3  1  0.730261  0.269739  0.750000  1
  Os  Os4  1  0.824436  0.175564  0.058838  1
  Os  Os5  1  0.175564  0.824436  0.941162  1
  Os  Os6  1  0.175564  0.824436  0.558838  1
  Os  Os7  1  0.824436  0.175564  0.441162  1
  C  C8  1  0.000000  0.000000  0.000000  1
  C  C9  1  0.000000  0.000000  0.500000  1
