# generated using pymatgen
data_Nd4HoTmSi4
_symmetry_space_group_name_H-M   'P 1'
_cell_length_a   7.57244700
_cell_length_b   7.57244700
_cell_length_c   4.40169200
_cell_angle_alpha   90.00000000
_cell_angle_beta   90.00000000
_cell_angle_gamma   90.00000000
_symmetry_Int_Tables_number   1
_chemical_formula_structural   Nd4HoTmSi4
_chemical_formula_sum   'Nd4 Ho1 Tm1 Si4'
_cell_volume   252.40161828
_cell_formula_units_Z   1
loop_
 _symmetry_equiv_pos_site_id
 _symmetry_equiv_pos_as_xyz
  1  'x, y, z'
loop_
 _atom_site_type_symbol
 _atom_site_label
 _atom_site_symmetry_multiplicity
 _atom_site_fract_x
 _atom_site_fract_y
 _atom_site_fract_z
 _atom_site_occupancy
  Nd  Nd0  1  0.676278  0.177210  0.500000  1
  Nd  Nd1  1  0.323722  0.822790  0.500000  1
  Nd  Nd2  1  0.177210  0.323722  0.500000  1
  Nd  Nd3  1  0.822790  0.676278  0.500000  1
  Ho  Ho4  1  0.000000  0.000000  0.000000  1
  Tm  Tm5  1  0.500000  0.500000  0.000000  1
  Si  Si6  1  0.114447  0.614174  0.000000  1
  Si  Si7  1  0.885553  0.385826  0.000000  1
  Si  Si8  1  0.614174  0.885553  0.000000  1
  Si  Si9  1  0.385826  0.114447  0.000000  1
