# generated using pymatgen
data_SmNp3(Si5Pt3)2
_symmetry_space_group_name_H-M   'P 1'
_cell_length_a   8.20930599
_cell_length_b   8.19709306
_cell_length_c   8.19709400
_cell_angle_alpha   136.23160039
_cell_angle_beta   104.93527053
_cell_angle_gamma   91.12978003
_symmetry_Int_Tables_number   1
_chemical_formula_structural   SmNp3(Si5Pt3)2
_chemical_formula_sum   'Sm1 Np3 Si10 Pt6'
_cell_volume   350.75999437
_cell_formula_units_Z   1
loop_
 _symmetry_equiv_pos_site_id
 _symmetry_equiv_pos_as_xyz
  1  'x, y, z'
loop_
 _atom_site_type_symbol
 _atom_site_label
 _atom_site_symmetry_multiplicity
 _atom_site_fract_x
 _atom_site_fract_y
 _atom_site_fract_z
 _atom_site_occupancy
  Sm  Sm0  1  0.641792  0.371745  0.270047  1
  Np  Np1  1  0.360251  0.630124  0.730126  1
  Np  Np2  1  0.099349  0.869308  0.230041  1
  Np  Np3  1  0.900250  0.130286  0.769966  1
  Si  Si4  1  0.458415  0.109220  0.349196  1
  Si  Si5  1  0.538520  0.888263  0.650256  1
  Si  Si6  1  0.765699  0.614023  0.151674  1
  Si  Si7  1  0.235274  0.388499  0.846775  1
  Si  Si8  1  0.270620  0.520846  0.248600  1
  Si  Si9  1  0.726891  0.478448  0.751580  1
  Si  Si10  1  0.726891  0.975311  0.248444  1
  Si  Si11  1  0.270620  0.022020  0.749774  1
  Si  Si12  1  0.002980  0.246995  0.247200  1
  Si  Si13  1  0.002980  0.755779  0.755985  1
  Pt  Pt14  1  0.500339  0.250883  0.753020  1
  Pt  Pt15  1  0.500339  0.747318  0.249456  1
  Pt  Pt16  1  0.251304  0.139114  0.112190  1
  Pt  Pt17  1  0.751318  0.862869  0.888448  1
  Pt  Pt18  1  0.025631  0.636082  0.389548  1
  Pt  Pt19  1  0.970540  0.362867  0.607673  1
