# generated using pymatgen
data_HoEr19Ir7Au5
_symmetry_space_group_name_H-M   'P 1'
_cell_length_a   11.07014782
_cell_length_b   11.06947292
_cell_length_c   6.32485719
_cell_angle_alpha   89.87060862
_cell_angle_beta   89.89001454
_cell_angle_gamma   89.56389213
_symmetry_Int_Tables_number   1
_chemical_formula_structural   HoEr19Ir7Au5
_chemical_formula_sum   'Ho1 Er19 Ir7 Au5'
_cell_volume   775.02660688
_cell_formula_units_Z   1
loop_
 _symmetry_equiv_pos_site_id
 _symmetry_equiv_pos_as_xyz
  1  'x, y, z'
loop_
 _atom_site_type_symbol
 _atom_site_label
 _atom_site_symmetry_multiplicity
 _atom_site_fract_x
 _atom_site_fract_y
 _atom_site_fract_z
 _atom_site_occupancy
  Ho  Ho0  1  0.299901  0.090455  0.364320  1
  Er  Er1  1  0.302139  0.907681  0.862368  1
  Er  Er2  1  0.696815  0.079989  0.860032  1
  Er  Er3  1  0.697188  0.906264  0.361304  1
  Er  Er4  1  0.580718  0.786037  0.876062  1
  Er  Er5  1  0.575435  0.205866  0.363111  1
  Er  Er6  1  0.418438  0.789575  0.375685  1
  Er  Er7  1  0.411779  0.207210  0.878390  1
  Er  Er8  1  0.213965  0.419340  0.623924  1
  Er  Er9  1  0.210349  0.581655  0.124284  1
  Er  Er10  1  0.794162  0.424782  0.136911  1
  Er  Er11  1  0.792832  0.588446  0.621357  1
  Er  Er12  1  0.909565  0.699587  0.135408  1
  Er  Er13  1  0.920025  0.303202  0.639970  1
  Er  Er14  1  0.092148  0.697907  0.637584  1
  Er  Er15  1  0.093499  0.302976  0.138583  1
  Er  Er16  1  0.998469  0.000224  0.499326  1
  Er  Er17  1  0.999680  0.001307  0.000753  1
  Er  Er18  1  0.495979  0.502116  0.001737  1
  Er  Er19  1  0.497933  0.504042  0.498396  1
  Ir  Ir20  1  0.653025  0.651321  0.250221  1
  Ir  Ir21  1  0.348653  0.347237  0.249648  1
  Ir  Ir22  1  0.345733  0.654237  0.749992  1
  Ir  Ir23  1  0.499400  0.999288  0.112189  1
  Ir  Ir24  1  0.499317  0.000114  0.614174  1
  Ir  Ir25  1  0.999891  0.500821  0.886077  1
  Ir  Ir26  1  0.000698  0.500715  0.387860  1
  Au  Au27  1  0.841840  0.158204  0.250012  1
  Au  Au28  1  0.843751  0.845364  0.750655  1
  Au  Au29  1  0.154498  0.156291  0.749709  1
  Au  Au30  1  0.156241  0.843635  0.249920  1
  Au  Au31  1  0.655933  0.344112  0.750037  1
