# generated using pymatgen
data_Sc8Ta5Nb7Si16
_symmetry_space_group_name_H-M   'P 1'
_cell_length_a   6.71110016
_cell_length_b   6.88935707
_cell_length_c   13.14841718
_cell_angle_alpha   90.00238195
_cell_angle_beta   90.01904050
_cell_angle_gamma   90.01570511
_symmetry_Int_Tables_number   1
_chemical_formula_structural   Sc8Ta5Nb7Si16
_chemical_formula_sum   'Sc8 Ta5 Nb7 Si16'
_cell_volume   607.91918475
_cell_formula_units_Z   1
loop_
 _symmetry_equiv_pos_site_id
 _symmetry_equiv_pos_as_xyz
  1  'x, y, z'
loop_
 _atom_site_type_symbol
 _atom_site_label
 _atom_site_symmetry_multiplicity
 _atom_site_fract_x
 _atom_site_fract_y
 _atom_site_fract_z
 _atom_site_occupancy
  Sc  Sc0  1  0.500348  0.673850  0.595323  1
  Sc  Sc1  1  0.000495  0.825506  0.904517  1
  Sc  Sc2  1  0.499518  0.325384  0.095245  1
  Sc  Sc3  1  0.999577  0.174715  0.404795  1
  Sc  Sc4  1  0.499615  0.325599  0.404870  1
  Sc  Sc5  1  0.999397  0.174479  0.095290  1
  Sc  Sc6  1  0.500682  0.674498  0.904540  1
  Sc  Sc7  1  0.000297  0.825522  0.595235  1
  Ta  Ta8  1  0.661759  0.175162  0.625125  1
  Ta  Ta9  1  0.837260  0.493833  0.749834  1
  Ta  Ta10  1  0.337847  0.006030  0.749823  1
  Ta  Ta11  1  0.162424  0.506056  0.250067  1
  Ta  Ta12  1  0.662487  0.993954  0.250227  1
  Nb  Nb13  1  0.162258  0.325012  0.875005  1
  Nb  Nb14  1  0.337663  0.825095  0.124947  1
  Nb  Nb15  1  0.838069  0.674936  0.375158  1
  Nb  Nb16  1  0.337919  0.825189  0.375184  1
  Nb  Nb17  1  0.837807  0.675076  0.124981  1
  Nb  Nb18  1  0.662252  0.174937  0.874955  1
  Nb  Nb19  1  0.162541  0.324772  0.624794  1
  Si  Si20  1  0.669134  0.967905  0.460958  1
  Si  Si21  1  0.168889  0.532070  0.039386  1
  Si  Si22  1  0.331032  0.031902  0.960499  1
  Si  Si23  1  0.830416  0.467765  0.539431  1
  Si  Si24  1  0.331395  0.031839  0.539466  1
  Si  Si25  1  0.831113  0.467980  0.960524  1
  Si  Si26  1  0.668863  0.968105  0.039436  1
  Si  Si27  1  0.169063  0.532107  0.460567  1
  Si  Si28  1  0.458561  0.386422  0.750186  1
  Si  Si29  1  0.958901  0.113753  0.749824  1
  Si  Si30  1  0.541280  0.613886  0.250079  1
  Si  Si31  1  0.041293  0.886291  0.250071  1
  Si  Si32  1  0.704907  0.861422  0.749702  1
  Si  Si33  1  0.204626  0.638860  0.749854  1
  Si  Si34  1  0.295211  0.138840  0.250120  1
  Si  Si35  1  0.795102  0.361246  0.249982  1
