# generated using pymatgen
data_Ca3Np(Si3Ni5)4
_symmetry_space_group_name_H-M   'P 1'
_cell_length_a   18.78243396
_cell_length_b   3.78006500
_cell_length_c   6.68255100
_cell_angle_alpha   90.00000000
_cell_angle_beta   89.87052150
_cell_angle_gamma   90.00000000
_symmetry_Int_Tables_number   1
_chemical_formula_structural   Ca3Np(Si3Ni5)4
_chemical_formula_sum   'Ca3 Np1 Si12 Ni20'
_cell_volume   474.45203230
_cell_formula_units_Z   1
loop_
 _symmetry_equiv_pos_site_id
 _symmetry_equiv_pos_as_xyz
  1  'x, y, z'
loop_
 _atom_site_type_symbol
 _atom_site_label
 _atom_site_symmetry_multiplicity
 _atom_site_fract_x
 _atom_site_fract_y
 _atom_site_fract_z
 _atom_site_occupancy
  Ca  Ca0  1  0.642999  0.250000  0.622394  1
  Ca  Ca1  1  0.142096  0.250000  0.877275  1
  Ca  Ca2  1  0.357650  0.750000  0.377299  1
  Np  Np3  1  0.857492  0.750000  0.124881  1
  Si  Si4  1  0.913763  0.250000  0.418268  1
  Si  Si5  1  0.414139  0.250000  0.078981  1
  Si  Si6  1  0.086208  0.750000  0.579376  1
  Si  Si7  1  0.586079  0.750000  0.920117  1
  Si  Si8  1  0.737718  0.250000  0.121209  1
  Si  Si9  1  0.237937  0.250000  0.377561  1
  Si  Si10  1  0.261904  0.750000  0.877604  1
  Si  Si11  1  0.762546  0.750000  0.620422  1
  Si  Si12  1  0.926213  0.250000  0.847380  1
  Si  Si13  1  0.425560  0.250000  0.657265  1
  Si  Si14  1  0.074225  0.750000  0.157374  1
  Si  Si15  1  0.573908  0.750000  0.343593  1
  Ni  Ni16  1  0.800996  0.250000  0.813858  1
  Ni  Ni17  1  0.300192  0.250000  0.686648  1
  Ni  Ni18  1  0.200246  0.750000  0.186308  1
  Ni  Ni19  1  0.699171  0.750000  0.312062  1
  Ni  Ni20  1  0.995431  0.250000  0.135343  1
  Ni  Ni21  1  0.495396  0.250000  0.366451  1
  Ni  Ni22  1  0.004934  0.750000  0.866378  1
  Ni  Ni23  1  0.503728  0.750000  0.633925  1
  Ni  Ni24  1  0.515072  0.250000  0.884961  1
  Ni  Ni25  1  0.014732  0.250000  0.615280  1
  Ni  Ni26  1  0.484842  0.750000  0.114694  1
  Ni  Ni27  1  0.985189  0.750000  0.386257  1
  Ni  Ni28  1  0.615180  0.250000  0.141551  1
  Ni  Ni29  1  0.115863  0.250000  0.357730  1
  Ni  Ni30  1  0.383975  0.750000  0.859976  1
  Ni  Ni31  1  0.885181  0.750000  0.642847  1
  Ni  Ni32  1  0.792244  0.250000  0.430330  1
  Ni  Ni33  1  0.293149  0.250000  0.066825  1
  Ni  Ni34  1  0.207249  0.750000  0.567039  1
  Ni  Ni35  1  0.706796  0.750000  0.930538  1
