# generated using pymatgen
data_Pr6Er10Cd4TcPd3
_symmetry_space_group_name_H-M   'P 1'
_cell_length_a   9.80508455
_cell_length_b   9.80508495
_cell_length_c   9.80508351
_cell_angle_alpha   59.45903020
_cell_angle_beta   59.45902714
_cell_angle_gamma   59.45903008
_symmetry_Int_Tables_number   1
_chemical_formula_structural   Pr6Er10Cd4TcPd3
_chemical_formula_sum   'Pr6 Er10 Cd4 Tc1 Pd3'
_cell_volume   658.35681890
_cell_formula_units_Z   1
loop_
 _symmetry_equiv_pos_site_id
 _symmetry_equiv_pos_as_xyz
  1  'x, y, z'
loop_
 _atom_site_type_symbol
 _atom_site_label
 _atom_site_symmetry_multiplicity
 _atom_site_fract_x
 _atom_site_fract_y
 _atom_site_fract_z
 _atom_site_occupancy
  Pr  Pr0  1  0.936635  0.562446  0.562446  1
  Pr  Pr1  1  0.553037  0.940760  0.940760  1
  Pr  Pr2  1  0.562446  0.936635  0.562446  1
  Pr  Pr3  1  0.940760  0.553037  0.940760  1
  Pr  Pr4  1  0.562446  0.562446  0.936635  1
  Pr  Pr5  1  0.940760  0.940760  0.553037  1
  Er  Er6  1  0.352679  0.352679  0.352679  1
  Er  Er7  1  0.348572  0.348572  0.952917  1
  Er  Er8  1  0.348572  0.952917  0.348572  1
  Er  Er9  1  0.952917  0.348572  0.348572  1
  Er  Er10  1  0.820281  0.184392  0.184392  1
  Er  Er11  1  0.183316  0.812613  0.812613  1
  Er  Er12  1  0.184392  0.820281  0.184392  1
  Er  Er13  1  0.812613  0.183316  0.812613  1
  Er  Er14  1  0.184392  0.184392  0.820281  1
  Er  Er15  1  0.812613  0.812613  0.183316  1
  Cd  Cd16  1  0.578616  0.578616  0.578616  1
  Cd  Cd17  1  0.578976  0.578976  0.261043  1
  Cd  Cd18  1  0.578976  0.261043  0.578976  1
  Cd  Cd19  1  0.261043  0.578976  0.578976  1
  Tc  Tc20  1  0.143977  0.143977  0.143977  1
  Pd  Pd21  1  0.145176  0.145176  0.571631  1
  Pd  Pd22  1  0.145176  0.571631  0.145176  1
  Pd  Pd23  1  0.571631  0.145176  0.145176  1
