# generated using pymatgen
data_Tb4Y2TcPt
_symmetry_space_group_name_H-M   'P 1'
_cell_length_a   6.47341700
_cell_length_b   7.31752606
_cell_length_c   9.28886608
_cell_angle_alpha   90.01524814
_cell_angle_beta   90.00000000
_cell_angle_gamma   90.00000000
_symmetry_Int_Tables_number   1
_chemical_formula_structural   Tb4Y2TcPt
_chemical_formula_sum   'Tb8 Y4 Tc2 Pt2'
_cell_volume   440.00797536
_cell_formula_units_Z   2
loop_
 _symmetry_equiv_pos_site_id
 _symmetry_equiv_pos_as_xyz
  1  'x, y, z'
loop_
 _atom_site_type_symbol
 _atom_site_label
 _atom_site_symmetry_multiplicity
 _atom_site_fract_x
 _atom_site_fract_y
 _atom_site_fract_z
 _atom_site_occupancy
  Tb  Tb0  1  0.125035  0.040221  0.250004  1
  Tb  Tb1  1  0.625035  0.459779  0.749996  1
  Tb  Tb2  1  0.673258  0.182115  0.059169  1
  Tb  Tb3  1  0.173258  0.317885  0.940831  1
  Tb  Tb4  1  0.826337  0.674305  0.435095  1
  Tb  Tb5  1  0.326337  0.825695  0.564905  1
  Tb  Tb6  1  0.327321  0.825139  0.935455  1
  Tb  Tb7  1  0.827321  0.674861  0.064545  1
  Y  Y8  1  0.371522  0.533227  0.249734  1
  Y  Y9  1  0.871522  0.966773  0.750266  1
  Y  Y10  1  0.172852  0.318395  0.558262  1
  Y  Y11  1  0.672852  0.181605  0.441738  1
  Tc  Tc12  1  0.960743  0.390459  0.249786  1
  Tc  Tc13  1  0.460743  0.109541  0.750214  1
  Pt  Pt14  1  0.542933  0.889157  0.249962  1
  Pt  Pt15  1  0.042933  0.610843  0.750038  1
