# generated using pymatgen
data_RbGd10(C2Br9)2
_symmetry_space_group_name_H-M   'P 1'
_cell_length_a   10.75474293
_cell_length_b   10.81700336
_cell_length_c   10.98680000
_cell_angle_alpha   113.01344879
_cell_angle_beta   87.83782604
_cell_angle_gamma   118.65525852
_symmetry_Int_Tables_number   1
_chemical_formula_structural   RbGd10(C2Br9)2
_chemical_formula_sum   'Rb1 Gd10 C4 Br18'
_cell_volume   1014.43202366
_cell_formula_units_Z   1
loop_
 _symmetry_equiv_pos_site_id
 _symmetry_equiv_pos_as_xyz
  1  'x, y, z'
loop_
 _atom_site_type_symbol
 _atom_site_label
 _atom_site_symmetry_multiplicity
 _atom_site_fract_x
 _atom_site_fract_y
 _atom_site_fract_z
 _atom_site_occupancy
  Rb  Rb0  1  0.500000  0.000000  0.500000  1
  Gd  Gd1  1  0.657293  0.714996  0.699271  1
  Gd  Gd2  1  0.282087  0.367688  0.012846  1
  Gd  Gd3  1  0.094103  0.413457  0.305248  1
  Gd  Gd4  1  0.961067  0.036371  0.333809  1
  Gd  Gd5  1  0.905897  0.586543  0.694752  1
  Gd  Gd6  1  0.113832  0.942651  0.001083  1
  Gd  Gd7  1  0.038933  0.963629  0.666191  1
  Gd  Gd8  1  0.342707  0.285004  0.300729  1
  Gd  Gd9  1  0.717913  0.632312  0.987154  1
  Gd  Gd10  1  0.886168  0.057349  0.998917  1
  C  C11  1  0.157895  0.231610  0.127343  1
  C  C12  1  0.842105  0.768390  0.872657  1
  C  C13  1  0.919213  0.846775  0.793568  1
  C  C14  1  0.080787  0.153225  0.206432  1
  Br  Br15  1  0.449746  0.529688  0.832181  1
  Br  Br16  1  0.384408  0.036961  0.161602  1
  Br  Br17  1  0.773578  0.858186  0.500647  1
  Br  Br18  1  0.837347  0.313226  0.155608  1
  Br  Br19  1  0.550254  0.470312  0.167819  1
  Br  Br20  1  0.226422  0.141814  0.499353  1
  Br  Br21  1  0.313379  0.099805  0.832059  1
  Br  Br22  1  0.686621  0.900195  0.167941  1
  Br  Br23  1  0.977853  0.761791  0.171927  1
  Br  Br24  1  0.929768  0.299998  0.500935  1
  Br  Br25  1  0.022147  0.238209  0.828073  1
  Br  Br26  1  0.070232  0.700002  0.499065  1
  Br  Br27  1  0.265920  0.631032  0.193181  1
  Br  Br28  1  0.734080  0.368968  0.806819  1
  Br  Br29  1  0.636374  0.428836  0.496177  1
  Br  Br30  1  0.162653  0.686774  0.844392  1
  Br  Br31  1  0.615592  0.963039  0.838398  1
  Br  Br32  1  0.363626  0.571164  0.503823  1
