# generated using pymatgen
data_PrHoTlRuO7
_symmetry_space_group_name_H-M   'P 1'
_cell_length_a   6.38968701
_cell_length_b   6.65992373
_cell_length_c   7.62033300
_cell_angle_alpha   90.00000000
_cell_angle_beta   90.00000000
_cell_angle_gamma   110.98071611
_symmetry_Int_Tables_number   1
_chemical_formula_structural   PrHoTlRuO7
_chemical_formula_sum   'Pr2 Ho2 Tl2 Ru2 O14'
_cell_volume   302.78238750
_cell_formula_units_Z   2
loop_
 _symmetry_equiv_pos_site_id
 _symmetry_equiv_pos_as_xyz
  1  'x, y, z'
loop_
 _atom_site_type_symbol
 _atom_site_label
 _atom_site_symmetry_multiplicity
 _atom_site_fract_x
 _atom_site_fract_y
 _atom_site_fract_z
 _atom_site_occupancy
  Pr  Pr0  1  0.000000  0.000000  0.500000  1
  Pr  Pr1  1  0.000000  0.000000  0.000000  1
  Ho  Ho2  1  0.945791  0.487972  0.750000  1
  Ho  Ho3  1  0.054209  0.512028  0.250000  1
  Tl  Tl4  1  0.486296  0.976045  0.750000  1
  Tl  Tl5  1  0.513704  0.023955  0.250000  1
  Ru  Ru6  1  0.500000  0.500000  0.500000  1
  Ru  Ru7  1  0.500000  0.500000  0.000000  1
  O  O8  1  0.590324  0.513318  0.750000  1
  O  O9  1  0.409676  0.486682  0.250000  1
  O  O10  1  0.845378  0.129872  0.750000  1
  O  O11  1  0.154622  0.870128  0.250000  1
  O  O12  1  0.124320  0.846044  0.750000  1
  O  O13  1  0.875680  0.153956  0.250000  1
  O  O14  1  0.429809  0.185404  0.997407  1
  O  O15  1  0.570191  0.814596  0.497407  1
  O  O16  1  0.175647  0.431724  0.963209  1
  O  O17  1  0.824353  0.568276  0.463209  1
  O  O18  1  0.429809  0.185404  0.502593  1
  O  O19  1  0.570191  0.814596  0.002593  1
  O  O20  1  0.824353  0.568276  0.036791  1
  O  O21  1  0.175647  0.431724  0.536791  1
