# generated using pymatgen
data_MgNbAsF12
_symmetry_space_group_name_H-M   'P 1'
_cell_length_a   5.45323616
_cell_length_b   10.99813778
_cell_length_c   5.46829039
_cell_angle_alpha   58.29000174
_cell_angle_beta   57.98765147
_cell_angle_gamma   58.30486098
_symmetry_Int_Tables_number   1
_chemical_formula_structural   MgNbAsF12
_chemical_formula_sum   'Mg1 Nb1 As1 F12'
_cell_volume   222.30415781
_cell_formula_units_Z   1
loop_
 _symmetry_equiv_pos_site_id
 _symmetry_equiv_pos_as_xyz
  1  'x, y, z'
loop_
 _atom_site_type_symbol
 _atom_site_label
 _atom_site_symmetry_multiplicity
 _atom_site_fract_x
 _atom_site_fract_y
 _atom_site_fract_z
 _atom_site_occupancy
  Mg  Mg0  1  0.501052  0.740687  0.511516  1
  Nb  Nb1  1  0.000632  0.010568  0.985727  1
  As  As2  1  0.990475  0.496783  0.012648  1
  F  F3  1  0.357383  0.061850  0.769293  1
  F  F4  1  0.301654  0.575681  0.773764  1
  F  F5  1  0.126560  0.397791  0.312973  1
  F  F6  1  0.170383  0.869835  0.330917  1
  F  F7  1  0.211360  0.353073  0.858183  1
  F  F8  1  0.248068  0.828686  0.841084  1
  F  F9  1  0.871240  0.114284  0.649792  1
  F  F10  1  0.851050  0.620989  0.689474  1
  F  F11  1  0.666603  0.444169  0.221265  1
  F  F12  1  0.685068  0.906749  0.251525  1
  F  F13  1  0.749514  0.167605  0.147649  1
  F  F14  1  0.768959  0.661252  0.144190  1
