# generated using pymatgen
data_CaSi3Pt5
_symmetry_space_group_name_H-M   'P 1'
_cell_length_a   4.06268500
_cell_length_b   19.84331700
_cell_length_c   7.29906300
_cell_angle_alpha   90.00000000
_cell_angle_beta   90.00000000
_cell_angle_gamma   90.00000000
_symmetry_Int_Tables_number   1
_chemical_formula_structural   CaSi3Pt5
_chemical_formula_sum   'Ca4 Si12 Pt20'
_cell_volume   588.42962991
_cell_formula_units_Z   4
loop_
 _symmetry_equiv_pos_site_id
 _symmetry_equiv_pos_as_xyz
  1  'x, y, z'
loop_
 _atom_site_type_symbol
 _atom_site_label
 _atom_site_symmetry_multiplicity
 _atom_site_fract_x
 _atom_site_fract_y
 _atom_site_fract_z
 _atom_site_occupancy
  Ca  Ca0  1  0.750000  0.642926  0.120751  1
  Ca  Ca1  1  0.250000  0.357074  0.879249  1
  Ca  Ca2  1  0.250000  0.857074  0.620751  1
  Ca  Ca3  1  0.750000  0.142926  0.379249  1
  Si  Si4  1  0.750000  0.740033  0.626114  1
  Si  Si5  1  0.250000  0.259967  0.373886  1
  Si  Si6  1  0.250000  0.759967  0.126114  1
  Si  Si7  1  0.750000  0.240033  0.873886  1
  Si  Si8  1  0.750000  0.924067  0.341068  1
  Si  Si9  1  0.250000  0.075933  0.658932  1
  Si  Si10  1  0.250000  0.575933  0.841068  1
  Si  Si11  1  0.750000  0.424067  0.158932  1
  Si  Si12  1  0.750000  0.914571  0.907196  1
  Si  Si13  1  0.250000  0.085429  0.092804  1
  Si  Si14  1  0.250000  0.585429  0.407196  1
  Si  Si15  1  0.750000  0.414571  0.592804  1
  Pt  Pt16  1  0.750000  0.800053  0.332595  1
  Pt  Pt17  1  0.250000  0.199947  0.667405  1
  Pt  Pt18  1  0.250000  0.699947  0.832595  1
  Pt  Pt19  1  0.750000  0.300053  0.167405  1
  Pt  Pt20  1  0.750000  0.986689  0.622990  1
  Pt  Pt21  1  0.250000  0.013311  0.377010  1
  Pt  Pt22  1  0.250000  0.513311  0.122990  1
  Pt  Pt23  1  0.750000  0.486689  0.877010  1
  Pt  Pt24  1  0.750000  0.517837  0.380083  1
  Pt  Pt25  1  0.250000  0.482163  0.619917  1
  Pt  Pt26  1  0.250000  0.982163  0.880083  1
  Pt  Pt27  1  0.750000  0.017837  0.119917  1
  Pt  Pt28  1  0.750000  0.796881  0.924399  1
  Pt  Pt29  1  0.250000  0.203119  0.075601  1
  Pt  Pt30  1  0.250000  0.703119  0.424399  1
  Pt  Pt31  1  0.750000  0.296881  0.575601  1
  Pt  Pt32  1  0.750000  0.618224  0.665381  1
  Pt  Pt33  1  0.250000  0.381776  0.334619  1
  Pt  Pt34  1  0.250000  0.881776  0.165381  1
  Pt  Pt35  1  0.750000  0.118224  0.834619  1
