# generated using pymatgen
data_Sr4V3CdCo7As5O32
_symmetry_space_group_name_H-M   'P 1'
_cell_length_a   9.91455047
_cell_length_b   8.75758759
_cell_length_c   9.57097800
_cell_angle_alpha   87.90048112
_cell_angle_beta   90.46851698
_cell_angle_gamma   89.75372867
_symmetry_Int_Tables_number   1
_chemical_formula_structural   Sr4V3CdCo7As5O32
_chemical_formula_sum   'Sr4 V3 Cd1 Co7 As5 O32'
_cell_volume   830.43009470
_cell_formula_units_Z   1
loop_
 _symmetry_equiv_pos_site_id
 _symmetry_equiv_pos_as_xyz
  1  'x, y, z'
loop_
 _atom_site_type_symbol
 _atom_site_label
 _atom_site_symmetry_multiplicity
 _atom_site_fract_x
 _atom_site_fract_y
 _atom_site_fract_z
 _atom_site_occupancy
  Sr  Sr0  1  0.917812  0.254885  0.611576  1
  Sr  Sr1  1  0.415071  0.753650  0.894269  1
  Sr  Sr2  1  0.084861  0.744996  0.381865  1
  Sr  Sr3  1  0.584987  0.247583  0.112448  1
  V  V4  1  0.415301  0.553681  0.253242  1
  V  V5  1  0.916275  0.441186  0.250612  1
  V  V6  1  0.584481  0.452826  0.754507  1
  Cd  Cd7  1  0.567785  0.084444  0.704506  1
  Co  Co8  1  0.690046  0.573764  0.456292  1
  Co  Co9  1  0.186570  0.424797  0.048761  1
  Co  Co10  1  0.311318  0.421713  0.553113  1
  Co  Co11  1  0.815597  0.581020  0.955178  1
  Co  Co12  1  0.932301  0.072729  0.220468  1
  Co  Co13  1  0.424375  0.927237  0.274214  1
  Co  Co14  1  0.066666  0.926618  0.776626  1
  As  As15  1  0.084570  0.559676  0.753412  1
  As  As16  1  0.202972  0.049165  0.061061  1
  As  As17  1  0.710375  0.946656  0.424677  1
  As  As18  1  0.796065  0.955204  0.938633  1
  As  As19  1  0.287992  0.038858  0.565190  1
  O  O20  1  0.425322  0.736505  0.172243  1
  O  O21  1  0.934066  0.258489  0.329817  1
  O  O22  1  0.567854  0.277912  0.846588  1
  O  O23  1  0.073214  0.737083  0.668322  1
  O  O24  1  0.638892  0.783827  0.494397  1
  O  O25  1  0.130504  0.218759  0.006113  1
  O  O26  1  0.372010  0.208319  0.531098  1
  O  O27  1  0.873872  0.788095  0.993657  1
  O  O28  1  0.702972  0.432617  0.620781  1
  O  O29  1  0.204796  0.567220  0.884196  1
  O  O30  1  0.293716  0.555799  0.384973  1
  O  O31  1  0.793317  0.439325  0.118622  1
  O  O32  1  0.724834  0.084427  0.547717  1
  O  O33  1  0.202302  0.920074  0.929551  1
  O  O34  1  0.289251  0.921330  0.424750  1
  O  O35  1  0.798823  0.088258  0.067630  1
  O  O36  1  0.876452  0.561629  0.386312  1
  O  O37  1  0.374515  0.430152  0.120134  1
  O  O38  1  0.124458  0.432775  0.625238  1
  O  O39  1  0.629825  0.584661  0.878505  1
  O  O40  1  0.892240  0.031192  0.801771  1
  O  O41  1  0.381103  0.947512  0.696341  1
  O  O42  1  0.106188  0.970022  0.194799  1
  O  O43  1  0.601872  0.022983  0.296754  1
  O  O44  1  0.935535  0.486541  0.816380  1
  O  O45  1  0.432487  0.519963  0.685925  1
  O  O46  1  0.065884  0.516120  0.184883  1
  O  O47  1  0.567352  0.483974  0.319704  1
  O  O48  1  0.629804  0.933152  0.890915  1
  O  O49  1  0.122537  0.065505  0.613708  1
  O  O50  1  0.368501  0.069589  0.116076  1
  O  O51  1  0.870078  0.915506  0.361452  1
