# generated using pymatgen
data_Yb8Si13Pt3
_symmetry_space_group_name_H-M   'P 1'
_cell_length_a   8.19577800
_cell_length_b   8.19577941
_cell_length_c   8.36117000
_cell_angle_alpha   90.00000000
_cell_angle_beta   90.00000000
_cell_angle_gamma   120.00000239
_symmetry_Int_Tables_number   1
_chemical_formula_structural   Yb8Si13Pt3
_chemical_formula_sum   'Yb8 Si13 Pt3'
_cell_volume   486.38270272
_cell_formula_units_Z   1
loop_
 _symmetry_equiv_pos_site_id
 _symmetry_equiv_pos_as_xyz
  1  'x, y, z'
loop_
 _atom_site_type_symbol
 _atom_site_label
 _atom_site_symmetry_multiplicity
 _atom_site_fract_x
 _atom_site_fract_y
 _atom_site_fract_z
 _atom_site_occupancy
  Yb  Yb0  1  0.000000  0.000000  0.251966  1
  Yb  Yb1  1  0.000000  0.000000  0.747775  1
  Yb  Yb2  1  0.500977  0.499023  0.254798  1
  Yb  Yb3  1  0.500977  0.001956  0.254798  1
  Yb  Yb4  1  0.998044  0.499023  0.254798  1
  Yb  Yb5  1  0.500384  0.499616  0.745233  1
  Yb  Yb6  1  0.500384  0.000768  0.745233  1
  Yb  Yb7  1  0.999232  0.499616  0.745233  1
  Si  Si8  1  0.164849  0.835151  0.499643  1
  Si  Si9  1  0.164849  0.329697  0.499643  1
  Si  Si10  1  0.670303  0.835151  0.499643  1
  Si  Si11  1  0.834890  0.165110  0.500353  1
  Si  Si12  1  0.834890  0.669781  0.500353  1
  Si  Si13  1  0.330219  0.165110  0.500353  1
  Si  Si14  1  0.833086  0.166914  0.999818  1
  Si  Si15  1  0.833086  0.666171  0.999818  1
  Si  Si16  1  0.333829  0.166914  0.999818  1
  Si  Si17  1  0.163243  0.836757  0.999884  1
  Si  Si18  1  0.163243  0.326487  0.999884  1
  Si  Si19  1  0.673513  0.836757  0.999884  1
  Si  Si20  1  0.333333  0.666667  0.001334  1
  Pt  Pt21  1  0.333333  0.666667  0.499697  1
  Pt  Pt22  1  0.666667  0.333333  0.500322  1
  Pt  Pt23  1  0.666667  0.333333  0.999720  1
