# generated using pymatgen
data_Fe2CoCuSb12
_symmetry_space_group_name_H-M   'P 1'
_cell_length_a   7.95340474
_cell_length_b   7.94391529
_cell_length_c   7.93313980
_cell_angle_alpha   109.41208409
_cell_angle_beta   109.45934119
_cell_angle_gamma   109.50213091
_symmetry_Int_Tables_number   1
_chemical_formula_structural   Fe2CoCuSb12
_chemical_formula_sum   'Fe2 Co1 Cu1 Sb12'
_cell_volume   386.03392738
_cell_formula_units_Z   1
loop_
 _symmetry_equiv_pos_site_id
 _symmetry_equiv_pos_as_xyz
  1  'x, y, z'
loop_
 _atom_site_type_symbol
 _atom_site_label
 _atom_site_symmetry_multiplicity
 _atom_site_fract_x
 _atom_site_fract_y
 _atom_site_fract_z
 _atom_site_occupancy
  Fe  Fe0  1  0.000000  0.000000  0.500000  1
  Fe  Fe1  1  0.000000  0.500000  0.000000  1
  Co  Co2  1  0.500000  0.000000  0.000000  1
  Cu  Cu3  1  0.500000  0.500000  0.500000  1
  Sb  Sb4  1  0.668084  0.851818  0.502770  1
  Sb  Sb5  1  0.851694  0.502933  0.667786  1
  Sb  Sb6  1  0.502614  0.666401  0.851010  1
  Sb  Sb7  1  0.672149  0.162611  0.831305  1
  Sb  Sb8  1  0.839564  0.168935  0.329870  1
  Sb  Sb9  1  0.160436  0.831065  0.670130  1
  Sb  Sb10  1  0.167165  0.327785  0.837998  1
  Sb  Sb11  1  0.148306  0.497067  0.332214  1
  Sb  Sb12  1  0.331916  0.148182  0.497230  1
  Sb  Sb13  1  0.497386  0.333599  0.148990  1
  Sb  Sb14  1  0.327851  0.837389  0.168695  1
  Sb  Sb15  1  0.832835  0.672215  0.162002  1
