# generated using pymatgen
data_Ca8YPaIr4
_symmetry_space_group_name_H-M   'P 1'
_cell_length_a   6.69804529
_cell_length_b   7.36699026
_cell_length_c   8.78314618
_cell_angle_alpha   97.48502746
_cell_angle_beta   112.41430720
_cell_angle_gamma   89.99999812
_symmetry_Int_Tables_number   1
_chemical_formula_structural   Ca8YPaIr4
_chemical_formula_sum   'Ca8 Y1 Pa1 Ir4'
_cell_volume   396.65867174
_cell_formula_units_Z   1
loop_
 _symmetry_equiv_pos_site_id
 _symmetry_equiv_pos_as_xyz
  1  'x, y, z'
loop_
 _atom_site_type_symbol
 _atom_site_label
 _atom_site_symmetry_multiplicity
 _atom_site_fract_x
 _atom_site_fract_y
 _atom_site_fract_z
 _atom_site_occupancy
  Ca  Ca0  1  0.979720  0.922033  0.175885  1
  Ca  Ca1  1  0.803833  0.577967  0.824115  1
  Ca  Ca2  1  0.022275  0.081954  0.823924  1
  Ca  Ca3  1  0.198353  0.418046  0.176076  1
  Ca  Ca4  1  0.637730  0.815249  0.438868  1
  Ca  Ca5  1  0.198862  0.684751  0.561132  1
  Ca  Ca6  1  0.364433  0.183388  0.571765  1
  Ca  Ca7  1  0.792668  0.316612  0.428235  1
  Y  Y8  1  0.569255  0.250000  0.000000  1
  Pa  Pa9  1  0.440144  0.750000  0.000000  1
  Ir  Ir10  1  0.787791  0.582880  0.199725  1
  Ir  Ir11  1  0.588066  0.917120  0.800275  1
  Ir  Ir12  1  0.213450  0.451003  0.810031  1
  Ir  Ir13  1  0.403420  0.048997  0.189969  1
