# generated using pymatgen
data_Y2Ho8In8PdAu3
_symmetry_space_group_name_H-M   'P 1'
_cell_length_a   3.65090000
_cell_length_b   8.18177225
_cell_length_c   18.35087304
_cell_angle_alpha   89.98932500
_cell_angle_beta   90.00000000
_cell_angle_gamma   90.00000000
_symmetry_Int_Tables_number   1
_chemical_formula_structural   Y2Ho8In8PdAu3
_chemical_formula_sum   'Y2 Ho8 In8 Pd1 Au3'
_cell_volume   548.15584190
_cell_formula_units_Z   1
loop_
 _symmetry_equiv_pos_site_id
 _symmetry_equiv_pos_as_xyz
  1  'x, y, z'
loop_
 _atom_site_type_symbol
 _atom_site_label
 _atom_site_symmetry_multiplicity
 _atom_site_fract_x
 _atom_site_fract_y
 _atom_site_fract_z
 _atom_site_occupancy
  Y  Y0  1  0.000000  0.500628  0.499609  1
  Y  Y1  1  0.000000  0.999903  0.000320  1
  Ho  Ho2  1  0.000000  0.745951  0.282147  1
  Ho  Ho3  1  0.000000  0.263037  0.718395  1
  Ho  Ho4  1  0.000000  0.762971  0.781290  1
  Ho  Ho5  1  0.000000  0.231931  0.220385  1
  Ho  Ho6  1  0.000000  0.617957  0.080378  1
  Ho  Ho7  1  0.000000  0.381916  0.920373  1
  Ho  Ho8  1  0.000000  0.881651  0.579317  1
  Ho  Ho9  1  0.000000  0.114507  0.416931  1
  In  In10  1  0.500000  0.711946  0.932603  1
  In  In11  1  0.500000  0.287527  0.068017  1
  In  In12  1  0.500000  0.790418  0.431374  1
  In  In13  1  0.500000  0.211732  0.566633  1
  In  In14  1  0.500000  0.580845  0.646796  1
  In  In15  1  0.500000  0.416841  0.352350  1
  In  In16  1  0.500000  0.921133  0.148827  1
  In  In17  1  0.500000  0.080970  0.853216  1
  Pd  Pd18  1  0.500000  0.025202  0.304042  1
  Au  Au19  1  0.500000  0.526320  0.197115  1
  Au  Au20  1  0.500000  0.473322  0.803638  1
  Au  Au21  1  0.500000  0.973290  0.696245  1
