# generated using pymatgen
data_YbCe4(FeB3)2
_symmetry_space_group_name_H-M   'P 1'
_cell_length_a   5.31310311
_cell_length_b   5.31310394
_cell_length_c   8.91760325
_cell_angle_alpha   72.66849543
_cell_angle_beta   72.66850315
_cell_angle_gamma   59.99999275
_symmetry_Int_Tables_number   1
_chemical_formula_structural   YbCe4(FeB3)2
_chemical_formula_sum   'Yb1 Ce4 Fe2 B6'
_cell_volume   204.70544811
_cell_formula_units_Z   1
loop_
 _symmetry_equiv_pos_site_id
 _symmetry_equiv_pos_as_xyz
  1  'x, y, z'
loop_
 _atom_site_type_symbol
 _atom_site_label
 _atom_site_symmetry_multiplicity
 _atom_site_fract_x
 _atom_site_fract_y
 _atom_site_fract_z
 _atom_site_occupancy
  Yb  Yb0  1  0.000000  0.000000  0.000000  1
  Ce  Ce1  1  0.751763  0.751763  0.744712  1
  Ce  Ce2  1  0.248237  0.248237  0.255288  1
  Ce  Ce3  1  0.581016  0.581016  0.256950  1
  Ce  Ce4  1  0.418984  0.418984  0.743050  1
  Fe  Fe5  1  0.878726  0.878726  0.363824  1
  Fe  Fe6  1  0.121274  0.121274  0.636177  1
  B  B7  1  0.500000  0.167860  0.500000  1
  B  B8  1  0.832140  0.500000  0.500000  1
  B  B9  1  0.167860  0.832140  0.500000  1
  B  B10  1  0.167860  0.500000  0.500000  1
  B  B11  1  0.832140  0.167860  0.500000  1
  B  B12  1  0.500000  0.832140  0.500000  1
