# generated using pymatgen
data_CeHo3(MoN2)4
_symmetry_space_group_name_H-M   'P 1'
_cell_length_a   3.21844300
_cell_length_b   5.71366092
_cell_length_c   10.64488131
_cell_angle_alpha   89.70497881
_cell_angle_beta   90.00000000
_cell_angle_gamma   90.00000000
_symmetry_Int_Tables_number   1
_chemical_formula_structural   CeHo3(MoN2)4
_chemical_formula_sum   'Ce1 Ho3 Mo4 N8'
_cell_volume   195.74710666
_cell_formula_units_Z   1
loop_
 _symmetry_equiv_pos_site_id
 _symmetry_equiv_pos_as_xyz
  1  'x, y, z'
loop_
 _atom_site_type_symbol
 _atom_site_label
 _atom_site_symmetry_multiplicity
 _atom_site_fract_x
 _atom_site_fract_y
 _atom_site_fract_z
 _atom_site_occupancy
  Ce  Ce0  1  0.250000  0.076539  0.853775  1
  Ho  Ho1  1  0.250000  0.577858  0.644164  1
  Ho  Ho2  1  0.750000  0.921117  0.149715  1
  Ho  Ho3  1  0.750000  0.421124  0.352822  1
  Mo  Mo4  1  0.250000  0.433961  0.095053  1
  Mo  Mo5  1  0.250000  0.933662  0.406393  1
  Mo  Mo6  1  0.750000  0.570089  0.905722  1
  Mo  Mo7  1  0.750000  0.065573  0.590242  1
  N  N8  1  0.250000  0.163442  0.248598  1
  N  N9  1  0.250000  0.664494  0.251704  1
  N  N10  1  0.750000  0.833660  0.750393  1
  N  N11  1  0.750000  0.335714  0.747565  1
  N  N12  1  0.250000  0.756736  0.995283  1
  N  N13  1  0.250000  0.259244  0.505243  1
  N  N14  1  0.750000  0.246799  0.009620  1
  N  N15  1  0.750000  0.739988  0.493711  1
