# generated using pymatgen
data_CeEr2PaPt4
_symmetry_space_group_name_H-M   'P 1'
_cell_length_a   4.53883600
_cell_length_b   5.65222202
_cell_length_c   6.97448653
_cell_angle_alpha   88.27232601
_cell_angle_beta   90.00000000
_cell_angle_gamma   90.00000000
_symmetry_Int_Tables_number   1
_chemical_formula_structural   CeEr2PaPt4
_chemical_formula_sum   'Ce1 Er2 Pa1 Pt4'
_cell_volume   178.84568843
_cell_formula_units_Z   1
loop_
 _symmetry_equiv_pos_site_id
 _symmetry_equiv_pos_as_xyz
  1  'x, y, z'
loop_
 _atom_site_type_symbol
 _atom_site_label
 _atom_site_symmetry_multiplicity
 _atom_site_fract_x
 _atom_site_fract_y
 _atom_site_fract_z
 _atom_site_occupancy
  Ce  Ce0  1  0.250000  0.857123  0.684589  1
  Er  Er1  1  0.750000  0.353398  0.818108  1
  Er  Er2  1  0.750000  0.147632  0.317367  1
  Pa  Pa3  1  0.250000  0.643256  0.183688  1
  Pt  Pt4  1  0.250000  0.162332  0.050565  1
  Pt  Pt5  1  0.750000  0.829953  0.964960  1
  Pt  Pt6  1  0.750000  0.659790  0.442203  1
  Pt  Pt7  1  0.250000  0.346518  0.538521  1
