# generated using pymatgen
data_La2CoNiC4
_symmetry_space_group_name_H-M   'P 1'
_cell_length_a   3.86744672
_cell_length_b   3.86207604
_cell_length_c   7.49879672
_cell_angle_alpha   81.47901826
_cell_angle_beta   81.35158090
_cell_angle_gamma   90.06909952
_symmetry_Int_Tables_number   1
_chemical_formula_structural   La2CoNiC4
_chemical_formula_sum   'La2 Co1 Ni1 C4'
_cell_volume   109.47740454
_cell_formula_units_Z   1
loop_
 _symmetry_equiv_pos_site_id
 _symmetry_equiv_pos_as_xyz
  1  'x, y, z'
loop_
 _atom_site_type_symbol
 _atom_site_label
 _atom_site_symmetry_multiplicity
 _atom_site_fract_x
 _atom_site_fract_y
 _atom_site_fract_z
 _atom_site_occupancy
  La  La0  1  0.924578  0.077097  0.496657  1
  La  La1  1  0.073008  0.926218  0.003738  1
  Co  Co2  1  0.511581  0.370632  0.194499  1
  Ni  Ni3  1  0.369509  0.517761  0.695169  1
  C  C4  1  0.848523  0.489973  0.776772  1
  C  C5  1  0.491189  0.851421  0.274657  1
  C  C6  1  0.602817  0.439940  0.929164  1
  C  C7  1  0.444795  0.592958  0.423346  1
