# generated using pymatgen
data_Ag8Se3S
_symmetry_space_group_name_H-M   'P 1'
_cell_length_a   7.96348772
_cell_length_b   4.58078437
_cell_length_c   9.17765256
_cell_angle_alpha   60.83861675
_cell_angle_beta   89.97387318
_cell_angle_gamma   90.42415178
_symmetry_Int_Tables_number   1
_chemical_formula_structural   Ag8Se3S
_chemical_formula_sum   'Ag8 Se3 S1'
_cell_volume   292.34597036
_cell_formula_units_Z   1
loop_
 _symmetry_equiv_pos_site_id
 _symmetry_equiv_pos_as_xyz
  1  'x, y, z'
loop_
 _atom_site_type_symbol
 _atom_site_label
 _atom_site_symmetry_multiplicity
 _atom_site_fract_x
 _atom_site_fract_y
 _atom_site_fract_z
 _atom_site_occupancy
  Ag  Ag0  1  0.500002  0.507450  0.747878  1
  Ag  Ag1  1  0.509630  0.507668  0.249648  1
  Ag  Ag2  1  0.747517  0.006137  0.496707  1
  Ag  Ag3  1  0.987525  0.507144  0.758085  1
  Ag  Ag4  1  0.000515  0.501451  0.249649  1
  Ag  Ag5  1  0.248242  0.052384  0.521555  1
  Ag  Ag6  1  0.749936  0.881700  0.944685  1
  Ag  Ag7  1  0.255411  0.032402  0.019253  1
  Se  Se8  1  0.752334  0.262312  0.164330  1
  Se  Se9  1  0.254140  0.705579  0.346074  1
  Se  Se10  1  0.248123  0.691873  0.848156  1
  S  S11  1  0.746625  0.343900  0.653980  1
