# generated using pymatgen
data_La3Pr5(YIr2)2
_symmetry_space_group_name_H-M   'P 1'
_cell_length_a   6.72314365
_cell_length_b   7.27619296
_cell_length_c   9.07472994
_cell_angle_alpha   95.63496397
_cell_angle_beta   111.68137472
_cell_angle_gamma   90.70381004
_symmetry_Int_Tables_number   1
_chemical_formula_structural   La3Pr5(YIr2)2
_chemical_formula_sum   'La3 Pr5 Y2 Ir4'
_cell_volume   409.95938749
_cell_formula_units_Z   1
loop_
 _symmetry_equiv_pos_site_id
 _symmetry_equiv_pos_as_xyz
  1  'x, y, z'
loop_
 _atom_site_type_symbol
 _atom_site_label
 _atom_site_symmetry_multiplicity
 _atom_site_fract_x
 _atom_site_fract_y
 _atom_site_fract_z
 _atom_site_occupancy
  La  La0  1  0.980135  0.918397  0.183294  1
  La  La1  1  0.794973  0.580519  0.816227  1
  La  La2  1  0.021078  0.082490  0.818199  1
  Pr  Pr3  1  0.208124  0.423570  0.184266  1
  Pr  Pr4  1  0.644247  0.812138  0.428628  1
  Pr  Pr5  1  0.215063  0.685934  0.568356  1
  Pr  Pr6  1  0.354097  0.187658  0.570379  1
  Pr  Pr7  1  0.782378  0.313843  0.429614  1
  Y  Y8  1  0.437246  0.749646  0.000267  1
  Y  Y9  1  0.562886  0.249967  0.000990  1
  Ir  Ir10  1  0.813221  0.574505  0.212471  1
  Ir  Ir11  1  0.604968  0.926331  0.788805  1
  Ir  Ir12  1  0.184064  0.425262  0.787361  1
  Ir  Ir13  1  0.397520  0.069739  0.211141  1
