# generated using pymatgen
data_TmLu3BeRh12
_symmetry_space_group_name_H-M   'P 1'
_cell_length_a   7.05625688
_cell_length_b   7.05625589
_cell_length_c   7.05625700
_cell_angle_alpha   109.50227740
_cell_angle_beta   109.50227454
_cell_angle_gamma   109.50228514
_symmetry_Int_Tables_number   1
_chemical_formula_structural   TmLu3BeRh12
_chemical_formula_sum   'Tm1 Lu3 Be1 Rh12'
_cell_volume   270.14740449
_cell_formula_units_Z   1
loop_
 _symmetry_equiv_pos_site_id
 _symmetry_equiv_pos_as_xyz
  1  'x, y, z'
loop_
 _atom_site_type_symbol
 _atom_site_label
 _atom_site_symmetry_multiplicity
 _atom_site_fract_x
 _atom_site_fract_y
 _atom_site_fract_z
 _atom_site_occupancy
  Tm  Tm0  1  0.500000  0.500000  0.500000  1
  Lu  Lu1  1  0.000000  0.000000  0.500000  1
  Lu  Lu2  1  0.000000  0.500000  0.000000  1
  Lu  Lu3  1  0.500000  0.000000  0.000000  1
  Be  Be4  1  0.000000  0.000000  0.000000  1
  Rh  Rh5  1  0.750526  0.249474  0.500000  1
  Rh  Rh6  1  0.750526  0.500000  0.249474  1
  Rh  Rh7  1  0.500000  0.249474  0.750526  1
  Rh  Rh8  1  0.249474  0.500000  0.750526  1
  Rh  Rh9  1  0.249474  0.750526  0.500000  1
  Rh  Rh10  1  0.500000  0.750526  0.249474  1
  Rh  Rh11  1  0.728214  0.728214  0.001434  1
  Rh  Rh12  1  0.271786  0.998566  0.271786  1
  Rh  Rh13  1  0.998566  0.271786  0.271786  1
  Rh  Rh14  1  0.271786  0.271786  0.998566  1
  Rh  Rh15  1  0.728214  0.001434  0.728214  1
  Rh  Rh16  1  0.001434  0.728214  0.728214  1
