# generated using pymatgen
data_PaCr(NiP)2
_symmetry_space_group_name_H-M   'P 1'
_cell_length_a   3.75882200
_cell_length_b   10.74957700
_cell_length_c   12.38272400
_cell_angle_alpha   90.00000000
_cell_angle_beta   90.00000000
_cell_angle_gamma   90.00000000
_symmetry_Int_Tables_number   1
_chemical_formula_structural   PaCr(NiP)2
_chemical_formula_sum   'Pa6 Cr6 Ni12 P12'
_cell_volume   500.33320715
_cell_formula_units_Z   6
loop_
 _symmetry_equiv_pos_site_id
 _symmetry_equiv_pos_as_xyz
  1  'x, y, z'
loop_
 _atom_site_type_symbol
 _atom_site_label
 _atom_site_symmetry_multiplicity
 _atom_site_fract_x
 _atom_site_fract_y
 _atom_site_fract_z
 _atom_site_occupancy
  Pa  Pa0  1  0.751928  0.000000  0.477226  1
  Pa  Pa1  1  0.251928  0.500000  0.522774  1
  Pa  Pa2  1  0.252006  0.681437  0.795677  1
  Pa  Pa3  1  0.252006  0.318563  0.795677  1
  Pa  Pa4  1  0.752006  0.818563  0.204323  1
  Pa  Pa5  1  0.752006  0.181437  0.204323  1
  Cr  Cr6  1  0.251732  0.198957  0.573692  1
  Cr  Cr7  1  0.251732  0.801043  0.573692  1
  Cr  Cr8  1  0.751732  0.301043  0.426308  1
  Cr  Cr9  1  0.751732  0.698957  0.426308  1
  Cr  Cr10  1  0.251518  0.000000  0.844407  1
  Cr  Cr11  1  0.751518  0.500000  0.155593  1
  Ni  Ni12  1  0.753091  0.000000  0.015516  1
  Ni  Ni13  1  0.253091  0.500000  0.984484  1
  Ni  Ni14  1  0.251203  0.621516  0.287748  1
  Ni  Ni15  1  0.251203  0.378484  0.287748  1
  Ni  Ni16  1  0.751203  0.878484  0.712252  1
  Ni  Ni17  1  0.751203  0.121516  0.712252  1
  Ni  Ni18  1  0.251984  0.168468  0.005156  1
  Ni  Ni19  1  0.251984  0.831532  0.005156  1
  Ni  Ni20  1  0.751984  0.331532  0.994844  1
  Ni  Ni21  1  0.751984  0.668468  0.994844  1
  Ni  Ni22  1  0.250459  0.000000  0.296686  1
  Ni  Ni23  1  0.750459  0.500000  0.703314  1
  P  P24  1  0.251888  0.183995  0.387419  1
  P  P25  1  0.251888  0.816005  0.387419  1
  P  P26  1  0.751888  0.316005  0.612581  1
  P  P27  1  0.751888  0.683995  0.612581  1
  P  P28  1  0.252997  0.000000  0.118211  1
  P  P29  1  0.752997  0.500000  0.881789  1
  P  P30  1  0.251885  0.652254  0.106498  1
  P  P31  1  0.251885  0.347746  0.106498  1
  P  P32  1  0.751885  0.847746  0.893502  1
  P  P33  1  0.751885  0.152254  0.893502  1
  P  P34  1  0.251413  0.000000  0.655085  1
  P  P35  1  0.751413  0.500000  0.344915  1
