# generated using pymatgen
data_Tb4InPd11
_symmetry_space_group_name_H-M   'P 1'
_cell_length_a   4.21065500
_cell_length_b   5.88489000
_cell_length_c   11.73219826
_cell_angle_alpha   86.85481943
_cell_angle_beta   90.00000000
_cell_angle_gamma   90.00000000
_symmetry_Int_Tables_number   1
_chemical_formula_structural   Tb4InPd11
_chemical_formula_sum   'Tb4 In1 Pd11'
_cell_volume   290.27707471
_cell_formula_units_Z   1
loop_
 _symmetry_equiv_pos_site_id
 _symmetry_equiv_pos_as_xyz
  1  'x, y, z'
loop_
 _atom_site_type_symbol
 _atom_site_label
 _atom_site_symmetry_multiplicity
 _atom_site_fract_x
 _atom_site_fract_y
 _atom_site_fract_z
 _atom_site_occupancy
  Tb  Tb0  1  0.500000  0.757972  0.377214  1
  Tb  Tb1  1  0.500000  0.712329  0.859309  1
  Tb  Tb2  1  0.500000  0.287671  0.140691  1
  Tb  Tb3  1  0.500000  0.242028  0.622786  1
  In  In4  1  0.000000  0.000000  0.000000  1
  Pd  Pd5  1  0.000000  0.016197  0.249470  1
  Pd  Pd6  1  0.000000  0.983803  0.750530  1
  Pd  Pd7  1  0.000000  0.500000  0.000000  1
  Pd  Pd8  1  0.000000  0.500000  0.500000  1
  Pd  Pd9  1  0.000000  0.522066  0.250773  1
  Pd  Pd10  1  0.000000  0.477934  0.749227  1
  Pd  Pd11  1  0.500000  0.256976  0.377858  1
  Pd  Pd12  1  0.500000  0.221898  0.882572  1
  Pd  Pd13  1  0.500000  0.778102  0.117428  1
  Pd  Pd14  1  0.500000  0.743024  0.622142  1
  Pd  Pd15  1  0.000000  0.000000  0.500000  1
