# generated using pymatgen
data_Th5SnBi2C
_symmetry_space_group_name_H-M   'P 1'
_cell_length_a   9.46510914
_cell_length_b   9.46510850
_cell_length_c   6.52420700
_cell_angle_alpha   90.00000000
_cell_angle_beta   90.00000000
_cell_angle_gamma   119.98000314
_symmetry_Int_Tables_number   1
_chemical_formula_structural   Th5SnBi2C
_chemical_formula_sum   'Th10 Sn2 Bi4 C2'
_cell_volume   506.28733372
_cell_formula_units_Z   2
loop_
 _symmetry_equiv_pos_site_id
 _symmetry_equiv_pos_as_xyz
  1  'x, y, z'
loop_
 _atom_site_type_symbol
 _atom_site_label
 _atom_site_symmetry_multiplicity
 _atom_site_fract_x
 _atom_site_fract_y
 _atom_site_fract_z
 _atom_site_occupancy
  Th  Th0  1  0.336068  0.663932  0.500000  1
  Th  Th1  1  0.663932  0.336068  0.500000  1
  Th  Th2  1  0.663932  0.336068  0.000000  1
  Th  Th3  1  0.336068  0.663932  0.000000  1
  Th  Th4  1  0.219665  0.003167  0.750000  1
  Th  Th5  1  0.780335  0.996833  0.250000  1
  Th  Th6  1  0.003167  0.219665  0.750000  1
  Th  Th7  1  0.996833  0.780335  0.250000  1
  Th  Th8  1  0.776464  0.776464  0.750000  1
  Th  Th9  1  0.223536  0.223536  0.250000  1
  Sn  Sn10  1  0.399791  0.399791  0.750000  1
  Sn  Sn11  1  0.600209  0.600209  0.250000  1
  Bi  Bi12  1  0.600728  0.000469  0.750000  1
  Bi  Bi13  1  0.399272  0.999531  0.250000  1
  Bi  Bi14  1  0.000469  0.600728  0.750000  1
  Bi  Bi15  1  0.999531  0.399272  0.250000  1
  C  C16  1  0.000000  0.000000  0.500000  1
  C  C17  1  0.000000  0.000000  0.000000  1
