# generated using pymatgen
data_ScTa5(B2Ru5)2
_symmetry_space_group_name_H-M   'P 1'
_cell_length_a   9.45284210
_cell_length_b   9.45284210
_cell_length_c   3.04431600
_cell_angle_alpha   90.00000000
_cell_angle_beta   90.00000000
_cell_angle_gamma   89.98367107
_symmetry_Int_Tables_number   1
_chemical_formula_structural   ScTa5(B2Ru5)2
_chemical_formula_sum   'Sc1 Ta5 B4 Ru10'
_cell_volume   272.02857044
_cell_formula_units_Z   1
loop_
 _symmetry_equiv_pos_site_id
 _symmetry_equiv_pos_as_xyz
  1  'x, y, z'
loop_
 _atom_site_type_symbol
 _atom_site_label
 _atom_site_symmetry_multiplicity
 _atom_site_fract_x
 _atom_site_fract_y
 _atom_site_fract_z
 _atom_site_occupancy
  Sc  Sc0  1  0.824265  0.675735  0.000000  1
  Ta  Ta1  1  0.176659  0.323341  0.000000  1
  Ta  Ta2  1  0.324308  0.822784  0.000000  1
  Ta  Ta3  1  0.677216  0.175692  0.000000  1
  Ta  Ta4  1  0.501687  0.501010  0.000000  1
  Ta  Ta5  1  0.998990  0.998313  0.000000  1
  B  B6  1  0.622302  0.877698  0.000000  1
  B  B7  1  0.378181  0.121819  0.000000  1
  B  B8  1  0.120308  0.621130  0.000000  1
  B  B9  1  0.878870  0.379692  0.000000  1
  Ru  Ru10  1  0.564293  0.721033  0.500000  1
  Ru  Ru11  1  0.427241  0.282608  0.500000  1
  Ru  Ru12  1  0.077609  0.783160  0.500000  1
  Ru  Ru13  1  0.929986  0.217259  0.500000  1
  Ru  Ru14  1  0.282741  0.570014  0.500000  1
  Ru  Ru15  1  0.716840  0.422391  0.500000  1
  Ru  Ru16  1  0.217392  0.072759  0.500000  1
  Ru  Ru17  1  0.778967  0.935707  0.500000  1
  Ru  Ru18  1  0.498241  0.001759  0.500000  1
  Ru  Ru19  1  0.003904  0.496096  0.500000  1
