# generated using pymatgen
data_Tm3Lu13Mg2(InNi2)2
_symmetry_space_group_name_H-M   'P 1'
_cell_length_a   9.38626809
_cell_length_b   9.38501144
_cell_length_c   9.37480319
_cell_angle_alpha   60.27130421
_cell_angle_beta   60.27176872
_cell_angle_gamma   60.38633592
_symmetry_Int_Tables_number   1
_chemical_formula_structural   Tm3Lu13Mg2(InNi2)2
_chemical_formula_sum   'Tm3 Lu13 Mg2 In2 Ni4'
_cell_volume   588.04101737
_cell_formula_units_Z   1
loop_
 _symmetry_equiv_pos_site_id
 _symmetry_equiv_pos_as_xyz
  1  'x, y, z'
loop_
 _atom_site_type_symbol
 _atom_site_label
 _atom_site_symmetry_multiplicity
 _atom_site_fract_x
 _atom_site_fract_y
 _atom_site_fract_z
 _atom_site_occupancy
  Tm  Tm0  1  0.186189  0.814842  0.185427  1
  Tm  Tm1  1  0.814163  0.814407  0.185962  1
  Tm  Tm2  1  0.185628  0.186217  0.813633  1
  Lu  Lu3  1  0.596061  0.595937  0.594912  1
  Lu  Lu4  1  0.595724  0.595417  0.213756  1
  Lu  Lu5  1  0.599775  0.208183  0.595366  1
  Lu  Lu6  1  0.208086  0.599821  0.595461  1
  Lu  Lu7  1  0.062299  0.435644  0.438615  1
  Lu  Lu8  1  0.436293  0.061925  0.063973  1
  Lu  Lu9  1  0.435894  0.062537  0.438345  1
  Lu  Lu10  1  0.061826  0.435939  0.064069  1
  Lu  Lu11  1  0.434583  0.433960  0.066210  1
  Lu  Lu12  1  0.060904  0.060978  0.439512  1
  Lu  Lu13  1  0.186446  0.814592  0.812610  1
  Lu  Lu14  1  0.814556  0.186456  0.185814  1
  Lu  Lu15  1  0.814557  0.186467  0.813097  1
  Mg  Mg16  1  0.829702  0.514757  0.827898  1
  Mg  Mg17  1  0.514954  0.829784  0.827726  1
  In  In18  1  0.831801  0.831840  0.833760  1
  In  In19  1  0.831855  0.832023  0.502707  1
  Ni  Ni20  1  0.391850  0.391562  0.393519  1
  Ni  Ni21  1  0.391892  0.391907  0.822813  1
  Ni  Ni22  1  0.390097  0.824859  0.392430  1
  Ni  Ni23  1  0.824868  0.389950  0.392386  1
