# generated using pymatgen
data_Eu6HfO12
_symmetry_space_group_name_H-M   'P 1'
_cell_length_a   6.65757515
_cell_length_b   6.65757480
_cell_length_c   6.65757453
_cell_angle_alpha   98.94715190
_cell_angle_beta   98.94715383
_cell_angle_gamma   98.94715261
_symmetry_Int_Tables_number   1
_chemical_formula_structural   Eu6HfO12
_chemical_formula_sum   'Eu6 Hf1 O12'
_cell_volume   283.02302947
_cell_formula_units_Z   1
loop_
 _symmetry_equiv_pos_site_id
 _symmetry_equiv_pos_as_xyz
  1  'x, y, z'
loop_
 _atom_site_type_symbol
 _atom_site_label
 _atom_site_symmetry_multiplicity
 _atom_site_fract_x
 _atom_site_fract_y
 _atom_site_fract_z
 _atom_site_occupancy
  Eu  Eu0  1  0.135392  0.295107  0.603858  1
  Eu  Eu1  1  0.396142  0.864608  0.704893  1
  Eu  Eu2  1  0.704893  0.396142  0.864608  1
  Eu  Eu3  1  0.295107  0.603858  0.135392  1
  Eu  Eu4  1  0.603858  0.135392  0.295107  1
  Eu  Eu5  1  0.864608  0.704893  0.396142  1
  Hf  Hf6  1  0.000000  0.000000  0.000000  1
  O  O7  1  0.068149  0.306056  0.951628  1
  O  O8  1  0.048372  0.931851  0.693944  1
  O  O9  1  0.408657  0.565841  0.823254  1
  O  O10  1  0.176746  0.591343  0.434159  1
  O  O11  1  0.693944  0.048372  0.931851  1
  O  O12  1  0.434159  0.176746  0.591343  1
  O  O13  1  0.565841  0.823254  0.408657  1
  O  O14  1  0.306056  0.951628  0.068149  1
  O  O15  1  0.823254  0.408657  0.565841  1
  O  O16  1  0.591343  0.434159  0.176746  1
  O  O17  1  0.951628  0.068149  0.306056  1
  O  O18  1  0.931851  0.693944  0.048372  1
