# generated using pymatgen
data_YbPrGeRh3
_symmetry_space_group_name_H-M   'P 1'
_cell_length_a   5.14618703
_cell_length_b   5.14618670
_cell_length_c   5.14618744
_cell_angle_alpha   66.46482712
_cell_angle_beta   66.46482666
_cell_angle_gamma   66.46482699
_symmetry_Int_Tables_number   1
_chemical_formula_structural   YbPrGeRh3
_chemical_formula_sum   'Yb1 Pr1 Ge1 Rh3'
_cell_volume   109.79330789
_cell_formula_units_Z   1
loop_
 _symmetry_equiv_pos_site_id
 _symmetry_equiv_pos_as_xyz
  1  'x, y, z'
loop_
 _atom_site_type_symbol
 _atom_site_label
 _atom_site_symmetry_multiplicity
 _atom_site_fract_x
 _atom_site_fract_y
 _atom_site_fract_z
 _atom_site_occupancy
  Yb  Yb0  1  0.630910  0.630910  0.630910  1
  Pr  Pr1  1  0.372906  0.372906  0.372906  1
  Ge  Ge2  1  0.000066  0.000066  0.000066  1
  Rh  Rh3  1  0.997243  0.997243  0.501631  1
  Rh  Rh4  1  0.501631  0.997243  0.997243  1
  Rh  Rh5  1  0.997243  0.501631  0.997243  1
