# generated using pymatgen
data_Lu8TcB24Ru2W
_symmetry_space_group_name_H-M   'P 1'
_cell_length_a   3.58688300
_cell_length_b   9.07341543
_cell_length_c   11.45104035
_cell_angle_alpha   89.80119251
_cell_angle_beta   90.00000000
_cell_angle_gamma   90.00000000
_symmetry_Int_Tables_number   1
_chemical_formula_structural   Lu8TcB24Ru2W
_chemical_formula_sum   'Lu8 Tc1 B24 Ru2 W1'
_cell_volume   372.67506597
_cell_formula_units_Z   1
loop_
 _symmetry_equiv_pos_site_id
 _symmetry_equiv_pos_as_xyz
  1  'x, y, z'
loop_
 _atom_site_type_symbol
 _atom_site_label
 _atom_site_symmetry_multiplicity
 _atom_site_fract_x
 _atom_site_fract_y
 _atom_site_fract_z
 _atom_site_occupancy
  Lu  Lu0  1  0.000000  0.324587  0.413422  1
  Lu  Lu1  1  0.000000  0.678338  0.583430  1
  Lu  Lu2  1  0.000000  0.819909  0.087734  1
  Lu  Lu3  1  0.000000  0.178955  0.913784  1
  Lu  Lu4  1  0.000000  0.942170  0.370534  1
  Lu  Lu5  1  0.000000  0.054006  0.627919  1
  Lu  Lu6  1  0.000000  0.443688  0.129671  1
  Lu  Lu7  1  0.000000  0.558095  0.873220  1
  Tc  Tc8  1  0.000000  0.638705  0.319278  1
  B  B9  1  0.500000  0.553527  0.432118  1
  B  B10  1  0.500000  0.449827  0.563454  1
  B  B11  1  0.500000  0.053534  0.066368  1
  B  B12  1  0.500000  0.946352  0.934174  1
  B  B13  1  0.500000  0.749086  0.419249  1
  B  B14  1  0.500000  0.247360  0.577090  1
  B  B15  1  0.500000  0.249461  0.080454  1
  B  B16  1  0.500000  0.750801  0.920322  1
  B  B17  1  0.500000  0.792788  0.264518  1
  B  B18  1  0.500000  0.203131  0.737006  1
  B  B19  1  0.500000  0.291629  0.234721  1
  B  B20  1  0.500000  0.709227  0.766236  1
  B  B21  1  0.500000  0.631296  0.184403  1
  B  B22  1  0.500000  0.368706  0.818950  1
  B  B23  1  0.500000  0.130262  0.314641  1
  B  B24  1  0.500000  0.869223  0.685215  1
  B  B25  1  0.500000  0.981554  0.212102  1
  B  B26  1  0.500000  0.017346  0.788105  1
  B  B27  1  0.500000  0.481308  0.287067  1
  B  B28  1  0.500000  0.524230  0.713369  1
  B  B29  1  0.500000  0.603712  0.029002  1
  B  B30  1  0.500000  0.396886  0.973037  1
  B  B31  1  0.500000  0.101718  0.470351  1
  B  B32  1  0.500000  0.896175  0.528343  1
  Ru  Ru33  1  0.000000  0.137857  0.178833  1
  Ru  Ru34  1  0.000000  0.862330  0.822121  1
  W  W35  1  0.000000  0.362219  0.679755  1
