# generated using pymatgen
data_Tm6Th2ZnPd24
_symmetry_space_group_name_H-M   'P 1'
_cell_length_a   8.34530429
_cell_length_b   8.34530442
_cell_length_c   8.34530400
_cell_angle_alpha   89.84562610
_cell_angle_beta   89.84562610
_cell_angle_gamma   89.84562953
_symmetry_Int_Tables_number   1
_chemical_formula_structural   Tm6Th2ZnPd24
_chemical_formula_sum   'Tm6 Th2 Zn1 Pd24'
_cell_volume   581.19490878
_cell_formula_units_Z   1
loop_
 _symmetry_equiv_pos_site_id
 _symmetry_equiv_pos_as_xyz
  1  'x, y, z'
loop_
 _atom_site_type_symbol
 _atom_site_label
 _atom_site_symmetry_multiplicity
 _atom_site_fract_x
 _atom_site_fract_y
 _atom_site_fract_z
 _atom_site_occupancy
  Tm  Tm0  1  0.748752  0.748752  0.250436  1
  Tm  Tm1  1  0.748752  0.250436  0.748752  1
  Tm  Tm2  1  0.251248  0.251248  0.749564  1
  Tm  Tm3  1  0.251248  0.749564  0.251248  1
  Tm  Tm4  1  0.250436  0.748752  0.748752  1
  Tm  Tm5  1  0.749564  0.251248  0.251248  1
  Th  Th6  1  0.251907  0.251907  0.251907  1
  Th  Th7  1  0.748093  0.748093  0.748093  1
  Zn  Zn8  1  0.000000  0.000000  0.000000  1
  Pd  Pd9  1  0.260322  0.501228  0.999058  1
  Pd  Pd10  1  0.739678  0.498772  0.000942  1
  Pd  Pd11  1  0.999058  0.260322  0.501228  1
  Pd  Pd12  1  0.501228  0.260322  0.999058  1
  Pd  Pd13  1  0.000942  0.739678  0.498772  1
  Pd  Pd14  1  0.498772  0.739678  0.000942  1
  Pd  Pd15  1  0.501228  0.999058  0.260322  1
  Pd  Pd16  1  0.260322  0.999058  0.501228  1
  Pd  Pd17  1  0.498772  0.000942  0.739678  1
  Pd  Pd18  1  0.739678  0.000942  0.498772  1
  Pd  Pd19  1  0.999058  0.501228  0.260322  1
  Pd  Pd20  1  0.000942  0.498772  0.739678  1
  Pd  Pd21  1  0.253269  0.501688  0.501688  1
  Pd  Pd22  1  0.746731  0.498312  0.498312  1
  Pd  Pd23  1  0.501688  0.253269  0.501688  1
  Pd  Pd24  1  0.498312  0.746731  0.498312  1
  Pd  Pd25  1  0.501688  0.501688  0.253269  1
  Pd  Pd26  1  0.498312  0.498312  0.746731  1
  Pd  Pd27  1  0.292337  0.998933  0.998933  1
  Pd  Pd28  1  0.707663  0.001067  0.001067  1
  Pd  Pd29  1  0.998933  0.292337  0.998933  1
  Pd  Pd30  1  0.001067  0.707663  0.001067  1
  Pd  Pd31  1  0.998933  0.998933  0.292337  1
  Pd  Pd32  1  0.001067  0.001067  0.707663  1
