# generated using pymatgen
data_LiZr(PaBr6)2
_symmetry_space_group_name_H-M   'P 1'
_cell_length_a   6.36896600
_cell_length_b   7.38224263
_cell_length_c   12.92017900
_cell_angle_alpha   90.00000000
_cell_angle_beta   90.00000000
_cell_angle_gamma   89.93581406
_symmetry_Int_Tables_number   1
_chemical_formula_structural   LiZr(PaBr6)2
_chemical_formula_sum   'Li1 Zr1 Pa2 Br12'
_cell_volume   607.47093499
_cell_formula_units_Z   1
loop_
 _symmetry_equiv_pos_site_id
 _symmetry_equiv_pos_as_xyz
  1  'x, y, z'
loop_
 _atom_site_type_symbol
 _atom_site_label
 _atom_site_symmetry_multiplicity
 _atom_site_fract_x
 _atom_site_fract_y
 _atom_site_fract_z
 _atom_site_occupancy
  Li  Li0  1  0.250241  0.752191  0.500000  1
  Zr  Zr1  1  0.750003  0.248000  0.000000  1
  Pa  Pa2  1  0.750151  0.752040  0.500000  1
  Pa  Pa3  1  0.250024  0.247912  0.000000  1
  Br  Br4  1  0.004310  0.602118  0.648812  1
  Br  Br5  1  0.004317  0.049848  0.500000  1
  Br  Br6  1  0.985888  0.094745  0.847854  1
  Br  Br7  1  0.985888  0.094745  0.152146  1
  Br  Br8  1  0.495415  0.901702  0.351333  1
  Br  Br9  1  0.514050  0.401196  0.152225  1
  Br  Br10  1  0.495575  0.454646  0.500000  1
  Br  Br11  1  0.495415  0.901702  0.648667  1
  Br  Br12  1  0.514050  0.401196  0.847775  1
  Br  Br13  1  0.515138  0.940272  0.000000  1
  Br  Br14  1  0.985226  0.555572  0.000000  1
  Br  Br15  1  0.004310  0.602118  0.351188  1
