# generated using pymatgen
data_EuFeCo4Si3
_symmetry_space_group_name_H-M   'P 1'
_cell_length_a   3.91204900
_cell_length_b   3.91204900
_cell_length_c   7.87415800
_cell_angle_alpha   90.00000000
_cell_angle_beta   90.00000000
_cell_angle_gamma   90.00000000
_symmetry_Int_Tables_number   1
_chemical_formula_structural   EuFeCo4Si3
_chemical_formula_sum   'Eu1 Fe1 Co4 Si3'
_cell_volume   120.50711703
_cell_formula_units_Z   1
loop_
 _symmetry_equiv_pos_site_id
 _symmetry_equiv_pos_as_xyz
  1  'x, y, z'
loop_
 _atom_site_type_symbol
 _atom_site_label
 _atom_site_symmetry_multiplicity
 _atom_site_fract_x
 _atom_site_fract_y
 _atom_site_fract_z
 _atom_site_occupancy
  Eu  Eu0  1  0.000000  0.000000  0.000000  1
  Fe  Fe1  1  0.500000  0.500000  0.500000  1
  Co  Co2  1  0.000000  0.500000  0.323763  1
  Co  Co3  1  0.500000  0.000000  0.323763  1
  Co  Co4  1  0.500000  0.000000  0.676237  1
  Co  Co5  1  0.000000  0.500000  0.676237  1
  Si  Si6  1  0.500000  0.500000  0.163781  1
  Si  Si7  1  0.500000  0.500000  0.836219  1
  Si  Si8  1  0.000000  0.000000  0.500000  1
