# generated using pymatgen
data_Sm2Co3Si5P2Ru9
_symmetry_space_group_name_H-M   'P 1'
_cell_length_a   9.49140935
_cell_length_b   9.46975790
_cell_length_c   3.87218900
_cell_angle_alpha   90.00000000
_cell_angle_beta   90.00000000
_cell_angle_gamma   120.15649277
_symmetry_Int_Tables_number   1
_chemical_formula_structural   Sm2Co3Si5P2Ru9
_chemical_formula_sum   'Sm2 Co3 Si5 P2 Ru9'
_cell_volume   300.93295322
_cell_formula_units_Z   1
loop_
 _symmetry_equiv_pos_site_id
 _symmetry_equiv_pos_as_xyz
  1  'x, y, z'
loop_
 _atom_site_type_symbol
 _atom_site_label
 _atom_site_symmetry_multiplicity
 _atom_site_fract_x
 _atom_site_fract_y
 _atom_site_fract_z
 _atom_site_occupancy
  Sm  Sm0  1  0.332927  0.665443  0.500000  1
  Sm  Sm1  1  0.001016  0.998365  0.000000  1
  Co  Co2  1  0.817370  0.604869  0.000000  1
  Co  Co3  1  0.396157  0.218996  0.000000  1
  Co  Co4  1  0.781417  0.176647  0.000000  1
  Si  Si5  1  0.774318  0.725504  0.500000  1
  Si  Si6  1  0.277303  0.051922  0.500000  1
  Si  Si7  1  0.947626  0.223951  0.500000  1
  Si  Si8  1  0.667759  0.333595  0.000000  1
  Si  Si9  1  0.069130  0.629650  0.000000  1
  P  P10  1  0.365502  0.436953  0.000000  1
  P  P11  1  0.562170  0.926619  0.000000  1
  Ru  Ru12  1  0.090974  0.387603  0.000000  1
  Ru  Ru13  1  0.602913  0.694554  0.000000  1
  Ru  Ru14  1  0.309113  0.911650  0.000000  1
  Ru  Ru15  1  0.050189  0.771149  0.500000  1
  Ru  Ru16  1  0.236667  0.286225  0.500000  1
  Ru  Ru17  1  0.712166  0.948687  0.500000  1
  Ru  Ru18  1  0.872489  0.431247  0.500000  1
  Ru  Ru19  1  0.573639  0.442334  0.500000  1
  Ru  Ru20  1  0.559155  0.134035  0.500000  1
