# generated using pymatgen
data_Y21Fe8Bi7C12
_symmetry_space_group_name_H-M   'P 1'
_cell_length_a   11.10983802
_cell_length_b   11.11160490
_cell_length_c   11.11193200
_cell_angle_alpha   119.97884471
_cell_angle_beta   90.00350690
_cell_angle_gamma   119.98526892
_symmetry_Int_Tables_number   1
_chemical_formula_structural   Y21Fe8Bi7C12
_chemical_formula_sum   'Y21 Fe8 Bi7 C12'
_cell_volume   970.46802299
_cell_formula_units_Z   1
loop_
 _symmetry_equiv_pos_site_id
 _symmetry_equiv_pos_as_xyz
  1  'x, y, z'
loop_
 _atom_site_type_symbol
 _atom_site_label
 _atom_site_symmetry_multiplicity
 _atom_site_fract_x
 _atom_site_fract_y
 _atom_site_fract_z
 _atom_site_occupancy
  Y  Y0  1  0.658008  0.999985  0.999741  1
  Y  Y1  1  0.000262  0.000031  0.342000  1
  Y  Y2  1  0.999748  0.341662  0.999761  1
  Y  Y3  1  0.361316  0.722874  0.084233  1
  Y  Y4  1  0.341939  0.341700  0.341944  1
  Y  Y5  1  0.658548  0.658563  0.999982  1
  Y  Y6  1  0.638428  0.277104  0.361403  1
  Y  Y7  1  0.638622  0.722969  0.361639  1
  Y  Y8  1  0.341455  0.341447  0.000008  1
  Y  Y9  1  0.341955  0.999995  0.000240  1
  Y  Y10  1  0.658052  0.658278  0.658022  1
  Y  Y11  1  0.999976  0.658542  0.658521  1
  Y  Y12  1  0.999722  0.999940  0.658003  1
  Y  Y13  1  0.000248  0.658334  0.000230  1
  Y  Y14  1  0.084296  0.722924  0.361360  1
  Y  Y15  1  0.915681  0.277057  0.638654  1
  Y  Y16  1  0.638678  0.277093  0.915721  1
  Y  Y17  1  0.000007  0.341473  0.341481  1
  Y  Y18  1  0.361600  0.722926  0.638599  1
  Y  Y19  1  0.361397  0.277033  0.638383  1
  Y  Y20  1  0.499961  0.000014  0.499983  1
  Fe  Fe21  1  0.577524  0.385114  0.192649  1
  Fe  Fe22  1  0.192469  0.614986  0.807457  1
  Fe  Fe23  1  0.192574  0.385028  0.577546  1
  Fe  Fe24  1  0.807457  0.615050  0.422549  1
  Fe  Fe25  1  0.192466  0.384897  0.807415  1
  Fe  Fe26  1  0.807554  0.615142  0.192640  1
  Fe  Fe27  1  0.807525  0.385028  0.192574  1
  Fe  Fe28  1  0.422527  0.614938  0.807368  1
  Bi  Bi29  1  0.291266  0.999990  0.708734  1
  Bi  Bi30  1  0.708246  0.999997  0.708252  1
  Bi  Bi31  1  0.708714  0.999999  0.291272  1
  Bi  Bi32  1  0.291724  0.999991  0.291713  1
  Bi  Bi33  1  0.291261  0.582541  0.291259  1
  Bi  Bi34  1  0.708747  0.417473  0.708740  1
  Bi  Bi35  1  0.000016  0.999977  0.999976  1
  C  C36  1  0.395421  0.499977  0.604578  1
  C  C37  1  0.395273  0.499952  0.895225  1
  C  C38  1  0.895251  0.499980  0.395249  1
  C  C39  1  0.604762  0.500063  0.104777  1
  C  C40  1  0.895452  0.500017  0.104594  1
  C  C41  1  0.104743  0.500020  0.604754  1
  C  C42  1  0.395419  0.790838  0.895395  1
  C  C43  1  0.104591  0.209138  0.604600  1
  C  C44  1  0.104556  0.499974  0.895400  1
  C  C45  1  0.604596  0.500001  0.395389  1
  C  C46  1  0.604576  0.209142  0.104594  1
  C  C47  1  0.895391  0.790804  0.395389  1
