# generated using pymatgen
data_Y18Ho2Cd6RuPt
_symmetry_space_group_name_H-M   'P 1'
_cell_length_a   9.67787300
_cell_length_b   9.67787336
_cell_length_c   9.86533700
_cell_angle_alpha   90.00000000
_cell_angle_beta   90.00000000
_cell_angle_gamma   120.00000219
_symmetry_Int_Tables_number   1
_chemical_formula_structural   Y18Ho2Cd6RuPt
_chemical_formula_sum   'Y18 Ho2 Cd6 Ru1 Pt1'
_cell_volume   800.20710108
_cell_formula_units_Z   1
loop_
 _symmetry_equiv_pos_site_id
 _symmetry_equiv_pos_as_xyz
  1  'x, y, z'
loop_
 _atom_site_type_symbol
 _atom_site_label
 _atom_site_symmetry_multiplicity
 _atom_site_fract_x
 _atom_site_fract_y
 _atom_site_fract_z
 _atom_site_occupancy
  Y  Y0  1  0.208196  0.791804  0.442272  1
  Y  Y1  1  0.208196  0.416393  0.442272  1
  Y  Y2  1  0.583607  0.791804  0.442272  1
  Y  Y3  1  0.790209  0.209791  0.560339  1
  Y  Y4  1  0.790209  0.580417  0.560339  1
  Y  Y5  1  0.419583  0.209791  0.560339  1
  Y  Y6  1  0.790209  0.209791  0.939661  1
  Y  Y7  1  0.790209  0.580417  0.939661  1
  Y  Y8  1  0.419583  0.209791  0.939661  1
  Y  Y9  1  0.208196  0.791804  0.057728  1
  Y  Y10  1  0.208196  0.416393  0.057728  1
  Y  Y11  1  0.583607  0.791804  0.057728  1
  Y  Y12  1  0.542579  0.457421  0.250000  1
  Y  Y13  1  0.542579  0.085157  0.250000  1
  Y  Y14  1  0.914843  0.457421  0.250000  1
  Y  Y15  1  0.458603  0.541397  0.750000  1
  Y  Y16  1  0.458603  0.917207  0.750000  1
  Y  Y17  1  0.082793  0.541397  0.750000  1
  Ho  Ho18  1  0.000000  0.000000  0.499604  1
  Ho  Ho19  1  0.000000  0.000000  0.000396  1
  Cd  Cd20  1  0.885234  0.114766  0.250000  1
  Cd  Cd21  1  0.885234  0.770469  0.250000  1
  Cd  Cd22  1  0.229531  0.114766  0.250000  1
  Cd  Cd23  1  0.114675  0.885325  0.750000  1
  Cd  Cd24  1  0.114675  0.229348  0.750000  1
  Cd  Cd25  1  0.770652  0.885325  0.750000  1
  Ru  Ru26  1  0.666667  0.333333  0.750000  1
  Pt  Pt27  1  0.333333  0.666667  0.250000  1
