# generated using pymatgen
data_Tm7HfGaPd24
_symmetry_space_group_name_H-M   'P 1'
_cell_length_a   8.29563914
_cell_length_b   8.29563993
_cell_length_c   8.29564000
_cell_angle_alpha   90.20118667
_cell_angle_beta   90.20118669
_cell_angle_gamma   89.79881261
_symmetry_Int_Tables_number   1
_chemical_formula_structural   Tm7HfGaPd24
_chemical_formula_sum   'Tm7 Hf1 Ga1 Pd24'
_cell_volume   570.87579418
_cell_formula_units_Z   1
loop_
 _symmetry_equiv_pos_site_id
 _symmetry_equiv_pos_as_xyz
  1  'x, y, z'
loop_
 _atom_site_type_symbol
 _atom_site_label
 _atom_site_symmetry_multiplicity
 _atom_site_fract_x
 _atom_site_fract_y
 _atom_site_fract_z
 _atom_site_occupancy
  Tm  Tm0  1  0.252058  0.747999  0.252001  1
  Tm  Tm1  1  0.747999  0.252058  0.252001  1
  Tm  Tm2  1  0.747999  0.747999  0.747942  1
  Tm  Tm3  1  0.747353  0.747353  0.252647  1
  Tm  Tm4  1  0.748411  0.252481  0.747519  1
  Tm  Tm5  1  0.252481  0.748411  0.747519  1
  Tm  Tm6  1  0.252481  0.252481  0.251589  1
  Hf  Hf7  1  0.254567  0.254567  0.745433  1
  Ga  Ga8  1  0.997783  0.997783  0.002217  1
  Pd  Pd9  1  0.496046  0.496046  0.746821  1
  Pd  Pd10  1  0.496046  0.253179  0.503954  1
  Pd  Pd11  1  0.253179  0.496046  0.503954  1
  Pd  Pd12  1  0.498994  0.498994  0.252626  1
  Pd  Pd13  1  0.498994  0.747374  0.501006  1
  Pd  Pd14  1  0.747374  0.498994  0.501006  1
  Pd  Pd15  1  0.004420  0.004420  0.711726  1
  Pd  Pd16  1  0.004420  0.288274  0.995580  1
  Pd  Pd17  1  0.288274  0.004420  0.995580  1
  Pd  Pd18  1  0.000114  0.000114  0.292420  1
  Pd  Pd19  1  0.000114  0.707580  0.999886  1
  Pd  Pd20  1  0.707580  0.000114  0.999886  1
  Pd  Pd21  1  0.005796  0.496603  0.740193  1
  Pd  Pd22  1  0.496603  0.259807  0.994204  1
  Pd  Pd23  1  0.259807  0.005796  0.503397  1
  Pd  Pd24  1  0.005796  0.259807  0.503397  1
  Pd  Pd25  1  0.496603  0.005796  0.740193  1
  Pd  Pd26  1  0.259807  0.496603  0.994204  1
  Pd  Pd27  1  0.000686  0.498479  0.259716  1
  Pd  Pd28  1  0.498479  0.740284  0.999314  1
  Pd  Pd29  1  0.000686  0.740284  0.501521  1
  Pd  Pd30  1  0.498479  0.000686  0.259716  1
  Pd  Pd31  1  0.740284  0.000686  0.501521  1
  Pd  Pd32  1  0.740284  0.498479  0.999314  1
