# generated using pymatgen
data_Ru(ClF)2
_symmetry_space_group_name_H-M   'P 1'
_cell_length_a   5.41704080
_cell_length_b   5.41704207
_cell_length_c   3.53186180
_cell_angle_alpha   87.66399723
_cell_angle_beta   87.66399294
_cell_angle_gamma   94.66348384
_symmetry_Int_Tables_number   1
_chemical_formula_structural   Ru(ClF)2
_chemical_formula_sum   'Ru1 Cl2 F2'
_cell_volume   103.11006621
_cell_formula_units_Z   1
loop_
 _symmetry_equiv_pos_site_id
 _symmetry_equiv_pos_as_xyz
  1  'x, y, z'
loop_
 _atom_site_type_symbol
 _atom_site_label
 _atom_site_symmetry_multiplicity
 _atom_site_fract_x
 _atom_site_fract_y
 _atom_site_fract_z
 _atom_site_occupancy
  Ru  Ru0  1  0.000000  0.000000  0.000000  1
  Cl  Cl1  1  0.215140  0.215140  0.472684  1
  Cl  Cl2  1  0.784860  0.784860  0.527316  1
  F  F3  1  0.761994  0.238006  0.000000  1
  F  F4  1  0.238006  0.761994  0.000000  1
