# generated using pymatgen
data_KCu3F9
_symmetry_space_group_name_H-M   'P 1'
_cell_length_a   7.36914115
_cell_length_b   7.28157275
_cell_length_c   7.46772919
_cell_angle_alpha   90.02221174
_cell_angle_beta   90.01819841
_cell_angle_gamma   59.34233948
_symmetry_Int_Tables_number   1
_chemical_formula_structural   KCu3F9
_chemical_formula_sum   'K2 Cu6 F18'
_cell_volume   344.70281259
_cell_formula_units_Z   2
loop_
 _symmetry_equiv_pos_site_id
 _symmetry_equiv_pos_as_xyz
  1  'x, y, z'
loop_
 _atom_site_type_symbol
 _atom_site_label
 _atom_site_symmetry_multiplicity
 _atom_site_fract_x
 _atom_site_fract_y
 _atom_site_fract_z
 _atom_site_occupancy
  K  K0  1  0.983128  0.507274  0.249487  1
  K  K1  1  0.014541  0.495856  0.749735  1
  Cu  Cu2  1  0.499351  0.000255  0.000084  1
  Cu  Cu3  1  0.499253  0.500252  0.999018  1
  Cu  Cu4  1  0.999177  0.000032  0.499456  1
  Cu  Cu5  1  0.999408  0.000170  0.999463  1
  Cu  Cu6  1  0.499511  0.500012  0.498967  1
  Cu  Cu7  1  0.499013  0.000298  0.500300  1
  F  F8  1  0.560581  0.511736  0.748892  1
  F  F9  1  0.440330  0.073706  0.250229  1
  F  F10  1  0.795787  0.298532  0.458777  1
  F  F11  1  0.199443  0.102633  0.536211  1
  F  F12  1  0.795021  0.298690  0.037651  1
  F  F13  1  0.197156  0.104995  0.964998  1
  F  F14  1  0.420728  0.290388  0.551543  1
  F  F15  1  0.578335  0.709904  0.448616  1
  F  F16  1  0.063957  0.966820  0.249751  1
  F  F17  1  0.934585  0.032873  0.749390  1
  F  F18  1  0.421779  0.289728  0.948971  1
  F  F19  1  0.576375  0.710804  0.050836  1
  F  F20  1  0.798887  0.897003  0.465171  1
  F  F21  1  0.202843  0.701136  0.537590  1
  F  F22  1  0.801453  0.895629  0.036266  1
  F  F23  1  0.203610  0.701623  0.958689  1
  F  F24  1  0.558795  0.925598  0.749996  1
  F  F25  1  0.438082  0.487834  0.249305  1
