# generated using pymatgen
data_Sm4Ti3Cr5O20
_symmetry_space_group_name_H-M   'P 1'
_cell_length_a   5.76735500
_cell_length_b   7.54025536
_cell_length_c   8.60548100
_cell_angle_alpha   89.95471203
_cell_angle_beta   90.00000000
_cell_angle_gamma   90.00000000
_symmetry_Int_Tables_number   1
_chemical_formula_structural   Sm4Ti3Cr5O20
_chemical_formula_sum   'Sm4 Ti3 Cr5 O20'
_cell_volume   374.22927021
_cell_formula_units_Z   1
loop_
 _symmetry_equiv_pos_site_id
 _symmetry_equiv_pos_as_xyz
  1  'x, y, z'
loop_
 _atom_site_type_symbol
 _atom_site_label
 _atom_site_symmetry_multiplicity
 _atom_site_fract_x
 _atom_site_fract_y
 _atom_site_fract_z
 _atom_site_occupancy
  Sm  Sm0  1  0.000000  0.357961  0.671643  1
  Sm  Sm1  1  0.000000  0.639547  0.328863  1
  Sm  Sm2  1  0.000000  0.862399  0.828308  1
  Sm  Sm3  1  0.000000  0.140651  0.171723  1
  Ti  Ti4  1  0.500000  0.881647  0.145339  1
  Ti  Ti5  1  0.500000  0.617836  0.643891  1
  Ti  Ti6  1  0.500000  0.382242  0.355470  1
  Cr  Cr7  1  0.500000  0.115426  0.858303  1
  Cr  Cr8  1  0.247469  0.497889  0.998842  1
  Cr  Cr9  1  0.751693  0.001048  0.501115  1
  Cr  Cr10  1  0.752531  0.497889  0.998842  1
  Cr  Cr11  1  0.248307  0.001048  0.501115  1
  O  O12  1  0.249414  0.894780  0.286572  1
  O  O13  1  0.248787  0.105339  0.714211  1
  O  O14  1  0.750351  0.395203  0.212454  1
  O  O15  1  0.749859  0.603631  0.786635  1
  O  O16  1  0.751213  0.105339  0.714211  1
  O  O17  1  0.750586  0.894780  0.286572  1
  O  O18  1  0.250141  0.603631  0.786635  1
  O  O19  1  0.249649  0.395203  0.212454  1
  O  O20  1  0.500000  0.337543  0.925944  1
  O  O21  1  0.500000  0.660188  0.072487  1
  O  O22  1  0.500000  0.839817  0.573249  1
  O  O23  1  0.500000  0.159993  0.425022  1
  O  O24  1  0.281567  0.004865  0.000414  1
  O  O25  1  0.719785  0.499899  0.499358  1
  O  O26  1  0.718433  0.004865  0.000414  1
  O  O27  1  0.280215  0.499899  0.499358  1
  O  O28  1  0.000000  0.167809  0.443663  1
  O  O29  1  0.000000  0.833366  0.557445  1
  O  O30  1  0.000000  0.666540  0.055872  1
  O  O31  1  0.000000  0.331730  0.943578  1
