# generated using pymatgen
data_Tb11Y(IrPd)2
_symmetry_space_group_name_H-M   'P 1'
_cell_length_a   6.46278018
_cell_length_b   7.17814151
_cell_length_c   9.54280200
_cell_angle_alpha   90.00000000
_cell_angle_beta   90.00000000
_cell_angle_gamma   90.30587616
_symmetry_Int_Tables_number   1
_chemical_formula_structural   Tb11Y(IrPd)2
_chemical_formula_sum   'Tb11 Y1 Ir2 Pd2'
_cell_volume   442.69143993
_cell_formula_units_Z   1
loop_
 _symmetry_equiv_pos_site_id
 _symmetry_equiv_pos_as_xyz
  1  'x, y, z'
loop_
 _atom_site_type_symbol
 _atom_site_label
 _atom_site_symmetry_multiplicity
 _atom_site_fract_x
 _atom_site_fract_y
 _atom_site_fract_z
 _atom_site_occupancy
  Tb  Tb0  1  0.627639  0.037764  0.250000  1
  Tb  Tb1  1  0.373767  0.962723  0.750000  1
  Tb  Tb2  1  0.136413  0.477546  0.750000  1
  Tb  Tb3  1  0.177037  0.184074  0.062262  1
  Tb  Tb4  1  0.822970  0.815423  0.937915  1
  Tb  Tb5  1  0.670221  0.322800  0.939379  1
  Tb  Tb6  1  0.822970  0.815423  0.562085  1
  Tb  Tb7  1  0.329597  0.677339  0.060804  1
  Tb  Tb8  1  0.177037  0.184074  0.437738  1
  Tb  Tb9  1  0.329597  0.677339  0.439196  1
  Tb  Tb10  1  0.670221  0.322800  0.560621  1
  Y  Y11  1  0.864133  0.522273  0.250000  1
  Ir  Ir12  1  0.444675  0.386098  0.250000  1
  Ir  Ir13  1  0.553945  0.613702  0.750000  1
  Pd  Pd14  1  0.947645  0.112493  0.750000  1
  Pd  Pd15  1  0.052131  0.888129  0.250000  1
