# generated using pymatgen
data_LuNb(SnRu2)2
_symmetry_space_group_name_H-M   'P 1'
_cell_length_a   4.57101201
_cell_length_b   6.46628107
_cell_length_c   13.70484316
_cell_angle_alpha   89.98305954
_cell_angle_beta   90.00050827
_cell_angle_gamma   89.99763481
_symmetry_Int_Tables_number   1
_chemical_formula_structural   LuNb(SnRu2)2
_chemical_formula_sum   'Lu3 Nb3 Sn6 Ru12'
_cell_volume   405.08017665
_cell_formula_units_Z   3
loop_
 _symmetry_equiv_pos_site_id
 _symmetry_equiv_pos_as_xyz
  1  'x, y, z'
loop_
 _atom_site_type_symbol
 _atom_site_label
 _atom_site_symmetry_multiplicity
 _atom_site_fract_x
 _atom_site_fract_y
 _atom_site_fract_z
 _atom_site_occupancy
  Lu  Lu0  1  0.999799  0.999920  0.998999  1
  Lu  Lu1  1  0.499989  0.500106  0.166654  1
  Lu  Lu2  1  0.000086  0.999827  0.334368  1
  Nb  Nb3  1  0.500094  0.499910  0.498252  1
  Nb  Nb4  1  0.999929  0.999853  0.666643  1
  Nb  Nb5  1  0.499933  0.500058  0.835093  1
  Sn  Sn6  1  0.000071  0.500091  0.000899  1
  Sn  Sn7  1  0.499586  0.000299  0.166681  1
  Sn  Sn8  1  0.000447  0.499650  0.332316  1
  Sn  Sn9  1  0.499794  0.999918  0.501630  1
  Sn  Sn10  1  0.000184  0.499967  0.666715  1
  Sn  Sn11  1  0.499850  0.000227  0.831673  1
  Ru  Ru12  1  0.499852  0.257525  0.990887  1
  Ru  Ru13  1  0.499851  0.742543  0.990783  1
  Ru  Ru14  1  0.999936  0.248222  0.166653  1
  Ru  Ru15  1  0.999924  0.751834  0.166677  1
  Ru  Ru16  1  0.500288  0.257446  0.342484  1
  Ru  Ru17  1  0.500263  0.742277  0.342536  1
  Ru  Ru18  1  0.000034  0.255803  0.507474  1
  Ru  Ru19  1  0.000061  0.744137  0.507492  1
  Ru  Ru20  1  0.500109  0.248326  0.666621  1
  Ru  Ru21  1  0.500125  0.751874  0.666665  1
  Ru  Ru22  1  0.999915  0.255879  0.825928  1
  Ru  Ru23  1  0.999883  0.744314  0.825878  1
