# generated using pymatgen
data_Tm2SiCO7
_symmetry_space_group_name_H-M   'P 1'
_cell_length_a   6.59040043
_cell_length_b   6.61812938
_cell_length_c   6.43687177
_cell_angle_alpha   116.39438462
_cell_angle_beta   93.20775161
_cell_angle_gamma   95.14205553
_symmetry_Int_Tables_number   1
_chemical_formula_structural   Tm2SiCO7
_chemical_formula_sum   'Tm4 Si2 C2 O14'
_cell_volume   249.02424159
_cell_formula_units_Z   2
loop_
 _symmetry_equiv_pos_site_id
 _symmetry_equiv_pos_as_xyz
  1  'x, y, z'
loop_
 _atom_site_type_symbol
 _atom_site_label
 _atom_site_symmetry_multiplicity
 _atom_site_fract_x
 _atom_site_fract_y
 _atom_site_fract_z
 _atom_site_occupancy
  Tm  Tm0  1  0.085674  0.302126  0.747419  1
  Tm  Tm1  1  0.914326  0.697875  0.252581  1
  Tm  Tm2  1  0.667446  0.184287  0.256082  1
  Tm  Tm3  1  0.332554  0.815712  0.743918  1
  Si  Si4  1  0.157996  0.243933  0.262692  1
  Si  Si5  1  0.842004  0.756067  0.737308  1
  C  C6  1  0.587863  0.265423  0.806769  1
  C  C7  1  0.412137  0.734577  0.193230  1
  O  O8  1  0.398785  0.166292  0.734770  1
  O  O9  1  0.601213  0.833707  0.265230  1
  O  O10  1  0.038435  0.345977  0.106622  1
  O  O11  1  0.961567  0.654021  0.893378  1
  O  O12  1  0.646529  0.375438  0.027616  1
  O  O13  1  0.353471  0.624562  0.972383  1
  O  O14  1  0.244009  0.444535  0.524930  1
  O  O15  1  0.755991  0.555466  0.475070  1
  O  O16  1  0.714571  0.247904  0.656321  1
  O  O17  1  0.285430  0.752094  0.343679  1
  O  O18  1  0.335076  0.093041  0.129251  1
  O  O19  1  0.664923  0.906959  0.870749  1
  O  O20  1  0.981314  0.089986  0.330771  1
  O  O21  1  0.018685  0.910013  0.669229  1
