# generated using pymatgen
data_Ba6TbHo(Ir2O9)2
_symmetry_space_group_name_H-M   'P 1'
_cell_length_a   5.95470800
_cell_length_b   5.95470765
_cell_length_c   14.72555900
_cell_angle_alpha   90.00000000
_cell_angle_beta   90.00000000
_cell_angle_gamma   120.00000192
_symmetry_Int_Tables_number   1
_chemical_formula_structural   Ba6TbHo(Ir2O9)2
_chemical_formula_sum   'Ba6 Tb1 Ho1 Ir4 O18'
_cell_volume   452.19247191
_cell_formula_units_Z   1
loop_
 _symmetry_equiv_pos_site_id
 _symmetry_equiv_pos_as_xyz
  1  'x, y, z'
loop_
 _atom_site_type_symbol
 _atom_site_label
 _atom_site_symmetry_multiplicity
 _atom_site_fract_x
 _atom_site_fract_y
 _atom_site_fract_z
 _atom_site_occupancy
  Ba  Ba0  1  0.000000  0.000000  0.249490  1
  Ba  Ba1  1  0.000000  0.000000  0.750510  1
  Ba  Ba2  1  0.333333  0.666667  0.592509  1
  Ba  Ba3  1  0.666667  0.333333  0.407491  1
  Ba  Ba4  1  0.666667  0.333333  0.092033  1
  Ba  Ba5  1  0.333333  0.666667  0.907967  1
  Tb  Tb6  1  0.000000  0.000000  0.500000  1
  Ho  Ho7  1  0.000000  0.000000  0.000000  1
  Ir  Ir8  1  0.333333  0.666667  0.335169  1
  Ir  Ir9  1  0.666667  0.333333  0.664831  1
  Ir  Ir10  1  0.666667  0.333333  0.836270  1
  Ir  Ir11  1  0.333333  0.666667  0.163730  1
  O  O12  1  0.490910  0.509090  0.249651  1
  O  O13  1  0.490910  0.981822  0.249651  1
  O  O14  1  0.018178  0.509090  0.249651  1
  O  O15  1  0.509090  0.490910  0.750349  1
  O  O16  1  0.509090  0.018178  0.750349  1
  O  O17  1  0.981822  0.490910  0.750349  1
  O  O18  1  0.175614  0.824386  0.086393  1
  O  O19  1  0.175614  0.351229  0.086393  1
  O  O20  1  0.648771  0.824386  0.086393  1
  O  O21  1  0.824386  0.175614  0.913607  1
  O  O22  1  0.824386  0.648771  0.913607  1
  O  O23  1  0.351229  0.175614  0.913607  1
  O  O24  1  0.823155  0.176845  0.587146  1
  O  O25  1  0.823155  0.646310  0.587146  1
  O  O26  1  0.353690  0.176845  0.587146  1
  O  O27  1  0.176845  0.823155  0.412854  1
  O  O28  1  0.176845  0.353690  0.412854  1
  O  O29  1  0.646310  0.823155  0.412854  1
