# generated using pymatgen
data_NaSr2IrO6
_symmetry_space_group_name_H-M   'P 1'
_cell_length_a   5.98672206
_cell_length_b   5.74836042
_cell_length_c   9.96420626
_cell_angle_alpha   55.01475325
_cell_angle_beta   89.99425186
_cell_angle_gamma   90.00924787
_symmetry_Int_Tables_number   1
_chemical_formula_structural   NaSr2IrO6
_chemical_formula_sum   'Na2 Sr4 Ir2 O12'
_cell_volume   280.94323443
_cell_formula_units_Z   2
loop_
 _symmetry_equiv_pos_site_id
 _symmetry_equiv_pos_as_xyz
  1  'x, y, z'
loop_
 _atom_site_type_symbol
 _atom_site_label
 _atom_site_symmetry_multiplicity
 _atom_site_fract_x
 _atom_site_fract_y
 _atom_site_fract_z
 _atom_site_occupancy
  Na  Na0  1  0.500000  0.000000  0.000000  1
  Na  Na1  1  0.000000  0.000000  0.500000  1
  Sr  Sr2  1  0.940032  0.233339  0.751769  1
  Sr  Sr3  1  0.439833  0.766534  0.748398  1
  Sr  Sr4  1  0.560167  0.233466  0.251602  1
  Sr  Sr5  1  0.059968  0.766661  0.248231  1
  Ir  Ir6  1  0.500000  0.500000  0.500000  1
  Ir  Ir7  1  0.000000  0.500000  0.000000  1
  O  O8  1  0.473381  0.637538  0.273905  1
  O  O9  1  0.180082  0.816242  0.956387  1
  O  O10  1  0.232450  0.277291  0.549171  1
  O  O11  1  0.732414  0.722696  0.950848  1
  O  O12  1  0.679970  0.183902  0.543586  1
  O  O13  1  0.973327  0.362519  0.226077  1
  O  O14  1  0.026673  0.637481  0.773923  1
  O  O15  1  0.320030  0.816098  0.456414  1
  O  O16  1  0.267586  0.277304  0.049152  1
  O  O17  1  0.819918  0.183758  0.043613  1
  O  O18  1  0.767550  0.722709  0.450829  1
  O  O19  1  0.526619  0.362462  0.726095  1
