# generated using pymatgen
data_CeDy2In3Pt2Rh
_symmetry_space_group_name_H-M   'P 1'
_cell_length_a   7.76404963
_cell_length_b   7.73978128
_cell_length_c   3.82142900
_cell_angle_alpha   90.00000000
_cell_angle_beta   90.00000000
_cell_angle_gamma   119.89666613
_symmetry_Int_Tables_number   1
_chemical_formula_structural   CeDy2In3Pt2Rh
_chemical_formula_sum   'Ce1 Dy2 In3 Pt2 Rh1'
_cell_volume   199.07865144
_cell_formula_units_Z   1
loop_
 _symmetry_equiv_pos_site_id
 _symmetry_equiv_pos_as_xyz
  1  'x, y, z'
loop_
 _atom_site_type_symbol
 _atom_site_label
 _atom_site_symmetry_multiplicity
 _atom_site_fract_x
 _atom_site_fract_y
 _atom_site_fract_z
 _atom_site_occupancy
  Ce  Ce0  1  0.000000  0.408110  0.500000  1
  Dy  Dy1  1  0.406233  0.997954  0.500000  1
  Dy  Dy2  1  0.593767  0.591721  0.500000  1
  In  In3  1  0.000000  0.748950  0.000000  1
  In  In4  1  0.738513  0.994043  0.000000  1
  In  In5  1  0.261487  0.255530  0.000000  1
  Pt  Pt6  1  0.671096  0.334502  0.000000  1
  Pt  Pt7  1  0.328904  0.663407  0.000000  1
  Rh  Rh8  1  0.000000  0.005783  0.500000  1
