# generated using pymatgen
data_MnOsBr6
_symmetry_space_group_name_H-M   'P 1'
_cell_length_a   6.61674429
_cell_length_b   6.61669002
_cell_length_c   6.98733024
_cell_angle_alpha   99.06141407
_cell_angle_beta   99.05512337
_cell_angle_gamma   119.88799350
_symmetry_Int_Tables_number   1
_chemical_formula_structural   MnOsBr6
_chemical_formula_sum   'Mn1 Os1 Br6'
_cell_volume   251.78132524
_cell_formula_units_Z   1
loop_
 _symmetry_equiv_pos_site_id
 _symmetry_equiv_pos_as_xyz
  1  'x, y, z'
loop_
 _atom_site_type_symbol
 _atom_site_label
 _atom_site_symmetry_multiplicity
 _atom_site_fract_x
 _atom_site_fract_y
 _atom_site_fract_z
 _atom_site_occupancy
  Mn  Mn0  1  0.832494  0.167269  0.999755  1
  Os  Os1  1  0.166438  0.833639  0.000095  1
  Br  Br2  1  0.555862  0.918911  0.215710  1
  Br  Br3  1  0.933537  0.586795  0.214802  1
  Br  Br4  1  0.222540  0.208559  0.216027  1
  Br  Br5  1  0.791487  0.777348  0.784018  1
  Br  Br6  1  0.413108  0.066497  0.785232  1
  Br  Br7  1  0.081256  0.444263  0.784367  1
