# generated using pymatgen
data_Co4Si2Mo2W4C
_symmetry_space_group_name_H-M   'P 1'
_cell_length_a   7.72861668
_cell_length_b   7.73031260
_cell_length_c   7.72980812
_cell_angle_alpha   59.98884834
_cell_angle_beta   60.00509442
_cell_angle_gamma   60.00725047
_symmetry_Int_Tables_number   1
_chemical_formula_structural   Co4Si2Mo2W4C
_chemical_formula_sum   'Co8 Si4 Mo4 W8 C2'
_cell_volume   326.55506919
_cell_formula_units_Z   2
loop_
 _symmetry_equiv_pos_site_id
 _symmetry_equiv_pos_as_xyz
  1  'x, y, z'
loop_
 _atom_site_type_symbol
 _atom_site_label
 _atom_site_symmetry_multiplicity
 _atom_site_fract_x
 _atom_site_fract_y
 _atom_site_fract_z
 _atom_site_occupancy
  Co  Co0  1  0.418602  0.417171  0.745627  1
  Co  Co1  1  0.418248  0.745294  0.418212  1
  Co  Co2  1  0.745449  0.417735  0.419163  1
  Co  Co3  1  0.417656  0.417735  0.419163  1
  Co  Co4  1  0.831418  0.831002  0.506161  1
  Co  Co5  1  0.832094  0.505513  0.830297  1
  Co  Co6  1  0.505852  0.832498  0.831012  1
  Co  Co7  1  0.830635  0.832498  0.831012  1
  Si  Si8  1  0.624854  0.624436  0.125856  1
  Si  Si9  1  0.625157  0.125858  0.623828  1
  Si  Si10  1  0.125826  0.625488  0.624509  1
  Si  Si11  1  0.624176  0.625488  0.624509  1
  Mo  Mo12  1  0.196734  0.802870  0.803662  1
  Mo  Mo13  1  0.804088  0.803776  0.196280  1
  Mo  Mo14  1  0.195856  0.803776  0.196280  1
  Mo  Mo15  1  0.803261  0.196276  0.197203  1
  W  W16  1  0.053231  0.052866  0.446968  1
  W  W17  1  0.446936  0.052866  0.446968  1
  W  W18  1  0.053076  0.446841  0.447006  1
  W  W19  1  0.447051  0.446954  0.053137  1
  W  W20  1  0.052858  0.446954  0.053137  1
  W  W21  1  0.446922  0.052701  0.053455  1
  W  W22  1  0.196648  0.196216  0.803771  1
  W  W23  1  0.803364  0.196216  0.803771  1
  C  C24  1  0.249989  0.250122  0.249900  1
  C  C25  1  0.000017  0.000852  0.999114  1
