# generated using pymatgen
data_TbCeReB6
_symmetry_space_group_name_H-M   'P 1'
_cell_length_a   3.73978800
_cell_length_b   9.23824000
_cell_length_c   11.61271500
_cell_angle_alpha   90.00000000
_cell_angle_beta   90.00000000
_cell_angle_gamma   90.00000000
_symmetry_Int_Tables_number   1
_chemical_formula_structural   TbCeReB6
_chemical_formula_sum   'Tb4 Ce4 Re4 B24'
_cell_volume   401.20837677
_cell_formula_units_Z   4
loop_
 _symmetry_equiv_pos_site_id
 _symmetry_equiv_pos_as_xyz
  1  'x, y, z'
loop_
 _atom_site_type_symbol
 _atom_site_label
 _atom_site_symmetry_multiplicity
 _atom_site_fract_x
 _atom_site_fract_y
 _atom_site_fract_z
 _atom_site_occupancy
  Tb  Tb0  1  0.000000  0.944520  0.372927  1
  Tb  Tb1  1  0.000000  0.055480  0.627073  1
  Tb  Tb2  1  0.000000  0.444520  0.127073  1
  Tb  Tb3  1  0.000000  0.555480  0.872927  1
  Ce  Ce4  1  0.000000  0.323197  0.413936  1
  Ce  Ce5  1  0.000000  0.676803  0.586064  1
  Ce  Ce6  1  0.000000  0.823197  0.086064  1
  Ce  Ce7  1  0.000000  0.176803  0.913936  1
  Re  Re8  1  0.000000  0.638500  0.321357  1
  Re  Re9  1  0.000000  0.361500  0.678643  1
  Re  Re10  1  0.000000  0.138500  0.178643  1
  Re  Re11  1  0.000000  0.861500  0.821357  1
  B  B12  1  0.500000  0.554359  0.431770  1
  B  B13  1  0.500000  0.445641  0.568230  1
  B  B14  1  0.500000  0.054359  0.068230  1
  B  B15  1  0.500000  0.945641  0.931770  1
  B  B16  1  0.500000  0.747875  0.418882  1
  B  B17  1  0.500000  0.252125  0.581118  1
  B  B18  1  0.500000  0.247875  0.081118  1
  B  B19  1  0.500000  0.752125  0.918882  1
  B  B20  1  0.500000  0.791252  0.266550  1
  B  B21  1  0.500000  0.208748  0.733450  1
  B  B22  1  0.500000  0.291252  0.233450  1
  B  B23  1  0.500000  0.708748  0.766550  1
  B  B24  1  0.500000  0.632363  0.186529  1
  B  B25  1  0.500000  0.367637  0.813471  1
  B  B26  1  0.500000  0.132363  0.313471  1
  B  B27  1  0.500000  0.867637  0.686529  1
  B  B28  1  0.500000  0.984484  0.212722  1
  B  B29  1  0.500000  0.015516  0.787278  1
  B  B30  1  0.500000  0.484484  0.287278  1
  B  B31  1  0.500000  0.515516  0.712722  1
  B  B32  1  0.500000  0.609199  0.030311  1
  B  B33  1  0.500000  0.390801  0.969689  1
  B  B34  1  0.500000  0.109199  0.469689  1
  B  B35  1  0.500000  0.890801  0.530311  1
