# generated using pymatgen
data_Y2ErTi(Co4P3)2
_symmetry_space_group_name_H-M   'P 1'
_cell_length_a   3.68959200
_cell_length_b   10.58476900
_cell_length_c   12.28109800
_cell_angle_alpha   90.00000000
_cell_angle_beta   90.00000000
_cell_angle_gamma   90.00000000
_symmetry_Int_Tables_number   1
_chemical_formula_structural   Y2ErTi(Co4P3)2
_chemical_formula_sum   'Y4 Er2 Ti2 Co16 P12'
_cell_volume   479.61960314
_cell_formula_units_Z   2
loop_
 _symmetry_equiv_pos_site_id
 _symmetry_equiv_pos_as_xyz
  1  'x, y, z'
loop_
 _atom_site_type_symbol
 _atom_site_label
 _atom_site_symmetry_multiplicity
 _atom_site_fract_x
 _atom_site_fract_y
 _atom_site_fract_z
 _atom_site_occupancy
  Y  Y0  1  0.000000  0.500000  0.525211  1
  Y  Y1  1  0.500000  0.000000  0.474450  1
  Y  Y2  1  0.000000  0.680270  0.795941  1
  Y  Y3  1  0.000000  0.319730  0.795941  1
  Er  Er4  1  0.500000  0.820351  0.204042  1
  Er  Er5  1  0.500000  0.179649  0.204042  1
  Ti  Ti6  1  0.500000  0.500000  0.153528  1
  Ti  Ti7  1  0.000000  0.000000  0.846308  1
  Co  Co8  1  0.500000  0.500000  0.703096  1
  Co  Co9  1  0.000000  0.000000  0.296286  1
  Co  Co10  1  0.000000  0.500000  0.988423  1
  Co  Co11  1  0.500000  0.000000  0.013406  1
  Co  Co12  1  0.500000  0.331816  0.995055  1
  Co  Co13  1  0.500000  0.668184  0.995055  1
  Co  Co14  1  0.000000  0.167556  0.006797  1
  Co  Co15  1  0.000000  0.832444  0.006797  1
  Co  Co16  1  0.500000  0.295514  0.431082  1
  Co  Co17  1  0.500000  0.704486  0.431082  1
  Co  Co18  1  0.000000  0.203910  0.567306  1
  Co  Co19  1  0.000000  0.796090  0.567306  1
  Co  Co20  1  0.500000  0.878652  0.705644  1
  Co  Co21  1  0.500000  0.121348  0.705644  1
  Co  Co22  1  0.000000  0.621941  0.293603  1
  Co  Co23  1  0.000000  0.378059  0.293603  1
  P  P24  1  0.500000  0.500000  0.884250  1
  P  P25  1  0.000000  0.000000  0.117383  1
  P  P26  1  0.500000  0.500000  0.352744  1
  P  P27  1  0.000000  0.000000  0.646751  1
  P  P28  1  0.500000  0.310075  0.615380  1
  P  P29  1  0.500000  0.689925  0.615380  1
  P  P30  1  0.000000  0.189333  0.382880  1
  P  P31  1  0.000000  0.810667  0.382880  1
  P  P32  1  0.500000  0.843286  0.892545  1
  P  P33  1  0.500000  0.156714  0.892545  1
  P  P34  1  0.000000  0.657762  0.108807  1
  P  P35  1  0.000000  0.342238  0.108807  1
