# generated using pymatgen
data_La2Nd3(B3Ru)2
_symmetry_space_group_name_H-M   'P 1'
_cell_length_a   5.61563179
_cell_length_b   5.61563259
_cell_length_c   8.78763405
_cell_angle_alpha   71.36614652
_cell_angle_beta   71.36614167
_cell_angle_gamma   59.99999993
_symmetry_Int_Tables_number   1
_chemical_formula_structural   La2Nd3(B3Ru)2
_chemical_formula_sum   'La2 Nd3 B6 Ru2'
_cell_volume   223.06208156
_cell_formula_units_Z   1
loop_
 _symmetry_equiv_pos_site_id
 _symmetry_equiv_pos_as_xyz
  1  'x, y, z'
loop_
 _atom_site_type_symbol
 _atom_site_label
 _atom_site_symmetry_multiplicity
 _atom_site_fract_x
 _atom_site_fract_y
 _atom_site_fract_z
 _atom_site_occupancy
  La  La0  1  0.000553  0.000553  0.998341  1
  La  La1  1  0.250704  0.250704  0.247887  1
  Nd  Nd2  1  0.750781  0.750781  0.747658  1
  Nd  Nd3  1  0.417613  0.417613  0.747161  1
  Nd  Nd4  1  0.581990  0.581990  0.254030  1
  B  B5  1  0.171660  0.827481  0.500658  1
  B  B6  1  0.827481  0.500201  0.500658  1
  B  B7  1  0.500201  0.171660  0.500658  1
  B  B8  1  0.171660  0.500201  0.500658  1
  B  B9  1  0.500201  0.827481  0.500658  1
  B  B10  1  0.827481  0.171660  0.500658  1
  Ru  Ru11  1  0.114852  0.114852  0.655444  1
  Ru  Ru12  1  0.884823  0.884823  0.345533  1
