# generated using pymatgen
data_Er6Sc4Si5Se
_symmetry_space_group_name_H-M   'P 1'
_cell_length_a   8.20103300
_cell_length_b   8.24254330
_cell_length_c   5.94965000
_cell_angle_alpha   90.00000000
_cell_angle_beta   90.00000000
_cell_angle_gamma   119.83354241
_symmetry_Int_Tables_number   1
_chemical_formula_structural   Er6Sc4Si5Se
_chemical_formula_sum   'Er6 Sc4 Si5 Se1'
_cell_volume   348.88143801
_cell_formula_units_Z   1
loop_
 _symmetry_equiv_pos_site_id
 _symmetry_equiv_pos_as_xyz
  1  'x, y, z'
loop_
 _atom_site_type_symbol
 _atom_site_label
 _atom_site_symmetry_multiplicity
 _atom_site_fract_x
 _atom_site_fract_y
 _atom_site_fract_z
 _atom_site_occupancy
  Er  Er0  1  0.994332  0.749204  0.750000  1
  Er  Er1  1  0.000851  0.246832  0.250000  1
  Er  Er2  1  0.754020  0.753168  0.250000  1
  Er  Er3  1  0.756128  0.000000  0.750000  1
  Er  Er4  1  0.245128  0.250796  0.750000  1
  Er  Er5  1  0.246443  0.000000  0.250000  1
  Sc  Sc6  1  0.331832  0.661022  0.497763  1
  Sc  Sc7  1  0.670811  0.338978  0.002237  1
  Sc  Sc8  1  0.670811  0.338978  0.497763  1
  Sc  Sc9  1  0.331832  0.661022  0.002237  1
  Si  Si10  1  0.398282  0.395951  0.250000  1
  Si  Si11  1  0.002331  0.604049  0.250000  1
  Si  Si12  1  0.998899  0.397801  0.750000  1
  Si  Si13  1  0.601097  0.602199  0.750000  1
  Si  Si14  1  0.604737  0.000000  0.250000  1
  Se  Se15  1  0.392465  0.000000  0.750000  1
