# generated using pymatgen
data_Sc12Ti3AlCo8
_symmetry_space_group_name_H-M   'P 1'
_cell_length_a   8.31898571
_cell_length_b   8.25460975
_cell_length_c   8.25461000
_cell_angle_alpha   59.99999902
_cell_angle_beta   60.25565604
_cell_angle_gamma   60.25565961
_symmetry_Int_Tables_number   1
_chemical_formula_structural   Sc12Ti3AlCo8
_chemical_formula_sum   'Sc12 Ti3 Al1 Co8'
_cell_volume   402.36106429
_cell_formula_units_Z   1
loop_
 _symmetry_equiv_pos_site_id
 _symmetry_equiv_pos_as_xyz
  1  'x, y, z'
loop_
 _atom_site_type_symbol
 _atom_site_label
 _atom_site_symmetry_multiplicity
 _atom_site_fract_x
 _atom_site_fract_y
 _atom_site_fract_z
 _atom_site_occupancy
  Sc  Sc0  1  0.809001  0.810981  0.190010  1
  Sc  Sc1  1  0.190505  0.194579  0.807458  1
  Sc  Sc2  1  0.809001  0.190010  0.810981  1
  Sc  Sc3  1  0.190505  0.807458  0.194579  1
  Sc  Sc4  1  0.190505  0.807458  0.807458  1
  Sc  Sc5  1  0.809001  0.190010  0.190010  1
  Sc  Sc6  1  0.440999  0.439019  0.059990  1
  Sc  Sc7  1  0.059495  0.055421  0.442542  1
  Sc  Sc8  1  0.440999  0.059990  0.439019  1
  Sc  Sc9  1  0.059495  0.442542  0.055421  1
  Sc  Sc10  1  0.059495  0.442542  0.442542  1
  Sc  Sc11  1  0.440999  0.059990  0.059990  1
  Ti  Ti12  1  0.625000  0.125000  0.625000  1
  Ti  Ti13  1  0.625000  0.625000  0.125000  1
  Ti  Ti14  1  0.625000  0.625000  0.625000  1
  Al  Al15  1  0.125000  0.625000  0.625000  1
  Co  Co16  1  0.740010  0.419996  0.419996  1
  Co  Co17  1  0.421212  0.739356  0.419716  1
  Co  Co18  1  0.421212  0.419716  0.739356  1
  Co  Co19  1  0.421212  0.419716  0.419716  1
  Co  Co20  1  0.509990  0.830004  0.830004  1
  Co  Co21  1  0.828788  0.510644  0.830284  1
  Co  Co22  1  0.828788  0.830284  0.510644  1
  Co  Co23  1  0.828788  0.830284  0.830284  1
