# generated using pymatgen
data_HfSc7Nb12(Si7Ge)2
_symmetry_space_group_name_H-M   'P 1'
_cell_length_a   6.72634041
_cell_length_b   6.91382794
_cell_length_c   13.19881081
_cell_angle_alpha   89.87095340
_cell_angle_beta   90.11041368
_cell_angle_gamma   90.03314103
_symmetry_Int_Tables_number   1
_chemical_formula_structural   HfSc7Nb12(Si7Ge)2
_chemical_formula_sum   'Hf1 Sc7 Nb12 Si14 Ge2'
_cell_volume   613.80473413
_cell_formula_units_Z   1
loop_
 _symmetry_equiv_pos_site_id
 _symmetry_equiv_pos_as_xyz
  1  'x, y, z'
loop_
 _atom_site_type_symbol
 _atom_site_label
 _atom_site_symmetry_multiplicity
 _atom_site_fract_x
 _atom_site_fract_y
 _atom_site_fract_z
 _atom_site_occupancy
  Hf  Hf0  1  0.499621  0.673756  0.597660  1
  Sc  Sc1  1  0.999191  0.825772  0.904208  1
  Sc  Sc2  1  0.501845  0.323443  0.096138  1
  Sc  Sc3  1  0.002698  0.176526  0.404054  1
  Sc  Sc4  1  0.499031  0.327687  0.404584  1
  Sc  Sc5  1  0.998358  0.173040  0.095842  1
  Sc  Sc6  1  0.501759  0.675044  0.903956  1
  Sc  Sc7  1  0.999790  0.823412  0.595729  1
  Nb  Nb8  1  0.659536  0.177028  0.625549  1
  Nb  Nb9  1  0.162228  0.322956  0.873387  1
  Nb  Nb10  1  0.338981  0.829863  0.126135  1
  Nb  Nb11  1  0.839236  0.671032  0.374285  1
  Nb  Nb12  1  0.336582  0.824508  0.375814  1
  Nb  Nb13  1  0.835792  0.674571  0.124894  1
  Nb  Nb14  1  0.662254  0.173827  0.874359  1
  Nb  Nb15  1  0.164449  0.327123  0.624475  1
  Nb  Nb16  1  0.835522  0.496287  0.749199  1
  Nb  Nb17  1  0.336726  0.004192  0.748782  1
  Nb  Nb18  1  0.163609  0.504752  0.251799  1
  Nb  Nb19  1  0.662957  0.993743  0.248938  1
  Si  Si20  1  0.330670  0.033080  0.960767  1
  Si  Si21  1  0.829798  0.466458  0.538858  1
  Si  Si22  1  0.326426  0.033016  0.539439  1
  Si  Si23  1  0.827610  0.466765  0.960138  1
  Si  Si24  1  0.668595  0.967124  0.038939  1
  Si  Si25  1  0.170649  0.533064  0.461501  1
  Si  Si26  1  0.458816  0.387710  0.750673  1
  Si  Si27  1  0.957905  0.114750  0.748895  1
  Si  Si28  1  0.540693  0.613170  0.249925  1
  Si  Si29  1  0.041087  0.885619  0.249879  1
  Si  Si30  1  0.703760  0.863340  0.750321  1
  Si  Si31  1  0.202928  0.637920  0.750486  1
  Si  Si32  1  0.296400  0.138008  0.250441  1
  Si  Si33  1  0.795630  0.361486  0.249808  1
  Ge  Ge34  1  0.674878  0.967964  0.461025  1
  Ge  Ge35  1  0.173993  0.531960  0.039118  1
