# generated using pymatgen
data_Si6Ag6Sn3P12Pb
_symmetry_space_group_name_H-M   'P 1'
_cell_length_a   9.09576763
_cell_length_b   9.09576762
_cell_length_c   9.08447300
_cell_angle_alpha   109.44607066
_cell_angle_beta   109.44607062
_cell_angle_gamma   109.49635896
_symmetry_Int_Tables_number   1
_chemical_formula_structural   Si6Ag6Sn3P12Pb
_chemical_formula_sum   'Si6 Ag6 Sn3 P12 Pb1'
_cell_volume   578.75034755
_cell_formula_units_Z   1
loop_
 _symmetry_equiv_pos_site_id
 _symmetry_equiv_pos_as_xyz
  1  'x, y, z'
loop_
 _atom_site_type_symbol
 _atom_site_label
 _atom_site_symmetry_multiplicity
 _atom_site_fract_x
 _atom_site_fract_y
 _atom_site_fract_z
 _atom_site_occupancy
  Si  Si0  1  0.251438  0.750941  0.499844  1
  Si  Si1  1  0.748562  0.499503  0.248406  1
  Si  Si2  1  0.750941  0.251438  0.499844  1
  Si  Si3  1  0.500497  0.249059  0.748903  1
  Si  Si4  1  0.499503  0.748562  0.248406  1
  Si  Si5  1  0.249059  0.500497  0.748903  1
  Ag  Ag6  1  0.199710  0.000000  0.199099  1
  Ag  Ag7  1  0.000000  0.797377  0.805786  1
  Ag  Ag8  1  0.000000  0.199710  0.199099  1
  Ag  Ag9  1  0.800290  0.800290  0.999389  1
  Ag  Ag10  1  0.797377  0.000000  0.805786  1
  Ag  Ag11  1  0.202623  0.202623  0.008409  1
  Sn  Sn12  1  0.589241  0.000000  0.999607  1
  Sn  Sn13  1  0.000000  0.589241  0.999607  1
  Sn  Sn14  1  0.410759  0.410759  0.410366  1
  P  P15  1  0.000000  0.501037  0.247847  1
  P  P16  1  0.501037  0.000000  0.247847  1
  P  P17  1  0.500764  0.747305  0.499762  1
  P  P18  1  0.246541  0.499236  0.998998  1
  P  P19  1  0.747305  0.500764  0.499762  1
  P  P20  1  0.252695  0.753459  0.752457  1
  P  P21  1  0.753459  0.252695  0.752457  1
  P  P22  1  0.253741  0.000000  0.497674  1
  P  P23  1  0.498963  0.498963  0.746810  1
  P  P24  1  0.000000  0.253741  0.497674  1
  P  P25  1  0.746259  0.746259  0.243933  1
  P  P26  1  0.499236  0.246541  0.998998  1
  Pb  Pb27  1  0.000000  0.000000  0.594327  1
