# generated using pymatgen
data_K4PrUO6
_symmetry_space_group_name_H-M   'P 1'
_cell_length_a   6.33357809
_cell_length_b   6.33358384
_cell_length_c   6.62822518
_cell_angle_alpha   99.28525554
_cell_angle_beta   99.28537240
_cell_angle_gamma   119.91525295
_symmetry_Int_Tables_number   1
_chemical_formula_structural   K4PrUO6
_chemical_formula_sum   'K4 Pr1 U1 O6'
_cell_volume   218.16357534
_cell_formula_units_Z   1
loop_
 _symmetry_equiv_pos_site_id
 _symmetry_equiv_pos_as_xyz
  1  'x, y, z'
loop_
 _atom_site_type_symbol
 _atom_site_label
 _atom_site_symmetry_multiplicity
 _atom_site_fract_x
 _atom_site_fract_y
 _atom_site_fract_z
 _atom_site_occupancy
  K  K0  1  0.499225  0.500775  0.000000  1
  K  K1  1  0.006579  0.993421  0.499999  1
  K  K2  1  0.657289  0.342709  0.500000  1
  K  K3  1  0.341658  0.658345  0.500002  1
  Pr  Pr4  1  0.832146  0.167856  0.000001  1
  U  U5  1  0.166596  0.833405  0.000001  1
  O  O6  1  0.963606  0.594802  0.193965  1
  O  O7  1  0.535642  0.935176  0.195013  1
  O  O8  1  0.196756  0.169517  0.193762  1
  O  O9  1  0.830485  0.803245  0.806240  1
  O  O10  1  0.064827  0.464361  0.804988  1
  O  O11  1  0.405199  0.036396  0.806037  1
