# generated using pymatgen
data_TbY19Cd6RuRh
_symmetry_space_group_name_H-M   'P 1'
_cell_length_a   9.69098049
_cell_length_b   9.69097973
_cell_length_c   9.85043000
_cell_angle_alpha   90.00000000
_cell_angle_beta   90.00000000
_cell_angle_gamma   120.06352557
_symmetry_Int_Tables_number   1
_chemical_formula_structural   TbY19Cd6RuRh
_chemical_formula_sum   'Tb1 Y19 Cd6 Ru1 Rh1'
_cell_volume   800.65029119
_cell_formula_units_Z   1
loop_
 _symmetry_equiv_pos_site_id
 _symmetry_equiv_pos_as_xyz
  1  'x, y, z'
loop_
 _atom_site_type_symbol
 _atom_site_label
 _atom_site_symmetry_multiplicity
 _atom_site_fract_x
 _atom_site_fract_y
 _atom_site_fract_z
 _atom_site_occupancy
  Tb  Tb0  1  0.458752  0.541248  0.750000  1
  Y  Y1  1  0.999985  0.000015  0.499719  1
  Y  Y2  1  0.999985  0.000015  0.000281  1
  Y  Y3  1  0.209166  0.790834  0.440262  1
  Y  Y4  1  0.209289  0.418486  0.440327  1
  Y  Y5  1  0.581514  0.790711  0.440327  1
  Y  Y6  1  0.790339  0.209661  0.560194  1
  Y  Y7  1  0.790280  0.580615  0.560218  1
  Y  Y8  1  0.419385  0.209720  0.560218  1
  Y  Y9  1  0.790339  0.209661  0.939806  1
  Y  Y10  1  0.790280  0.580615  0.939782  1
  Y  Y11  1  0.419385  0.209720  0.939782  1
  Y  Y12  1  0.209166  0.790834  0.059738  1
  Y  Y13  1  0.209289  0.418486  0.059673  1
  Y  Y14  1  0.581514  0.790711  0.059673  1
  Y  Y15  1  0.542119  0.457881  0.250000  1
  Y  Y16  1  0.542132  0.084338  0.250000  1
  Y  Y17  1  0.915662  0.457868  0.250000  1
  Y  Y18  1  0.458648  0.917302  0.750000  1
  Y  Y19  1  0.082698  0.541352  0.750000  1
  Cd  Cd20  1  0.885093  0.114907  0.250000  1
  Cd  Cd21  1  0.885242  0.770254  0.250000  1
  Cd  Cd22  1  0.229746  0.114758  0.250000  1
  Cd  Cd23  1  0.114808  0.885192  0.750000  1
  Cd  Cd24  1  0.114720  0.229565  0.750000  1
  Cd  Cd25  1  0.770435  0.885280  0.750000  1
  Ru  Ru26  1  0.666582  0.333418  0.750000  1
  Rh  Rh27  1  0.333447  0.666553  0.250000  1
