# generated using pymatgen
data_Pr2HoZn2Co9B4
_symmetry_space_group_name_H-M   'P 1'
_cell_length_a   5.19405469
_cell_length_b   5.20156073
_cell_length_c   9.71816800
_cell_angle_alpha   89.99978499
_cell_angle_beta   89.99984017
_cell_angle_gamma   120.02777814
_symmetry_Int_Tables_number   1
_chemical_formula_structural   Pr2HoZn2Co9B4
_chemical_formula_sum   'Pr2 Ho1 Zn2 Co9 B4'
_cell_volume   227.31787813
_cell_formula_units_Z   1
loop_
 _symmetry_equiv_pos_site_id
 _symmetry_equiv_pos_as_xyz
  1  'x, y, z'
loop_
 _atom_site_type_symbol
 _atom_site_label
 _atom_site_symmetry_multiplicity
 _atom_site_fract_x
 _atom_site_fract_y
 _atom_site_fract_z
 _atom_site_occupancy
  Pr  Pr0  1  0.000007  0.000006  0.998043  1
  Pr  Pr1  1  0.999988  0.999994  0.342925  1
  Ho  Ho2  1  0.999996  0.999998  0.657919  1
  Zn  Zn3  1  0.333072  0.666509  0.998720  1
  Zn  Zn4  1  0.666926  0.333499  0.998720  1
  Co  Co5  1  0.499991  0.000000  0.502349  1
  Co  Co6  1  0.499992  0.500001  0.502364  1
  Co  Co7  1  0.999993  0.499999  0.502336  1
  Co  Co8  1  0.499992  0.000001  0.212751  1
  Co  Co9  1  0.499993  0.500000  0.212714  1
  Co  Co10  1  0.999993  0.500001  0.212733  1
  Co  Co11  1  0.499995  0.999999  0.785226  1
  Co  Co12  1  0.499996  0.499999  0.785184  1
  Co  Co13  1  0.999994  0.499996  0.785239  1
  B  B14  1  0.333200  0.666494  0.352325  1
  B  B15  1  0.666785  0.333509  0.352325  1
  B  B16  1  0.666841  0.333431  0.649064  1
  B  B17  1  0.333146  0.666566  0.649064  1
