# generated using pymatgen
data_Pr2Zn21Pd
_symmetry_space_group_name_H-M   'P 1'
_cell_length_a   8.32619966
_cell_length_b   8.32009826
_cell_length_c   8.32008714
_cell_angle_alpha   99.61965676
_cell_angle_beta   100.23626107
_cell_angle_gamma   130.88772973
_symmetry_Int_Tables_number   1
_chemical_formula_structural   Pr2Zn21Pd
_chemical_formula_sum   'Pr2 Zn21 Pd1'
_cell_volume   396.46069916
_cell_formula_units_Z   1
loop_
 _symmetry_equiv_pos_site_id
 _symmetry_equiv_pos_as_xyz
  1  'x, y, z'
loop_
 _atom_site_type_symbol
 _atom_site_label
 _atom_site_symmetry_multiplicity
 _atom_site_fract_x
 _atom_site_fract_y
 _atom_site_fract_z
 _atom_site_occupancy
  Pr  Pr0  1  0.496936  0.500532  0.996404  1
  Pr  Pr1  1  0.753064  0.249468  0.503596  1
  Zn  Zn2  1  0.844487  0.431311  0.170952  1
  Zn  Zn3  1  0.125000  0.875000  0.750000  1
  Zn  Zn4  1  0.326031  0.152560  0.583155  1
  Zn  Zn5  1  0.259059  0.431614  0.584024  1
  Zn  Zn6  1  0.326032  0.742876  0.173472  1
  Zn  Zn7  1  0.990941  0.318386  0.915976  1
  Zn  Zn8  1  0.259059  0.675034  0.827445  1
  Zn  Zn9  1  0.249175  0.754366  0.494809  1
  Zn  Zn10  1  0.990941  0.074966  0.672555  1
  Zn  Zn11  1  0.000825  0.995634  0.005191  1
  Zn  Zn12  1  0.681415  0.010621  0.084829  1
  Zn  Zn13  1  0.625000  0.875000  0.750000  1
  Zn  Zn14  1  0.405513  0.318689  0.329048  1
  Zn  Zn15  1  0.923968  0.007124  0.326528  1
  Zn  Zn16  1  0.844487  0.673534  0.413176  1
  Zn  Zn17  1  0.568585  0.739379  0.415171  1
  Zn  Zn18  1  0.681415  0.596586  0.670794  1
  Zn  Zn19  1  0.405513  0.076466  0.086824  1
  Zn  Zn20  1  0.923969  0.597440  0.916845  1
  Zn  Zn21  1  0.568585  0.153414  0.829206  1
  Zn  Zn22  1  0.125000  0.375000  0.250000  1
  Pd  Pd23  1  0.125000  0.875000  0.250000  1
