# generated using pymatgen
data_Np3Ga2GeIr3
_symmetry_space_group_name_H-M   'P 1'
_cell_length_a   7.01214784
_cell_length_b   7.01214729
_cell_length_c   4.01249500
_cell_angle_alpha   90.00000000
_cell_angle_beta   90.00000000
_cell_angle_gamma   120.17300409
_symmetry_Int_Tables_number   1
_chemical_formula_structural   Np3Ga2GeIr3
_chemical_formula_sum   'Np3 Ga2 Ge1 Ir3'
_cell_volume   170.56404217
_cell_formula_units_Z   1
loop_
 _symmetry_equiv_pos_site_id
 _symmetry_equiv_pos_as_xyz
  1  'x, y, z'
loop_
 _atom_site_type_symbol
 _atom_site_label
 _atom_site_symmetry_multiplicity
 _atom_site_fract_x
 _atom_site_fract_y
 _atom_site_fract_z
 _atom_site_occupancy
  Np  Np0  1  0.418333  0.418333  0.500000  1
  Np  Np1  1  0.581615  0.000103  0.500000  1
  Np  Np2  1  0.000103  0.581615  0.500000  1
  Ga  Ga3  1  0.245172  0.002156  0.000000  1
  Ga  Ga4  1  0.002156  0.245172  0.000000  1
  Ge  Ge5  1  0.754515  0.754515  0.000000  1
  Ir  Ir6  1  0.668075  0.334397  0.000000  1
  Ir  Ir7  1  0.334397  0.668075  0.000000  1
  Ir  Ir8  1  0.995634  0.995634  0.500000  1
