# generated using pymatgen
data_Y8MgSc11Sn16
_symmetry_space_group_name_H-M   'P 1'
_cell_length_a   7.70765314
_cell_length_b   7.91547414
_cell_length_c   14.93423800
_cell_angle_alpha   90.00000000
_cell_angle_beta   90.00000000
_cell_angle_gamma   90.02172583
_symmetry_Int_Tables_number   1
_chemical_formula_structural   Y8MgSc11Sn16
_chemical_formula_sum   'Y8 Mg1 Sc11 Sn16'
_cell_volume   911.13374942
_cell_formula_units_Z   1
loop_
 _symmetry_equiv_pos_site_id
 _symmetry_equiv_pos_as_xyz
  1  'x, y, z'
loop_
 _atom_site_type_symbol
 _atom_site_label
 _atom_site_symmetry_multiplicity
 _atom_site_fract_x
 _atom_site_fract_y
 _atom_site_fract_z
 _atom_site_occupancy
  Y  Y0  1  0.512041  0.323862  0.906780  1
  Y  Y1  1  0.017054  0.180909  0.594522  1
  Y  Y2  1  0.485295  0.677371  0.404700  1
  Y  Y3  1  0.983864  0.824606  0.095348  1
  Y  Y4  1  0.485295  0.677371  0.095300  1
  Y  Y5  1  0.983864  0.824606  0.404652  1
  Y  Y6  1  0.512041  0.323862  0.593220  1
  Y  Y7  1  0.017054  0.180909  0.905478  1
  Mg  Mg8  1  0.186525  0.503153  0.750000  1
  Sc  Sc9  1  0.354627  0.835361  0.875521  1
  Sc  Sc10  1  0.859536  0.662799  0.625738  1
  Sc  Sc11  1  0.645416  0.160705  0.374474  1
  Sc  Sc12  1  0.144389  0.335798  0.127077  1
  Sc  Sc13  1  0.645416  0.160705  0.125526  1
  Sc  Sc14  1  0.144389  0.335798  0.372923  1
  Sc  Sc15  1  0.354627  0.835361  0.624479  1
  Sc  Sc16  1  0.859536  0.662799  0.874262  1
  Sc  Sc17  1  0.685884  0.992725  0.750000  1
  Sc  Sc18  1  0.813408  0.493638  0.250000  1
  Sc  Sc19  1  0.312801  0.004591  0.250000  1
  Sn  Sn20  1  0.308082  0.042905  0.042589  1
  Sn  Sn21  1  0.809557  0.456514  0.458090  1
  Sn  Sn22  1  0.692814  0.958113  0.543168  1
  Sn  Sn23  1  0.191031  0.545455  0.961351  1
  Sn  Sn24  1  0.692814  0.958113  0.956832  1
  Sn  Sn25  1  0.191031  0.545455  0.538649  1
  Sn  Sn26  1  0.308082  0.042905  0.457411  1
  Sn  Sn27  1  0.809557  0.456514  0.041910  1
  Sn  Sn28  1  0.552470  0.625398  0.750000  1
  Sn  Sn29  1  0.051880  0.881373  0.750000  1
  Sn  Sn30  1  0.450542  0.373464  0.250000  1
  Sn  Sn31  1  0.948640  0.125905  0.250000  1
  Sn  Sn32  1  0.327287  0.140577  0.750000  1
  Sn  Sn33  1  0.813298  0.351026  0.750000  1
  Sn  Sn34  1  0.674458  0.852655  0.250000  1
  Sn  Sn35  1  0.175395  0.646696  0.250000  1
