# generated using pymatgen
data_NdY3(Ga5Ni3)2
_symmetry_space_group_name_H-M   'P 1'
_cell_length_a   8.36420611
_cell_length_b   8.35332081
_cell_length_c   8.35332093
_cell_angle_alpha   140.84987267
_cell_angle_beta   107.73348952
_cell_angle_gamma   85.38980239
_symmetry_Int_Tables_number   1
_chemical_formula_structural   NdY3(Ga5Ni3)2
_chemical_formula_sum   'Nd1 Y3 Ga10 Ni6'
_cell_volume   338.98438213
_cell_formula_units_Z   1
loop_
 _symmetry_equiv_pos_site_id
 _symmetry_equiv_pos_as_xyz
  1  'x, y, z'
loop_
 _atom_site_type_symbol
 _atom_site_label
 _atom_site_symmetry_multiplicity
 _atom_site_fract_x
 _atom_site_fract_y
 _atom_site_fract_z
 _atom_site_occupancy
  Nd  Nd0  1  0.365671  0.641515  0.724155  1
  Y  Y1  1  0.634461  0.358627  0.275835  1
  Y  Y2  1  0.082446  0.858256  0.224190  1
  Y  Y3  1  0.918384  0.142296  0.776089  1
  Ga  Ga4  1  0.997770  0.750038  0.748520  1
  Ga  Ga5  1  0.997770  0.249251  0.247732  1
  Ga  Ga6  1  0.712838  0.460034  0.750468  1
  Ga  Ga7  1  0.288689  0.039721  0.748803  1
  Ga  Ga8  1  0.288689  0.539886  0.248968  1
  Ga  Ga9  1  0.712838  0.962369  0.252803  1
  Ga  Ga10  1  0.237798  0.408561  0.829239  1
  Ga  Ga11  1  0.760994  0.589908  0.171084  1
  Ga  Ga12  1  0.582206  0.910585  0.671621  1
  Ga  Ga13  1  0.419538  0.089018  0.330521  1
  Ni  Ni14  1  0.048852  0.644578  0.404274  1
  Ni  Ni15  1  0.235681  0.143645  0.092037  1
  Ni  Ni16  1  0.500786  0.748616  0.249923  1
  Ni  Ni17  1  0.500786  0.250864  0.752171  1
  Ni  Ni18  1  0.951144  0.356757  0.594388  1
  Ni  Ni19  1  0.762658  0.855477  0.907181  1
