# generated using pymatgen
data_Ca12Al8Si11Pb
_symmetry_space_group_name_H-M   'P 1'
_cell_length_a   4.34788700
_cell_length_b   11.33636335
_cell_length_c   14.83424639
_cell_angle_alpha   89.95902592
_cell_angle_beta   90.00000000
_cell_angle_gamma   90.00000000
_symmetry_Int_Tables_number   1
_chemical_formula_structural   Ca12Al8Si11Pb
_chemical_formula_sum   'Ca12 Al8 Si11 Pb1'
_cell_volume   731.16834779
_cell_formula_units_Z   1
loop_
 _symmetry_equiv_pos_site_id
 _symmetry_equiv_pos_as_xyz
  1  'x, y, z'
loop_
 _atom_site_type_symbol
 _atom_site_label
 _atom_site_symmetry_multiplicity
 _atom_site_fract_x
 _atom_site_fract_y
 _atom_site_fract_z
 _atom_site_occupancy
  Ca  Ca0  1  0.250000  0.893276  0.566329  1
  Ca  Ca1  1  0.750000  0.103872  0.432440  1
  Ca  Ca2  1  0.250000  0.402281  0.932806  1
  Ca  Ca3  1  0.750000  0.605302  0.068615  1
  Ca  Ca4  1  0.250000  0.607887  0.437555  1
  Ca  Ca5  1  0.750000  0.395216  0.559367  1
  Ca  Ca6  1  0.250000  0.095603  0.076340  1
  Ca  Ca7  1  0.750000  0.886829  0.936525  1
  Ca  Ca8  1  0.750000  0.379701  0.300724  1
  Ca  Ca9  1  0.250000  0.622144  0.701189  1
  Ca  Ca10  1  0.750000  0.876531  0.204627  1
  Ca  Ca11  1  0.250000  0.115846  0.782770  1
  Al  Al12  1  0.750000  0.861227  0.708576  1
  Al  Al13  1  0.250000  0.140237  0.294573  1
  Al  Al14  1  0.750000  0.377397  0.781191  1
  Al  Al15  1  0.250000  0.639130  0.211592  1
  Al  Al16  1  0.250000  0.684161  0.910211  1
  Al  Al17  1  0.750000  0.319929  0.099310  1
  Al  Al18  1  0.250000  0.184061  0.584482  1
  Al  Al19  1  0.750000  0.817375  0.411497  1
  Si  Si20  1  0.250000  0.928260  0.363666  1
  Si  Si21  1  0.750000  0.071704  0.632792  1
  Si  Si22  1  0.250000  0.430912  0.138094  1
  Si  Si23  1  0.750000  0.574364  0.866346  1
  Si  Si24  1  0.250000  0.856753  0.795390  1
  Si  Si25  1  0.750000  0.142061  0.209000  1
  Si  Si26  1  0.250000  0.359583  0.697504  1
  Si  Si27  1  0.750000  0.642384  0.298930  1
  Si  Si28  1  0.250000  0.298212  0.433668  1
  Si  Si29  1  0.750000  0.702702  0.565002  1
  Si  Si30  1  0.250000  0.797352  0.067007  1
  Pb  Pb31  1  0.750000  0.187712  0.931880  1
