# generated using pymatgen
data_Na12AlV3S8(O4F)8
_symmetry_space_group_name_H-M   'P 1'
_cell_length_a   6.75612100
_cell_length_b   9.01049200
_cell_length_c   14.19045000
_cell_angle_alpha   90.00000000
_cell_angle_beta   90.00000000
_cell_angle_gamma   90.00000000
_symmetry_Int_Tables_number   1
_chemical_formula_structural   Na12AlV3S8(O4F)8
_chemical_formula_sum   'Na12 Al1 V3 S8 O32 F8'
_cell_volume   863.85746839
_cell_formula_units_Z   1
loop_
 _symmetry_equiv_pos_site_id
 _symmetry_equiv_pos_as_xyz
  1  'x, y, z'
loop_
 _atom_site_type_symbol
 _atom_site_label
 _atom_site_symmetry_multiplicity
 _atom_site_fract_x
 _atom_site_fract_y
 _atom_site_fract_z
 _atom_site_occupancy
  Na  Na0  1  0.517223  0.670406  0.901028  1
  Na  Na1  1  0.022579  0.837662  0.595855  1
  Na  Na2  1  0.477421  0.162338  0.595855  1
  Na  Na3  1  0.982777  0.329594  0.901028  1
  Na  Na4  1  0.481180  0.332388  0.094813  1
  Na  Na5  1  0.980353  0.165942  0.407636  1
  Na  Na6  1  0.519647  0.834058  0.407636  1
  Na  Na7  1  0.018820  0.667612  0.094813  1
  Na  Na8  1  0.750000  0.000000  0.044918  1
  Na  Na9  1  0.250000  0.500000  0.450691  1
  Na  Na10  1  0.250000  0.000000  0.949356  1
  Na  Na11  1  0.750000  0.500000  0.549513  1
  Al  Al12  1  0.750000  0.000000  0.804241  1
  V  V13  1  0.250000  0.500000  0.697269  1
  V  V14  1  0.250000  0.000000  0.196817  1
  V  V15  1  0.750000  0.500000  0.302059  1
  S  S16  1  0.999495  0.700795  0.856194  1
  S  S17  1  0.511640  0.807975  0.647196  1
  S  S18  1  0.988360  0.192025  0.647196  1
  S  S19  1  0.500505  0.299205  0.856194  1
  S  S20  1  0.997176  0.306268  0.141803  1
  S  S21  1  0.496344  0.192916  0.357495  1
  S  S22  1  0.003656  0.807084  0.357495  1
  S  S23  1  0.502824  0.693732  0.141803  1
  O  O24  1  0.451063  0.435507  0.796971  1
  O  O25  1  0.932049  0.058257  0.706206  1
  O  O26  1  0.567951  0.941743  0.706206  1
  O  O27  1  0.048937  0.564493  0.796971  1
  O  O28  1  0.554141  0.555226  0.198661  1
  O  O29  1  0.054245  0.945325  0.300343  1
  O  O30  1  0.445755  0.054675  0.300343  1
  O  O31  1  0.945859  0.444774  0.198661  1
  O  O32  1  0.183201  0.769218  0.889890  1
  O  O33  1  0.689908  0.733939  0.611349  1
  O  O34  1  0.810092  0.266061  0.611349  1
  O  O35  1  0.316799  0.230782  0.889890  1
  O  O36  1  0.815315  0.233303  0.109562  1
  O  O37  1  0.314036  0.263735  0.391347  1
  O  O38  1  0.185964  0.736265  0.391347  1
  O  O39  1  0.684685  0.766697  0.109562  1
  O  O40  1  0.873442  0.648426  0.934261  1
  O  O41  1  0.385362  0.864001  0.569816  1
  O  O42  1  0.114638  0.135999  0.569816  1
  O  O43  1  0.626558  0.351574  0.934261  1
  O  O44  1  0.121406  0.356589  0.062330  1
  O  O45  1  0.622789  0.142726  0.436137  1
  O  O46  1  0.877211  0.857274  0.436137  1
  O  O47  1  0.378594  0.643411  0.062330  1
  O  O48  1  0.394348  0.706362  0.710064  1
  O  O49  1  0.884527  0.805401  0.794110  1
  O  O50  1  0.615473  0.194599  0.794110  1
  O  O51  1  0.105652  0.293638  0.710064  1
  O  O52  1  0.610111  0.292793  0.292524  1
  O  O53  1  0.114367  0.208402  0.206661  1
  O  O54  1  0.385633  0.791598  0.206661  1
  O  O55  1  0.889889  0.707207  0.292524  1
  F  F56  1  0.585250  0.932246  0.894992  1
  F  F57  1  0.080086  0.573780  0.596730  1
  F  F58  1  0.419914  0.426220  0.596730  1
  F  F59  1  0.914750  0.067754  0.894992  1
  F  F60  1  0.423849  0.070390  0.096325  1
  F  F61  1  0.923266  0.428323  0.402268  1
  F  F62  1  0.576734  0.571677  0.402268  1
  F  F63  1  0.076151  0.929610  0.096325  1
