# generated using pymatgen
data_PrEuTaIr3
_symmetry_space_group_name_H-M   'P 1'
_cell_length_a   5.79010077
_cell_length_b   5.29478488
_cell_length_c   5.79010100
_cell_angle_alpha   56.85402010
_cell_angle_beta   59.99999296
_cell_angle_gamma   56.85402276
_symmetry_Int_Tables_number   1
_chemical_formula_structural   PrEuTaIr3
_chemical_formula_sum   'Pr1 Eu1 Ta1 Ir3'
_cell_volume   119.21398395
_cell_formula_units_Z   1
loop_
 _symmetry_equiv_pos_site_id
 _symmetry_equiv_pos_as_xyz
  1  'x, y, z'
loop_
 _atom_site_type_symbol
 _atom_site_label
 _atom_site_symmetry_multiplicity
 _atom_site_fract_x
 _atom_site_fract_y
 _atom_site_fract_z
 _atom_site_occupancy
  Pr  Pr0  1  0.748256  0.755233  0.748256  1
  Eu  Eu1  1  0.500202  0.499394  0.500202  1
  Ta  Ta2  1  0.125316  0.624051  0.125316  1
  Ir  Ir3  1  0.625095  0.123774  0.125565  1
  Ir  Ir4  1  0.125565  0.123774  0.125565  1
  Ir  Ir5  1  0.125565  0.123774  0.625095  1
