# generated using pymatgen
data_Ac4MgMn3O12
_symmetry_space_group_name_H-M   'P 1'
_cell_length_a   5.59913732
_cell_length_b   5.68521031
_cell_length_c   7.92927400
_cell_angle_alpha   90.21964135
_cell_angle_beta   90.17229270
_cell_angle_gamma   89.87900818
_symmetry_Int_Tables_number   1
_chemical_formula_structural   Ac4MgMn3O12
_chemical_formula_sum   'Ac4 Mg1 Mn3 O12'
_cell_volume   252.40326378
_cell_formula_units_Z   1
loop_
 _symmetry_equiv_pos_site_id
 _symmetry_equiv_pos_as_xyz
  1  'x, y, z'
loop_
 _atom_site_type_symbol
 _atom_site_label
 _atom_site_symmetry_multiplicity
 _atom_site_fract_x
 _atom_site_fract_y
 _atom_site_fract_z
 _atom_site_occupancy
  Ac  Ac0  1  0.000084  0.984460  0.751591  1
  Ac  Ac1  1  0.504976  0.516679  0.247846  1
  Ac  Ac2  1  0.495024  0.483321  0.752154  1
  Ac  Ac3  1  0.999916  0.015540  0.248409  1
  Mg  Mg4  1  0.500000  0.000000  0.000000  1
  Mn  Mn5  1  0.500000  0.000000  0.500000  1
  Mn  Mn6  1  0.000000  0.500000  0.500000  1
  Mn  Mn7  1  0.000000  0.500000  0.000000  1
  O  O8  1  0.736854  0.281909  0.476789  1
  O  O9  1  0.229734  0.223569  0.524444  1
  O  O10  1  0.777309  0.759922  0.022928  1
  O  O11  1  0.260054  0.722736  0.977789  1
  O  O12  1  0.263146  0.718091  0.523211  1
  O  O13  1  0.770266  0.776431  0.475556  1
  O  O14  1  0.222691  0.240078  0.977072  1
  O  O15  1  0.739946  0.277264  0.022211  1
  O  O16  1  0.046076  0.496610  0.243976  1
  O  O17  1  0.541284  0.002010  0.742778  1
  O  O18  1  0.458716  0.997990  0.257222  1
  O  O19  1  0.953924  0.503390  0.756024  1
