# generated using pymatgen
data_Y4Al10Ga8Ir5Pt
_symmetry_space_group_name_H-M   'P 1'
_cell_length_a   7.56166967
_cell_length_b   7.55866847
_cell_length_c   9.56599941
_cell_angle_alpha   90.09383624
_cell_angle_beta   89.88813421
_cell_angle_gamma   119.79000975
_symmetry_Int_Tables_number   1
_chemical_formula_structural   Y4Al10Ga8Ir5Pt
_chemical_formula_sum   'Y4 Al10 Ga8 Ir5 Pt1'
_cell_volume   474.50206578
_cell_formula_units_Z   1
loop_
 _symmetry_equiv_pos_site_id
 _symmetry_equiv_pos_as_xyz
  1  'x, y, z'
loop_
 _atom_site_type_symbol
 _atom_site_label
 _atom_site_symmetry_multiplicity
 _atom_site_fract_x
 _atom_site_fract_y
 _atom_site_fract_z
 _atom_site_occupancy
  Y  Y0  1  0.997167  0.667957  0.246722  1
  Y  Y1  1  0.002833  0.332043  0.753278  1
  Y  Y2  1  0.671632  0.998600  0.249846  1
  Y  Y3  1  0.328368  0.001400  0.750154  1
  Al  Al4  1  0.998753  0.665898  0.570605  1
  Al  Al5  1  0.334303  0.999796  0.427144  1
  Al  Al6  1  0.001247  0.334102  0.429395  1
  Al  Al7  1  0.665697  0.000204  0.572856  1
  Al  Al8  1  0.661280  0.997549  0.923984  1
  Al  Al9  1  0.338720  0.002451  0.076016  1
  Al  Al10  1  0.333564  0.333474  0.556151  1
  Al  Al11  1  0.666436  0.666526  0.443849  1
  Al  Al12  1  0.663559  0.663188  0.056439  1
  Al  Al13  1  0.336441  0.336812  0.943561  1
  Ga  Ga14  1  0.131448  0.127955  0.252869  1
  Ga  Ga15  1  0.868552  0.872045  0.747131  1
  Ga  Ga16  1  0.998843  0.336058  0.082055  1
  Ga  Ga17  1  0.001157  0.663942  0.917945  1
  Ga  Ga18  1  0.342075  0.549825  0.251208  1
  Ga  Ga19  1  0.657925  0.450175  0.748792  1
  Ga  Ga20  1  0.547458  0.340444  0.250317  1
  Ga  Ga21  1  0.452542  0.659556  0.749683  1
  Ir  Ir22  1  0.667638  0.326881  0.998956  1
  Ir  Ir23  1  0.332362  0.673119  0.001044  1
  Ir  Ir24  1  0.327847  0.671096  0.500624  1
  Ir  Ir25  1  0.672153  0.328904  0.499376  1
  Ir  Ir26  1  0.000000  0.000000  0.500000  1
  Pt  Pt27  1  0.000000  0.000000  0.000000  1
