# generated using pymatgen
data_Dy3Er9Co4CuBi
_symmetry_space_group_name_H-M   'P 1'
_cell_length_a   8.30673294
_cell_length_b   8.30673128
_cell_length_c   8.30271389
_cell_angle_alpha   109.98092239
_cell_angle_beta   111.17356303
_cell_angle_gamma   107.30380925
_symmetry_Int_Tables_number   1
_chemical_formula_structural   Dy3Er9Co4CuBi
_chemical_formula_sum   'Dy3 Er9 Co4 Cu1 Bi1'
_cell_volume   440.38404203
_cell_formula_units_Z   1
loop_
 _symmetry_equiv_pos_site_id
 _symmetry_equiv_pos_as_xyz
  1  'x, y, z'
loop_
 _atom_site_type_symbol
 _atom_site_label
 _atom_site_symmetry_multiplicity
 _atom_site_fract_x
 _atom_site_fract_y
 _atom_site_fract_z
 _atom_site_occupancy
  Dy  Dy0  1  0.287883  0.183581  0.471464  1
  Dy  Dy1  1  0.712603  0.817041  0.529644  1
  Dy  Dy2  1  0.287684  0.816590  0.104273  1
  Er  Er3  1  0.712246  0.182896  0.895143  1
  Er  Er4  1  0.622272  0.313107  0.308460  1
  Er  Er5  1  0.378244  0.687239  0.691260  1
  Er  Er6  1  0.004023  0.313016  0.691260  1
  Er  Er7  1  0.995350  0.686188  0.308460  1
  Er  Er8  1  0.212020  0.413699  0.201028  1
  Er  Er9  1  0.787436  0.585486  0.798628  1
  Er  Er10  1  0.213142  0.011192  0.798628  1
  Er  Er11  1  0.787329  0.989008  0.201028  1
  Co  Co12  1  0.999431  0.376277  0.375708  1
  Co  Co13  1  0.000191  0.623559  0.623750  1
  Co  Co14  1  0.387528  0.887497  0.501045  1
  Co  Co15  1  0.613549  0.113517  0.501045  1
  Cu  Cu16  1  0.999071  0.000117  0.999188  1
  Bi  Bi17  1  0.499996  0.499991  0.999987  1
