# generated using pymatgen
data_Tb2Nd4CoCl10
_symmetry_space_group_name_H-M   'P 1'
_cell_length_a   7.33412401
_cell_length_b   8.94911796
_cell_length_c   9.05414935
_cell_angle_alpha   110.42250215
_cell_angle_beta   97.69357690
_cell_angle_gamma   106.29223251
_symmetry_Int_Tables_number   1
_chemical_formula_structural   Tb2Nd4CoCl10
_chemical_formula_sum   'Tb2 Nd4 Co1 Cl10'
_cell_volume   516.49570977
_cell_formula_units_Z   1
loop_
 _symmetry_equiv_pos_site_id
 _symmetry_equiv_pos_as_xyz
  1  'x, y, z'
loop_
 _atom_site_type_symbol
 _atom_site_label
 _atom_site_symmetry_multiplicity
 _atom_site_fract_x
 _atom_site_fract_y
 _atom_site_fract_z
 _atom_site_occupancy
  Tb  Tb0  1  0.632116  0.050264  0.753661  1
  Tb  Tb1  1  0.367884  0.949736  0.246339  1
  Nd  Nd2  1  0.874898  0.149356  0.201411  1
  Nd  Nd3  1  0.125102  0.850644  0.798589  1
  Nd  Nd4  1  0.526664  0.698380  0.899491  1
  Nd  Nd5  1  0.473336  0.301620  0.100509  1
  Co  Co6  1  0.500000  0.000000  0.000000  1
  Cl  Cl7  1  0.736092  0.079186  0.458466  1
  Cl  Cl8  1  0.263908  0.920814  0.541534  1
  Cl  Cl9  1  0.955487  0.827244  0.077912  1
  Cl  Cl10  1  0.044513  0.172756  0.922088  1
  Cl  Cl11  1  0.305840  0.253999  0.356796  1
  Cl  Cl12  1  0.694160  0.746001  0.643204  1
  Cl  Cl13  1  0.594111  0.363255  0.833054  1
  Cl  Cl14  1  0.405889  0.636745  0.166946  1
  Cl  Cl15  1  0.863443  0.469554  0.282148  1
  Cl  Cl16  1  0.136557  0.530446  0.717852  1
