# generated using pymatgen
data_Yb4TaTi2CrO12
_symmetry_space_group_name_H-M   'P 1'
_cell_length_a   5.36098928
_cell_length_b   5.51413303
_cell_length_c   7.66671488
_cell_angle_alpha   90.23152378
_cell_angle_beta   89.94245790
_cell_angle_gamma   90.05608526
_symmetry_Int_Tables_number   1
_chemical_formula_structural   Yb4TaTi2CrO12
_chemical_formula_sum   'Yb4 Ta1 Ti2 Cr1 O12'
_cell_volume   226.63528138
_cell_formula_units_Z   1
loop_
 _symmetry_equiv_pos_site_id
 _symmetry_equiv_pos_as_xyz
  1  'x, y, z'
loop_
 _atom_site_type_symbol
 _atom_site_label
 _atom_site_symmetry_multiplicity
 _atom_site_fract_x
 _atom_site_fract_y
 _atom_site_fract_z
 _atom_site_occupancy
  Yb  Yb0  1  0.988221  0.448538  0.733202  1
  Yb  Yb1  1  0.513277  0.945887  0.734025  1
  Yb  Yb2  1  0.486723  0.054113  0.265975  1
  Yb  Yb3  1  0.011779  0.551462  0.266798  1
  Ta  Ta4  1  0.000000  0.000000  0.000000  1
  Ti  Ti5  1  0.500000  0.500000  0.000000  1
  Ti  Ti6  1  0.500000  0.500000  0.500000  1
  Cr  Cr7  1  0.000000  0.000000  0.500000  1
  O  O8  1  0.090469  0.025690  0.751935  1
  O  O9  1  0.201587  0.298396  0.049865  1
  O  O10  1  0.209166  0.296055  0.456408  1
  O  O11  1  0.297530  0.788705  0.456297  1
  O  O12  1  0.300545  0.797159  0.048464  1
  O  O13  1  0.413104  0.524586  0.754755  1
  O  O14  1  0.586896  0.475414  0.245245  1
  O  O15  1  0.699455  0.202841  0.951536  1
  O  O16  1  0.702470  0.211295  0.543703  1
  O  O17  1  0.790834  0.703945  0.543592  1
  O  O18  1  0.798413  0.701604  0.950135  1
  O  O19  1  0.909531  0.974310  0.248065  1
