# generated using pymatgen
data_La12Th2PtRh5
_symmetry_space_group_name_H-M   'P 1'
_cell_length_a   10.24164779
_cell_length_b   10.24164866
_cell_length_c   6.54150810
_cell_angle_alpha   90.16499328
_cell_angle_beta   89.83500163
_cell_angle_gamma   120.31925261
_symmetry_Int_Tables_number   1
_chemical_formula_structural   La12Th2PtRh5
_chemical_formula_sum   'La12 Th2 Pt1 Rh5'
_cell_volume   592.29722361
_cell_formula_units_Z   1
loop_
 _symmetry_equiv_pos_site_id
 _symmetry_equiv_pos_as_xyz
  1  'x, y, z'
loop_
 _atom_site_type_symbol
 _atom_site_label
 _atom_site_symmetry_multiplicity
 _atom_site_fract_x
 _atom_site_fract_y
 _atom_site_fract_z
 _atom_site_occupancy
  La  La0  1  0.872924  0.746664  0.754459  1
  La  La1  1  0.253336  0.127076  0.754459  1
  La  La2  1  0.872234  0.127766  0.759471  1
  La  La3  1  0.131165  0.256344  0.253477  1
  La  La4  1  0.743656  0.868835  0.253477  1
  La  La5  1  0.127190  0.872810  0.253782  1
  La  La6  1  0.460170  0.922214  0.557409  1
  La  La7  1  0.077786  0.539830  0.557409  1
  La  La8  1  0.461181  0.538819  0.561444  1
  La  La9  1  0.533835  0.075139  0.056986  1
  La  La10  1  0.924861  0.466165  0.056986  1
  La  La11  1  0.539889  0.460111  0.056685  1
  Th  Th12  1  0.664700  0.335300  0.526550  1
  Th  Th13  1  0.333104  0.666896  0.021200  1
  Pt  Pt14  1  0.809607  0.190393  0.314068  1
  Rh  Rh15  1  0.192736  0.385911  0.814422  1
  Rh  Rh16  1  0.614089  0.807264  0.814422  1
  Rh  Rh17  1  0.192949  0.807051  0.815978  1
  Rh  Rh18  1  0.807495  0.612905  0.315919  1
  Rh  Rh19  1  0.387095  0.192505  0.315919  1
