# generated using pymatgen
data_Pa4Co5Ge2Ir
_symmetry_space_group_name_H-M   'P 1'
_cell_length_a   5.23710600
_cell_length_b   5.26278299
_cell_length_c   7.82836600
_cell_angle_alpha   90.00000000
_cell_angle_beta   90.00000000
_cell_angle_gamma   119.83873561
_symmetry_Int_Tables_number   1
_chemical_formula_structural   Pa4Co5Ge2Ir
_chemical_formula_sum   'Pa4 Co5 Ge2 Ir1'
_cell_volume   187.15956215
_cell_formula_units_Z   1
loop_
 _symmetry_equiv_pos_site_id
 _symmetry_equiv_pos_as_xyz
  1  'x, y, z'
loop_
 _atom_site_type_symbol
 _atom_site_label
 _atom_site_symmetry_multiplicity
 _atom_site_fract_x
 _atom_site_fract_y
 _atom_site_fract_z
 _atom_site_occupancy
  Pa  Pa0  1  0.665777  0.331553  0.563058  1
  Pa  Pa1  1  0.334302  0.668605  0.431651  1
  Pa  Pa2  1  0.334302  0.668605  0.068349  1
  Pa  Pa3  1  0.665777  0.331553  0.936942  1
  Co  Co4  1  0.667870  0.838219  0.750000  1
  Co  Co5  1  0.170350  0.838219  0.750000  1
  Co  Co6  1  0.829255  0.658511  0.250000  1
  Co  Co7  1  0.339364  0.171127  0.250000  1
  Co  Co8  1  0.831762  0.171127  0.250000  1
  Ge  Ge9  1  0.994926  0.989852  0.006606  1
  Ge  Ge10  1  0.994926  0.989852  0.493394  1
  Ir  Ir11  1  0.171387  0.342774  0.750000  1
