# generated using pymatgen
data_Sc3Tc3Ge2P
_symmetry_space_group_name_H-M   'P 1'
_cell_length_a   7.02829000
_cell_length_b   7.02829027
_cell_length_c   3.38959600
_cell_angle_alpha   90.00000000
_cell_angle_beta   90.00000000
_cell_angle_gamma   119.99999872
_symmetry_Int_Tables_number   1
_chemical_formula_structural   Sc3Tc3Ge2P
_chemical_formula_sum   'Sc3 Tc3 Ge2 P1'
_cell_volume   145.00331754
_cell_formula_units_Z   1
loop_
 _symmetry_equiv_pos_site_id
 _symmetry_equiv_pos_as_xyz
  1  'x, y, z'
loop_
 _atom_site_type_symbol
 _atom_site_label
 _atom_site_symmetry_multiplicity
 _atom_site_fract_x
 _atom_site_fract_y
 _atom_site_fract_z
 _atom_site_occupancy
  Sc  Sc0  1  0.388258  0.388258  0.500000  1
  Sc  Sc1  1  0.611742  0.000000  0.500000  1
  Sc  Sc2  1  0.000000  0.611742  0.500000  1
  Tc  Tc3  1  0.000000  0.247650  0.000000  1
  Tc  Tc4  1  0.247650  0.000000  0.000000  1
  Tc  Tc5  1  0.752350  0.752350  0.000000  1
  Ge  Ge6  1  0.666667  0.333333  0.000000  1
  Ge  Ge7  1  0.333333  0.666667  0.000000  1
  P  P8  1  0.000000  0.000000  0.500000  1
