# generated using pymatgen
data_Pr4Nd2RuCl10
_symmetry_space_group_name_H-M   'P 1'
_cell_length_a   7.47987256
_cell_length_b   9.13537117
_cell_length_c   9.47021407
_cell_angle_alpha   109.45197828
_cell_angle_beta   96.59838818
_cell_angle_gamma   106.82771120
_symmetry_Int_Tables_number   1
_chemical_formula_structural   Pr4Nd2RuCl10
_chemical_formula_sum   'Pr4 Nd2 Ru1 Cl10'
_cell_volume   567.81456413
_cell_formula_units_Z   1
loop_
 _symmetry_equiv_pos_site_id
 _symmetry_equiv_pos_as_xyz
  1  'x, y, z'
loop_
 _atom_site_type_symbol
 _atom_site_label
 _atom_site_symmetry_multiplicity
 _atom_site_fract_x
 _atom_site_fract_y
 _atom_site_fract_z
 _atom_site_occupancy
  Pr  Pr0  1  0.855580  0.938418  0.250186  1
  Pr  Pr1  1  0.031275  0.704661  0.905971  1
  Pr  Pr2  1  0.380477  0.155998  0.202324  1
  Pr  Pr3  1  0.968062  0.294930  0.093057  1
  Nd  Nd4  1  0.142541  0.060174  0.750939  1
  Nd  Nd5  1  0.621303  0.846824  0.800034  1
  Ru  Ru6  1  0.999973  0.999933  0.000278  1
  Cl  Cl7  1  0.204497  0.754330  0.657576  1
  Cl  Cl8  1  0.648680  0.541915  0.723516  1
  Cl  Cl9  1  0.237020  0.076847  0.446486  1
  Cl  Cl10  1  0.799364  0.249185  0.344371  1
  Cl  Cl11  1  0.551039  0.166569  0.926350  1
  Cl  Cl12  1  0.764094  0.921452  0.557362  1
  Cl  Cl13  1  0.908727  0.628618  0.159511  1
  Cl  Cl14  1  0.351026  0.461883  0.273514  1
  Cl  Cl15  1  0.088931  0.367018  0.837099  1
  Cl  Cl16  1  0.447408  0.831243  0.071425  1
