# generated using pymatgen
data_YbTmTcH6
_symmetry_space_group_name_H-M   'P 1'
_cell_length_a   4.98676014
_cell_length_b   4.98676024
_cell_length_c   4.98676100
_cell_angle_alpha   60.00000159
_cell_angle_beta   60.00000090
_cell_angle_gamma   60.00000894
_symmetry_Int_Tables_number   1
_chemical_formula_structural   YbTmTcH6
_chemical_formula_sum   'Yb1 Tm1 Tc1 H6'
_cell_volume   87.68808005
_cell_formula_units_Z   1
loop_
 _symmetry_equiv_pos_site_id
 _symmetry_equiv_pos_as_xyz
  1  'x, y, z'
loop_
 _atom_site_type_symbol
 _atom_site_label
 _atom_site_symmetry_multiplicity
 _atom_site_fract_x
 _atom_site_fract_y
 _atom_site_fract_z
 _atom_site_occupancy
  Yb  Yb0  1  0.750000  0.750000  0.750000  1
  Tm  Tm1  1  0.250000  0.250000  0.250000  1
  Tc  Tc2  1  0.000000  0.000000  0.000000  1
  H  H3  1  0.748571  0.251429  0.251429  1
  H  H4  1  0.748571  0.748571  0.251429  1
  H  H5  1  0.251429  0.748571  0.251429  1
  H  H6  1  0.748571  0.251429  0.748571  1
  H  H7  1  0.251429  0.251429  0.748571  1
  H  H8  1  0.251429  0.748571  0.748571  1
