# generated using pymatgen
data_Ba6Tm2(WO6)3
_symmetry_space_group_name_H-M   'P 1'
_cell_length_a   5.94225278
_cell_length_b   5.94225304
_cell_length_c   14.86378835
_cell_angle_alpha   90.00000179
_cell_angle_beta   78.46944950
_cell_angle_gamma   120.00001364
_symmetry_Int_Tables_number   1
_chemical_formula_structural   Ba6Tm2(WO6)3
_chemical_formula_sum   'Ba6 Tm2 W3 O18'
_cell_volume   442.25656961
_cell_formula_units_Z   1
loop_
 _symmetry_equiv_pos_site_id
 _symmetry_equiv_pos_as_xyz
  1  'x, y, z'
loop_
 _atom_site_type_symbol
 _atom_site_label
 _atom_site_symmetry_multiplicity
 _atom_site_fract_x
 _atom_site_fract_y
 _atom_site_fract_z
 _atom_site_occupancy
  Ba  Ba0  1  0.272671  0.636336  0.090994  1
  Ba  Ba1  1  0.823150  0.911575  0.265275  1
  Ba  Ba2  1  0.373888  0.186944  0.439168  1
  Ba  Ba3  1  0.626111  0.813055  0.560833  1
  Ba  Ba4  1  0.176850  0.088425  0.734725  1
  Ba  Ba5  1  0.727329  0.363664  0.909006  1
  Tm  Tm6  1  0.550768  0.275384  0.173847  1
  Tm  Tm7  1  0.449232  0.724616  0.826152  1
  W  W8  1  0.000000  0.000000  0.000000  1
  W  W9  1  0.103716  0.551858  0.344426  1
  W  W10  1  0.896284  0.448142  0.655574  1
  O  O11  1  0.260960  0.130480  0.077773  1
  O  O12  1  0.791747  0.130481  0.077773  1
  O  O13  1  0.791748  0.661267  0.077773  1
  O  O14  1  0.319511  0.426562  0.253927  1
  O  O15  1  0.853127  0.426563  0.253927  1
  O  O16  1  0.319509  0.892946  0.253927  1
  O  O17  1  0.901759  0.212481  0.408965  1
  O  O18  1  0.901759  0.689275  0.408965  1
  O  O19  1  0.378553  0.689276  0.408965  1
  O  O20  1  0.098242  0.310723  0.591035  1
  O  O21  1  0.621447  0.310724  0.591035  1
  O  O22  1  0.098242  0.787518  0.591035  1
  O  O23  1  0.680489  0.107054  0.746073  1
  O  O24  1  0.146874  0.573436  0.746073  1
  O  O25  1  0.680490  0.573437  0.746073  1
  O  O26  1  0.208251  0.338732  0.922227  1
  O  O27  1  0.208251  0.869520  0.922227  1
  O  O28  1  0.739040  0.869520  0.922227  1
