# generated using pymatgen
data_DyEr3Zr4F28
_symmetry_space_group_name_H-M   'P 1'
_cell_length_a   5.73232806
_cell_length_b   9.06371349
_cell_length_c   12.18158082
_cell_angle_alpha   62.43493495
_cell_angle_beta   89.99531141
_cell_angle_gamma   90.01119997
_symmetry_Int_Tables_number   1
_chemical_formula_structural   DyEr3Zr4F28
_chemical_formula_sum   'Dy1 Er3 Zr4 F28'
_cell_volume   561.06434746
_cell_formula_units_Z   1
loop_
 _symmetry_equiv_pos_site_id
 _symmetry_equiv_pos_as_xyz
  1  'x, y, z'
loop_
 _atom_site_type_symbol
 _atom_site_label
 _atom_site_symmetry_multiplicity
 _atom_site_fract_x
 _atom_site_fract_y
 _atom_site_fract_z
 _atom_site_occupancy
  Dy  Dy0  1  0.756408  0.816431  0.766034  1
  Er  Er1  1  0.743687  0.817393  0.266109  1
  Er  Er2  1  0.243851  0.183883  0.234045  1
  Er  Er3  1  0.257137  0.183383  0.734150  1
  Zr  Zr4  1  0.744064  0.275346  0.454336  1
  Zr  Zr5  1  0.244068  0.725705  0.046475  1
  Zr  Zr6  1  0.255148  0.725105  0.544264  1
  Zr  Zr7  1  0.755767  0.273378  0.955030  1
  F  F8  1  0.467179  0.711909  0.921822  1
  F  F9  1  0.968883  0.288026  0.578758  1
  F  F10  1  0.531401  0.288120  0.078876  1
  F  F11  1  0.031855  0.710895  0.419868  1
  F  F12  1  0.452437  0.279126  0.550941  1
  F  F13  1  0.952258  0.720814  0.950767  1
  F  F14  1  0.547805  0.720274  0.448584  1
  F  F15  1  0.047054  0.279025  0.051351  1
  F  F16  1  0.769640  0.525630  0.858415  1
  F  F17  1  0.267636  0.472495  0.641862  1
  F  F18  1  0.233468  0.473074  0.142952  1
  F  F19  1  0.732542  0.527525  0.356791  1
  F  F20  1  0.759083  0.021592  0.058902  1
  F  F21  1  0.258893  0.977127  0.440852  1
  F  F22  1  0.241235  0.977424  0.941088  1
  F  F23  1  0.739796  0.023529  0.558371  1
  F  F24  1  0.983218  0.734420  0.648657  1
  F  F25  1  0.484321  0.265835  0.849301  1
  F  F26  1  0.012634  0.264853  0.348129  1
  F  F27  1  0.513478  0.735329  0.152290  1
  F  F28  1  0.031730  0.747684  0.174245  1
  F  F29  1  0.530318  0.253269  0.326774  1
  F  F30  1  0.968578  0.251431  0.827140  1
  F  F31  1  0.465940  0.746433  0.672691  1
  F  F32  1  0.433561  0.975781  0.235917  1
  F  F33  1  0.933216  0.025422  0.264330  1
  F  F34  1  0.569482  0.027939  0.764839  1
  F  F35  1  0.072229  0.974393  0.735042  1
