# generated using pymatgen
data_NaTm9(In2Au)4
_symmetry_space_group_name_H-M   'P 1'
_cell_length_a   3.61372000
_cell_length_b   8.16680008
_cell_length_c   18.28325200
_cell_angle_alpha   90.00784355
_cell_angle_beta   90.00000000
_cell_angle_gamma   90.00000000
_symmetry_Int_Tables_number   1
_chemical_formula_structural   NaTm9(In2Au)4
_chemical_formula_sum   'Na1 Tm9 In8 Au4'
_cell_volume   539.58499565
_cell_formula_units_Z   1
loop_
 _symmetry_equiv_pos_site_id
 _symmetry_equiv_pos_as_xyz
  1  'x, y, z'
loop_
 _atom_site_type_symbol
 _atom_site_label
 _atom_site_symmetry_multiplicity
 _atom_site_fract_x
 _atom_site_fract_y
 _atom_site_fract_z
 _atom_site_occupancy
  Na  Na0  1  0.000000  0.000000  0.000000  1
  Tm  Tm1  1  0.000000  0.500000  0.500000  1
  Tm  Tm2  1  0.000000  0.735993  0.281829  1
  Tm  Tm3  1  0.000000  0.264007  0.718171  1
  Tm  Tm4  1  0.000000  0.764466  0.782429  1
  Tm  Tm5  1  0.000000  0.235534  0.217571  1
  Tm  Tm6  1  0.000000  0.622458  0.079186  1
  Tm  Tm7  1  0.000000  0.377542  0.920814  1
  Tm  Tm8  1  0.000000  0.880736  0.579021  1
  Tm  Tm9  1  0.000000  0.119264  0.420979  1
  In  In10  1  0.500000  0.712456  0.933131  1
  In  In11  1  0.500000  0.287544  0.066869  1
  In  In12  1  0.500000  0.788545  0.433614  1
  In  In13  1  0.500000  0.211455  0.566386  1
  In  In14  1  0.500000  0.580915  0.646171  1
  In  In15  1  0.500000  0.419085  0.353829  1
  In  In16  1  0.500000  0.921114  0.146489  1
  In  In17  1  0.500000  0.078886  0.853511  1
  Au  Au18  1  0.500000  0.525186  0.196603  1
  Au  Au19  1  0.500000  0.474814  0.803397  1
  Au  Au20  1  0.500000  0.973220  0.696116  1
  Au  Au21  1  0.500000  0.026780  0.303884  1
