# generated using pymatgen
data_Dy13Th3(HgIr)4
_symmetry_space_group_name_H-M   'P 1'
_cell_length_a   9.71276217
_cell_length_b   9.71774771
_cell_length_c   9.71774800
_cell_angle_alpha   59.99999900
_cell_angle_beta   59.98301780
_cell_angle_gamma   59.98302704
_symmetry_Int_Tables_number   1
_chemical_formula_structural   Dy13Th3(HgIr)4
_chemical_formula_sum   'Dy13 Th3 Hg4 Ir4'
_cell_volume   648.40672588
_cell_formula_units_Z   1
loop_
 _symmetry_equiv_pos_site_id
 _symmetry_equiv_pos_as_xyz
  1  'x, y, z'
loop_
 _atom_site_type_symbol
 _atom_site_label
 _atom_site_symmetry_multiplicity
 _atom_site_fract_x
 _atom_site_fract_y
 _atom_site_fract_z
 _atom_site_occupancy
  Dy  Dy0  1  0.943591  0.352136  0.352136  1
  Dy  Dy1  1  0.810778  0.190370  0.190370  1
  Dy  Dy2  1  0.188674  0.811611  0.811611  1
  Dy  Dy3  1  0.188674  0.811611  0.188102  1
  Dy  Dy4  1  0.810778  0.190370  0.808481  1
  Dy  Dy5  1  0.188674  0.188102  0.811611  1
  Dy  Dy6  1  0.810778  0.808481  0.190370  1
  Dy  Dy7  1  0.936608  0.563351  0.563351  1
  Dy  Dy8  1  0.564155  0.935664  0.935664  1
  Dy  Dy9  1  0.564155  0.935664  0.564516  1
  Dy  Dy10  1  0.936608  0.563351  0.936690  1
  Dy  Dy11  1  0.564155  0.564516  0.935664  1
  Dy  Dy12  1  0.936608  0.936690  0.563351  1
  Th  Th13  1  0.348858  0.350833  0.350833  1
  Th  Th14  1  0.348858  0.350833  0.949477  1
  Th  Th15  1  0.348858  0.949477  0.350833  1
  Hg  Hg16  1  0.589063  0.585486  0.585486  1
  Hg  Hg17  1  0.589063  0.585486  0.239967  1
  Hg  Hg18  1  0.589063  0.239967  0.585486  1
  Hg  Hg19  1  0.237576  0.587475  0.587475  1
  Ir  Ir20  1  0.144339  0.141803  0.141803  1
  Ir  Ir21  1  0.144339  0.141803  0.572055  1
  Ir  Ir22  1  0.144339  0.572055  0.141803  1
  Ir  Ir23  1  0.571411  0.142863  0.142863  1
