# generated using pymatgen
data_Nd3AlGeRu2
_symmetry_space_group_name_H-M   'P 1'
_cell_length_a   5.73505400
_cell_length_b   7.97676600
_cell_length_c   13.88015500
_cell_angle_alpha   90.00000000
_cell_angle_beta   90.00000000
_cell_angle_gamma   90.00000000
_symmetry_Int_Tables_number   1
_chemical_formula_structural   Nd3AlGeRu2
_chemical_formula_sum   'Nd12 Al4 Ge4 Ru8'
_cell_volume   634.97800134
_cell_formula_units_Z   4
loop_
 _symmetry_equiv_pos_site_id
 _symmetry_equiv_pos_as_xyz
  1  'x, y, z'
loop_
 _atom_site_type_symbol
 _atom_site_label
 _atom_site_symmetry_multiplicity
 _atom_site_fract_x
 _atom_site_fract_y
 _atom_site_fract_z
 _atom_site_occupancy
  Nd  Nd0  1  0.627898  0.266790  0.250000  1
  Nd  Nd1  1  0.372102  0.733210  0.750000  1
  Nd  Nd2  1  0.372102  0.766790  0.250000  1
  Nd  Nd3  1  0.627898  0.233210  0.750000  1
  Nd  Nd4  1  0.146883  0.405286  0.099401  1
  Nd  Nd5  1  0.853117  0.594714  0.900599  1
  Nd  Nd6  1  0.853117  0.594714  0.599401  1
  Nd  Nd7  1  0.853117  0.905286  0.400599  1
  Nd  Nd8  1  0.146883  0.405286  0.400599  1
  Nd  Nd9  1  0.146883  0.094714  0.599401  1
  Nd  Nd10  1  0.146883  0.094714  0.900599  1
  Nd  Nd11  1  0.853117  0.905286  0.099401  1
  Al  Al12  1  0.607011  0.250000  0.000000  1
  Al  Al13  1  0.392989  0.750000  0.000000  1
  Al  Al14  1  0.392989  0.750000  0.500000  1
  Al  Al15  1  0.607011  0.250000  0.500000  1
  Ge  Ge16  1  0.133139  0.117019  0.250000  1
  Ge  Ge17  1  0.866861  0.882981  0.750000  1
  Ge  Ge18  1  0.866861  0.617019  0.250000  1
  Ge  Ge19  1  0.133139  0.382981  0.750000  1
  Ru  Ru20  1  0.354826  0.025907  0.093206  1
  Ru  Ru21  1  0.645174  0.974093  0.906794  1
  Ru  Ru22  1  0.645174  0.974093  0.593206  1
  Ru  Ru23  1  0.645174  0.525907  0.406794  1
  Ru  Ru24  1  0.354826  0.025907  0.406794  1
  Ru  Ru25  1  0.354826  0.474093  0.593206  1
  Ru  Ru26  1  0.354826  0.474093  0.906794  1
  Ru  Ru27  1  0.645174  0.525907  0.093206  1
