# generated using pymatgen
data_HfSc7(Si4Mo3)4
_symmetry_space_group_name_H-M   'P 1'
_cell_length_a   6.56576183
_cell_length_b   6.77969121
_cell_length_c   12.68640231
_cell_angle_alpha   89.95642524
_cell_angle_beta   89.97120265
_cell_angle_gamma   90.10243970
_symmetry_Int_Tables_number   1
_chemical_formula_structural   HfSc7(Si4Mo3)4
_chemical_formula_sum   'Hf1 Sc7 Si16 Mo12'
_cell_volume   564.71931630
_cell_formula_units_Z   1
loop_
 _symmetry_equiv_pos_site_id
 _symmetry_equiv_pos_as_xyz
  1  'x, y, z'
loop_
 _atom_site_type_symbol
 _atom_site_label
 _atom_site_symmetry_multiplicity
 _atom_site_fract_x
 _atom_site_fract_y
 _atom_site_fract_z
 _atom_site_occupancy
  Hf  Hf0  1  0.505325  0.669879  0.594381  1
  Sc  Sc1  1  0.995431  0.169495  0.093034  1
  Sc  Sc2  1  0.005301  0.830482  0.907686  1
  Sc  Sc3  1  0.505533  0.669372  0.907527  1
  Sc  Sc4  1  0.006284  0.830278  0.592237  1
  Sc  Sc5  1  0.495018  0.330346  0.092969  1
  Sc  Sc6  1  0.994939  0.169934  0.406965  1
  Sc  Sc7  1  0.495347  0.330984  0.407139  1
  Si  Si8  1  0.033428  0.123363  0.749429  1
  Si  Si9  1  0.965552  0.876703  0.249847  1
  Si  Si10  1  0.465679  0.622627  0.249304  1
  Si  Si11  1  0.534417  0.375725  0.750278  1
  Si  Si12  1  0.300047  0.860565  0.750993  1
  Si  Si13  1  0.698865  0.140183  0.249892  1
  Si  Si14  1  0.199067  0.359577  0.250178  1
  Si  Si15  1  0.802599  0.640363  0.751086  1
  Si  Si16  1  0.166368  0.461688  0.543731  1
  Si  Si17  1  0.833019  0.537403  0.455616  1
  Si  Si18  1  0.334026  0.963405  0.455737  1
  Si  Si19  1  0.834582  0.536859  0.044923  1
  Si  Si20  1  0.666540  0.038461  0.543947  1
  Si  Si21  1  0.165055  0.462793  0.955221  1
  Si  Si22  1  0.664976  0.036600  0.954837  1
  Si  Si23  1  0.334811  0.963554  0.044934  1
  Mo  Mo24  1  0.167178  0.506793  0.748446  1
  Mo  Mo25  1  0.833699  0.493923  0.250482  1
  Mo  Mo26  1  0.333690  0.005890  0.249882  1
  Mo  Mo27  1  0.665903  0.991362  0.748628  1
  Mo  Mo28  1  0.331637  0.164722  0.623851  1
  Mo  Mo29  1  0.667599  0.833011  0.376716  1
  Mo  Mo30  1  0.169723  0.666021  0.376368  1
  Mo  Mo31  1  0.668567  0.834472  0.123988  1
  Mo  Mo32  1  0.830070  0.337722  0.624142  1
  Mo  Mo33  1  0.330286  0.166502  0.875736  1
  Mo  Mo34  1  0.830615  0.334391  0.876084  1
  Mo  Mo35  1  0.168827  0.664553  0.123788  1
