# generated using pymatgen
data_Mg2TaRh3
_symmetry_space_group_name_H-M   'P 1'
_cell_length_a   3.20172400
_cell_length_b   4.43882822
_cell_length_c   6.96266778
_cell_angle_alpha   71.58557733
_cell_angle_beta   90.00000000
_cell_angle_gamma   90.00000000
_symmetry_Int_Tables_number   1
_chemical_formula_structural   Mg2TaRh3
_chemical_formula_sum   'Mg2 Ta1 Rh3'
_cell_volume   93.88603305
_cell_formula_units_Z   1
loop_
 _symmetry_equiv_pos_site_id
 _symmetry_equiv_pos_as_xyz
  1  'x, y, z'
loop_
 _atom_site_type_symbol
 _atom_site_label
 _atom_site_symmetry_multiplicity
 _atom_site_fract_x
 _atom_site_fract_y
 _atom_site_fract_z
 _atom_site_occupancy
  Mg  Mg0  1  0.000000  0.335203  0.325840  1
  Mg  Mg1  1  0.000000  0.998200  0.007468  1
  Ta  Ta2  1  0.000000  0.666594  0.666669  1
  Rh  Rh3  1  0.500000  0.510393  0.982986  1
  Rh  Rh4  1  0.500000  0.822988  0.350361  1
  Rh  Rh5  1  0.500000  0.166621  0.666676  1
