# generated using pymatgen
data_Tb3Er4Co2Sn23Rh4
_symmetry_space_group_name_H-M   'P 1'
_cell_length_a   9.80136444
_cell_length_b   9.83531167
_cell_length_c   10.02833053
_cell_angle_alpha   89.99999917
_cell_angle_beta   90.19395523
_cell_angle_gamma   120.11464269
_symmetry_Int_Tables_number   1
_chemical_formula_structural   Tb3Er4Co2Sn23Rh4
_chemical_formula_sum   'Tb3 Er4 Co2 Sn23 Rh4'
_cell_volume   836.23385520
_cell_formula_units_Z   1
loop_
 _symmetry_equiv_pos_site_id
 _symmetry_equiv_pos_as_xyz
  1  'x, y, z'
loop_
 _atom_site_type_symbol
 _atom_site_label
 _atom_site_symmetry_multiplicity
 _atom_site_fract_x
 _atom_site_fract_y
 _atom_site_fract_z
 _atom_site_occupancy
  Tb  Tb0  1  0.000000  0.000000  0.000000  1
  Tb  Tb1  1  0.042480  0.521240  0.308398  1
  Tb  Tb2  1  0.957520  0.478760  0.691602  1
  Er  Er3  1  0.479506  0.520696  0.309088  1
  Er  Er4  1  0.520494  0.479304  0.690912  1
  Er  Er5  1  0.479506  0.958809  0.309088  1
  Er  Er6  1  0.520494  0.041191  0.690912  1
  Co  Co7  1  0.338616  0.169308  0.199698  1
  Co  Co8  1  0.661384  0.830692  0.800302  1
  Sn  Sn9  1  0.352828  0.005610  0.004709  1
  Sn  Sn10  1  0.647172  0.994390  0.995291  1
  Sn  Sn11  1  0.000000  0.351455  0.000000  1
  Sn  Sn12  1  0.000000  0.648545  0.000000  1
  Sn  Sn13  1  0.647172  0.652782  0.995291  1
  Sn  Sn14  1  0.352828  0.347218  0.004709  1
  Sn  Sn15  1  0.339175  0.669588  0.821393  1
  Sn  Sn16  1  0.660825  0.330412  0.178607  1
  Sn  Sn17  1  0.000000  0.000000  0.500000  1
  Sn  Sn18  1  0.778550  0.219459  0.457454  1
  Sn  Sn19  1  0.221450  0.780541  0.542546  1
  Sn  Sn20  1  0.778550  0.559091  0.457454  1
  Sn  Sn21  1  0.221450  0.440909  0.542546  1
  Sn  Sn22  1  0.437962  0.218981  0.452287  1
  Sn  Sn23  1  0.562038  0.781019  0.547713  1
  Sn  Sn24  1  0.336129  0.668065  0.117478  1
  Sn  Sn25  1  0.663871  0.331935  0.882522  1
  Sn  Sn26  1  0.123270  0.887868  0.277191  1
  Sn  Sn27  1  0.876730  0.112132  0.722809  1
  Sn  Sn28  1  0.123270  0.235403  0.277191  1
  Sn  Sn29  1  0.876730  0.764597  0.722809  1
  Sn  Sn30  1  0.759239  0.879620  0.282163  1
  Sn  Sn31  1  0.240761  0.120380  0.717837  1
  Rh  Rh32  1  0.829725  0.167296  0.198569  1
  Rh  Rh33  1  0.170275  0.832704  0.801431  1
  Rh  Rh34  1  0.829725  0.662429  0.198569  1
  Rh  Rh35  1  0.170275  0.337571  0.801431  1
