# generated using pymatgen
data_Mn3AlV12Si7NiC4
_symmetry_space_group_name_H-M   'P 1'
_cell_length_a   7.69055302
_cell_length_b   7.67524421
_cell_length_c   7.69055300
_cell_angle_alpha   59.93399398
_cell_angle_beta   59.99999578
_cell_angle_gamma   59.93399041
_symmetry_Int_Tables_number   1
_chemical_formula_structural   Mn3AlV12Si7NiC4
_chemical_formula_sum   'Mn3 Al1 V12 Si7 Ni1 C4'
_cell_volume   320.66998465
_cell_formula_units_Z   1
loop_
 _symmetry_equiv_pos_site_id
 _symmetry_equiv_pos_as_xyz
  1  'x, y, z'
loop_
 _atom_site_type_symbol
 _atom_site_label
 _atom_site_symmetry_multiplicity
 _atom_site_fract_x
 _atom_site_fract_y
 _atom_site_fract_z
 _atom_site_occupancy
  Mn  Mn0  1  0.125778  0.623145  0.125778  1
  Mn  Mn1  1  0.120736  0.127660  0.630908  1
  Mn  Mn2  1  0.630908  0.127660  0.120736  1
  Al  Al3  1  0.336156  0.987747  0.336156  1
  V  V4  1  0.937439  0.938962  0.567247  1
  V  V5  1  0.684337  0.312568  0.309998  1
  V  V6  1  0.305074  0.688599  0.702390  1
  V  V7  1  0.702390  0.688599  0.305074  1
  V  V8  1  0.690569  0.311547  0.690569  1
  V  V9  1  0.307842  0.678603  0.307842  1
  V  V10  1  0.558300  0.941102  0.558300  1
  V  V11  1  0.567247  0.938962  0.937439  1
  V  V12  1  0.939404  0.559749  0.559946  1
  V  V13  1  0.937850  0.567201  0.937850  1
  V  V14  1  0.309998  0.312568  0.684337  1
  V  V15  1  0.559946  0.559749  0.939404  1
  Si  Si16  1  0.911528  0.265014  0.911528  1
  Si  Si17  1  0.339285  0.332451  0.989991  1
  Si  Si18  1  0.989991  0.332451  0.339285  1
  Si  Si19  1  0.337310  0.329120  0.337310  1
  Si  Si20  1  0.262654  0.912810  0.912737  1
  Si  Si21  1  0.914694  0.914886  0.914694  1
  Si  Si22  1  0.912737  0.912810  0.262654  1
  Ni  Ni23  1  0.120639  0.128300  0.120639  1
  C  C24  1  0.623851  0.127472  0.623851  1
  C  C25  1  0.623428  0.626739  0.126781  1
  C  C26  1  0.126781  0.626739  0.623428  1
  C  C27  1  0.623131  0.626782  0.623131  1
