# generated using pymatgen
data_VCo4Re(B2Mo)2
_symmetry_space_group_name_H-M   'P 1'
_cell_length_a   3.21492700
_cell_length_b   5.69360805
_cell_length_c   6.56488195
_cell_angle_alpha   89.50343753
_cell_angle_beta   90.00000000
_cell_angle_gamma   90.00000000
_symmetry_Int_Tables_number   1
_chemical_formula_structural   VCo4Re(B2Mo)2
_chemical_formula_sum   'V1 Co4 Re1 B4 Mo2'
_cell_volume   120.16259354
_cell_formula_units_Z   1
loop_
 _symmetry_equiv_pos_site_id
 _symmetry_equiv_pos_as_xyz
  1  'x, y, z'
loop_
 _atom_site_type_symbol
 _atom_site_label
 _atom_site_symmetry_multiplicity
 _atom_site_fract_x
 _atom_site_fract_y
 _atom_site_fract_z
 _atom_site_occupancy
  V  V0  1  0.250000  0.527781  0.674740  1
  Co  Co1  1  0.750000  0.851726  0.561002  1
  Co  Co2  1  0.250000  0.141713  0.445911  1
  Co  Co3  1  0.750000  0.360689  0.936444  1
  Co  Co4  1  0.250000  0.645777  0.053584  1
  Re  Re5  1  0.250000  0.027041  0.827115  1
  B  B6  1  0.250000  0.275015  0.119767  1
  B  B7  1  0.750000  0.726496  0.869095  1
  B  B8  1  0.250000  0.767494  0.377976  1
  B  B9  1  0.750000  0.232952  0.630402  1
  Mo  Mo10  1  0.750000  0.472200  0.328975  1
  Mo  Mo11  1  0.750000  0.971116  0.174988  1
