# generated using pymatgen
data_Er3MgAl2Si2Ir
_symmetry_space_group_name_H-M   'P 1'
_cell_length_a   6.97857000
_cell_length_b   6.89398586
_cell_length_c   4.25902400
_cell_angle_alpha   90.00000000
_cell_angle_beta   90.00000000
_cell_angle_gamma   120.40670082
_symmetry_Int_Tables_number   1
_chemical_formula_structural   Er3MgAl2Si2Ir
_chemical_formula_sum   'Er3 Mg1 Al2 Si2 Ir1'
_cell_volume   176.71894005
_cell_formula_units_Z   1
loop_
 _symmetry_equiv_pos_site_id
 _symmetry_equiv_pos_as_xyz
  1  'x, y, z'
loop_
 _atom_site_type_symbol
 _atom_site_label
 _atom_site_symmetry_multiplicity
 _atom_site_fract_x
 _atom_site_fract_y
 _atom_site_fract_z
 _atom_site_occupancy
  Er  Er0  1  0.416201  0.000000  0.000000  1
  Er  Er1  1  0.998175  0.416467  0.000000  1
  Er  Er2  1  0.581708  0.583533  0.000000  1
  Mg  Mg3  1  0.763182  0.000000  0.500001  1
  Al  Al4  1  0.233810  0.233714  0.500001  1
  Al  Al5  1  0.000096  0.766286  0.500001  1
  Si  Si6  1  0.663622  0.340001  0.500001  1
  Si  Si7  1  0.323620  0.659999  0.500001  1
  Ir  Ir8  1  0.019584  0.000000  0.000000  1
