# generated using pymatgen
data_Tb3YCo2Sn5
_symmetry_space_group_name_H-M   'P 1'
_cell_length_a   7.28410256
_cell_length_b   7.28410343
_cell_length_c   10.66328405
_cell_angle_alpha   54.27851408
_cell_angle_beta   54.27850975
_cell_angle_gamma   35.59464920
_symmetry_Int_Tables_number   1
_chemical_formula_structural   Tb3YCo2Sn5
_chemical_formula_sum   'Tb3 Y1 Co2 Sn5'
_cell_volume   260.13122200
_cell_formula_units_Z   1
loop_
 _symmetry_equiv_pos_site_id
 _symmetry_equiv_pos_as_xyz
  1  'x, y, z'
loop_
 _atom_site_type_symbol
 _atom_site_label
 _atom_site_symmetry_multiplicity
 _atom_site_fract_x
 _atom_site_fract_y
 _atom_site_fract_z
 _atom_site_occupancy
  Tb  Tb0  1  0.066276  0.066276  0.782038  1
  Tb  Tb1  1  0.933689  0.933689  0.217965  1
  Tb  Tb2  1  0.328337  0.328337  0.785997  1
  Y  Y3  1  0.671742  0.671742  0.213880  1
  Co  Co4  1  0.771907  0.771907  0.645698  1
  Co  Co5  1  0.228164  0.228164  0.354322  1
  Sn  Sn6  1  0.373778  0.373778  0.047109  1
  Sn  Sn7  1  0.626112  0.626112  0.953124  1
  Sn  Sn8  1  0.000045  0.000045  0.499950  1
  Sn  Sn9  1  0.349294  0.349294  0.473389  1
  Sn  Sn10  1  0.650655  0.650655  0.526530  1
