# generated using pymatgen
data_DyEr2Co8MoP6
_symmetry_space_group_name_H-M   'P 1'
_cell_length_a   3.70800700
_cell_length_b   10.53083300
_cell_length_c   12.21197900
_cell_angle_alpha   90.00000000
_cell_angle_beta   90.00000000
_cell_angle_gamma   90.00000000
_symmetry_Int_Tables_number   1
_chemical_formula_structural   DyEr2Co8MoP6
_chemical_formula_sum   'Dy2 Er4 Co16 Mo2 P12'
_cell_volume   476.85827107
_cell_formula_units_Z   2
loop_
 _symmetry_equiv_pos_site_id
 _symmetry_equiv_pos_as_xyz
  1  'x, y, z'
loop_
 _atom_site_type_symbol
 _atom_site_label
 _atom_site_symmetry_multiplicity
 _atom_site_fract_x
 _atom_site_fract_y
 _atom_site_fract_z
 _atom_site_occupancy
  Dy  Dy0  1  0.750000  0.250000  0.475187  1
  Dy  Dy1  1  0.250000  0.750000  0.524813  1
  Er  Er2  1  0.250000  0.930714  0.795195  1
  Er  Er3  1  0.250000  0.569286  0.795195  1
  Er  Er4  1  0.750000  0.069286  0.204805  1
  Er  Er5  1  0.750000  0.430714  0.204805  1
  Co  Co6  1  0.250000  0.250000  0.297864  1
  Co  Co7  1  0.750000  0.750000  0.702136  1
  Co  Co8  1  0.750000  0.250000  0.013638  1
  Co  Co9  1  0.250000  0.750000  0.986362  1
  Co  Co10  1  0.250000  0.417619  0.009919  1
  Co  Co11  1  0.250000  0.082381  0.009919  1
  Co  Co12  1  0.750000  0.582381  0.990081  1
  Co  Co13  1  0.750000  0.917619  0.990081  1
  Co  Co14  1  0.250000  0.454154  0.568703  1
  Co  Co15  1  0.250000  0.045846  0.568703  1
  Co  Co16  1  0.750000  0.545846  0.431297  1
  Co  Co17  1  0.750000  0.954154  0.431297  1
  Co  Co18  1  0.250000  0.872264  0.293021  1
  Co  Co19  1  0.250000  0.627736  0.293021  1
  Co  Co20  1  0.750000  0.127736  0.706979  1
  Co  Co21  1  0.750000  0.372264  0.706979  1
  Mo  Mo22  1  0.250000  0.250000  0.843551  1
  Mo  Mo23  1  0.750000  0.750000  0.156449  1
  P  P24  1  0.250000  0.250000  0.119315  1
  P  P25  1  0.750000  0.750000  0.880685  1
  P  P26  1  0.250000  0.250000  0.650495  1
  P  P27  1  0.750000  0.750000  0.349505  1
  P  P28  1  0.250000  0.438535  0.383475  1
  P  P29  1  0.250000  0.061465  0.383475  1
  P  P30  1  0.750000  0.561465  0.616525  1
  P  P31  1  0.750000  0.938535  0.616525  1
  P  P32  1  0.250000  0.905714  0.107473  1
  P  P33  1  0.250000  0.594286  0.107473  1
  P  P34  1  0.750000  0.094286  0.892527  1
  P  P35  1  0.750000  0.405714  0.892527  1
