# generated using pymatgen
data_Ba2AsClO4
_symmetry_space_group_name_H-M   'P 1'
_cell_length_a   7.02029300
_cell_length_b   7.99408300
_cell_length_c   12.26042100
_cell_angle_alpha   90.00000000
_cell_angle_beta   90.00000000
_cell_angle_gamma   90.00000000
_symmetry_Int_Tables_number   1
_chemical_formula_structural   Ba2AsClO4
_chemical_formula_sum   'Ba8 As4 Cl4 O16'
_cell_volume   688.06469526
_cell_formula_units_Z   4
loop_
 _symmetry_equiv_pos_site_id
 _symmetry_equiv_pos_as_xyz
  1  'x, y, z'
loop_
 _atom_site_type_symbol
 _atom_site_label
 _atom_site_symmetry_multiplicity
 _atom_site_fract_x
 _atom_site_fract_y
 _atom_site_fract_z
 _atom_site_occupancy
  Ba  Ba0  1  0.366793  0.750000  0.500000  1
  Ba  Ba1  1  0.133348  0.031650  0.750000  1
  Ba  Ba2  1  0.633207  0.250000  0.500000  1
  Ba  Ba3  1  0.133348  0.468350  0.250000  1
  Ba  Ba4  1  0.633207  0.250000  0.000000  1
  Ba  Ba5  1  0.866652  0.531650  0.750000  1
  Ba  Ba6  1  0.366793  0.750000  0.000000  1
  Ba  Ba7  1  0.866652  0.968350  0.250000  1
  As  As8  1  0.864587  0.750000  0.000000  1
  As  As9  1  0.135413  0.250000  0.500000  1
  As  As10  1  0.135413  0.250000  0.000000  1
  As  As11  1  0.864587  0.750000  0.500000  1
  Cl  Cl12  1  0.518381  0.218766  0.250000  1
  Cl  Cl13  1  0.518381  0.281234  0.750000  1
  Cl  Cl14  1  0.481619  0.718766  0.250000  1
  Cl  Cl15  1  0.481619  0.781234  0.750000  1
  O  O16  1  0.988900  0.226015  0.112951  1
  O  O17  1  0.281105  0.418777  0.472641  1
  O  O18  1  0.011100  0.726015  0.387049  1
  O  O19  1  0.718895  0.918777  0.472641  1
  O  O20  1  0.011100  0.773985  0.612951  1
  O  O21  1  0.718895  0.581223  0.527359  1
  O  O22  1  0.988900  0.226015  0.387049  1
  O  O23  1  0.988900  0.273985  0.887049  1
  O  O24  1  0.718895  0.918777  0.027359  1
  O  O25  1  0.988900  0.273985  0.612951  1
  O  O26  1  0.718895  0.581223  0.972641  1
  O  O27  1  0.281105  0.418777  0.027359  1
  O  O28  1  0.011100  0.726015  0.112951  1
  O  O29  1  0.011100  0.773985  0.887049  1
  O  O30  1  0.281105  0.081223  0.527359  1
  O  O31  1  0.281105  0.081223  0.972641  1
