# generated using pymatgen
data_Nd4TlCdPd3Au
_symmetry_space_group_name_H-M   'P 1'
_cell_length_a   3.88210000
_cell_length_b   7.99515857
_cell_length_c   7.98340099
_cell_angle_alpha   89.71571729
_cell_angle_beta   90.00000000
_cell_angle_gamma   90.00000000
_symmetry_Int_Tables_number   1
_chemical_formula_structural   Nd4TlCdPd3Au
_chemical_formula_sum   'Nd4 Tl1 Cd1 Pd3 Au1'
_cell_volume   247.78579056
_cell_formula_units_Z   1
loop_
 _symmetry_equiv_pos_site_id
 _symmetry_equiv_pos_as_xyz
  1  'x, y, z'
loop_
 _atom_site_type_symbol
 _atom_site_label
 _atom_site_symmetry_multiplicity
 _atom_site_fract_x
 _atom_site_fract_y
 _atom_site_fract_z
 _atom_site_occupancy
  Nd  Nd0  1  0.500000  0.175497  0.673999  1
  Nd  Nd1  1  0.500000  0.832416  0.333971  1
  Nd  Nd2  1  0.500000  0.318449  0.173096  1
  Nd  Nd3  1  0.500000  0.671472  0.816440  1
  Tl  Tl4  1  0.000000  0.003147  0.997892  1
  Cd  Cd5  1  0.000000  0.497736  0.502536  1
  Pd  Pd6  1  0.000000  0.375910  0.871440  1
  Pd  Pd7  1  0.000000  0.875306  0.625072  1
  Pd  Pd8  1  0.000000  0.128807  0.378351  1
  Au  Au9  1  0.000000  0.621260  0.127204  1
