# generated using pymatgen
data_ErPa2Zn3Pd2Pt
_symmetry_space_group_name_H-M   'P 1'
_cell_length_a   7.35230007
_cell_length_b   7.34531202
_cell_length_c   3.78002900
_cell_angle_alpha   90.00000000
_cell_angle_beta   90.00000000
_cell_angle_gamma   119.31720628
_symmetry_Int_Tables_number   1
_chemical_formula_structural   ErPa2Zn3Pd2Pt
_chemical_formula_sum   'Er1 Pa2 Zn3 Pd2 Pt1'
_cell_volume   177.99441432
_cell_formula_units_Z   1
loop_
 _symmetry_equiv_pos_site_id
 _symmetry_equiv_pos_as_xyz
  1  'x, y, z'
loop_
 _atom_site_type_symbol
 _atom_site_label
 _atom_site_symmetry_multiplicity
 _atom_site_fract_x
 _atom_site_fract_y
 _atom_site_fract_z
 _atom_site_occupancy
  Er  Er0  1  0.401361  0.402863  0.000000  1
  Pa  Pa1  1  0.591595  0.999948  0.000000  1
  Pa  Pa2  1  0.005004  0.593223  0.000000  1
  Zn  Zn3  1  0.254811  0.011757  0.500000  1
  Zn  Zn4  1  0.008949  0.254006  0.500000  1
  Zn  Zn5  1  0.737201  0.736206  0.500000  1
  Pd  Pd6  1  0.990567  0.990404  0.000000  1
  Pd  Pd7  1  0.678635  0.332086  0.500000  1
  Pt  Pt8  1  0.331875  0.679506  0.500000  1
