# generated using pymatgen
data_LaEu3Ta4O16
_symmetry_space_group_name_H-M   'P 1'
_cell_length_a   5.47508989
_cell_length_b   7.71876412
_cell_length_c   7.73947303
_cell_angle_alpha   80.05315137
_cell_angle_beta   89.81789626
_cell_angle_gamma   89.65670696
_symmetry_Int_Tables_number   1
_chemical_formula_structural   LaEu3Ta4O16
_chemical_formula_sum   'La1 Eu3 Ta4 O16'
_cell_volume   322.15427310
_cell_formula_units_Z   1
loop_
 _symmetry_equiv_pos_site_id
 _symmetry_equiv_pos_as_xyz
  1  'x, y, z'
loop_
 _atom_site_type_symbol
 _atom_site_label
 _atom_site_symmetry_multiplicity
 _atom_site_fract_x
 _atom_site_fract_y
 _atom_site_fract_z
 _atom_site_occupancy
  La  La0  1  0.270463  0.352105  0.398005  1
  Eu  Eu1  1  0.220099  0.355491  0.897248  1
  Eu  Eu2  1  0.724878  0.642480  0.605508  1
  Eu  Eu3  1  0.776940  0.647666  0.102352  1
  Ta  Ta4  1  0.731625  0.163781  0.696439  1
  Ta  Ta5  1  0.232739  0.836315  0.807354  1
  Ta  Ta6  1  0.268520  0.834589  0.307878  1
  Ta  Ta7  1  0.765744  0.163014  0.190901  1
  O  O8  1  0.503084  0.329541  0.126613  1
  O  O9  1  0.009918  0.664000  0.370359  1
  O  O10  1  0.494949  0.667363  0.870256  1
  O  O11  1  0.984634  0.340149  0.636283  1
  O  O12  1  0.983324  0.383166  0.160498  1
  O  O13  1  0.495447  0.618655  0.332008  1
  O  O14  1  0.010549  0.620723  0.832464  1
  O  O15  1  0.507722  0.381918  0.672501  1
  O  O16  1  0.856939  0.161522  0.943354  1
  O  O17  1  0.353719  0.832167  0.556839  1
  O  O18  1  0.149641  0.830895  0.057241  1
  O  O19  1  0.658092  0.171575  0.442764  1
  O  O20  1  0.411557  0.058427  0.799530  1
  O  O21  1  0.915180  0.944615  0.696694  1
  O  O22  1  0.585950  0.943505  0.198199  1
  O  O23  1  0.088286  0.056336  0.298715  1
