# generated using pymatgen
data_Ce8CrSi16Mo11
_symmetry_space_group_name_H-M   'P 1'
_cell_length_a   6.89648702
_cell_length_b   6.99972357
_cell_length_c   13.01413600
_cell_angle_alpha   90.00000000
_cell_angle_beta   90.00000000
_cell_angle_gamma   90.01403808
_symmetry_Int_Tables_number   1
_chemical_formula_structural   Ce8CrSi16Mo11
_chemical_formula_sum   'Ce8 Cr1 Si16 Mo11'
_cell_volume   628.23791109
_cell_formula_units_Z   1
loop_
 _symmetry_equiv_pos_site_id
 _symmetry_equiv_pos_as_xyz
  1  'x, y, z'
loop_
 _atom_site_type_symbol
 _atom_site_label
 _atom_site_symmetry_multiplicity
 _atom_site_fract_x
 _atom_site_fract_y
 _atom_site_fract_z
 _atom_site_occupancy
  Ce  Ce0  1  0.006151  0.160420  0.092342  1
  Ce  Ce1  1  0.504834  0.338601  0.407592  1
  Ce  Ce2  1  0.495163  0.662617  0.905628  1
  Ce  Ce3  1  0.996636  0.837570  0.594161  1
  Ce  Ce4  1  0.996636  0.837570  0.905839  1
  Ce  Ce5  1  0.495163  0.662617  0.594372  1
  Ce  Ce6  1  0.504834  0.338601  0.092408  1
  Ce  Ce7  1  0.006151  0.160420  0.407658  1
  Cr  Cr8  1  0.335990  0.998864  0.750000  1
  Si  Si9  1  0.809104  0.374969  0.250000  1
  Si  Si10  1  0.309338  0.125166  0.250000  1
  Si  Si11  1  0.690599  0.881770  0.750000  1
  Si  Si12  1  0.191848  0.619263  0.750000  1
  Si  Si13  1  0.038985  0.859828  0.250000  1
  Si  Si14  1  0.539331  0.640710  0.250000  1
  Si  Si15  1  0.458530  0.357397  0.750000  1
  Si  Si16  1  0.961193  0.137444  0.750000  1
  Si  Si17  1  0.843795  0.455696  0.953240  1
  Si  Si18  1  0.344879  0.045214  0.548745  1
  Si  Si19  1  0.654565  0.954959  0.047150  1
  Si  Si20  1  0.154974  0.544866  0.452936  1
  Si  Si21  1  0.154974  0.544866  0.047064  1
  Si  Si22  1  0.654565  0.954959  0.452850  1
  Si  Si23  1  0.344879  0.045214  0.951255  1
  Si  Si24  1  0.843795  0.455696  0.546760  1
  Mo  Mo25  1  0.668856  0.003188  0.250000  1
  Mo  Mo26  1  0.168591  0.497513  0.250000  1
  Mo  Mo27  1  0.830023  0.501976  0.750000  1
  Mo  Mo28  1  0.832362  0.664323  0.125538  1
  Mo  Mo29  1  0.331710  0.835630  0.374284  1
  Mo  Mo30  1  0.668261  0.168432  0.875113  1
  Mo  Mo31  1  0.165476  0.332629  0.624900  1
  Mo  Mo32  1  0.165476  0.332629  0.875100  1
  Mo  Mo33  1  0.668261  0.168432  0.624887  1
  Mo  Mo34  1  0.331710  0.835630  0.125716  1
  Mo  Mo35  1  0.832362  0.664323  0.374462  1
