# generated using pymatgen
data_BaH5Rh
_symmetry_space_group_name_H-M   'P 1'
_cell_length_a   4.99480100
_cell_length_b   6.91668000
_cell_length_c   9.59841000
_cell_angle_alpha   90.00000000
_cell_angle_beta   90.00000000
_cell_angle_gamma   90.00000000
_symmetry_Int_Tables_number   1
_chemical_formula_structural   BaH5Rh
_chemical_formula_sum   'Ba4 H20 Rh4'
_cell_volume   331.60049530
_cell_formula_units_Z   4
loop_
 _symmetry_equiv_pos_site_id
 _symmetry_equiv_pos_as_xyz
  1  'x, y, z'
loop_
 _atom_site_type_symbol
 _atom_site_label
 _atom_site_symmetry_multiplicity
 _atom_site_fract_x
 _atom_site_fract_y
 _atom_site_fract_z
 _atom_site_occupancy
  Ba  Ba0  1  0.242229  0.351989  0.192780  1
  Ba  Ba1  1  0.742229  0.648011  0.807220  1
  Ba  Ba2  1  0.742229  0.851989  0.307220  1
  Ba  Ba3  1  0.242229  0.148011  0.692780  1
  H  H4  1  0.904952  0.561348  0.511663  1
  H  H5  1  0.404952  0.438652  0.488337  1
  H  H6  1  0.404952  0.061348  0.988337  1
  H  H7  1  0.904952  0.938652  0.011663  1
  H  H8  1  0.034048  0.676120  0.078407  1
  H  H9  1  0.534048  0.323880  0.921593  1
  H  H10  1  0.534048  0.176120  0.421593  1
  H  H11  1  0.034048  0.823880  0.578407  1
  H  H12  1  0.479887  0.712353  0.071638  1
  H  H13  1  0.979887  0.287647  0.928362  1
  H  H14  1  0.979887  0.212353  0.428362  1
  H  H15  1  0.479887  0.787647  0.571638  1
  H  H16  1  0.238821  0.779001  0.878646  1
  H  H17  1  0.738821  0.220999  0.121354  1
  H  H18  1  0.738821  0.279001  0.621354  1
  H  H19  1  0.238821  0.720999  0.378646  1
  H  H20  1  0.235919  0.942527  0.205490  1
  H  H21  1  0.735919  0.057473  0.794510  1
  H  H22  1  0.735919  0.442527  0.294510  1
  H  H23  1  0.235919  0.557473  0.705490  1
  Rh  Rh24  1  0.231143  0.643537  0.539967  1
  Rh  Rh25  1  0.731143  0.356463  0.460033  1
  Rh  Rh26  1  0.731143  0.143537  0.960033  1
  Rh  Rh27  1  0.231143  0.856463  0.039967  1
