# generated using pymatgen
data_HoTm11Ir3Os
_symmetry_space_group_name_H-M   'P 1'
_cell_length_a   7.20556252
_cell_length_b   8.93165500
_cell_length_c   6.37214992
_cell_angle_alpha   90.00000000
_cell_angle_beta   89.94275326
_cell_angle_gamma   90.00000000
_symmetry_Int_Tables_number   1
_chemical_formula_structural   HoTm11Ir3Os
_chemical_formula_sum   'Ho1 Tm11 Ir3 Os1'
_cell_volume   410.09606146
_cell_formula_units_Z   1
loop_
 _symmetry_equiv_pos_site_id
 _symmetry_equiv_pos_as_xyz
  1  'x, y, z'
loop_
 _atom_site_type_symbol
 _atom_site_label
 _atom_site_symmetry_multiplicity
 _atom_site_fract_x
 _atom_site_fract_y
 _atom_site_fract_z
 _atom_site_occupancy
  Ho  Ho0  1  0.965157  0.750000  0.378527  1
  Tm  Tm1  1  0.034210  0.250000  0.620469  1
  Tm  Tm2  1  0.465011  0.750000  0.124271  1
  Tm  Tm3  1  0.534541  0.250000  0.878046  1
  Tm  Tm4  1  0.176166  0.062509  0.173133  1
  Tm  Tm5  1  0.822978  0.941845  0.829692  1
  Tm  Tm6  1  0.322855  0.939864  0.674243  1
  Tm  Tm7  1  0.822978  0.558155  0.829692  1
  Tm  Tm8  1  0.678483  0.062287  0.323613  1
  Tm  Tm9  1  0.176166  0.437491  0.173133  1
  Tm  Tm10  1  0.678483  0.437713  0.323613  1
  Tm  Tm11  1  0.322855  0.560136  0.674243  1
  Ir  Ir12  1  0.387807  0.250000  0.466128  1
  Ir  Ir13  1  0.611034  0.750000  0.536895  1
  Ir  Ir14  1  0.114221  0.750000  0.963316  1
  Os  Os15  1  0.887051  0.250000  0.030985  1
