# generated using pymatgen
data_Ti4Co10CuSiB4
_symmetry_space_group_name_H-M   'P 1'
_cell_length_a   8.34196100
_cell_length_b   8.34196100
_cell_length_c   2.98703800
_cell_angle_alpha   90.00000000
_cell_angle_beta   90.00000000
_cell_angle_gamma   90.00000000
_symmetry_Int_Tables_number   1
_chemical_formula_structural   Ti4Co10CuSiB4
_chemical_formula_sum   'Ti4 Co10 Cu1 Si1 B4'
_cell_volume   207.86293626
_cell_formula_units_Z   1
loop_
 _symmetry_equiv_pos_site_id
 _symmetry_equiv_pos_as_xyz
  1  'x, y, z'
loop_
 _atom_site_type_symbol
 _atom_site_label
 _atom_site_symmetry_multiplicity
 _atom_site_fract_x
 _atom_site_fract_y
 _atom_site_fract_z
 _atom_site_occupancy
  Ti  Ti0  1  0.825959  0.321908  0.000000  1
  Ti  Ti1  1  0.321908  0.174041  0.000000  1
  Ti  Ti2  1  0.678092  0.825959  0.000000  1
  Ti  Ti3  1  0.174041  0.678092  0.000000  1
  Co  Co4  1  0.500000  0.000000  0.500000  1
  Co  Co5  1  0.000000  0.500000  0.500000  1
  Co  Co6  1  0.072970  0.218968  0.500000  1
  Co  Co7  1  0.218968  0.927030  0.500000  1
  Co  Co8  1  0.781032  0.072970  0.500000  1
  Co  Co9  1  0.927030  0.781032  0.500000  1
  Co  Co10  1  0.432266  0.714082  0.500000  1
  Co  Co11  1  0.567734  0.285918  0.500000  1
  Co  Co12  1  0.714082  0.567734  0.500000  1
  Co  Co13  1  0.285918  0.432266  0.500000  1
  Cu  Cu14  1  0.000000  0.000000  0.000000  1
  Si  Si15  1  0.500000  0.500000  0.000000  1
  B  B16  1  0.623046  0.119799  0.000000  1
  B  B17  1  0.119799  0.376954  0.000000  1
  B  B18  1  0.880201  0.623046  0.000000  1
  B  B19  1  0.376954  0.880201  0.000000  1
