# generated using pymatgen
data_Er2Tm10GaCo4Os
_symmetry_space_group_name_H-M   'P 1'
_cell_length_a   8.12158589
_cell_length_b   8.12145488
_cell_length_c   8.12144201
_cell_angle_alpha   111.36336054
_cell_angle_beta   110.65791316
_cell_angle_gamma   106.43459491
_symmetry_Int_Tables_number   1
_chemical_formula_structural   Er2Tm10GaCo4Os
_chemical_formula_sum   'Er2 Tm10 Ga1 Co4 Os1'
_cell_volume   411.49288698
_cell_formula_units_Z   1
loop_
 _symmetry_equiv_pos_site_id
 _symmetry_equiv_pos_as_xyz
  1  'x, y, z'
loop_
 _atom_site_type_symbol
 _atom_site_label
 _atom_site_symmetry_multiplicity
 _atom_site_fract_x
 _atom_site_fract_y
 _atom_site_fract_z
 _atom_site_occupancy
  Er  Er0  1  0.577815  0.270737  0.307063  1
  Er  Er1  1  0.180734  0.224257  0.405011  1
  Tm  Tm2  1  0.180696  0.775668  0.956377  1
  Tm  Tm3  1  0.682412  0.486789  0.804427  1
  Tm  Tm4  1  0.682371  0.877978  0.195604  1
  Tm  Tm5  1  0.963722  0.270802  0.692956  1
  Tm  Tm6  1  0.036298  0.729197  0.307085  1
  Tm  Tm7  1  0.317609  0.121989  0.804374  1
  Tm  Tm8  1  0.317602  0.513266  0.195603  1
  Tm  Tm9  1  0.819279  0.224312  0.043565  1
  Tm  Tm10  1  0.819310  0.775717  0.595004  1
  Tm  Tm11  1  0.422122  0.729229  0.692931  1
  Ga  Ga12  1  0.500005  0.999994  0.500014  1
  Co  Co13  1  0.886731  0.886722  0.999980  1
  Co  Co14  1  0.371247  0.500013  0.871262  1
  Co  Co15  1  0.628769  0.500017  0.128751  1
  Co  Co16  1  0.113221  0.113239  0.999946  1
  Os  Os17  1  0.000057  0.500074  0.500047  1
