# generated using pymatgen
data_Pr16InHg3Rh4
_symmetry_space_group_name_H-M   'P 1'
_cell_length_a   9.98867430
_cell_length_b   10.03069953
_cell_length_c   10.03069900
_cell_angle_alpha   59.99999845
_cell_angle_beta   59.86072461
_cell_angle_gamma   59.86071950
_symmetry_Int_Tables_number   1
_chemical_formula_structural   Pr16InHg3Rh4
_chemical_formula_sum   'Pr16 In1 Hg3 Rh4'
_cell_volume   709.14947181
_cell_formula_units_Z   1
loop_
 _symmetry_equiv_pos_site_id
 _symmetry_equiv_pos_as_xyz
  1  'x, y, z'
loop_
 _atom_site_type_symbol
 _atom_site_label
 _atom_site_symmetry_multiplicity
 _atom_site_fract_x
 _atom_site_fract_y
 _atom_site_fract_z
 _atom_site_occupancy
  Pr  Pr0  1  0.809927  0.808601  0.190736  1
  Pr  Pr1  1  0.809927  0.190736  0.808601  1
  Pr  Pr2  1  0.189844  0.189460  0.810347  1
  Pr  Pr3  1  0.650840  0.047598  0.650782  1
  Pr  Pr4  1  0.064584  0.059750  0.437833  1
  Pr  Pr5  1  0.439109  0.438260  0.061315  1
  Pr  Pr6  1  0.650840  0.650782  0.650782  1
  Pr  Pr7  1  0.809927  0.190736  0.190736  1
  Pr  Pr8  1  0.189844  0.810347  0.810347  1
  Pr  Pr9  1  0.049101  0.650299  0.650299  1
  Pr  Pr10  1  0.439109  0.061315  0.061315  1
  Pr  Pr11  1  0.439109  0.061315  0.438260  1
  Pr  Pr12  1  0.064584  0.437833  0.059750  1
  Pr  Pr13  1  0.650840  0.650782  0.047598  1
  Pr  Pr14  1  0.189844  0.810347  0.189460  1
  Pr  Pr15  1  0.064584  0.437833  0.437833  1
  In  In16  1  0.734557  0.421814  0.421814  1
  Hg  Hg17  1  0.417519  0.416616  0.416616  1
  Hg  Hg18  1  0.417519  0.416616  0.749247  1
  Hg  Hg19  1  0.417519  0.749247  0.416616  1
  Rh  Rh20  1  0.858050  0.427062  0.857445  1
  Rh  Rh21  1  0.858050  0.857445  0.857445  1
  Rh  Rh22  1  0.858050  0.857445  0.427062  1
  Rh  Rh23  1  0.426723  0.857760  0.857760  1
