# generated using pymatgen
data_HoTm(PPt)2
_symmetry_space_group_name_H-M   'P 1'
_cell_length_a   4.09695700
_cell_length_b   4.09695702
_cell_length_c   15.59377000
_cell_angle_alpha   90.00000000
_cell_angle_beta   90.00000000
_cell_angle_gamma   120.00002404
_symmetry_Int_Tables_number   1
_chemical_formula_structural   HoTm(PPt)2
_chemical_formula_sum   'Ho2 Tm2 P4 Pt4'
_cell_volume   226.67543862
_cell_formula_units_Z   2
loop_
 _symmetry_equiv_pos_site_id
 _symmetry_equiv_pos_as_xyz
  1  'x, y, z'
loop_
 _atom_site_type_symbol
 _atom_site_label
 _atom_site_symmetry_multiplicity
 _atom_site_fract_x
 _atom_site_fract_y
 _atom_site_fract_z
 _atom_site_occupancy
  Ho  Ho0  1  0.000000  0.000000  0.500000  1
  Ho  Ho1  1  0.000000  0.000000  0.000000  1
  Tm  Tm2  1  0.000000  0.000000  0.250000  1
  Tm  Tm3  1  0.000000  0.000000  0.750000  1
  P  P4  1  0.333333  0.666667  0.882295  1
  P  P5  1  0.666667  0.333333  0.117705  1
  P  P6  1  0.666667  0.333333  0.382295  1
  P  P7  1  0.333333  0.666667  0.617705  1
  Pt  Pt8  1  0.333333  0.666667  0.365481  1
  Pt  Pt9  1  0.666667  0.333333  0.634519  1
  Pt  Pt10  1  0.666667  0.333333  0.865481  1
  Pt  Pt11  1  0.333333  0.666667  0.134519  1
