# generated using pymatgen
data_SrCe(Al5Ru)4
_symmetry_space_group_name_H-M   'P 1'
_cell_length_a   6.89850243
_cell_length_b   6.89850162
_cell_length_c   9.19904100
_cell_angle_alpha   90.00000000
_cell_angle_beta   90.00000000
_cell_angle_gamma   96.87653319
_symmetry_Int_Tables_number   1
_chemical_formula_structural   SrCe(Al5Ru)4
_chemical_formula_sum   'Sr1 Ce1 Al20 Ru4'
_cell_volume   434.62704046
_cell_formula_units_Z   1
loop_
 _symmetry_equiv_pos_site_id
 _symmetry_equiv_pos_as_xyz
  1  'x, y, z'
loop_
 _atom_site_type_symbol
 _atom_site_label
 _atom_site_symmetry_multiplicity
 _atom_site_fract_x
 _atom_site_fract_y
 _atom_site_fract_z
 _atom_site_occupancy
  Sr  Sr0  1  0.878642  0.121358  0.750000  1
  Ce  Ce1  1  0.123235  0.876765  0.250000  1
  Al  Al2  1  0.587786  0.861549  0.250000  1
  Al  Al3  1  0.779170  0.519311  0.250000  1
  Al  Al4  1  0.163655  0.836345  0.899589  1
  Al  Al5  1  0.408991  0.138684  0.750000  1
  Al  Al6  1  0.622243  0.377757  0.955777  1
  Al  Al7  1  0.841652  0.158348  0.398253  1
  Al  Al8  1  0.772160  0.773924  0.001405  1
  Al  Al9  1  0.861316  0.591009  0.750000  1
  Al  Al10  1  0.841652  0.158348  0.101747  1
  Al  Al11  1  0.221132  0.479065  0.750000  1
  Al  Al12  1  0.163655  0.836345  0.600411  1
  Al  Al13  1  0.772160  0.773924  0.498595  1
  Al  Al14  1  0.480689  0.220830  0.250000  1
  Al  Al15  1  0.622243  0.377757  0.544223  1
  Al  Al16  1  0.226076  0.227840  0.498595  1
  Al  Al17  1  0.377627  0.622373  0.445300  1
  Al  Al18  1  0.138451  0.412214  0.250000  1
  Al  Al19  1  0.520935  0.778868  0.750000  1
  Al  Al20  1  0.377627  0.622373  0.054700  1
  Al  Al21  1  0.226076  0.227840  0.001405  1
  Ru  Ru22  1  0.496366  0.999951  0.001413  1
  Ru  Ru23  1  0.496366  0.999951  0.498587  1
  Ru  Ru24  1  0.000049  0.503634  0.001413  1
  Ru  Ru25  1  0.000049  0.503634  0.498587  1
