# generated using pymatgen
data_Tb6DyRhI12
_symmetry_space_group_name_H-M   'P 1'
_cell_length_a   9.82419400
_cell_length_b   9.82419313
_cell_length_c   9.82419403
_cell_angle_alpha   106.94959133
_cell_angle_beta   106.94959001
_cell_angle_gamma   106.94959449
_symmetry_Int_Tables_number   1
_chemical_formula_structural   Tb6DyRhI12
_chemical_formula_sum   'Tb6 Dy1 Rh1 I12'
_cell_volume   790.73663026
_cell_formula_units_Z   1
loop_
 _symmetry_equiv_pos_site_id
 _symmetry_equiv_pos_as_xyz
  1  'x, y, z'
loop_
 _atom_site_type_symbol
 _atom_site_label
 _atom_site_symmetry_multiplicity
 _atom_site_fract_x
 _atom_site_fract_y
 _atom_site_fract_z
 _atom_site_occupancy
  Tb  Tb0  1  0.905208  0.976579  0.703904  1
  Tb  Tb1  1  0.976579  0.703904  0.905208  1
  Tb  Tb2  1  0.703904  0.905208  0.976579  1
  Tb  Tb3  1  0.094792  0.023421  0.296096  1
  Tb  Tb4  1  0.023421  0.296096  0.094792  1
  Tb  Tb5  1  0.296096  0.094792  0.023421  1
  Dy  Dy6  1  0.500000  0.500000  0.500000  1
  Rh  Rh7  1  0.000000  0.000000  0.000000  1
  I  I8  1  0.534743  0.836586  0.611944  1
  I  I9  1  0.836586  0.611944  0.534743  1
  I  I10  1  0.611944  0.534743  0.836586  1
  I  I11  1  0.465257  0.163414  0.388056  1
  I  I12  1  0.163414  0.388056  0.465257  1
  I  I13  1  0.388056  0.465257  0.163414  1
  I  I14  1  0.676614  0.224399  0.070742  1
  I  I15  1  0.224399  0.070742  0.676614  1
  I  I16  1  0.070742  0.676614  0.224399  1
  I  I17  1  0.323386  0.775601  0.929258  1
  I  I18  1  0.775601  0.929258  0.323386  1
  I  I19  1  0.929258  0.323386  0.775601  1
