# generated using pymatgen
data_Rb4AlAu8
_symmetry_space_group_name_H-M   'P 1'
_cell_length_a   5.78569700
_cell_length_b   11.19773178
_cell_length_c   11.44234619
_cell_angle_alpha   96.76261303
_cell_angle_beta   90.00000000
_cell_angle_gamma   104.97172396
_symmetry_Int_Tables_number   1
_chemical_formula_structural   Rb4AlAu8
_chemical_formula_sum   'Rb8 Al2 Au16'
_cell_volume   710.80646822
_cell_formula_units_Z   2
loop_
 _symmetry_equiv_pos_site_id
 _symmetry_equiv_pos_as_xyz
  1  'x, y, z'
loop_
 _atom_site_type_symbol
 _atom_site_label
 _atom_site_symmetry_multiplicity
 _atom_site_fract_x
 _atom_site_fract_y
 _atom_site_fract_z
 _atom_site_occupancy
  Rb  Rb0  1  0.283552  0.567103  0.102903  1
  Rb  Rb1  1  0.484845  0.969690  0.168010  1
  Rb  Rb2  1  0.045386  0.090771  0.343464  1
  Rb  Rb3  1  0.224973  0.449947  0.410808  1
  Rb  Rb4  1  0.775027  0.550054  0.589192  1
  Rb  Rb5  1  0.954614  0.909228  0.656536  1
  Rb  Rb6  1  0.515155  0.030310  0.831989  1
  Rb  Rb7  1  0.716448  0.432897  0.897098  1
  Al  Al8  1  0.672287  0.344574  0.237743  1
  Al  Al9  1  0.327713  0.655425  0.762257  1
  Au  Au10  1  0.000000  0.000000  0.000000  1
  Au  Au11  1  0.357370  0.238372  0.081028  1
  Au  Au12  1  0.881001  0.238372  0.081028  1
  Au  Au13  1  0.895900  0.791799  0.145336  1
  Au  Au14  1  0.787426  0.574851  0.267134  1
  Au  Au15  1  0.144529  0.787587  0.368465  1
  Au  Au16  1  0.643058  0.787587  0.368465  1
  Au  Au17  1  0.624038  0.248076  0.423983  1
  Au  Au18  1  0.500000  0.000000  0.500000  1
  Au  Au19  1  0.375962  0.751924  0.576018  1
  Au  Au20  1  0.356940  0.212413  0.631535  1
  Au  Au21  1  0.855472  0.212413  0.631535  1
  Au  Au22  1  0.212574  0.425149  0.732865  1
  Au  Au23  1  0.104100  0.208201  0.854664  1
  Au  Au24  1  0.118998  0.761628  0.918972  1
  Au  Au25  1  0.642630  0.761628  0.918972  1
