# generated using pymatgen
data_Yb4ErIn(SbO6)2
_symmetry_space_group_name_H-M   'P 1'
_cell_length_a   6.52232546
_cell_length_b   6.53512589
_cell_length_c   6.53770853
_cell_angle_alpha   91.60288844
_cell_angle_beta   91.43479625
_cell_angle_gamma   91.21478630
_symmetry_Int_Tables_number   1
_chemical_formula_structural   Yb4ErIn(SbO6)2
_chemical_formula_sum   'Yb4 Er1 In1 Sb2 O12'
_cell_volume   278.40145194
_cell_formula_units_Z   1
loop_
 _symmetry_equiv_pos_site_id
 _symmetry_equiv_pos_as_xyz
  1  'x, y, z'
loop_
 _atom_site_type_symbol
 _atom_site_label
 _atom_site_symmetry_multiplicity
 _atom_site_fract_x
 _atom_site_fract_y
 _atom_site_fract_z
 _atom_site_occupancy
  Yb  Yb0  1  0.563401  0.060767  0.753467  1
  Yb  Yb1  1  0.936683  0.248502  0.437868  1
  Yb  Yb2  1  0.248856  0.430300  0.939939  1
  Yb  Yb3  1  0.439243  0.946517  0.249780  1
  Er  Er4  1  0.063605  0.754143  0.563703  1
  In  In5  1  0.749073  0.565850  0.056136  1
  Sb  Sb6  1  0.503306  0.502345  0.499385  1
  Sb  Sb7  1  0.997490  0.998922  0.002773  1
  O  O8  1  0.034073  0.698678  0.913709  1
  O  O9  1  0.707948  0.903068  0.044288  1
  O  O10  1  0.918944  0.032730  0.705817  1
  O  O11  1  0.943073  0.295075  0.084459  1
  O  O12  1  0.286999  0.080375  0.958025  1
  O  O13  1  0.081409  0.952994  0.296368  1
  O  O14  1  0.800538  0.580833  0.422453  1
  O  O15  1  0.578342  0.435612  0.794459  1
  O  O16  1  0.419015  0.793151  0.566840  1
  O  O17  1  0.208339  0.438022  0.570930  1
  O  O18  1  0.445272  0.568586  0.202870  1
  O  O19  1  0.574390  0.213532  0.436729  1
