# generated using pymatgen
data_Er3Al12Ir2RuPt
_symmetry_space_group_name_H-M   'P 1'
_cell_length_a   8.80731400
_cell_length_b   8.81079795
_cell_length_c   9.49305937
_cell_angle_alpha   89.97183493
_cell_angle_beta   90.00000000
_cell_angle_gamma   119.98692054
_symmetry_Int_Tables_number   1
_chemical_formula_structural   Er3Al12Ir2RuPt
_chemical_formula_sum   'Er6 Al24 Ir4 Ru2 Pt2'
_cell_volume   638.04704959
_cell_formula_units_Z   2
loop_
 _symmetry_equiv_pos_site_id
 _symmetry_equiv_pos_as_xyz
  1  'x, y, z'
loop_
 _atom_site_type_symbol
 _atom_site_label
 _atom_site_symmetry_multiplicity
 _atom_site_fract_x
 _atom_site_fract_y
 _atom_site_fract_z
 _atom_site_occupancy
  Er  Er0  1  0.192683  0.385368  0.249886  1
  Er  Er1  1  0.807317  0.614632  0.750114  1
  Er  Er2  1  0.613873  0.807542  0.251159  1
  Er  Er3  1  0.386127  0.192458  0.748841  1
  Er  Er4  1  0.193668  0.807542  0.251159  1
  Er  Er5  1  0.806332  0.192458  0.748841  1
  Al  Al6  1  0.334818  0.669637  0.035494  1
  Al  Al7  1  0.665182  0.330363  0.964506  1
  Al  Al8  1  0.667002  0.334004  0.533019  1
  Al  Al9  1  0.332998  0.665996  0.466981  1
  Al  Al10  1  0.163089  0.326176  0.574973  1
  Al  Al11  1  0.836911  0.673824  0.425027  1
  Al  Al12  1  0.673555  0.836554  0.576901  1
  Al  Al13  1  0.837996  0.675992  0.079264  1
  Al  Al14  1  0.326445  0.163446  0.423099  1
  Al  Al15  1  0.162004  0.324008  0.920736  1
  Al  Al16  1  0.162999  0.836554  0.576901  1
  Al  Al17  1  0.324979  0.159056  0.079560  1
  Al  Al18  1  0.837001  0.163446  0.423099  1
  Al  Al19  1  0.675021  0.840944  0.920440  1
  Al  Al20  1  0.834076  0.159056  0.079560  1
  Al  Al21  1  0.165924  0.840944  0.920440  1
  Al  Al22  1  0.562461  0.124924  0.250026  1
  Al  Al23  1  0.437539  0.875076  0.749974  1
  Al  Al24  1  0.874185  0.436533  0.252041  1
  Al  Al25  1  0.125815  0.563467  0.747959  1
  Al  Al26  1  0.562347  0.436533  0.252041  1
  Al  Al27  1  0.437653  0.563467  0.747959  1
  Al  Al28  1  0.000445  0.000891  0.250415  1
  Al  Al29  1  0.999555  0.999109  0.749585  1
  Ir  Ir30  1  0.500000  0.000000  0.000000  1
  Ir  Ir31  1  0.500000  0.000000  0.500000  1
  Ir  Ir32  1  0.000000  0.500000  0.500000  1
  Ir  Ir33  1  0.500000  0.500000  0.500000  1
  Ru  Ru34  1  0.000000  0.000000  0.000000  1
  Ru  Ru35  1  0.000000  0.000000  0.500000  1
  Pt  Pt36  1  0.000000  0.500000  0.000000  1
  Pt  Pt37  1  0.500000  0.500000  0.000000  1
