# generated using pymatgen
data_Tb4Cd2Cu2NiPd
_symmetry_space_group_name_H-M   'P 1'
_cell_length_a   3.71129300
_cell_length_b   7.58341743
_cell_length_c   7.57017059
_cell_angle_alpha   90.32770289
_cell_angle_beta   90.00000000
_cell_angle_gamma   90.00000000
_symmetry_Int_Tables_number   1
_chemical_formula_structural   Tb4Cd2Cu2NiPd
_chemical_formula_sum   'Tb4 Cd2 Cu2 Ni1 Pd1'
_cell_volume   213.05354631
_cell_formula_units_Z   1
loop_
 _symmetry_equiv_pos_site_id
 _symmetry_equiv_pos_as_xyz
  1  'x, y, z'
loop_
 _atom_site_type_symbol
 _atom_site_label
 _atom_site_symmetry_multiplicity
 _atom_site_fract_x
 _atom_site_fract_y
 _atom_site_fract_z
 _atom_site_occupancy
  Tb  Tb0  1  0.500000  0.175622  0.670525  1
  Tb  Tb1  1  0.500000  0.818630  0.313290  1
  Tb  Tb2  1  0.500000  0.336793  0.179122  1
  Tb  Tb3  1  0.500000  0.674370  0.838910  1
  Cd  Cd4  1  0.000000  0.000882  0.995777  1
  Cd  Cd5  1  0.000000  0.505924  0.503581  1
  Cu  Cu6  1  0.000000  0.379583  0.882062  1
  Cu  Cu7  1  0.000000  0.872653  0.622001  1
  Ni  Ni8  1  0.000000  0.616684  0.118199  1
  Pd  Pd9  1  0.000000  0.118860  0.376535  1
