# generated using pymatgen
data_Tb3Ho2Tm11(Ga3Co)2
_symmetry_space_group_name_H-M   'P 1'
_cell_length_a   9.89616805
_cell_length_b   9.89616779
_cell_length_c   6.91711701
_cell_angle_alpha   89.99588547
_cell_angle_beta   90.00333249
_cell_angle_gamma   120.01099650
_symmetry_Int_Tables_number   1
_chemical_formula_structural   Tb3Ho2Tm11(Ga3Co)2
_chemical_formula_sum   'Tb3 Ho2 Tm11 Ga6 Co2'
_cell_volume   586.59955612
_cell_formula_units_Z   1
loop_
 _symmetry_equiv_pos_site_id
 _symmetry_equiv_pos_as_xyz
  1  'x, y, z'
loop_
 _atom_site_type_symbol
 _atom_site_label
 _atom_site_symmetry_multiplicity
 _atom_site_fract_x
 _atom_site_fract_y
 _atom_site_fract_z
 _atom_site_occupancy
  Tb  Tb0  1  0.464321  0.535679  0.291658  1
  Tb  Tb1  1  0.999974  0.000026  0.769110  1
  Tb  Tb2  1  0.000009  0.999998  0.269328  1
  Ho  Ho3  1  0.464167  0.928494  0.291822  1
  Ho  Ho4  1  0.071500  0.535827  0.291815  1
  Tm  Tm5  1  0.826198  0.652078  0.489953  1
  Tm  Tm6  1  0.347923  0.173800  0.489951  1
  Tm  Tm7  1  0.826009  0.173997  0.489808  1
  Tm  Tm8  1  0.173610  0.347416  0.986461  1
  Tm  Tm9  1  0.652593  0.826394  0.986456  1
  Tm  Tm10  1  0.173808  0.826185  0.986598  1
  Tm  Tm11  1  0.666751  0.333249  0.172288  1
  Tm  Tm12  1  0.333236  0.666762  0.673825  1
  Tm  Tm13  1  0.537191  0.074399  0.792634  1
  Tm  Tm14  1  0.925605  0.462806  0.792634  1
  Tm  Tm15  1  0.537262  0.462741  0.792602  1
  Ga  Ga16  1  0.835810  0.671561  0.040695  1
  Ga  Ga17  1  0.328439  0.164190  0.040693  1
  Ga  Ga18  1  0.835777  0.164221  0.040803  1
  Ga  Ga19  1  0.163477  0.327175  0.542479  1
  Ga  Ga20  1  0.672824  0.836523  0.542478  1
  Ga  Ga21  1  0.163657  0.836342  0.542302  1
  Co  Co22  1  0.666679  0.333318  0.555858  1
  Co  Co23  1  0.333178  0.666822  0.053826  1
