# generated using pymatgen
data_Dy5Y2LuC10
_symmetry_space_group_name_H-M   'P 1'
_cell_length_a   3.67289400
_cell_length_b   6.57853825
_cell_length_c   11.87900545
_cell_angle_alpha   89.82107915
_cell_angle_beta   90.00000000
_cell_angle_gamma   90.00000000
_symmetry_Int_Tables_number   1
_chemical_formula_structural   Dy5Y2LuC10
_chemical_formula_sum   'Dy5 Y2 Lu1 C10'
_cell_volume   287.02238121
_cell_formula_units_Z   1
loop_
 _symmetry_equiv_pos_site_id
 _symmetry_equiv_pos_as_xyz
  1  'x, y, z'
loop_
 _atom_site_type_symbol
 _atom_site_label
 _atom_site_symmetry_multiplicity
 _atom_site_fract_x
 _atom_site_fract_y
 _atom_site_fract_z
 _atom_site_occupancy
  Dy  Dy0  1  0.000000  0.750795  0.456997  1
  Dy  Dy1  1  0.500000  0.108228  0.802547  1
  Dy  Dy2  1  0.500000  0.893374  0.197081  1
  Dy  Dy3  1  0.500000  0.604025  0.697429  1
  Dy  Dy4  1  0.500000  0.391314  0.304569  1
  Y  Y5  1  0.000000  0.747022  0.954953  1
  Y  Y6  1  0.000000  0.236574  0.042225  1
  Lu  Lu7  1  0.000000  0.267398  0.542176  1
  C  C8  1  0.500000  0.508701  0.501987  1
  C  C9  1  0.500000  0.986082  0.000538  1
  C  C10  1  0.000000  0.362863  0.732548  1
  C  C11  1  0.000000  0.644240  0.262466  1
  C  C12  1  0.000000  0.857185  0.758307  1
  C  C13  1  0.000000  0.134248  0.238641  1
  C  C14  1  0.000000  0.383614  0.844741  1
  C  C15  1  0.000000  0.573682  0.157537  1
  C  C16  1  0.000000  0.117013  0.350918  1
  C  C17  1  0.000000  0.933644  0.654339  1
