# generated using pymatgen
data_Zr4In2Co3Ag
_symmetry_space_group_name_H-M   'P 1'
_cell_length_a   7.41401534
_cell_length_b   7.41401631
_cell_length_c   3.29678000
_cell_angle_alpha   90.00000000
_cell_angle_beta   90.00000000
_cell_angle_gamma   92.07215285
_symmetry_Int_Tables_number   1
_chemical_formula_structural   Zr4In2Co3Ag
_chemical_formula_sum   'Zr4 In2 Co3 Ag1'
_cell_volume   181.09768561
_cell_formula_units_Z   1
loop_
 _symmetry_equiv_pos_site_id
 _symmetry_equiv_pos_as_xyz
  1  'x, y, z'
loop_
 _atom_site_type_symbol
 _atom_site_label
 _atom_site_symmetry_multiplicity
 _atom_site_fract_x
 _atom_site_fract_y
 _atom_site_fract_z
 _atom_site_occupancy
  Zr  Zr0  1  0.700801  0.158222  0.500000  1
  Zr  Zr1  1  0.139977  0.360023  0.500000  1
  Zr  Zr2  1  0.825690  0.674310  0.500000  1
  Zr  Zr3  1  0.341778  0.799199  0.500000  1
  In  In4  1  0.005977  0.993592  0.000000  1
  In  In5  1  0.506408  0.494023  0.000000  1
  Co  Co6  1  0.118770  0.632668  0.000000  1
  Co  Co7  1  0.622757  0.877243  0.000000  1
  Co  Co8  1  0.867332  0.381230  0.000000  1
  Ag  Ag9  1  0.370510  0.129490  0.000000  1
