# generated using pymatgen
data_Ca2Pd7
_symmetry_space_group_name_H-M   'P 1'
_cell_length_a   5.31819424
_cell_length_b   5.31819460
_cell_length_c   13.51903100
_cell_angle_alpha   90.00000000
_cell_angle_beta   90.00000000
_cell_angle_gamma   120.40873510
_symmetry_Int_Tables_number   1
_chemical_formula_structural   Ca2Pd7
_chemical_formula_sum   'Ca4 Pd14'
_cell_volume   329.76238674
_cell_formula_units_Z   2
loop_
 _symmetry_equiv_pos_site_id
 _symmetry_equiv_pos_as_xyz
  1  'x, y, z'
loop_
 _atom_site_type_symbol
 _atom_site_label
 _atom_site_symmetry_multiplicity
 _atom_site_fract_x
 _atom_site_fract_y
 _atom_site_fract_z
 _atom_site_occupancy
  Ca  Ca0  1  0.323131  0.323131  0.116468  1
  Ca  Ca1  1  0.676869  0.676869  0.616468  1
  Ca  Ca2  1  0.323131  0.323131  0.383532  1
  Ca  Ca3  1  0.676869  0.676869  0.883532  1
  Pd  Pd4  1  0.832937  0.832937  0.250000  1
  Pd  Pd5  1  0.167063  0.167063  0.750000  1
  Pd  Pd6  1  0.826170  0.328889  0.250000  1
  Pd  Pd7  1  0.173830  0.671111  0.750000  1
  Pd  Pd8  1  0.328889  0.826170  0.250000  1
  Pd  Pd9  1  0.671111  0.173830  0.750000  1
  Pd  Pd10  1  0.995163  0.660476  0.077283  1
  Pd  Pd11  1  0.004837  0.339524  0.577283  1
  Pd  Pd12  1  0.660476  0.995163  0.422717  1
  Pd  Pd13  1  0.339524  0.004837  0.922717  1
  Pd  Pd14  1  0.004837  0.339524  0.922717  1
  Pd  Pd15  1  0.995163  0.660476  0.422717  1
  Pd  Pd16  1  0.339524  0.004837  0.577283  1
  Pd  Pd17  1  0.660476  0.995163  0.077283  1
