# generated using pymatgen
data_Ac9La(Si5I3)2
_symmetry_space_group_name_H-M   'P 1'
_cell_length_a   12.65002654
_cell_length_b   12.65002488
_cell_length_c   16.42302664
_cell_angle_alpha   69.63891942
_cell_angle_beta   69.63892182
_cell_angle_gamma   19.88293951
_symmetry_Int_Tables_number   1
_chemical_formula_structural   Ac9La(Si5I3)2
_chemical_formula_sum   'Ac9 La1 Si10 I6'
_cell_volume   836.18271859
_cell_formula_units_Z   1
loop_
 _symmetry_equiv_pos_site_id
 _symmetry_equiv_pos_as_xyz
  1  'x, y, z'
loop_
 _atom_site_type_symbol
 _atom_site_label
 _atom_site_symmetry_multiplicity
 _atom_site_fract_x
 _atom_site_fract_y
 _atom_site_fract_z
 _atom_site_occupancy
  Ac  Ac0  1  0.338275  0.338275  0.059759  1
  Ac  Ac1  1  0.913116  0.913116  0.560201  1
  Ac  Ac2  1  0.087256  0.087256  0.438919  1
  Ac  Ac3  1  0.017467  0.017467  0.709026  1
  Ac  Ac4  1  0.982467  0.982467  0.290438  1
  Ac  Ac5  1  0.836622  0.836622  0.833371  1
  Ac  Ac6  1  0.738855  0.738855  0.668414  1
  Ac  Ac7  1  0.661845  0.661845  0.941614  1
  Ac  Ac8  1  0.163843  0.163843  0.167338  1
  La  La9  1  0.259907  0.259907  0.327249  1
  Si  Si10  1  0.506084  0.506084  0.572099  1
  Si  Si11  1  0.423310  0.423310  0.700974  1
  Si  Si12  1  0.494107  0.494107  0.427338  1
  Si  Si13  1  0.750334  0.750334  0.035891  1
  Si  Si14  1  0.672456  0.672456  0.317607  1
  Si  Si15  1  0.243790  0.243790  0.810352  1
  Si  Si16  1  0.757610  0.757610  0.192456  1
  Si  Si17  1  0.328936  0.328936  0.684007  1
  Si  Si18  1  0.577217  0.577217  0.299252  1
  Si  Si19  1  0.250056  0.250056  0.965222  1
  I  I20  1  0.592374  0.592374  0.794075  1
  I  I21  1  0.059211  0.059211  0.069769  1
  I  I22  1  0.940592  0.940592  0.930691  1
  I  I23  1  0.825128  0.825128  0.432795  1
  I  I24  1  0.406082  0.406082  0.207960  1
  I  I25  1  0.173060  0.173060  0.563183  1
