# generated using pymatgen
data_Cs4Na2TbDyAs4
_symmetry_space_group_name_H-M   'P 1'
_cell_length_a   9.80585869
_cell_length_b   9.80585902
_cell_length_c   9.80585918
_cell_angle_alpha   136.28330797
_cell_angle_beta   136.45233245
_cell_angle_gamma   63.41229072
_symmetry_Int_Tables_number   1
_chemical_formula_structural   Cs4Na2TbDyAs4
_chemical_formula_sum   'Cs4 Na2 Tb1 Dy1 As4'
_cell_volume   443.13673441
_cell_formula_units_Z   1
loop_
 _symmetry_equiv_pos_site_id
 _symmetry_equiv_pos_as_xyz
  1  'x, y, z'
loop_
 _atom_site_type_symbol
 _atom_site_label
 _atom_site_symmetry_multiplicity
 _atom_site_fract_x
 _atom_site_fract_y
 _atom_site_fract_z
 _atom_site_occupancy
  Cs  Cs0  1  0.681156  0.398197  0.717142  1
  Cs  Cs1  1  0.818844  0.035986  0.217041  1
  Cs  Cs2  1  0.181054  0.964014  0.782858  1
  Cs  Cs3  1  0.318946  0.601803  0.282959  1
  Na  Na4  1  0.750000  0.000000  0.750000  1
  Na  Na5  1  0.250000  0.000000  0.250000  1
  Tb  Tb6  1  0.250000  0.500000  0.750000  1
  Dy  Dy7  1  0.750000  0.500000  0.250000  1
  As  As8  1  0.410792  0.188891  0.779961  1
  As  As9  1  0.591070  0.811109  0.221901  1
  As  As10  1  0.089208  0.369168  0.278099  1
  As  As11  1  0.908930  0.630832  0.720039  1
