# generated using pymatgen
data_Tb9Y7Cd4Os3Pd
_symmetry_space_group_name_H-M   'P 1'
_cell_length_a   9.67930477
_cell_length_b   9.76889284
_cell_length_c   9.77450990
_cell_angle_alpha   59.70686402
_cell_angle_beta   59.35705912
_cell_angle_gamma   59.38554855
_symmetry_Int_Tables_number   1
_chemical_formula_structural   Tb9Y7Cd4Os3Pd
_chemical_formula_sum   'Tb9 Y7 Cd4 Os3 Pd1'
_cell_volume   645.83816173
_cell_formula_units_Z   1
loop_
 _symmetry_equiv_pos_site_id
 _symmetry_equiv_pos_as_xyz
  1  'x, y, z'
loop_
 _atom_site_type_symbol
 _atom_site_label
 _atom_site_symmetry_multiplicity
 _atom_site_fract_x
 _atom_site_fract_y
 _atom_site_fract_z
 _atom_site_occupancy
  Tb  Tb0  1  0.347633  0.351051  0.351918  1
  Tb  Tb1  1  0.345478  0.351980  0.953734  1
  Tb  Tb2  1  0.345573  0.954030  0.352253  1
  Tb  Tb3  1  0.968302  0.344629  0.343504  1
  Tb  Tb4  1  0.814050  0.190173  0.190460  1
  Tb  Tb5  1  0.183275  0.809590  0.810637  1
  Tb  Tb6  1  0.186750  0.810593  0.191208  1
  Tb  Tb7  1  0.813971  0.190294  0.802649  1
  Tb  Tb8  1  0.186946  0.190709  0.810982  1
  Y  Y9  1  0.813950  0.802563  0.190099  1
  Y  Y10  1  0.937653  0.560237  0.560390  1
  Y  Y11  1  0.554325  0.939748  0.939723  1
  Y  Y12  1  0.553910  0.939186  0.567717  1
  Y  Y13  1  0.936175  0.560444  0.939261  1
  Y  Y14  1  0.552907  0.567751  0.939887  1
  Y  Y15  1  0.936553  0.939882  0.560223  1
  Cd  Cd16  1  0.581465  0.579651  0.578862  1
  Cd  Cd17  1  0.581303  0.579660  0.258347  1
  Cd  Cd18  1  0.581081  0.258598  0.579241  1
  Cd  Cd19  1  0.255609  0.581093  0.581345  1
  Os  Os20  1  0.147145  0.137332  0.137503  1
  Os  Os21  1  0.148266  0.139232  0.579487  1
  Os  Os22  1  0.150899  0.578449  0.138729  1
  Pd  Pd23  1  0.576781  0.143126  0.141839  1
