# generated using pymatgen
data_Rb3NaLaUTe6
_symmetry_space_group_name_H-M   'P 1'
_cell_length_a   8.13256646
_cell_length_b   8.13256597
_cell_length_c   8.87742110
_cell_angle_alpha   81.22026654
_cell_angle_beta   81.22026360
_cell_angle_gamma   119.96964280
_symmetry_Int_Tables_number   1
_chemical_formula_structural   Rb3NaLaUTe6
_chemical_formula_sum   'Rb3 Na1 La1 U1 Te6'
_cell_volume   484.37723745
_cell_formula_units_Z   1
loop_
 _symmetry_equiv_pos_site_id
 _symmetry_equiv_pos_as_xyz
  1  'x, y, z'
loop_
 _atom_site_type_symbol
 _atom_site_label
 _atom_site_symmetry_multiplicity
 _atom_site_fract_x
 _atom_site_fract_y
 _atom_site_fract_z
 _atom_site_occupancy
  Rb  Rb0  1  0.658045  0.341955  0.500000  1
  Rb  Rb1  1  0.344957  0.655043  0.500000  1
  Rb  Rb2  1  0.997835  0.002165  0.500000  1
  Na  Na3  1  0.499969  0.500031  0.000000  1
  La  La4  1  0.832075  0.167925  0.000000  1
  U  U5  1  0.167454  0.832546  0.000000  1
  Te  Te6  1  0.796719  0.777316  0.197990  1
  Te  Te7  1  0.222684  0.203281  0.802010  1
  Te  Te8  1  0.410850  0.064900  0.203084  1
  Te  Te9  1  0.547887  0.913574  0.797053  1
  Te  Te10  1  0.935100  0.589150  0.796916  1
  Te  Te11  1  0.086426  0.452113  0.202947  1
