# generated using pymatgen
data_Nd3AlGeRh2
_symmetry_space_group_name_H-M   'P 1'
_cell_length_a   5.80268400
_cell_length_b   8.10740500
_cell_length_c   13.53008000
_cell_angle_alpha   90.00000000
_cell_angle_beta   90.00000000
_cell_angle_gamma   90.00000000
_symmetry_Int_Tables_number   1
_chemical_formula_structural   Nd3AlGeRh2
_chemical_formula_sum   'Nd12 Al4 Ge4 Rh8'
_cell_volume   636.51868007
_cell_formula_units_Z   4
loop_
 _symmetry_equiv_pos_site_id
 _symmetry_equiv_pos_as_xyz
  1  'x, y, z'
loop_
 _atom_site_type_symbol
 _atom_site_label
 _atom_site_symmetry_multiplicity
 _atom_site_fract_x
 _atom_site_fract_y
 _atom_site_fract_z
 _atom_site_occupancy
  Nd  Nd0  1  0.635535  0.250668  0.250000  1
  Nd  Nd1  1  0.364465  0.749332  0.750000  1
  Nd  Nd2  1  0.364465  0.750668  0.250000  1
  Nd  Nd3  1  0.635535  0.249332  0.750000  1
  Nd  Nd4  1  0.144838  0.395298  0.101192  1
  Nd  Nd5  1  0.855162  0.604702  0.898808  1
  Nd  Nd6  1  0.855162  0.604702  0.601192  1
  Nd  Nd7  1  0.855162  0.895298  0.398808  1
  Nd  Nd8  1  0.144838  0.395298  0.398808  1
  Nd  Nd9  1  0.144838  0.104702  0.601192  1
  Nd  Nd10  1  0.144838  0.104702  0.898808  1
  Nd  Nd11  1  0.855162  0.895298  0.101192  1
  Al  Al12  1  0.625074  0.250000  0.000000  1
  Al  Al13  1  0.374926  0.750000  0.000000  1
  Al  Al14  1  0.374926  0.750000  0.500000  1
  Al  Al15  1  0.625074  0.250000  0.500000  1
  Ge  Ge16  1  0.140559  0.106365  0.250000  1
  Ge  Ge17  1  0.859441  0.893635  0.750000  1
  Ge  Ge18  1  0.859441  0.606365  0.250000  1
  Ge  Ge19  1  0.140559  0.393635  0.750000  1
  Rh  Rh20  1  0.373904  0.029603  0.092376  1
  Rh  Rh21  1  0.626096  0.970397  0.907624  1
  Rh  Rh22  1  0.626096  0.970397  0.592376  1
  Rh  Rh23  1  0.626096  0.529603  0.407624  1
  Rh  Rh24  1  0.373904  0.029603  0.407624  1
  Rh  Rh25  1  0.373904  0.470397  0.592376  1
  Rh  Rh26  1  0.373904  0.470397  0.907624  1
  Rh  Rh27  1  0.626096  0.529603  0.092376  1
