# generated using pymatgen
data_Tm7Lu9Tl4(InCo)2
_symmetry_space_group_name_H-M   'P 1'
_cell_length_a   10.16918000
_cell_length_b   10.18023252
_cell_length_c   6.94707406
_cell_angle_alpha   89.97385183
_cell_angle_beta   90.00000000
_cell_angle_gamma   119.96409883
_symmetry_Int_Tables_number   1
_chemical_formula_structural   Tm7Lu9Tl4(InCo)2
_chemical_formula_sum   'Tm7 Lu9 Tl4 In2 Co2'
_cell_volume   623.06467742
_cell_formula_units_Z   1
loop_
 _symmetry_equiv_pos_site_id
 _symmetry_equiv_pos_as_xyz
  1  'x, y, z'
loop_
 _atom_site_type_symbol
 _atom_site_label
 _atom_site_symmetry_multiplicity
 _atom_site_fract_x
 _atom_site_fract_y
 _atom_site_fract_z
 _atom_site_occupancy
  Tm  Tm0  1  0.535605  0.071211  0.520841  1
  Tm  Tm1  1  0.927039  0.464737  0.522502  1
  Tm  Tm2  1  0.537697  0.464737  0.522502  1
  Tm  Tm3  1  0.463485  0.926969  0.023975  1
  Tm  Tm4  1  0.073689  0.537504  0.024404  1
  Tm  Tm5  1  0.463816  0.537504  0.024404  1
  Tm  Tm6  1  0.178491  0.356980  0.725500  1
  Lu  Lu7  1  0.641879  0.820951  0.726498  1
  Lu  Lu8  1  0.179073  0.820951  0.726498  1
  Lu  Lu9  1  0.820742  0.641484  0.225122  1
  Lu  Lu10  1  0.358427  0.179826  0.225210  1
  Lu  Lu11  1  0.821399  0.179826  0.225210  1
  Lu  Lu12  1  0.666680  0.333358  0.914759  1
  Lu  Lu13  1  0.333739  0.667479  0.414297  1
  Lu  Lu14  1  0.999114  0.998229  0.505878  1
  Lu  Lu15  1  0.998941  0.997881  0.010873  1
  Tl  Tl16  1  0.837256  0.674512  0.772028  1
  Tl  Tl17  1  0.325995  0.161919  0.772050  1
  Tl  Tl18  1  0.835925  0.161919  0.772050  1
  Tl  Tl19  1  0.162763  0.325527  0.270858  1
  In  In20  1  0.675294  0.837923  0.270794  1
  In  In21  1  0.162629  0.837923  0.270794  1
  Co  Co22  1  0.666743  0.333486  0.294488  1
  Co  Co23  1  0.333582  0.667165  0.794149  1
