# generated using pymatgen
data_Sn14(IrRu)3
_symmetry_space_group_name_H-M   'P 1'
_cell_length_a   8.22145763
_cell_length_b   8.22145764
_cell_length_c   8.22145727
_cell_angle_alpha   109.22576631
_cell_angle_beta   109.46114040
_cell_angle_gamma   109.72714777
_symmetry_Int_Tables_number   1
_chemical_formula_structural   Sn14(IrRu)3
_chemical_formula_sum   'Sn14 Ir3 Ru3'
_cell_volume   427.77579899
_cell_formula_units_Z   1
loop_
 _symmetry_equiv_pos_site_id
 _symmetry_equiv_pos_as_xyz
  1  'x, y, z'
loop_
 _atom_site_type_symbol
 _atom_site_label
 _atom_site_symmetry_multiplicity
 _atom_site_fract_x
 _atom_site_fract_y
 _atom_site_fract_z
 _atom_site_occupancy
  Sn  Sn0  1  0.253012  0.750960  0.502052  1
  Sn  Sn1  1  0.751091  0.249040  0.502052  1
  Sn  Sn2  1  0.748573  0.500000  0.248573  1
  Sn  Sn3  1  0.252100  0.500000  0.752100  1
  Sn  Sn4  1  0.502024  0.749349  0.251373  1
  Sn  Sn5  1  0.502024  0.250651  0.752675  1
  Sn  Sn6  1  0.997389  0.997507  0.325597  1
  Sn  Sn7  1  0.672208  0.997601  0.997349  1
  Sn  Sn8  1  0.997389  0.671792  0.999882  1
  Sn  Sn9  1  0.328090  0.328208  0.325597  1
  Sn  Sn10  1  0.999747  0.325141  0.997349  1
  Sn  Sn11  1  0.672208  0.674859  0.674606  1
  Sn  Sn12  1  0.328090  0.002493  0.999882  1
  Sn  Sn13  1  0.999747  0.002399  0.674606  1
  Ir  Ir14  1  0.341790  0.000000  0.341790  1
  Ir  Ir15  1  0.000147  0.344067  0.344215  1
  Ir  Ir16  1  0.000147  0.655933  0.656080  1
  Ru  Ru17  1  0.343971  0.343869  0.000101  1
  Ru  Ru18  1  0.656232  0.656131  0.000101  1
  Ru  Ru19  1  0.654021  0.000000  0.654021  1
