# generated using pymatgen
data_Mg4As6Ir2Ru3Rh2
_symmetry_space_group_name_H-M   'P 1'
_cell_length_a   7.05116665
_cell_length_b   7.05639129
_cell_length_c   7.05639205
_cell_angle_alpha   109.34100911
_cell_angle_beta   109.55143496
_cell_angle_gamma   109.55142645
_symmetry_Int_Tables_number   1
_chemical_formula_structural   Mg4As6Ir2Ru3Rh2
_chemical_formula_sum   'Mg4 As6 Ir2 Ru3 Rh2'
_cell_volume   270.17238982
_cell_formula_units_Z   1
loop_
 _symmetry_equiv_pos_site_id
 _symmetry_equiv_pos_as_xyz
  1  'x, y, z'
loop_
 _atom_site_type_symbol
 _atom_site_label
 _atom_site_symmetry_multiplicity
 _atom_site_fract_x
 _atom_site_fract_y
 _atom_site_fract_z
 _atom_site_occupancy
  Mg  Mg0  1  0.000000  0.999182  0.499596  1
  Mg  Mg1  1  0.500000  0.000253  0.999747  1
  Mg  Mg2  1  0.000000  0.500404  0.000818  1
  Mg  Mg3  1  0.500000  0.500253  0.499747  1
  As  As4  1  0.685130  0.688732  0.996398  1
  As  As5  1  0.307587  0.311020  0.996566  1
  As  As6  1  0.000000  0.685104  0.691843  1
  As  As7  1  0.000000  0.308157  0.314896  1
  As  As8  1  0.692413  0.003434  0.688980  1
  As  As9  1  0.314870  0.003602  0.311268  1
  Ir  Ir10  1  0.749066  0.500336  0.248730  1
  Ir  Ir11  1  0.250934  0.751270  0.499664  1
  Ru  Ru12  1  0.000000  0.999690  0.000310  1
  Ru  Ru13  1  0.251469  0.500054  0.751417  1
  Ru  Ru14  1  0.748531  0.248583  0.499946  1
  Rh  Rh15  1  0.500000  0.249963  0.750037  1
  Rh  Rh16  1  0.500000  0.749963  0.250037  1
