# generated using pymatgen
data_Tb7Er(Si3Ir)4
_symmetry_space_group_name_H-M   'P 1'
_cell_length_a   8.19423600
_cell_length_b   8.18843818
_cell_length_c   7.96084400
_cell_angle_alpha   90.00000000
_cell_angle_beta   90.00000000
_cell_angle_gamma   120.02342487
_symmetry_Int_Tables_number   1
_chemical_formula_structural   Tb7Er(Si3Ir)4
_chemical_formula_sum   'Tb7 Er1 Si12 Ir4'
_cell_volume   462.48401455
_cell_formula_units_Z   1
loop_
 _symmetry_equiv_pos_site_id
 _symmetry_equiv_pos_as_xyz
  1  'x, y, z'
loop_
 _atom_site_type_symbol
 _atom_site_label
 _atom_site_symmetry_multiplicity
 _atom_site_fract_x
 _atom_site_fract_y
 _atom_site_fract_z
 _atom_site_occupancy
  Tb  Tb0  1  0.489077  0.978154  0.750000  1
  Tb  Tb1  1  0.977598  0.488592  0.250000  1
  Tb  Tb2  1  0.021688  0.510881  0.750000  1
  Tb  Tb3  1  0.510995  0.488592  0.250000  1
  Tb  Tb4  1  0.489191  0.510881  0.750000  1
  Tb  Tb5  1  0.000066  0.000133  0.250000  1
  Tb  Tb6  1  0.999950  0.999901  0.750000  1
  Er  Er7  1  0.510583  0.021165  0.250000  1
  Si  Si8  1  0.167188  0.334377  0.002706  1
  Si  Si9  1  0.833058  0.666115  0.997590  1
  Si  Si10  1  0.665964  0.833095  0.002888  1
  Si  Si11  1  0.833058  0.666115  0.502410  1
  Si  Si12  1  0.334028  0.166771  0.998465  1
  Si  Si13  1  0.167188  0.334377  0.497294  1
  Si  Si14  1  0.167131  0.833095  0.002888  1
  Si  Si15  1  0.334028  0.166771  0.501535  1
  Si  Si16  1  0.832743  0.166771  0.998465  1
  Si  Si17  1  0.665964  0.833095  0.497112  1
  Si  Si18  1  0.832743  0.166771  0.501535  1
  Si  Si19  1  0.167131  0.833095  0.497112  1
  Ir  Ir20  1  0.333909  0.667820  0.039018  1
  Ir  Ir21  1  0.666405  0.332808  0.963648  1
  Ir  Ir22  1  0.666405  0.332808  0.536352  1
  Ir  Ir23  1  0.333909  0.667820  0.460982  1
