# generated using pymatgen
data_Zr10ZnGa3Bi4
_symmetry_space_group_name_H-M   'P 1'
_cell_length_a   8.72703331
_cell_length_b   8.72703343
_cell_length_c   5.89023051
_cell_angle_alpha   89.92918357
_cell_angle_beta   89.92918552
_cell_angle_gamma   119.95854110
_symmetry_Int_Tables_number   1
_chemical_formula_structural   Zr10ZnGa3Bi4
_chemical_formula_sum   'Zr10 Zn1 Ga3 Bi4'
_cell_volume   388.66564399
_cell_formula_units_Z   1
loop_
 _symmetry_equiv_pos_site_id
 _symmetry_equiv_pos_as_xyz
  1  'x, y, z'
loop_
 _atom_site_type_symbol
 _atom_site_label
 _atom_site_symmetry_multiplicity
 _atom_site_fract_x
 _atom_site_fract_y
 _atom_site_fract_z
 _atom_site_occupancy
  Zr  Zr0  1  0.667616  0.326913  0.007816  1
  Zr  Zr1  1  0.326913  0.667616  0.007816  1
  Zr  Zr2  1  0.327570  0.667514  0.493007  1
  Zr  Zr3  1  0.667514  0.327570  0.493007  1
  Zr  Zr4  1  0.736456  0.736456  0.746727  1
  Zr  Zr5  1  0.260757  0.996661  0.747957  1
  Zr  Zr6  1  0.996661  0.260757  0.747957  1
  Zr  Zr7  1  0.266088  0.266088  0.251991  1
  Zr  Zr8  1  0.733563  0.020056  0.251455  1
  Zr  Zr9  1  0.020056  0.733563  0.251455  1
  Zn  Zn10  1  0.998049  0.998049  0.014542  1
  Ga  Ga11  1  0.998100  0.998100  0.487412  1
  Ga  Ga12  1  0.384517  0.003249  0.248741  1
  Ga  Ga13  1  0.003249  0.384517  0.248741  1
  Bi  Bi14  1  0.386788  0.386788  0.751376  1
  Bi  Bi15  1  0.606624  0.996897  0.751526  1
  Bi  Bi16  1  0.996897  0.606624  0.751526  1
  Bi  Bi17  1  0.622582  0.622582  0.246946  1
