# generated using pymatgen
data_La2Pr2SmSi4
_symmetry_space_group_name_H-M   'P 1'
_cell_length_a   7.94318900
_cell_length_b   7.94318900
_cell_length_c   15.37775900
_cell_angle_alpha   90.00000000
_cell_angle_beta   90.00000000
_cell_angle_gamma   90.00000000
_symmetry_Int_Tables_number   1
_chemical_formula_structural   La2Pr2SmSi4
_chemical_formula_sum   'La8 Pr8 Sm4 Si16'
_cell_volume   970.24819369
_cell_formula_units_Z   4
loop_
 _symmetry_equiv_pos_site_id
 _symmetry_equiv_pos_as_xyz
  1  'x, y, z'
loop_
 _atom_site_type_symbol
 _atom_site_label
 _atom_site_symmetry_multiplicity
 _atom_site_fract_x
 _atom_site_fract_y
 _atom_site_fract_z
 _atom_site_occupancy
  La  La0  1  0.375594  0.011948  0.448846  1
  La  La1  1  0.488052  0.875594  0.698846  1
  La  La2  1  0.511948  0.124406  0.198846  1
  La  La3  1  0.875594  0.488052  0.301154  1
  La  La4  1  0.124406  0.511948  0.801154  1
  La  La5  1  0.624406  0.988052  0.948846  1
  La  La6  1  0.011948  0.375594  0.551154  1
  La  La7  1  0.988052  0.624406  0.051154  1
  Pr  Pr8  1  0.127830  0.981286  0.876832  1
  Pr  Pr9  1  0.518714  0.627830  0.126832  1
  Pr  Pr10  1  0.481286  0.372170  0.626832  1
  Pr  Pr11  1  0.627830  0.518714  0.873168  1
  Pr  Pr12  1  0.372170  0.481286  0.373168  1
  Pr  Pr13  1  0.872170  0.018714  0.376832  1
  Pr  Pr14  1  0.981286  0.127830  0.123168  1
  Pr  Pr15  1  0.018714  0.872170  0.623168  1
  Sm  Sm16  1  0.310210  0.310210  0.000000  1
  Sm  Sm17  1  0.189790  0.810210  0.250000  1
  Sm  Sm18  1  0.810210  0.189790  0.750000  1
  Sm  Sm19  1  0.689790  0.689790  0.500000  1
  Si  Si20  1  0.194339  0.169111  0.704053  1
  Si  Si21  1  0.330889  0.694339  0.954053  1
  Si  Si22  1  0.669111  0.305661  0.454053  1
  Si  Si23  1  0.694339  0.330889  0.045947  1
  Si  Si24  1  0.305661  0.669111  0.545947  1
  Si  Si25  1  0.805661  0.830889  0.204053  1
  Si  Si26  1  0.169111  0.194339  0.295947  1
  Si  Si27  1  0.830889  0.805661  0.795947  1
  Si  Si28  1  0.287060  0.922245  0.061663  1
  Si  Si29  1  0.577755  0.787060  0.311663  1
  Si  Si30  1  0.422245  0.212940  0.811663  1
  Si  Si31  1  0.787060  0.577755  0.688337  1
  Si  Si32  1  0.212940  0.422245  0.188337  1
  Si  Si33  1  0.712940  0.077755  0.561663  1
  Si  Si34  1  0.922245  0.287060  0.938337  1
  Si  Si35  1  0.077755  0.712940  0.438337  1
