# generated using pymatgen
data_Rb8MnAlO8
_symmetry_space_group_name_H-M   'P 1'
_cell_length_a   6.78910900
_cell_length_b   10.78419500
_cell_length_c   11.31563000
_cell_angle_alpha   79.82663588
_cell_angle_beta   90.00000000
_cell_angle_gamma   90.00000000
_symmetry_Int_Tables_number   1
_chemical_formula_structural   Rb8MnAlO8
_chemical_formula_sum   'Rb16 Mn2 Al2 O16'
_cell_volume   815.44927870
_cell_formula_units_Z   2
loop_
 _symmetry_equiv_pos_site_id
 _symmetry_equiv_pos_as_xyz
  1  'x, y, z'
loop_
 _atom_site_type_symbol
 _atom_site_label
 _atom_site_symmetry_multiplicity
 _atom_site_fract_x
 _atom_site_fract_y
 _atom_site_fract_z
 _atom_site_occupancy
  Rb  Rb0  1  0.619199  0.835144  0.996898  1
  Rb  Rb1  1  0.119199  0.164856  0.503102  1
  Rb  Rb2  1  0.404421  0.152776  0.994028  1
  Rb  Rb3  1  0.904421  0.847224  0.505972  1
  Rb  Rb4  1  0.430318  0.927655  0.356769  1
  Rb  Rb5  1  0.930318  0.072345  0.143231  1
  Rb  Rb6  1  0.581760  0.047798  0.683519  1
  Rb  Rb7  1  0.081760  0.952202  0.816481  1
  Rb  Rb8  1  0.209274  0.393446  0.199851  1
  Rb  Rb9  1  0.709274  0.606554  0.300149  1
  Rb  Rb10  1  0.760695  0.616469  0.745777  1
  Rb  Rb11  1  0.260695  0.383531  0.754223  1
  Rb  Rb12  1  0.250096  0.582168  0.456648  1
  Rb  Rb13  1  0.750096  0.417832  0.043352  1
  Rb  Rb14  1  0.745420  0.378325  0.588326  1
  Rb  Rb15  1  0.245420  0.621675  0.911674  1
  Mn  Mn16  1  0.139644  0.749953  0.158075  1
  Mn  Mn17  1  0.639644  0.250047  0.341925  1
  Al  Al18  1  0.859946  0.224555  0.859477  1
  Al  Al19  1  0.359946  0.775445  0.640523  1
  O  O20  1  0.342691  0.651349  0.188576  1
  O  O21  1  0.842691  0.348651  0.311424  1
  O  O22  1  0.654064  0.335082  0.828078  1
  O  O23  1  0.154064  0.664918  0.671922  1
  O  O24  1  0.215857  0.888835  0.071737  1
  O  O25  1  0.715857  0.111165  0.428263  1
  O  O26  1  0.766649  0.071472  0.926752  1
  O  O27  1  0.266649  0.928528  0.573248  1
  O  O28  1  0.037305  0.778413  0.290417  1
  O  O29  1  0.537305  0.221587  0.209583  1
  O  O30  1  0.984296  0.210008  0.720176  1
  O  O31  1  0.484296  0.789992  0.779824  1
  O  O32  1  0.532975  0.715495  0.538693  1
  O  O33  1  0.032975  0.284505  0.961307  1
  O  O34  1  0.465388  0.327981  0.414574  1
  O  O35  1  0.965388  0.672019  0.085426  1
