# generated using pymatgen
data_YbEr6NiI12
_symmetry_space_group_name_H-M   'P 1'
_cell_length_a   9.67054795
_cell_length_b   9.67054787
_cell_length_c   9.67054755
_cell_angle_alpha   106.80299784
_cell_angle_beta   106.80299450
_cell_angle_gamma   106.80299884
_symmetry_Int_Tables_number   1
_chemical_formula_structural   YbEr6NiI12
_chemical_formula_sum   'Yb1 Er6 Ni1 I12'
_cell_volume   757.19141138
_cell_formula_units_Z   1
loop_
 _symmetry_equiv_pos_site_id
 _symmetry_equiv_pos_as_xyz
  1  'x, y, z'
loop_
 _atom_site_type_symbol
 _atom_site_label
 _atom_site_symmetry_multiplicity
 _atom_site_fract_x
 _atom_site_fract_y
 _atom_site_fract_z
 _atom_site_occupancy
  Yb  Yb0  1  0.500000  0.500000  0.500000  1
  Er  Er1  1  0.024483  0.094718  0.291165  1
  Er  Er2  1  0.094718  0.291165  0.024483  1
  Er  Er3  1  0.291165  0.024483  0.094718  1
  Er  Er4  1  0.975517  0.905282  0.708835  1
  Er  Er5  1  0.905282  0.708835  0.975517  1
  Er  Er6  1  0.708835  0.975517  0.905282  1
  Ni  Ni7  1  0.000000  0.000000  0.000000  1
  I  I8  1  0.150141  0.457582  0.379396  1
  I  I9  1  0.457582  0.379396  0.150141  1
  I  I10  1  0.379396  0.150141  0.457582  1
  I  I11  1  0.849859  0.542418  0.620604  1
  I  I12  1  0.542418  0.620604  0.849859  1
  I  I13  1  0.620604  0.849859  0.542418  1
  I  I14  1  0.677740  0.071615  0.222893  1
  I  I15  1  0.071615  0.222893  0.677740  1
  I  I16  1  0.222893  0.677740  0.071615  1
  I  I17  1  0.322260  0.928385  0.777107  1
  I  I18  1  0.928385  0.777107  0.322260  1
  I  I19  1  0.777107  0.322260  0.928385  1
