# generated using pymatgen
data_Ca5Pr(SnRh)4
_symmetry_space_group_name_H-M   'P 1'
_cell_length_a   5.96574829
_cell_length_b   8.23514880
_cell_length_c   14.12978413
_cell_angle_alpha   90.03874736
_cell_angle_beta   90.19683453
_cell_angle_gamma   89.96677642
_symmetry_Int_Tables_number   1
_chemical_formula_structural   Ca5Pr(SnRh)4
_chemical_formula_sum   'Ca10 Pr2 Sn8 Rh8'
_cell_volume   694.17531864
_cell_formula_units_Z   2
loop_
 _symmetry_equiv_pos_site_id
 _symmetry_equiv_pos_as_xyz
  1  'x, y, z'
loop_
 _atom_site_type_symbol
 _atom_site_label
 _atom_site_symmetry_multiplicity
 _atom_site_fract_x
 _atom_site_fract_y
 _atom_site_fract_z
 _atom_site_occupancy
  Ca  Ca0  1  0.628037  0.253702  0.251987  1
  Ca  Ca1  1  0.375535  0.743706  0.749010  1
  Ca  Ca2  1  0.371134  0.749164  0.253538  1
  Ca  Ca3  1  0.154115  0.400377  0.094254  1
  Ca  Ca4  1  0.845249  0.599668  0.903678  1
  Ca  Ca5  1  0.849637  0.604526  0.592962  1
  Ca  Ca6  1  0.843736  0.898658  0.404847  1
  Ca  Ca7  1  0.154582  0.398368  0.406905  1
  Ca  Ca8  1  0.151382  0.099291  0.592221  1
  Ca  Ca9  1  0.157866  0.103994  0.906234  1
  Pr  Pr10  1  0.619951  0.245739  0.747631  1
  Pr  Pr11  1  0.833958  0.895780  0.091920  1
  Sn  Sn12  1  0.136878  0.097626  0.250282  1
  Sn  Sn13  1  0.873558  0.896205  0.750746  1
  Sn  Sn14  1  0.864957  0.597622  0.251291  1
  Sn  Sn15  1  0.123329  0.400447  0.748860  1
  Sn  Sn16  1  0.640211  0.254422  0.000979  1
  Sn  Sn17  1  0.353238  0.750669  0.996630  1
  Sn  Sn18  1  0.366069  0.750514  0.502299  1
  Sn  Sn19  1  0.637182  0.249635  0.498398  1
  Rh  Rh20  1  0.375143  0.035448  0.093068  1
  Rh  Rh21  1  0.637651  0.966221  0.908045  1
  Rh  Rh22  1  0.634251  0.970491  0.594404  1
  Rh  Rh23  1  0.633896  0.536039  0.410753  1
  Rh  Rh24  1  0.365962  0.034205  0.409633  1
  Rh  Rh25  1  0.371038  0.462178  0.592977  1
  Rh  Rh26  1  0.368838  0.461641  0.906931  1
  Rh  Rh27  1  0.632617  0.543665  0.089518  1
