# generated using pymatgen
data_Tm8Nb12Si15As
_symmetry_space_group_name_H-M   'P 1'
_cell_length_a   7.03696528
_cell_length_b   7.04289949
_cell_length_c   12.99705252
_cell_angle_alpha   89.90079336
_cell_angle_beta   89.97555527
_cell_angle_gamma   89.91107826
_symmetry_Int_Tables_number   1
_chemical_formula_structural   Tm8Nb12Si15As
_chemical_formula_sum   'Tm8 Nb12 Si15 As1'
_cell_volume   644.14043162
_cell_formula_units_Z   1
loop_
 _symmetry_equiv_pos_site_id
 _symmetry_equiv_pos_as_xyz
  1  'x, y, z'
loop_
 _atom_site_type_symbol
 _atom_site_label
 _atom_site_symmetry_multiplicity
 _atom_site_fract_x
 _atom_site_fract_y
 _atom_site_fract_z
 _atom_site_occupancy
  Tm  Tm0  1  0.000508  0.340760  0.219222  1
  Tm  Tm1  1  0.001233  0.659243  0.718113  1
  Tm  Tm2  1  0.158106  0.500906  0.469070  1
  Tm  Tm3  1  0.502185  0.837982  0.030057  1
  Tm  Tm4  1  0.840320  0.499972  0.968242  1
  Tm  Tm5  1  0.499137  0.159682  0.531481  1
  Tm  Tm6  1  0.340950  0.999476  0.781723  1
  Tm  Tm7  1  0.659181  0.001305  0.281992  1
  Nb  Nb8  1  0.169964  0.170107  0.998795  1
  Nb  Nb9  1  0.829514  0.829814  0.499986  1
  Nb  Nb10  1  0.329227  0.667251  0.249802  1
  Nb  Nb11  1  0.671004  0.328695  0.749948  1
  Nb  Nb12  1  0.152512  0.996224  0.376485  1
  Nb  Nb13  1  0.846312  0.006814  0.875950  1
  Nb  Nb14  1  0.506370  0.653639  0.626137  1
  Nb  Nb15  1  0.346983  0.493280  0.873701  1
  Nb  Nb16  1  0.493814  0.347978  0.126679  1
  Nb  Nb17  1  0.655082  0.508611  0.374520  1
  Nb  Nb18  1  0.993287  0.153413  0.623910  1
  Nb  Nb19  1  0.001616  0.844223  0.122661  1
  Si  Si20  1  0.704576  0.955356  0.686344  1
  Si  Si21  1  0.455266  0.795937  0.436563  1
  Si  Si22  1  0.203631  0.543634  0.063013  1
  Si  Si23  1  0.544138  0.203864  0.936443  1
  Si  Si24  1  0.795507  0.455858  0.564071  1
  Si  Si25  1  0.044709  0.295385  0.813265  1
  Si  Si26  1  0.956528  0.704921  0.313644  1
  Si  Si27  1  0.368648  0.301660  0.323223  1
  Si  Si28  1  0.633959  0.704610  0.818317  1
  Si  Si29  1  0.205001  0.867062  0.568490  1
  Si  Si30  1  0.133075  0.793826  0.930787  1
  Si  Si31  1  0.794682  0.134423  0.068597  1
  Si  Si32  1  0.866263  0.205612  0.431688  1
  Si  Si33  1  0.295454  0.366280  0.681197  1
  Si  Si34  1  0.705106  0.632924  0.181254  1
  As  As35  1  0.296155  0.039274  0.184629  1
