# generated using pymatgen
data_MgTiBeB2Rh5
_symmetry_space_group_name_H-M   'P 1'
_cell_length_a   2.90531300
_cell_length_b   9.18872500
_cell_length_c   9.16932000
_cell_angle_alpha   90.00000000
_cell_angle_beta   90.00000000
_cell_angle_gamma   90.00000000
_symmetry_Int_Tables_number   1
_chemical_formula_structural   MgTiBeB2Rh5
_chemical_formula_sum   'Mg2 Ti2 Be2 B4 Rh10'
_cell_volume   244.78528717
_cell_formula_units_Z   2
loop_
 _symmetry_equiv_pos_site_id
 _symmetry_equiv_pos_as_xyz
  1  'x, y, z'
loop_
 _atom_site_type_symbol
 _atom_site_label
 _atom_site_symmetry_multiplicity
 _atom_site_fract_x
 _atom_site_fract_y
 _atom_site_fract_z
 _atom_site_occupancy
  Mg  Mg0  1  0.000000  0.824804  0.177754  1
  Mg  Mg1  1  0.000000  0.324804  0.322247  1
  Ti  Ti2  1  0.000000  0.676053  0.673132  1
  Ti  Ti3  1  0.000000  0.176054  0.826868  1
  Be  Be4  1  0.000000  0.499187  0.998334  1
  Be  Be5  1  0.000000  0.999187  0.501666  1
  B  B6  1  0.000000  0.130100  0.132119  1
  B  B7  1  0.000000  0.630100  0.367882  1
  B  B8  1  0.000000  0.371163  0.628584  1
  B  B9  1  0.000000  0.871163  0.871417  1
  Rh  Rh10  1  0.499999  0.001421  0.998958  1
  Rh  Rh11  1  0.499999  0.290739  0.062253  1
  Rh  Rh12  1  0.499999  0.568947  0.204887  1
  Rh  Rh13  1  0.499999  0.068946  0.295115  1
  Rh  Rh14  1  0.499999  0.790739  0.437748  1
  Rh  Rh15  1  0.499999  0.501421  0.501042  1
  Rh  Rh16  1  0.499999  0.206361  0.576746  1
  Rh  Rh17  1  0.499999  0.931231  0.708854  1
  Rh  Rh18  1  0.499999  0.431231  0.791148  1
  Rh  Rh19  1  0.499999  0.706361  0.923256  1
