# generated using pymatgen
data_Gd4B2N5
_symmetry_space_group_name_H-M   'P 1'
_cell_length_a   3.47542251
_cell_length_b   6.29814720
_cell_length_c   7.04333348
_cell_angle_alpha   96.92857029
_cell_angle_beta   104.28334878
_cell_angle_gamma   73.98384554
_symmetry_Int_Tables_number   1
_chemical_formula_structural   Gd4B2N5
_chemical_formula_sum   'Gd4 B2 N5'
_cell_volume   143.37573066
_cell_formula_units_Z   1
loop_
 _symmetry_equiv_pos_site_id
 _symmetry_equiv_pos_as_xyz
  1  'x, y, z'
loop_
 _atom_site_type_symbol
 _atom_site_label
 _atom_site_symmetry_multiplicity
 _atom_site_fract_x
 _atom_site_fract_y
 _atom_site_fract_z
 _atom_site_occupancy
  Gd  Gd0  1  0.684741  0.740969  0.110449  1
  Gd  Gd1  1  0.076521  0.190947  0.343988  1
  Gd  Gd2  1  0.923479  0.809053  0.656012  1
  Gd  Gd3  1  0.315259  0.259031  0.889551  1
  B  B4  1  0.410303  0.568146  0.388754  1
  B  B5  1  0.589697  0.431854  0.611246  1
  N  N6  1  0.000000  0.000000  0.000000  1
  N  N7  1  0.381413  0.436685  0.199512  1
  N  N8  1  0.294258  0.810604  0.399119  1
  N  N9  1  0.705743  0.189395  0.600881  1
  N  N10  1  0.618587  0.563315  0.800488  1
