# generated using pymatgen
data_La10Pr6Mg3InIr4
_symmetry_space_group_name_H-M   'P 1'
_cell_length_a   10.14832952
_cell_length_b   10.14832973
_cell_length_c   10.14832957
_cell_angle_alpha   59.96866428
_cell_angle_beta   59.96866240
_cell_angle_gamma   59.96866870
_symmetry_Int_Tables_number   1
_chemical_formula_structural   La10Pr6Mg3InIr4
_chemical_formula_sum   'La10 Pr6 Mg3 In1 Ir4'
_cell_volume   738.51612824
_cell_formula_units_Z   1
loop_
 _symmetry_equiv_pos_site_id
 _symmetry_equiv_pos_as_xyz
  1  'x, y, z'
loop_
 _atom_site_type_symbol
 _atom_site_label
 _atom_site_symmetry_multiplicity
 _atom_site_fract_x
 _atom_site_fract_y
 _atom_site_fract_z
 _atom_site_occupancy
  La  La0  1  0.344959  0.344959  0.344959  1
  La  La1  1  0.347217  0.347217  0.960661  1
  La  La2  1  0.347217  0.960661  0.347217  1
  La  La3  1  0.960661  0.347217  0.347217  1
  La  La4  1  0.811228  0.188619  0.188619  1
  La  La5  1  0.191660  0.807587  0.807587  1
  La  La6  1  0.188619  0.811228  0.188619  1
  La  La7  1  0.807587  0.191660  0.807587  1
  La  La8  1  0.188619  0.188619  0.811228  1
  La  La9  1  0.807587  0.807587  0.191660  1
  Pr  Pr10  1  0.937935  0.563428  0.563428  1
  Pr  Pr11  1  0.563209  0.936177  0.936177  1
  Pr  Pr12  1  0.563428  0.937935  0.563428  1
  Pr  Pr13  1  0.936177  0.563209  0.936177  1
  Pr  Pr14  1  0.563428  0.563428  0.937935  1
  Pr  Pr15  1  0.936177  0.936177  0.563209  1
  Mg  Mg16  1  0.578598  0.578598  0.264584  1
  Mg  Mg17  1  0.578598  0.264584  0.578598  1
  Mg  Mg18  1  0.264584  0.578598  0.578598  1
  In  In19  1  0.580310  0.580310  0.580310  1
  Ir  Ir20  1  0.140764  0.140764  0.140764  1
  Ir  Ir21  1  0.141688  0.141688  0.578067  1
  Ir  Ir22  1  0.141688  0.578067  0.141688  1
  Ir  Ir23  1  0.578067  0.141688  0.141688  1
