# generated using pymatgen
data_Fe4(SiMo2)3
_symmetry_space_group_name_H-M   'P 1'
_cell_length_a   9.13942638
_cell_length_b   9.11091521
_cell_length_c   9.13942825
_cell_angle_alpha   30.24579788
_cell_angle_beta   30.15773168
_cell_angle_gamma   30.24580444
_symmetry_Int_Tables_number   1
_chemical_formula_structural   Fe4(SiMo2)3
_chemical_formula_sum   'Fe4 Si3 Mo6'
_cell_volume   170.79010961
_cell_formula_units_Z   1
loop_
 _symmetry_equiv_pos_site_id
 _symmetry_equiv_pos_as_xyz
  1  'x, y, z'
loop_
 _atom_site_type_symbol
 _atom_site_label
 _atom_site_symmetry_multiplicity
 _atom_site_fract_x
 _atom_site_fract_y
 _atom_site_fract_z
 _atom_site_occupancy
  Fe  Fe0  1  0.591899  0.095483  0.084223  1
  Fe  Fe1  1  0.915777  0.904517  0.408101  1
  Fe  Fe2  1  0.915038  0.403594  0.907386  1
  Fe  Fe3  1  0.092614  0.596406  0.084962  1
  Si  Si4  1  0.093964  0.100048  0.574651  1
  Si  Si5  1  0.425349  0.899952  0.906036  1
  Si  Si6  1  0.975071  0.000000  0.024929  1
  Mo  Mo7  1  0.838861  0.830959  0.831259  1
  Mo  Mo8  1  0.636367  0.656990  0.655479  1
  Mo  Mo9  1  0.454861  0.450515  0.453060  1
  Mo  Mo10  1  0.546940  0.549485  0.545139  1
  Mo  Mo11  1  0.168741  0.169041  0.161139  1
  Mo  Mo12  1  0.344521  0.343010  0.363633  1
