# generated using pymatgen
data_Tb3Dy8TmCo4
_symmetry_space_group_name_H-M   'P 1'
_cell_length_a   6.18867423
_cell_length_b   6.93958568
_cell_length_c   9.46746568
_cell_angle_alpha   90.02141083
_cell_angle_beta   89.77876291
_cell_angle_gamma   89.97650653
_symmetry_Int_Tables_number   1
_chemical_formula_structural   Tb3Dy8TmCo4
_chemical_formula_sum   'Tb3 Dy8 Tm1 Co4'
_cell_volume   406.59459314
_cell_formula_units_Z   1
loop_
 _symmetry_equiv_pos_site_id
 _symmetry_equiv_pos_as_xyz
  1  'x, y, z'
loop_
 _atom_site_type_symbol
 _atom_site_label
 _atom_site_symmetry_multiplicity
 _atom_site_fract_x
 _atom_site_fract_y
 _atom_site_fract_z
 _atom_site_occupancy
  Tb  Tb0  1  0.642111  0.043029  0.249906  1
  Tb  Tb1  1  0.141887  0.457273  0.750427  1
  Tb  Tb2  1  0.356994  0.956573  0.750738  1
  Dy  Dy3  1  0.174602  0.174176  0.431245  1
  Dy  Dy4  1  0.674521  0.325559  0.569185  1
  Dy  Dy5  1  0.824242  0.825056  0.933019  1
  Dy  Dy6  1  0.675409  0.325444  0.932968  1
  Dy  Dy7  1  0.823380  0.824591  0.569572  1
  Dy  Dy8  1  0.323536  0.674315  0.428754  1
  Dy  Dy9  1  0.176385  0.174978  0.068511  1
  Dy  Dy10  1  0.858327  0.544829  0.249182  1
  Tm  Tm11  1  0.325403  0.674879  0.068213  1
  Co  Co12  1  0.053550  0.885553  0.248067  1
  Co  Co13  1  0.450463  0.386641  0.247015  1
  Co  Co14  1  0.948102  0.113597  0.749039  1
  Co  Co15  1  0.551085  0.613509  0.754159  1
