# generated using pymatgen
data_Zr8PdRh3O2
_symmetry_space_group_name_H-M   'P 1'
_cell_length_a   8.87452831
_cell_length_b   8.87453296
_cell_length_c   8.86208400
_cell_angle_alpha   60.04639254
_cell_angle_beta   60.04642739
_cell_angle_gamma   60.22185019
_symmetry_Int_Tables_number   1
_chemical_formula_structural   Zr8PdRh3O2
_chemical_formula_sum   'Zr16 Pd2 Rh6 O4'
_cell_volume   494.69763653
_cell_formula_units_Z   2
loop_
 _symmetry_equiv_pos_site_id
 _symmetry_equiv_pos_as_xyz
  1  'x, y, z'
loop_
 _atom_site_type_symbol
 _atom_site_label
 _atom_site_symmetry_multiplicity
 _atom_site_fract_x
 _atom_site_fract_y
 _atom_site_fract_z
 _atom_site_occupancy
  Zr  Zr0  1  0.123622  0.621692  0.627344  1
  Zr  Zr1  1  0.621693  0.123622  0.627343  1
  Zr  Zr2  1  0.630119  0.630114  0.107515  1
  Zr  Zr3  1  0.630114  0.630119  0.632252  1
  Zr  Zr4  1  0.818124  0.818124  0.181876  1
  Zr  Zr5  1  0.182693  0.182693  0.817307  1
  Zr  Zr6  1  0.815931  0.183194  0.817086  1
  Zr  Zr7  1  0.183194  0.815931  0.183789  1
  Zr  Zr8  1  0.183194  0.815928  0.817089  1
  Zr  Zr9  1  0.815928  0.183194  0.183789  1
  Zr  Zr10  1  0.432447  0.432447  0.067553  1
  Zr  Zr11  1  0.064696  0.064696  0.435304  1
  Zr  Zr12  1  0.432424  0.067875  0.433773  1
  Zr  Zr13  1  0.067875  0.432424  0.065928  1
  Zr  Zr14  1  0.067876  0.432423  0.433773  1
  Zr  Zr15  1  0.432423  0.067876  0.065929  1
  Pd  Pd16  1  0.766179  0.415154  0.409334  1
  Pd  Pd17  1  0.415154  0.766178  0.409334  1
  Rh  Rh18  1  0.405956  0.405956  0.787324  1
  Rh  Rh19  1  0.405956  0.405955  0.400765  1
  Rh  Rh20  1  0.459842  0.850662  0.844749  1
  Rh  Rh21  1  0.850663  0.459841  0.844747  1
  Rh  Rh22  1  0.848516  0.848518  0.463609  1
  Rh  Rh23  1  0.848518  0.848516  0.839358  1
  O  O24  1  0.624313  0.124013  0.125838  1
  O  O25  1  0.124013  0.624313  0.125836  1
  O  O26  1  0.124273  0.124272  0.625234  1
  O  O27  1  0.124272  0.124273  0.126222  1
