# generated using pymatgen
data_NaPr(WO4)2
_symmetry_space_group_name_H-M   'P 1'
_cell_length_a   5.86154900
_cell_length_b   5.32414722
_cell_length_c   10.62955076
_cell_angle_alpha   85.55338243
_cell_angle_beta   90.00000000
_cell_angle_gamma   90.00000000
_symmetry_Int_Tables_number   1
_chemical_formula_structural   NaPr(WO4)2
_chemical_formula_sum   'Na2 Pr2 W4 O16'
_cell_volume   330.72587094
_cell_formula_units_Z   2
loop_
 _symmetry_equiv_pos_site_id
 _symmetry_equiv_pos_as_xyz
  1  'x, y, z'
loop_
 _atom_site_type_symbol
 _atom_site_label
 _atom_site_symmetry_multiplicity
 _atom_site_fract_x
 _atom_site_fract_y
 _atom_site_fract_z
 _atom_site_occupancy
  Na  Na0  1  0.674690  0.750000  0.500000  1
  Na  Na1  1  0.325310  0.250000  0.500000  1
  Pr  Pr2  1  0.734243  0.750000  0.000000  1
  Pr  Pr3  1  0.265757  0.250000  0.000000  1
  W  W4  1  0.172528  0.726766  0.747328  1
  W  W5  1  0.172528  0.773234  0.252672  1
  W  W6  1  0.827472  0.273234  0.252672  1
  W  W7  1  0.827472  0.226766  0.747328  1
  O  O8  1  0.070806  0.984499  0.866499  1
  O  O9  1  0.070806  0.515501  0.133501  1
  O  O10  1  0.929194  0.015501  0.133501  1
  O  O11  1  0.929194  0.484499  0.866499  1
  O  O12  1  0.104870  0.426659  0.663718  1
  O  O13  1  0.104870  0.073341  0.336282  1
  O  O14  1  0.895130  0.573341  0.336282  1
  O  O15  1  0.895130  0.926659  0.663718  1
  O  O16  1  0.387751  0.615734  0.870761  1
  O  O17  1  0.387751  0.884266  0.129239  1
  O  O18  1  0.612249  0.384266  0.129239  1
  O  O19  1  0.612249  0.115734  0.870761  1
  O  O20  1  0.640415  0.378316  0.634550  1
  O  O21  1  0.640415  0.121684  0.365450  1
  O  O22  1  0.359585  0.621684  0.365450  1
  O  O23  1  0.359585  0.878316  0.634550  1
