# generated using pymatgen
data_Dy3Co8P6Ru
_symmetry_space_group_name_H-M   'P 1'
_cell_length_a   3.70212400
_cell_length_b   10.51552700
_cell_length_c   12.24192400
_cell_angle_alpha   90.00000000
_cell_angle_beta   90.00000000
_cell_angle_gamma   90.00000000
_symmetry_Int_Tables_number   1
_chemical_formula_structural   Dy3Co8P6Ru
_chemical_formula_sum   'Dy6 Co16 P12 Ru2'
_cell_volume   476.57546783
_cell_formula_units_Z   2
loop_
 _symmetry_equiv_pos_site_id
 _symmetry_equiv_pos_as_xyz
  1  'x, y, z'
loop_
 _atom_site_type_symbol
 _atom_site_label
 _atom_site_symmetry_multiplicity
 _atom_site_fract_x
 _atom_site_fract_y
 _atom_site_fract_z
 _atom_site_occupancy
  Dy  Dy0  1  0.000000  0.500000  0.524140  1
  Dy  Dy1  1  0.500000  0.000000  0.475860  1
  Dy  Dy2  1  0.500000  0.817199  0.206563  1
  Dy  Dy3  1  0.500000  0.182801  0.206563  1
  Dy  Dy4  1  0.000000  0.682801  0.793437  1
  Dy  Dy5  1  0.000000  0.317199  0.793437  1
  Co  Co6  1  0.500000  0.500000  0.704014  1
  Co  Co7  1  0.000000  0.000000  0.295986  1
  Co  Co8  1  0.000000  0.500000  0.986038  1
  Co  Co9  1  0.500000  0.000000  0.013962  1
  Co  Co10  1  0.500000  0.332610  0.990831  1
  Co  Co11  1  0.500000  0.667390  0.990831  1
  Co  Co12  1  0.000000  0.167390  0.009169  1
  Co  Co13  1  0.000000  0.832610  0.009169  1
  Co  Co14  1  0.500000  0.297153  0.430915  1
  Co  Co15  1  0.500000  0.702847  0.430915  1
  Co  Co16  1  0.000000  0.202847  0.569085  1
  Co  Co17  1  0.000000  0.797153  0.569085  1
  Co  Co18  1  0.500000  0.879117  0.708213  1
  Co  Co19  1  0.500000  0.120883  0.708213  1
  Co  Co20  1  0.000000  0.620883  0.291787  1
  Co  Co21  1  0.000000  0.379117  0.291787  1
  P  P22  1  0.500000  0.500000  0.881932  1
  P  P23  1  0.000000  0.000000  0.118068  1
  P  P24  1  0.500000  0.500000  0.349697  1
  P  P25  1  0.000000  0.000000  0.650303  1
  P  P26  1  0.500000  0.311442  0.616130  1
  P  P27  1  0.500000  0.688558  0.616130  1
  P  P28  1  0.000000  0.188558  0.383870  1
  P  P29  1  0.000000  0.811442  0.383870  1
  P  P30  1  0.500000  0.846506  0.893665  1
  P  P31  1  0.500000  0.153494  0.893665  1
  P  P32  1  0.000000  0.653494  0.106335  1
  P  P33  1  0.000000  0.346506  0.106335  1
  Ru  Ru34  1  0.500000  0.500000  0.159107  1
  Ru  Ru35  1  0.000000  0.000000  0.840893  1
