# generated using pymatgen
data_Ce2Sm2AlZnRu4
_symmetry_space_group_name_H-M   'P 1'
_cell_length_a   5.77005194
_cell_length_b   5.77005180
_cell_length_c   7.06406008
_cell_angle_alpha   87.49356324
_cell_angle_beta   92.50643607
_cell_angle_gamma   118.01149642
_symmetry_Int_Tables_number   1
_chemical_formula_structural   Ce2Sm2AlZnRu4
_chemical_formula_sum   'Ce2 Sm2 Al1 Zn1 Ru4'
_cell_volume   207.36550616
_cell_formula_units_Z   1
loop_
 _symmetry_equiv_pos_site_id
 _symmetry_equiv_pos_as_xyz
  1  'x, y, z'
loop_
 _atom_site_type_symbol
 _atom_site_label
 _atom_site_symmetry_multiplicity
 _atom_site_fract_x
 _atom_site_fract_y
 _atom_site_fract_z
 _atom_site_occupancy
  Ce  Ce0  1  0.168577  0.831423  0.580190  1
  Ce  Ce1  1  0.831423  0.168577  0.419810  1
  Sm  Sm2  1  0.344928  0.655072  0.086021  1
  Sm  Sm3  1  0.655072  0.344928  0.913979  1
  Al  Al4  1  0.500000  0.500000  0.500000  1
  Zn  Zn5  1  0.000000  0.000000  0.000000  1
  Ru  Ru6  1  0.869063  0.637793  0.271500  1
  Ru  Ru7  1  0.637793  0.869063  0.728500  1
  Ru  Ru8  1  0.130937  0.362207  0.728500  1
  Ru  Ru9  1  0.362207  0.130937  0.271500  1
