# generated using pymatgen
data_YTmSn(AsRh2)6
_symmetry_space_group_name_H-M   'P 1'
_cell_length_a   10.08561700
_cell_length_b   10.08561679
_cell_length_c   3.92588900
_cell_angle_alpha   90.00000000
_cell_angle_beta   90.00000000
_cell_angle_gamma   120.00000398
_symmetry_Int_Tables_number   1
_chemical_formula_structural   YTmSn(AsRh2)6
_chemical_formula_sum   'Y1 Tm1 Sn1 As6 Rh12'
_cell_volume   345.83868014
_cell_formula_units_Z   1
loop_
 _symmetry_equiv_pos_site_id
 _symmetry_equiv_pos_as_xyz
  1  'x, y, z'
loop_
 _atom_site_type_symbol
 _atom_site_label
 _atom_site_symmetry_multiplicity
 _atom_site_fract_x
 _atom_site_fract_y
 _atom_site_fract_z
 _atom_site_occupancy
  Y  Y0  1  0.000000  0.000000  0.248175  1
  Tm  Tm1  1  0.333333  0.666667  0.751842  1
  Sn  Sn2  1  0.666667  0.333333  0.600596  1
  As  As3  1  0.955417  0.215352  0.747773  1
  As  As4  1  0.784648  0.740065  0.747773  1
  As  As5  1  0.259935  0.044583  0.747773  1
  As  As6  1  0.377404  0.449735  0.252468  1
  As  As7  1  0.550265  0.927670  0.252468  1
  As  As8  1  0.072330  0.622596  0.252468  1
  Rh  Rh9  1  0.733310  0.950881  0.749750  1
  Rh  Rh10  1  0.049119  0.782428  0.749750  1
  Rh  Rh11  1  0.217572  0.266690  0.749750  1
  Rh  Rh12  1  0.599624  0.718200  0.251341  1
  Rh  Rh13  1  0.281800  0.881425  0.251341  1
  Rh  Rh14  1  0.118575  0.400376  0.251341  1
  Rh  Rh15  1  0.954897  0.459253  0.754908  1
  Rh  Rh16  1  0.540747  0.495645  0.754908  1
  Rh  Rh17  1  0.504355  0.045103  0.754908  1
  Rh  Rh18  1  0.394127  0.211968  0.244951  1
  Rh  Rh19  1  0.788032  0.182158  0.244951  1
  Rh  Rh20  1  0.817842  0.605873  0.244951  1
