# generated using pymatgen
data_Th4Re4TcOs3
_symmetry_space_group_name_H-M   'P 1'
_cell_length_a   5.55498603
_cell_length_b   5.37551704
_cell_length_c   9.47784700
_cell_angle_alpha   90.00000000
_cell_angle_beta   90.00000000
_cell_angle_gamma   123.34434949
_symmetry_Int_Tables_number   1
_chemical_formula_structural   Th4Re4TcOs3
_chemical_formula_sum   'Th4 Re4 Tc1 Os3'
_cell_volume   236.42755732
_cell_formula_units_Z   1
loop_
 _symmetry_equiv_pos_site_id
 _symmetry_equiv_pos_as_xyz
  1  'x, y, z'
loop_
 _atom_site_type_symbol
 _atom_site_label
 _atom_site_symmetry_multiplicity
 _atom_site_fract_x
 _atom_site_fract_y
 _atom_site_fract_z
 _atom_site_occupancy
  Th  Th0  1  0.333322  0.665942  0.434422  1
  Th  Th1  1  0.665186  0.331530  0.562259  1
  Th  Th2  1  0.665186  0.331530  0.937741  1
  Th  Th3  1  0.333322  0.665942  0.065578  1
  Re  Re4  1  0.835796  0.676288  0.250000  1
  Re  Re5  1  0.173029  0.822445  0.750000  1
  Re  Re6  1  0.170900  0.330377  0.750000  1
  Re  Re7  1  0.663836  0.824702  0.750000  1
  Tc  Tc8  1  0.343026  0.180586  0.250000  1
  Os  Os9  1  0.992077  0.993483  0.498756  1
  Os  Os10  1  0.992077  0.993483  0.001244  1
  Os  Os11  1  0.832244  0.183690  0.250000  1
