# generated using pymatgen
data_Ba10NaLi2Dy(TeO5)6
_symmetry_space_group_name_H-M   'P 1'
_cell_length_a   10.29035179
_cell_length_b   10.29034177
_cell_length_c   10.26930700
_cell_angle_alpha   99.68273639
_cell_angle_beta   99.49675436
_cell_angle_gamma   131.87428673
_symmetry_Int_Tables_number   1
_chemical_formula_structural   Ba10NaLi2Dy(TeO5)6
_chemical_formula_sum   'Ba10 Na1 Li2 Dy1 Te6 O30'
_cell_volume   739.04282869
_cell_formula_units_Z   1
loop_
 _symmetry_equiv_pos_site_id
 _symmetry_equiv_pos_as_xyz
  1  'x, y, z'
loop_
 _atom_site_type_symbol
 _atom_site_label
 _atom_site_symmetry_multiplicity
 _atom_site_fract_x
 _atom_site_fract_y
 _atom_site_fract_z
 _atom_site_occupancy
  Ba  Ba0  1  0.760501  0.251469  0.497753  1
  Ba  Ba1  1  0.540855  0.654666  0.692223  1
  Ba  Ba2  1  0.934277  0.835724  0.301549  1
  Ba  Ba3  1  0.154584  0.462971  0.102457  1
  Ba  Ba4  1  0.358061  0.042898  0.906149  1
  Ba  Ba5  1  0.863250  0.548089  0.906149  1
  Ba  Ba6  1  0.639487  0.947874  0.102459  1
  Ba  Ba7  1  0.037556  0.151368  0.692221  1
  Ba  Ba8  1  0.246284  0.737253  0.497752  1
  Ba  Ba9  1  0.465825  0.367273  0.301549  1
  Na  Na10  1  0.800519  0.400130  0.200649  1
  Li  Li11  1  0.198699  0.598193  0.796891  1
  Li  Li12  1  0.593515  0.801793  0.395305  1
  Dy  Dy13  1  0.400233  0.200856  0.601089  1
  Te  Te14  1  0.303305  0.900925  0.204229  1
  Te  Te15  1  0.099570  0.300055  0.399624  1
  Te  Te16  1  0.497435  0.501166  0.998603  1
  Te  Te17  1  0.698879  0.098821  0.797703  1
  Te  Te18  1  0.902310  0.700093  0.602403  1
  Te  Te19  1  0.001058  0.000752  0.001811  1
  O  O20  1  0.525849  0.132208  0.201843  1
  O  O21  1  0.331428  0.525632  0.395120  1
  O  O22  1  0.741392  0.742098  0.998091  1
  O  O23  1  0.933038  0.329907  0.799390  1
  O  O24  1  0.137651  0.938390  0.605389  1
  O  O25  1  0.252522  0.762524  0.015047  1
  O  O26  1  0.052244  0.150370  0.202615  1
  O  O27  1  0.450815  0.360706  0.811522  1
  O  O28  1  0.655033  0.959011  0.614044  1
  O  O29  1  0.855983  0.563123  0.419108  1
  O  O30  1  0.153762  0.950709  0.104473  1
  O  O31  1  0.961151  0.340868  0.302018  1
  O  O32  1  0.359953  0.545574  0.905526  1
  O  O33  1  0.558209  0.146064  0.704275  1
  O  O34  1  0.764996  0.749312  0.514309  1
  O  O35  1  0.069635  0.675993  0.201843  1
  O  O36  1  0.869486  0.063691  0.395121  1
  O  O37  1  0.255993  0.256700  0.998091  1
  O  O38  1  0.469483  0.866350  0.799389  1
  O  O39  1  0.666999  0.467739  0.605389  1
  O  O40  1  0.344806  0.043635  0.388442  1
  O  O41  1  0.146854  0.438740  0.585594  1
  O  O42  1  0.545476  0.639358  0.184832  1
  O  O43  1  0.746787  0.235785  0.982570  1
  O  O44  1  0.950318  0.845370  0.795689  1
  O  O45  1  0.442008  0.856454  0.298462  1
  O  O46  1  0.239543  0.250071  0.489615  1
  O  O47  1  0.633685  0.453331  0.087016  1
  O  O48  1  0.847237  0.050080  0.897317  1
  O  O49  1  0.041460  0.657836  0.699297  1
