# generated using pymatgen
data_CaPa(WN3)2
_symmetry_space_group_name_H-M   'P 1'
_cell_length_a   5.48410900
_cell_length_b   5.65433000
_cell_length_c   7.85699700
_cell_angle_alpha   90.00000000
_cell_angle_beta   90.00000000
_cell_angle_gamma   90.00000000
_symmetry_Int_Tables_number   1
_chemical_formula_structural   CaPa(WN3)2
_chemical_formula_sum   'Ca2 Pa2 W4 N12'
_cell_volume   243.63732174
_cell_formula_units_Z   2
loop_
 _symmetry_equiv_pos_site_id
 _symmetry_equiv_pos_as_xyz
  1  'x, y, z'
loop_
 _atom_site_type_symbol
 _atom_site_label
 _atom_site_symmetry_multiplicity
 _atom_site_fract_x
 _atom_site_fract_y
 _atom_site_fract_z
 _atom_site_occupancy
  Ca  Ca0  1  0.505265  0.547004  0.750000  1
  Ca  Ca1  1  0.994735  0.047004  0.750000  1
  Pa  Pa2  1  0.481442  0.439681  0.250000  1
  Pa  Pa3  1  0.018558  0.939681  0.250000  1
  W  W4  1  0.511744  0.000504  0.507310  1
  W  W5  1  0.988256  0.500504  0.992690  1
  W  W6  1  0.988256  0.500504  0.507310  1
  W  W7  1  0.511744  0.000504  0.992690  1
  N  N8  1  0.701437  0.296070  0.534825  1
  N  N9  1  0.297543  0.702485  0.064244  1
  N  N10  1  0.202457  0.202485  0.064244  1
  N  N11  1  0.425344  0.983374  0.750000  1
  N  N12  1  0.895875  0.531824  0.250000  1
  N  N13  1  0.297543  0.702485  0.435756  1
  N  N14  1  0.798563  0.796070  0.965175  1
  N  N15  1  0.701437  0.296070  0.965175  1
  N  N16  1  0.798563  0.796070  0.534825  1
  N  N17  1  0.074656  0.483374  0.750000  1
  N  N18  1  0.202457  0.202485  0.435756  1
  N  N19  1  0.604125  0.031824  0.250000  1
