# generated using pymatgen
data_Y2TmSc3Bi2Ir
_symmetry_space_group_name_H-M   'P 1'
_cell_length_a   8.00920635
_cell_length_b   8.00920630
_cell_length_c   4.18368800
_cell_angle_alpha   90.00000000
_cell_angle_beta   90.00000000
_cell_angle_gamma   120.42215098
_symmetry_Int_Tables_number   1
_chemical_formula_structural   Y2TmSc3Bi2Ir
_chemical_formula_sum   'Y2 Tm1 Sc3 Bi2 Ir1'
_cell_volume   231.42255709
_cell_formula_units_Z   1
loop_
 _symmetry_equiv_pos_site_id
 _symmetry_equiv_pos_as_xyz
  1  'x, y, z'
loop_
 _atom_site_type_symbol
 _atom_site_label
 _atom_site_symmetry_multiplicity
 _atom_site_fract_x
 _atom_site_fract_y
 _atom_site_fract_z
 _atom_site_occupancy
  Y  Y0  1  0.611746  0.999777  0.000000  1
  Y  Y1  1  0.999777  0.611746  0.000000  1
  Tm  Tm2  1  0.382118  0.382118  0.000000  1
  Sc  Sc3  1  0.224904  0.997946  0.500000  1
  Sc  Sc4  1  0.997946  0.224904  0.500000  1
  Sc  Sc5  1  0.774366  0.774366  0.500000  1
  Bi  Bi6  1  0.333188  0.664441  0.500000  1
  Bi  Bi7  1  0.664441  0.333188  0.500000  1
  Ir  Ir8  1  0.011513  0.011513  0.000000  1
