# generated using pymatgen
data_Dy2Y3(OsO6)2
_symmetry_space_group_name_H-M   'P 1'
_cell_length_a   6.89394246
_cell_length_b   6.89394240
_cell_length_c   7.51034300
_cell_angle_alpha   73.97515852
_cell_angle_beta   73.97515869
_cell_angle_gamma   48.47311451
_symmetry_Int_Tables_number   1
_chemical_formula_structural   Dy2Y3(OsO6)2
_chemical_formula_sum   'Dy2 Y3 Os2 O12'
_cell_volume   254.68149446
_cell_formula_units_Z   1
loop_
 _symmetry_equiv_pos_site_id
 _symmetry_equiv_pos_as_xyz
  1  'x, y, z'
loop_
 _atom_site_type_symbol
 _atom_site_label
 _atom_site_symmetry_multiplicity
 _atom_site_fract_x
 _atom_site_fract_y
 _atom_site_fract_z
 _atom_site_occupancy
  Dy  Dy0  1  0.311858  0.311858  0.829052  1
  Dy  Dy1  1  0.688142  0.688142  0.170948  1
  Y  Y2  1  0.301236  0.301236  0.358173  1
  Y  Y3  1  0.698764  0.698764  0.641827  1
  Y  Y4  1  0.000000  0.000000  0.500000  1
  Os  Os5  1  0.780754  0.219246  0.000000  1
  Os  Os6  1  0.219246  0.780754  0.000000  1
  O  O7  1  0.913285  0.418614  0.914932  1
  O  O8  1  0.418614  0.913285  0.914932  1
  O  O9  1  0.086715  0.581386  0.085068  1
  O  O10  1  0.581386  0.086715  0.085068  1
  O  O11  1  0.098982  0.595266  0.573390  1
  O  O12  1  0.595266  0.098982  0.573390  1
  O  O13  1  0.901018  0.404734  0.426610  1
  O  O14  1  0.404734  0.901018  0.426610  1
  O  O15  1  0.999166  0.999166  0.796976  1
  O  O16  1  0.000834  0.000834  0.203024  1
  O  O17  1  0.500835  0.500835  0.826089  1
  O  O18  1  0.499165  0.499165  0.173911  1
