# generated using pymatgen
data_Dy2TmLu(ReB6)2
_symmetry_space_group_name_H-M   'P 1'
_cell_length_a   3.65452400
_cell_length_b   9.12159703
_cell_length_c   11.50616003
_cell_angle_alpha   90.00877635
_cell_angle_beta   90.00000000
_cell_angle_gamma   90.00000000
_symmetry_Int_Tables_number   1
_chemical_formula_structural   Dy2TmLu(ReB6)2
_chemical_formula_sum   'Dy4 Tm2 Lu2 Re4 B24'
_cell_volume   383.55893622
_cell_formula_units_Z   2
loop_
 _symmetry_equiv_pos_site_id
 _symmetry_equiv_pos_as_xyz
  1  'x, y, z'
loop_
 _atom_site_type_symbol
 _atom_site_label
 _atom_site_symmetry_multiplicity
 _atom_site_fract_x
 _atom_site_fract_y
 _atom_site_fract_z
 _atom_site_occupancy
  Dy  Dy0  1  0.000000  0.323324  0.413907  1
  Dy  Dy1  1  0.000000  0.676676  0.586093  1
  Dy  Dy2  1  0.000000  0.823043  0.085961  1
  Dy  Dy3  1  0.000000  0.176957  0.914039  1
  Tm  Tm4  1  0.000000  0.943501  0.370081  1
  Tm  Tm5  1  0.000000  0.056499  0.629919  1
  Lu  Lu6  1  0.000000  0.443551  0.129648  1
  Lu  Lu7  1  0.000000  0.556449  0.870352  1
  Re  Re8  1  0.000000  0.639073  0.319634  1
  Re  Re9  1  0.000000  0.360927  0.680366  1
  Re  Re10  1  0.000000  0.140188  0.179808  1
  Re  Re11  1  0.000000  0.859812  0.820192  1
  B  B12  1  0.500000  0.553570  0.432515  1
  B  B13  1  0.500000  0.446430  0.567485  1
  B  B14  1  0.500000  0.053886  0.067319  1
  B  B15  1  0.500000  0.946114  0.932681  1
  B  B16  1  0.500000  0.750173  0.418240  1
  B  B17  1  0.500000  0.249827  0.581760  1
  B  B18  1  0.500000  0.251091  0.081603  1
  B  B19  1  0.500000  0.748909  0.918397  1
  B  B20  1  0.500000  0.792716  0.265130  1
  B  B21  1  0.500000  0.207284  0.734870  1
  B  B22  1  0.500000  0.293554  0.234495  1
  B  B23  1  0.500000  0.706446  0.765505  1
  B  B24  1  0.500000  0.629994  0.184551  1
  B  B25  1  0.500000  0.370006  0.815449  1
  B  B26  1  0.500000  0.130796  0.314899  1
  B  B27  1  0.500000  0.869204  0.685101  1
  B  B28  1  0.500000  0.982307  0.212290  1
  B  B29  1  0.500000  0.017693  0.787710  1
  B  B30  1  0.500000  0.481852  0.287189  1
  B  B31  1  0.500000  0.518148  0.712811  1
  B  B32  1  0.500000  0.597795  0.027141  1
  B  B33  1  0.500000  0.402205  0.972859  1
  B  B34  1  0.500000  0.098816  0.472628  1
  B  B35  1  0.500000  0.901184  0.527372  1
