# generated using pymatgen
data_TbDy5Y2(TcB6)4
_symmetry_space_group_name_H-M   'P 1'
_cell_length_a   3.69524200
_cell_length_b   9.17530400
_cell_length_c   11.56651400
_cell_angle_alpha   89.99734396
_cell_angle_beta   90.00000000
_cell_angle_gamma   90.00000000
_symmetry_Int_Tables_number   1
_chemical_formula_structural   TbDy5Y2(TcB6)4
_chemical_formula_sum   'Tb1 Dy5 Y2 Tc4 B24'
_cell_volume   392.16229500
_cell_formula_units_Z   1
loop_
 _symmetry_equiv_pos_site_id
 _symmetry_equiv_pos_as_xyz
  1  'x, y, z'
loop_
 _atom_site_type_symbol
 _atom_site_label
 _atom_site_symmetry_multiplicity
 _atom_site_fract_x
 _atom_site_fract_y
 _atom_site_fract_z
 _atom_site_occupancy
  Tb  Tb0  1  0.000000  0.323623  0.414104  1
  Dy  Dy1  1  0.000000  0.176264  0.914081  1
  Dy  Dy2  1  0.000000  0.942058  0.369162  1
  Dy  Dy3  1  0.000000  0.057653  0.630901  1
  Dy  Dy4  1  0.000000  0.442320  0.130758  1
  Dy  Dy5  1  0.000000  0.557924  0.869256  1
  Y  Y6  1  0.000000  0.676672  0.585920  1
  Y  Y7  1  0.000000  0.823331  0.085796  1
  Tc  Tc8  1  0.000000  0.638451  0.320477  1
  Tc  Tc9  1  0.000000  0.361549  0.679708  1
  Tc  Tc10  1  0.000000  0.138362  0.179297  1
  Tc  Tc11  1  0.000000  0.861742  0.820548  1
  B  B12  1  0.500000  0.553175  0.432803  1
  B  B13  1  0.500000  0.446822  0.567278  1
  B  B14  1  0.500000  0.053202  0.066930  1
  B  B15  1  0.500000  0.947043  0.932795  1
  B  B16  1  0.500000  0.748397  0.418315  1
  B  B17  1  0.500000  0.251619  0.581868  1
  B  B18  1  0.500000  0.248389  0.081413  1
  B  B19  1  0.500000  0.751740  0.918304  1
  B  B20  1  0.500000  0.791312  0.265361  1
  B  B21  1  0.500000  0.208609  0.734829  1
  B  B22  1  0.500000  0.291273  0.234458  1
  B  B23  1  0.500000  0.708770  0.765446  1
  B  B24  1  0.500000  0.630351  0.185773  1
  B  B25  1  0.500000  0.369502  0.814433  1
  B  B26  1  0.500000  0.130305  0.314122  1
  B  B27  1  0.500000  0.869707  0.685863  1
  B  B28  1  0.500000  0.981879  0.211586  1
  B  B29  1  0.500000  0.018145  0.788415  1
  B  B30  1  0.500000  0.482054  0.288243  1
  B  B31  1  0.500000  0.518052  0.711798  1
  B  B32  1  0.500000  0.600157  0.028085  1
  B  B33  1  0.500000  0.399652  0.971866  1
  B  B34  1  0.500000  0.099950  0.471952  1
  B  B35  1  0.500000  0.899945  0.528061  1
