# generated using pymatgen
data_LuZrCo4
_symmetry_space_group_name_H-M   'P 1'
_cell_length_a   4.91143124
_cell_length_b   4.91143156
_cell_length_c   4.91143100
_cell_angle_alpha   59.99999703
_cell_angle_beta   59.99999486
_cell_angle_gamma   59.99999875
_symmetry_Int_Tables_number   1
_chemical_formula_structural   LuZrCo4
_chemical_formula_sum   'Lu1 Zr1 Co4'
_cell_volume   83.77398664
_cell_formula_units_Z   1
loop_
 _symmetry_equiv_pos_site_id
 _symmetry_equiv_pos_as_xyz
  1  'x, y, z'
loop_
 _atom_site_type_symbol
 _atom_site_label
 _atom_site_symmetry_multiplicity
 _atom_site_fract_x
 _atom_site_fract_y
 _atom_site_fract_z
 _atom_site_occupancy
  Lu  Lu0  1  0.250000  0.250000  0.250000  1
  Zr  Zr1  1  0.000000  0.000000  0.000000  1
  Co  Co2  1  0.624690  0.624690  0.125930  1
  Co  Co3  1  0.624690  0.125930  0.624690  1
  Co  Co4  1  0.125930  0.624690  0.624690  1
  Co  Co5  1  0.624690  0.624690  0.624690  1
