# generated using pymatgen
data_Hf2TaB2IrRu4
_symmetry_space_group_name_H-M   'P 1'
_cell_length_a   9.49225994
_cell_length_b   9.48879593
_cell_length_c   3.10367000
_cell_angle_alpha   90.00000000
_cell_angle_beta   90.00000000
_cell_angle_gamma   90.05091131
_symmetry_Int_Tables_number   1
_chemical_formula_structural   Hf2TaB2IrRu4
_chemical_formula_sum   'Hf4 Ta2 B4 Ir2 Ru8'
_cell_volume   279.54781127
_cell_formula_units_Z   2
loop_
 _symmetry_equiv_pos_site_id
 _symmetry_equiv_pos_as_xyz
  1  'x, y, z'
loop_
 _atom_site_type_symbol
 _atom_site_label
 _atom_site_symmetry_multiplicity
 _atom_site_fract_x
 _atom_site_fract_y
 _atom_site_fract_z
 _atom_site_occupancy
  Hf  Hf0  1  0.828977  0.675080  0.000000  1
  Hf  Hf1  1  0.171023  0.324920  0.000000  1
  Hf  Hf2  1  0.320958  0.826261  0.000000  1
  Hf  Hf3  1  0.679042  0.173739  0.000000  1
  Ta  Ta4  1  0.500000  0.500000  0.000000  1
  Ta  Ta5  1  0.000000  0.000000  0.000000  1
  B  B6  1  0.624392  0.884518  0.000000  1
  B  B7  1  0.375608  0.115482  0.000000  1
  B  B8  1  0.121047  0.621361  0.000000  1
  B  B9  1  0.878953  0.378639  0.000000  1
  Ir  Ir10  1  0.570736  0.719432  0.500000  1
  Ir  Ir11  1  0.429264  0.280568  0.500000  1
  Ru  Ru12  1  0.072636  0.782108  0.500000  1
  Ru  Ru13  1  0.927364  0.217892  0.500000  1
  Ru  Ru14  1  0.283036  0.569916  0.500000  1
  Ru  Ru15  1  0.716964  0.430084  0.500000  1
  Ru  Ru16  1  0.217835  0.072487  0.500000  1
  Ru  Ru17  1  0.782165  0.927513  0.500000  1
  Ru  Ru18  1  0.500000  0.000000  0.500000  1
  Ru  Ru19  1  0.000000  0.500000  0.500000  1
