# generated using pymatgen
data_Pr8Nb12Si15Sn
_symmetry_space_group_name_H-M   'P 1'
_cell_length_a   7.05940805
_cell_length_b   7.30171911
_cell_length_c   13.75231932
_cell_angle_alpha   90.07208516
_cell_angle_beta   89.80041371
_cell_angle_gamma   90.07646221
_symmetry_Int_Tables_number   1
_chemical_formula_structural   Pr8Nb12Si15Sn
_chemical_formula_sum   'Pr8 Nb12 Si15 Sn1'
_cell_volume   708.86901417
_cell_formula_units_Z   1
loop_
 _symmetry_equiv_pos_site_id
 _symmetry_equiv_pos_as_xyz
  1  'x, y, z'
loop_
 _atom_site_type_symbol
 _atom_site_label
 _atom_site_symmetry_multiplicity
 _atom_site_fract_x
 _atom_site_fract_y
 _atom_site_fract_z
 _atom_site_occupancy
  Pr  Pr0  1  0.002906  0.164664  0.399950  1
  Pr  Pr1  1  0.510473  0.327318  0.399898  1
  Pr  Pr2  1  0.492366  0.668961  0.905246  1
  Pr  Pr3  1  0.504694  0.676049  0.599371  1
  Pr  Pr4  1  0.991698  0.836475  0.597617  1
  Pr  Pr5  1  0.991699  0.831488  0.905534  1
  Pr  Pr6  1  0.507375  0.331181  0.095976  1
  Pr  Pr7  1  0.007681  0.170012  0.095708  1
  Nb  Nb8  1  0.345441  0.163100  0.631010  1
  Nb  Nb9  1  0.663649  0.825866  0.371655  1
  Nb  Nb10  1  0.659064  0.013887  0.751244  1
  Nb  Nb11  1  0.162420  0.683658  0.368307  1
  Nb  Nb12  1  0.834970  0.324181  0.875067  1
  Nb  Nb13  1  0.825570  0.319957  0.629474  1
  Nb  Nb14  1  0.840733  0.515079  0.248436  1
  Nb  Nb15  1  0.339953  0.986111  0.248619  1
  Nb  Nb16  1  0.333705  0.175642  0.875104  1
  Nb  Nb17  1  0.165651  0.675930  0.125321  1
  Nb  Nb18  1  0.663809  0.823383  0.125121  1
  Nb  Nb19  1  0.159639  0.484940  0.756719  1
  Si  Si20  1  0.292775  0.884044  0.752786  1
  Si  Si21  1  0.460927  0.631520  0.248710  1
  Si  Si22  1  0.039202  0.132316  0.751064  1
  Si  Si23  1  0.537580  0.369966  0.752452  1
  Si  Si24  1  0.958338  0.869681  0.246580  1
  Si  Si25  1  0.704249  0.110322  0.247383  1
  Si  Si26  1  0.845038  0.539863  0.043603  1
  Si  Si27  1  0.343997  0.960537  0.043223  1
  Si  Si28  1  0.155099  0.460377  0.957980  1
  Si  Si29  1  0.657526  0.042083  0.540546  1
  Si  Si30  1  0.343325  0.958180  0.457546  1
  Si  Si31  1  0.835569  0.544803  0.453347  1
  Si  Si32  1  0.797751  0.610469  0.751761  1
  Si  Si33  1  0.204763  0.389650  0.249027  1
  Si  Si34  1  0.654625  0.040504  0.956979  1
  Sn  Sn35  1  0.165736  0.457801  0.541635  1
