# generated using pymatgen
data_Ce2Al16Pd9
_symmetry_space_group_name_H-M   'P 1'
_cell_length_a   11.16845827
_cell_length_b   11.16845802
_cell_length_c   11.16845859
_cell_angle_alpha   158.48139361
_cell_angle_beta   115.52656345
_cell_angle_gamma   68.82436967
_symmetry_Int_Tables_number   1
_chemical_formula_structural   Ce2Al16Pd9
_chemical_formula_sum   'Ce2 Al16 Pd9'
_cell_volume   457.78779394
_cell_formula_units_Z   1
loop_
 _symmetry_equiv_pos_site_id
 _symmetry_equiv_pos_as_xyz
  1  'x, y, z'
loop_
 _atom_site_type_symbol
 _atom_site_label
 _atom_site_symmetry_multiplicity
 _atom_site_fract_x
 _atom_site_fract_y
 _atom_site_fract_z
 _atom_site_occupancy
  Ce  Ce0  1  0.770816  0.770816  0.000000  1
  Ce  Ce1  1  0.229184  0.229184  0.000000  1
  Al  Al2  1  0.726703  0.606502  0.120201  1
  Al  Al3  1  0.486301  0.606503  0.879801  1
  Al  Al4  1  0.273297  0.393499  0.879801  1
  Al  Al5  1  0.513699  0.393498  0.120201  1
  Al  Al6  1  0.913130  0.413130  0.500000  1
  Al  Al7  1  0.086870  0.586871  0.500001  1
  Al  Al8  1  0.104588  0.796419  0.308172  1
  Al  Al9  1  0.488248  0.796419  0.691831  1
  Al  Al10  1  0.895412  0.203583  0.691829  1
  Al  Al11  1  0.511753  0.203583  0.308171  1
  Al  Al12  1  0.092165  0.919486  0.172681  1
  Al  Al13  1  0.746806  0.919486  0.827321  1
  Al  Al14  1  0.907834  0.080515  0.827319  1
  Al  Al15  1  0.253194  0.080515  0.172680  1
  Al  Al16  1  0.616072  0.000000  0.616072  1
  Al  Al17  1  0.383928  0.000000  0.383928  1
  Pd  Pd18  1  0.974669  0.660499  0.314170  1
  Pd  Pd19  1  0.346330  0.660501  0.685831  1
  Pd  Pd20  1  0.025331  0.339502  0.685831  1
  Pd  Pd21  1  0.653670  0.339500  0.314170  1
  Pd  Pd22  1  0.623816  0.123816  0.500000  1
  Pd  Pd23  1  0.376183  0.876185  0.500001  1
  Pd  Pd24  1  0.240630  0.500001  0.740631  1
  Pd  Pd25  1  0.759371  0.500000  0.259370  1
  Pd  Pd26  1  0.000000  0.000000  0.000000  1
