# generated using pymatgen
data_La12MnSiI17
_symmetry_space_group_name_H-M   'P 1'
_cell_length_a   10.05195653
_cell_length_b   12.12363617
_cell_length_c   12.16347892
_cell_angle_alpha   73.19793904
_cell_angle_beta   74.71295433
_cell_angle_gamma   66.36441989
_symmetry_Int_Tables_number   1
_chemical_formula_structural   La12MnSiI17
_chemical_formula_sum   'La12 Mn1 Si1 I17'
_cell_volume   1281.41412554
_cell_formula_units_Z   1
loop_
 _symmetry_equiv_pos_site_id
 _symmetry_equiv_pos_as_xyz
  1  'x, y, z'
loop_
 _atom_site_type_symbol
 _atom_site_label
 _atom_site_symmetry_multiplicity
 _atom_site_fract_x
 _atom_site_fract_y
 _atom_site_fract_z
 _atom_site_occupancy
  La  La0  1  0.451581  0.479049  0.327374  1
  La  La1  1  0.565341  0.670126  0.999473  1
  La  La2  1  0.282260  0.999182  0.091002  1
  La  La3  1  0.870892  0.286015  0.857309  1
  La  La4  1  0.390527  0.237466  0.721765  1
  La  La5  1  0.716741  0.004243  0.907383  1
  La  La6  1  0.545596  0.518001  0.672032  1
  La  La7  1  0.441136  0.329821  0.999516  1
  La  La8  1  0.588277  0.760283  0.274848  1
  La  La9  1  0.825276  0.188294  0.577305  1
  La  La10  1  0.168495  0.812816  0.422218  1
  La  La11  1  0.164458  0.716646  0.154293  1
  Mn  Mn12  1  0.353980  0.736539  0.206441  1
  Si  Si13  1  0.632853  0.260887  0.787528  1
  I  I14  1  0.057110  0.106272  0.319922  1
  I  I15  1  0.465920  0.945160  0.827431  1
  I  I16  1  0.426846  0.822023  0.531275  1
  I  I17  1  0.571869  0.175989  0.469147  1
  I  I18  1  0.853390  0.698480  0.048183  1
  I  I19  1  0.213609  0.418103  0.247825  1
  I  I20  1  0.688893  0.365925  0.105416  1
  I  I21  1  0.535000  0.056390  0.170344  1
  I  I22  1  0.744341  0.472276  0.414337  1
  I  I23  1  0.886768  0.784537  0.369747  1
  I  I24  1  0.941496  0.896845  0.683268  1
  I  I25  1  0.146112  0.310055  0.953854  1
  I  I26  1  0.317437  0.629586  0.894066  1
  I  I27  1  0.999263  0.999516  0.999838  1
  I  I28  1  0.111607  0.214415  0.629645  1
  I  I29  1  0.787978  0.579129  0.749591  1
  I  I30  1  0.254951  0.525930  0.587621  1
