# generated using pymatgen
data_SmTm5Al24ZnOs7
_symmetry_space_group_name_H-M   'P 1'
_cell_length_a   8.84747661
_cell_length_b   8.83879557
_cell_length_c   9.52258105
_cell_angle_alpha   89.91996730
_cell_angle_beta   89.98975470
_cell_angle_gamma   120.08012037
_symmetry_Int_Tables_number   1
_chemical_formula_structural   SmTm5Al24ZnOs7
_chemical_formula_sum   'Sm1 Tm5 Al24 Zn1 Os7'
_cell_volume   644.38582972
_cell_formula_units_Z   1
loop_
 _symmetry_equiv_pos_site_id
 _symmetry_equiv_pos_as_xyz
  1  'x, y, z'
loop_
 _atom_site_type_symbol
 _atom_site_label
 _atom_site_symmetry_multiplicity
 _atom_site_fract_x
 _atom_site_fract_y
 _atom_site_fract_z
 _atom_site_occupancy
  Sm  Sm0  1  0.191088  0.383215  0.246915  1
  Tm  Tm1  1  0.807906  0.611737  0.751400  1
  Tm  Tm2  1  0.612013  0.808387  0.248888  1
  Tm  Tm3  1  0.388182  0.192046  0.751124  1
  Tm  Tm4  1  0.195788  0.804788  0.253842  1
  Tm  Tm5  1  0.804485  0.196354  0.746006  1
  Al  Al6  1  0.329900  0.671461  0.021407  1
  Al  Al7  1  0.670015  0.330133  0.976354  1
  Al  Al8  1  0.666195  0.334397  0.519059  1
  Al  Al9  1  0.334600  0.666773  0.482694  1
  Al  Al10  1  0.162821  0.325905  0.575575  1
  Al  Al11  1  0.837645  0.674260  0.426817  1
  Al  Al12  1  0.674541  0.837362  0.574540  1
  Al  Al13  1  0.848779  0.677466  0.080872  1
  Al  Al14  1  0.326575  0.162052  0.426891  1
  Al  Al15  1  0.151074  0.322887  0.916883  1
  Al  Al16  1  0.162591  0.837300  0.575861  1
  Al  Al17  1  0.323144  0.150197  0.080515  1
  Al  Al18  1  0.836153  0.162433  0.425201  1
  Al  Al19  1  0.677742  0.849202  0.918236  1
  Al  Al20  1  0.835146  0.162627  0.075286  1
  Al  Al21  1  0.163307  0.837224  0.923314  1
  Al  Al22  1  0.561411  0.120837  0.249326  1
  Al  Al23  1  0.438718  0.879307  0.750792  1
  Al  Al24  1  0.877520  0.439192  0.249295  1
  Al  Al25  1  0.121051  0.561816  0.750455  1
  Al  Al26  1  0.565655  0.437555  0.254956  1
  Al  Al27  1  0.437089  0.563372  0.746254  1
  Al  Al28  1  0.997029  0.996722  0.250594  1
  Al  Al29  1  0.000601  0.999150  0.749551  1
  Zn  Zn30  1  0.500191  0.500225  0.999931  1
  Os  Os31  1  0.500353  0.000548  0.999652  1
  Os  Os32  1  0.998973  0.500637  0.998480  1
  Os  Os33  1  0.500384  0.000638  0.500445  1
  Os  Os34  1  0.999455  0.500503  0.501158  1
  Os  Os35  1  0.501469  0.500604  0.501344  1
  Os  Os36  1  0.000213  0.000420  0.999970  1
  Os  Os37  1  0.000199  0.000269  0.500117  1
