# generated using pymatgen
data_Pr5CoOsO12
_symmetry_space_group_name_H-M   'P 1'
_cell_length_a   7.07306612
_cell_length_b   7.07306613
_cell_length_c   7.61257243
_cell_angle_alpha   74.37991004
_cell_angle_beta   74.37990918
_cell_angle_gamma   50.67146391
_symmetry_Int_Tables_number   1
_chemical_formula_structural   Pr5CoOsO12
_chemical_formula_sum   'Pr5 Co1 Os1 O12'
_cell_volume   281.21562399
_cell_formula_units_Z   1
loop_
 _symmetry_equiv_pos_site_id
 _symmetry_equiv_pos_as_xyz
  1  'x, y, z'
loop_
 _atom_site_type_symbol
 _atom_site_label
 _atom_site_symmetry_multiplicity
 _atom_site_fract_x
 _atom_site_fract_y
 _atom_site_fract_z
 _atom_site_occupancy
  Pr  Pr0  1  0.328706  0.286393  0.355522  1
  Pr  Pr1  1  0.713607  0.671294  0.644478  1
  Pr  Pr2  1  0.696275  0.685841  0.165870  1
  Pr  Pr3  1  0.314159  0.303725  0.834130  1
  Pr  Pr4  1  0.007456  0.992544  0.500000  1
  Co  Co5  1  0.738628  0.261372  0.000000  1
  Os  Os6  1  0.226521  0.773479  0.000000  1
  O  O7  1  0.109039  0.591859  0.572204  1
  O  O8  1  0.982606  0.016406  0.165107  1
  O  O9  1  0.408141  0.890961  0.427796  1
  O  O10  1  0.491262  0.509962  0.168387  1
  O  O11  1  0.103197  0.591799  0.078008  1
  O  O12  1  0.918977  0.395861  0.417705  1
  O  O13  1  0.983594  0.017394  0.834893  1
  O  O14  1  0.604139  0.081022  0.582295  1
  O  O15  1  0.490038  0.508738  0.831613  1
  O  O16  1  0.575214  0.099760  0.077971  1
  O  O17  1  0.408201  0.896803  0.921992  1
  O  O18  1  0.900240  0.424786  0.922029  1
