# generated using pymatgen
data_Ca2AlGa6Au
_symmetry_space_group_name_H-M   'P 1'
_cell_length_a   4.18481400
_cell_length_b   4.29460500
_cell_length_c   11.35305500
_cell_angle_alpha   90.00000000
_cell_angle_beta   90.00000000
_cell_angle_gamma   90.00000000
_symmetry_Int_Tables_number   1
_chemical_formula_structural   Ca2AlGa6Au
_chemical_formula_sum   'Ca2 Al1 Ga6 Au1'
_cell_volume   204.03850234
_cell_formula_units_Z   1
loop_
 _symmetry_equiv_pos_site_id
 _symmetry_equiv_pos_as_xyz
  1  'x, y, z'
loop_
 _atom_site_type_symbol
 _atom_site_label
 _atom_site_symmetry_multiplicity
 _atom_site_fract_x
 _atom_site_fract_y
 _atom_site_fract_z
 _atom_site_occupancy
  Ca  Ca0  1  0.000000  0.000000  0.998264  1
  Ca  Ca1  1  0.500000  0.500000  0.499587  1
  Al  Al2  1  0.000000  0.500000  0.252195  1
  Ga  Ga3  1  0.500000  0.000000  0.748817  1
  Ga  Ga4  1  0.500000  0.000000  0.250710  1
  Ga  Ga5  1  0.000000  0.500000  0.747384  1
  Ga  Ga6  1  0.000000  0.000000  0.610321  1
  Ga  Ga7  1  0.000000  0.000000  0.391462  1
  Ga  Ga8  1  0.500000  0.500000  0.888147  1
  Au  Au9  1  0.500000  0.500000  0.113114  1
