# generated using pymatgen
data_Sr(Zn2Au)2
_symmetry_space_group_name_H-M   'P 1'
_cell_length_a   8.14133800
_cell_length_b   8.14133800
_cell_length_c   4.16258200
_cell_angle_alpha   90.00000000
_cell_angle_beta   90.00000000
_cell_angle_gamma   90.00000000
_symmetry_Int_Tables_number   1
_chemical_formula_structural   Sr(Zn2Au)2
_chemical_formula_sum   'Sr2 Zn8 Au4'
_cell_volume   275.90169776
_cell_formula_units_Z   2
loop_
 _symmetry_equiv_pos_site_id
 _symmetry_equiv_pos_as_xyz
  1  'x, y, z'
loop_
 _atom_site_type_symbol
 _atom_site_label
 _atom_site_symmetry_multiplicity
 _atom_site_fract_x
 _atom_site_fract_y
 _atom_site_fract_z
 _atom_site_occupancy
  Sr  Sr0  1  0.500000  0.500000  0.500000  1
  Sr  Sr1  1  0.000000  0.000000  0.000000  1
  Zn  Zn2  1  0.352951  0.084033  0.500000  1
  Zn  Zn3  1  0.647049  0.915967  0.500000  1
  Zn  Zn4  1  0.852951  0.415967  0.000000  1
  Zn  Zn5  1  0.147049  0.584033  0.000000  1
  Zn  Zn6  1  0.084033  0.352951  0.500000  1
  Zn  Zn7  1  0.915967  0.647049  0.500000  1
  Zn  Zn8  1  0.415967  0.852951  0.000000  1
  Zn  Zn9  1  0.584033  0.147049  0.000000  1
  Au  Au10  1  0.782607  0.217393  0.500000  1
  Au  Au11  1  0.217393  0.782607  0.500000  1
  Au  Au12  1  0.282607  0.282607  0.000000  1
  Au  Au13  1  0.717393  0.717393  0.000000  1
