# generated using pymatgen
data_Pa2Nb8Al4Rh
_symmetry_space_group_name_H-M   'P 1'
_cell_length_a   10.00984800
_cell_length_b   10.00984800
_cell_length_c   5.40800500
_cell_angle_alpha   90.00000000
_cell_angle_beta   90.00000000
_cell_angle_gamma   90.00000000
_symmetry_Int_Tables_number   1
_chemical_formula_structural   Pa2Nb8Al4Rh
_chemical_formula_sum   'Pa4 Nb16 Al8 Rh2'
_cell_volume   541.86618515
_cell_formula_units_Z   2
loop_
 _symmetry_equiv_pos_site_id
 _symmetry_equiv_pos_as_xyz
  1  'x, y, z'
loop_
 _atom_site_type_symbol
 _atom_site_label
 _atom_site_symmetry_multiplicity
 _atom_site_fract_x
 _atom_site_fract_y
 _atom_site_fract_z
 _atom_site_occupancy
  Pa  Pa0  1  0.399296  0.399296  0.000000  1
  Pa  Pa1  1  0.899296  0.100704  0.500000  1
  Pa  Pa2  1  0.100704  0.899296  0.500000  1
  Pa  Pa3  1  0.600704  0.600704  0.000000  1
  Nb  Nb4  1  0.132269  0.463758  0.000000  1
  Nb  Nb5  1  0.963758  0.367731  0.500000  1
  Nb  Nb6  1  0.036242  0.632269  0.500000  1
  Nb  Nb7  1  0.867731  0.536242  0.000000  1
  Nb  Nb8  1  0.367731  0.963758  0.500000  1
  Nb  Nb9  1  0.632269  0.036242  0.500000  1
  Nb  Nb10  1  0.463758  0.132269  0.000000  1
  Nb  Nb11  1  0.536242  0.867731  0.000000  1
  Nb  Nb12  1  0.186441  0.186441  0.250318  1
  Nb  Nb13  1  0.686441  0.313559  0.750318  1
  Nb  Nb14  1  0.313559  0.686441  0.750318  1
  Nb  Nb15  1  0.813559  0.813559  0.250318  1
  Nb  Nb16  1  0.313559  0.686441  0.249682  1
  Nb  Nb17  1  0.686441  0.313559  0.249682  1
  Nb  Nb18  1  0.186441  0.186441  0.749682  1
  Nb  Nb19  1  0.813559  0.813559  0.749682  1
  Al  Al20  1  0.262394  0.938347  0.000000  1
  Al  Al21  1  0.438347  0.237606  0.500000  1
  Al  Al22  1  0.561653  0.762394  0.500000  1
  Al  Al23  1  0.737606  0.061653  0.000000  1
  Al  Al24  1  0.237606  0.438347  0.500000  1
  Al  Al25  1  0.762394  0.561653  0.500000  1
  Al  Al26  1  0.938347  0.262394  0.000000  1
  Al  Al27  1  0.061653  0.737606  0.000000  1
  Rh  Rh28  1  0.000000  0.000000  0.000000  1
  Rh  Rh29  1  0.500000  0.500000  0.500000  1
