# generated using pymatgen
data_Y13Tm7Si15Au
_symmetry_space_group_name_H-M   'P 1'
_cell_length_a   7.42023145
_cell_length_b   7.66387805
_cell_length_c   14.56641730
_cell_angle_alpha   90.16229380
_cell_angle_beta   90.45645478
_cell_angle_gamma   90.21042544
_symmetry_Int_Tables_number   1
_chemical_formula_structural   Y13Tm7Si15Au
_chemical_formula_sum   'Y13 Tm7 Si15 Au1'
_cell_volume   828.32409575
_cell_formula_units_Z   1
loop_
 _symmetry_equiv_pos_site_id
 _symmetry_equiv_pos_as_xyz
  1  'x, y, z'
loop_
 _atom_site_type_symbol
 _atom_site_label
 _atom_site_symmetry_multiplicity
 _atom_site_fract_x
 _atom_site_fract_y
 _atom_site_fract_z
 _atom_site_occupancy
  Y  Y0  1  0.177147  0.321435  0.623235  1
  Y  Y1  1  0.524943  0.677613  0.600687  1
  Y  Y2  1  0.027150  0.817513  0.902162  1
  Y  Y3  1  0.471389  0.319474  0.098063  1
  Y  Y4  1  0.977276  0.181319  0.399798  1
  Y  Y5  1  0.472845  0.324008  0.400204  1
  Y  Y6  1  0.971788  0.182181  0.097938  1
  Y  Y7  1  0.529459  0.681597  0.900891  1
  Y  Y8  1  0.023958  0.819230  0.600516  1
  Y  Y9  1  0.851150  0.506560  0.750451  1
  Y  Y10  1  0.349719  0.990468  0.748792  1
  Y  Y11  1  0.150402  0.490786  0.249999  1
  Y  Y12  1  0.652232  0.009433  0.250615  1
  Tm  Tm13  1  0.680693  0.173124  0.623503  1
  Tm  Tm14  1  0.182074  0.322551  0.877416  1
  Tm  Tm15  1  0.318949  0.820294  0.121733  1
  Tm  Tm16  1  0.823820  0.678511  0.376854  1
  Tm  Tm17  1  0.319916  0.825670  0.376727  1
  Tm  Tm18  1  0.817876  0.677757  0.122078  1
  Tm  Tm19  1  0.680384  0.178566  0.877718  1
  Si  Si20  1  0.146409  0.529762  0.040067  1
  Si  Si21  1  0.352305  0.031067  0.960318  1
  Si  Si22  1  0.847054  0.470036  0.540374  1
  Si  Si23  1  0.342961  0.028437  0.541469  1
  Si  Si24  1  0.853327  0.469472  0.959743  1
  Si  Si25  1  0.645691  0.968961  0.039261  1
  Si  Si26  1  0.148566  0.534113  0.460316  1
  Si  Si27  1  0.478555  0.390486  0.751228  1
  Si  Si28  1  0.975219  0.107182  0.753391  1
  Si  Si29  1  0.524163  0.611713  0.248082  1
  Si  Si30  1  0.026009  0.890423  0.246870  1
  Si  Si31  1  0.733083  0.872397  0.752688  1
  Si  Si32  1  0.232693  0.626047  0.752137  1
  Si  Si33  1  0.269139  0.124987  0.246679  1
  Si  Si34  1  0.766567  0.377183  0.248674  1
  Au  Au35  1  0.655089  0.969644  0.459321  1
