# generated using pymatgen
data_Tm5LuTe3
_symmetry_space_group_name_H-M   'P 1'
_cell_length_a   3.99213700
_cell_length_b   11.28444800
_cell_length_c   21.59632200
_cell_angle_alpha   90.00000000
_cell_angle_beta   90.00000000
_cell_angle_gamma   90.00000000
_symmetry_Int_Tables_number   1
_chemical_formula_structural   Tm5LuTe3
_chemical_formula_sum   'Tm20 Lu4 Te12'
_cell_volume   972.89405707
_cell_formula_units_Z   4
loop_
 _symmetry_equiv_pos_site_id
 _symmetry_equiv_pos_as_xyz
  1  'x, y, z'
loop_
 _atom_site_type_symbol
 _atom_site_label
 _atom_site_symmetry_multiplicity
 _atom_site_fract_x
 _atom_site_fract_y
 _atom_site_fract_z
 _atom_site_occupancy
  Tm  Tm0  1  0.250000  0.150472  0.392017  1
  Tm  Tm1  1  0.750000  0.849528  0.607983  1
  Tm  Tm2  1  0.750000  0.650472  0.107983  1
  Tm  Tm3  1  0.250000  0.349528  0.892017  1
  Tm  Tm4  1  0.250000  0.454543  0.340047  1
  Tm  Tm5  1  0.750000  0.545457  0.659953  1
  Tm  Tm6  1  0.750000  0.954543  0.159953  1
  Tm  Tm7  1  0.250000  0.045457  0.840047  1
  Tm  Tm8  1  0.250000  0.735868  0.232251  1
  Tm  Tm9  1  0.750000  0.264132  0.767749  1
  Tm  Tm10  1  0.750000  0.235868  0.267749  1
  Tm  Tm11  1  0.250000  0.764132  0.732251  1
  Tm  Tm12  1  0.250000  0.114721  0.034320  1
  Tm  Tm13  1  0.750000  0.885279  0.965680  1
  Tm  Tm14  1  0.750000  0.614721  0.465680  1
  Tm  Tm15  1  0.250000  0.385279  0.534320  1
  Tm  Tm16  1  0.250000  0.416214  0.145247  1
  Tm  Tm17  1  0.750000  0.583786  0.854753  1
  Tm  Tm18  1  0.750000  0.916214  0.354753  1
  Tm  Tm19  1  0.250000  0.083786  0.645247  1
  Lu  Lu20  1  0.250000  0.610806  0.983014  1
  Lu  Lu21  1  0.750000  0.389194  0.016986  1
  Lu  Lu22  1  0.750000  0.110806  0.516986  1
  Lu  Lu23  1  0.250000  0.889194  0.483014  1
  Te  Te24  1  0.250000  0.849161  0.068911  1
  Te  Te25  1  0.750000  0.150839  0.931089  1
  Te  Te26  1  0.750000  0.349161  0.431089  1
  Te  Te27  1  0.250000  0.650839  0.568911  1
  Te  Te28  1  0.250000  0.711852  0.372822  1
  Te  Te29  1  0.750000  0.288148  0.627178  1
  Te  Te30  1  0.750000  0.211852  0.127178  1
  Te  Te31  1  0.250000  0.788148  0.872822  1
  Te  Te32  1  0.250000  0.021031  0.260721  1
  Te  Te33  1  0.750000  0.978969  0.739279  1
  Te  Te34  1  0.750000  0.521031  0.239279  1
  Te  Te35  1  0.250000  0.478969  0.760721  1
