# generated using pymatgen
data_Dy5Y3Sc12Si15Ru
_symmetry_space_group_name_H-M   'P 1'
_cell_length_a   7.07877109
_cell_length_b   7.44633526
_cell_length_c   13.95362711
_cell_angle_alpha   90.01341850
_cell_angle_beta   89.99563115
_cell_angle_gamma   90.19317353
_symmetry_Int_Tables_number   1
_chemical_formula_structural   Dy5Y3Sc12Si15Ru
_chemical_formula_sum   'Dy5 Y3 Sc12 Si15 Ru1'
_cell_volume   735.50407862
_cell_formula_units_Z   1
loop_
 _symmetry_equiv_pos_site_id
 _symmetry_equiv_pos_as_xyz
  1  'x, y, z'
loop_
 _atom_site_type_symbol
 _atom_site_label
 _atom_site_symmetry_multiplicity
 _atom_site_fract_x
 _atom_site_fract_y
 _atom_site_fract_z
 _atom_site_occupancy
  Dy  Dy0  1  0.991142  0.826867  0.595830  1
  Dy  Dy1  1  0.510988  0.322814  0.096192  1
  Dy  Dy2  1  0.011251  0.178494  0.403884  1
  Dy  Dy3  1  0.510952  0.322796  0.403841  1
  Dy  Dy4  1  0.488984  0.676636  0.595948  1
  Y  Y5  1  0.011158  0.178410  0.096088  1
  Y  Y6  1  0.991207  0.826685  0.904295  1
  Y  Y7  1  0.489072  0.676613  0.904136  1
  Sc  Sc8  1  0.157172  0.501061  0.749954  1
  Sc  Sc9  1  0.837981  0.495233  0.250054  1
  Sc  Sc10  1  0.338972  0.005087  0.250014  1
  Sc  Sc11  1  0.669874  0.999168  0.749948  1
  Sc  Sc12  1  0.316982  0.171995  0.627820  1
  Sc  Sc13  1  0.671731  0.825458  0.374106  1
  Sc  Sc14  1  0.171347  0.677850  0.374216  1
  Sc  Sc15  1  0.671719  0.825430  0.125921  1
  Sc  Sc16  1  0.837279  0.319850  0.627514  1
  Sc  Sc17  1  0.316991  0.172056  0.872178  1
  Sc  Sc18  1  0.837302  0.319817  0.872439  1
  Sc  Sc19  1  0.171443  0.677824  0.125812  1
  Si  Si20  1  0.968391  0.884283  0.250036  1
  Si  Si21  1  0.468871  0.614491  0.249989  1
  Si  Si22  1  0.529545  0.388208  0.749958  1
  Si  Si23  1  0.286631  0.867779  0.749909  1
  Si  Si24  1  0.713078  0.129090  0.250014  1
  Si  Si25  1  0.213920  0.371190  0.250057  1
  Si  Si26  1  0.779836  0.627046  0.749894  1
  Si  Si27  1  0.159690  0.468429  0.537320  1
  Si  Si28  1  0.844069  0.535773  0.461579  1
  Si  Si29  1  0.344515  0.965672  0.460293  1
  Si  Si30  1  0.843991  0.535797  0.038461  1
  Si  Si31  1  0.656037  0.034655  0.538666  1
  Si  Si32  1  0.159628  0.468342  0.962663  1
  Si  Si33  1  0.655975  0.034857  0.961330  1
  Si  Si34  1  0.344608  0.965651  0.039742  1
  Ru  Ru35  1  0.027668  0.108597  0.749900  1
