# generated using pymatgen
data_La12AlGa7Rh8
_symmetry_space_group_name_H-M   'P 1'
_cell_length_a   5.80271000
_cell_length_b   8.37178612
_cell_length_c   13.71349617
_cell_angle_alpha   90.01859852
_cell_angle_beta   90.00000000
_cell_angle_gamma   90.00000000
_symmetry_Int_Tables_number   1
_chemical_formula_structural   La12AlGa7Rh8
_chemical_formula_sum   'La12 Al1 Ga7 Rh8'
_cell_volume   666.18854014
_cell_formula_units_Z   1
loop_
 _symmetry_equiv_pos_site_id
 _symmetry_equiv_pos_as_xyz
  1  'x, y, z'
loop_
 _atom_site_type_symbol
 _atom_site_label
 _atom_site_symmetry_multiplicity
 _atom_site_fract_x
 _atom_site_fract_y
 _atom_site_fract_z
 _atom_site_occupancy
  La  La0  1  0.636841  0.258331  0.251261  1
  La  La1  1  0.362401  0.740551  0.749015  1
  La  La2  1  0.362401  0.759449  0.250985  1
  La  La3  1  0.636841  0.241669  0.748739  1
  La  La4  1  0.149653  0.402203  0.095916  1
  La  La5  1  0.850328  0.601342  0.904732  1
  La  La6  1  0.847813  0.599740  0.594909  1
  La  La7  1  0.847813  0.900260  0.405091  1
  La  La8  1  0.152018  0.400858  0.405359  1
  La  La9  1  0.152018  0.099142  0.594641  1
  La  La10  1  0.149653  0.097797  0.904084  1
  La  La11  1  0.850328  0.898658  0.095268  1
  Al  Al12  1  0.625727  0.250000  0.000000  1
  Ga  Ga13  1  0.139935  0.109450  0.249819  1
  Ga  Ga14  1  0.858815  0.891288  0.749444  1
  Ga  Ga15  1  0.858815  0.608712  0.250556  1
  Ga  Ga16  1  0.139935  0.390550  0.750181  1
  Ga  Ga17  1  0.366676  0.750000  0.000000  1
  Ga  Ga18  1  0.363781  0.750000  0.500000  1
  Ga  Ga19  1  0.635746  0.250000  0.500000  1
  Rh  Rh20  1  0.368315  0.033682  0.091248  1
  Rh  Rh21  1  0.637862  0.972144  0.909232  1
  Rh  Rh22  1  0.634190  0.968318  0.591163  1
  Rh  Rh23  1  0.634190  0.531682  0.408837  1
  Rh  Rh24  1  0.365864  0.031775  0.408055  1
  Rh  Rh25  1  0.365864  0.468225  0.591945  1
  Rh  Rh26  1  0.368315  0.466318  0.908752  1
  Rh  Rh27  1  0.637862  0.527856  0.090768  1
