# generated using pymatgen
data_Yb5WN5
_symmetry_space_group_name_H-M   'P 1'
_cell_length_a   6.85080526
_cell_length_b   6.85080391
_cell_length_c   8.82208010
_cell_angle_alpha   79.96978965
_cell_angle_beta   79.96978342
_cell_angle_gamma   59.46429046
_symmetry_Int_Tables_number   1
_chemical_formula_structural   Yb5WN5
_chemical_formula_sum   'Yb10 W2 N10'
_cell_volume   349.38058324
_cell_formula_units_Z   2
loop_
 _symmetry_equiv_pos_site_id
 _symmetry_equiv_pos_as_xyz
  1  'x, y, z'
loop_
 _atom_site_type_symbol
 _atom_site_label
 _atom_site_symmetry_multiplicity
 _atom_site_fract_x
 _atom_site_fract_y
 _atom_site_fract_z
 _atom_site_occupancy
  Yb  Yb0  1  0.873487  0.348834  0.834409  1
  Yb  Yb1  1  0.871501  0.871501  0.829362  1
  Yb  Yb2  1  0.739824  0.739824  0.521626  1
  Yb  Yb3  1  0.758563  0.244567  0.505336  1
  Yb  Yb4  1  0.635108  0.135195  0.157275  1
  Yb  Yb5  1  0.348834  0.873487  0.834409  1
  Yb  Yb6  1  0.244567  0.758563  0.505336  1
  Yb  Yb7  1  0.246182  0.246182  0.491180  1
  Yb  Yb8  1  0.140660  0.140660  0.162079  1
  Yb  Yb9  1  0.135195  0.635108  0.157275  1
  W  W10  1  0.631209  0.631209  0.220320  1
  W  W11  1  0.368037  0.368037  0.777175  1
  N  N12  1  0.909448  0.469789  0.319005  1
  N  N13  1  0.998590  0.998590  0.012430  1
  N  N14  1  0.677646  0.677646  0.003932  1
  N  N15  1  0.529850  0.529850  0.693006  1
  N  N16  1  0.469789  0.909448  0.319005  1
  N  N17  1  0.532273  0.089822  0.683045  1
  N  N18  1  0.470390  0.470390  0.296967  1
  N  N19  1  0.324926  0.324926  0.994452  1
  N  N20  1  0.066384  0.066384  0.645139  1
  N  N21  1  0.089822  0.532273  0.683045  1
