# generated using pymatgen
data_YbTm3(Ga3Ir)6
_symmetry_space_group_name_H-M   'P 1'
_cell_length_a   7.55723172
_cell_length_b   7.56457700
_cell_length_c   9.51210000
_cell_angle_alpha   90.00000000
_cell_angle_beta   90.00000000
_cell_angle_gamma   119.85420185
_symmetry_Int_Tables_number   1
_chemical_formula_structural   YbTm3(Ga3Ir)6
_chemical_formula_sum   'Yb1 Tm3 Ga18 Ir6'
_cell_volume   471.61824793
_cell_formula_units_Z   1
loop_
 _symmetry_equiv_pos_site_id
 _symmetry_equiv_pos_as_xyz
  1  'x, y, z'
loop_
 _atom_site_type_symbol
 _atom_site_label
 _atom_site_symmetry_multiplicity
 _atom_site_fract_x
 _atom_site_fract_y
 _atom_site_fract_z
 _atom_site_occupancy
  Yb  Yb0  1  0.996713  0.667483  0.750000  1
  Tm  Tm1  1  0.002406  0.332663  0.250000  1
  Tm  Tm2  1  0.667546  0.997473  0.750000  1
  Tm  Tm3  1  0.332153  0.002228  0.250000  1
  Ga  Ga4  1  0.126233  0.126678  0.750000  1
  Ga  Ga5  1  0.873235  0.873198  0.250000  1
  Ga  Ga6  1  0.999312  0.334956  0.580846  1
  Ga  Ga7  1  0.000860  0.665516  0.419616  1
  Ga  Ga8  1  0.000860  0.665516  0.080384  1
  Ga  Ga9  1  0.333271  0.998366  0.919361  1
  Ga  Ga10  1  0.999312  0.334956  0.919154  1
  Ga  Ga11  1  0.665779  0.001366  0.080894  1
  Ga  Ga12  1  0.665779  0.001366  0.419106  1
  Ga  Ga13  1  0.333271  0.998366  0.580639  1
  Ga  Ga14  1  0.331928  0.331870  0.065840  1
  Ga  Ga15  1  0.668834  0.667882  0.935642  1
  Ga  Ga16  1  0.668834  0.667882  0.564358  1
  Ga  Ga17  1  0.331928  0.331870  0.434160  1
  Ga  Ga18  1  0.338295  0.547044  0.750000  1
  Ga  Ga19  1  0.661831  0.453498  0.250000  1
  Ga  Ga20  1  0.546752  0.337644  0.750000  1
  Ga  Ga21  1  0.453247  0.661624  0.250000  1
  Ir  Ir22  1  0.670562  0.327969  0.499437  1
  Ir  Ir23  1  0.329207  0.671206  0.499080  1
  Ir  Ir24  1  0.329207  0.671206  0.000920  1
  Ir  Ir25  1  0.670562  0.327969  0.000563  1
  Ir  Ir26  1  0.001043  0.001102  0.498880  1
  Ir  Ir27  1  0.001043  0.001102  0.001120  1
