# generated using pymatgen
data_NaU3(PdPt)6
_symmetry_space_group_name_H-M   'P 1'
_cell_length_a   5.77415127
_cell_length_b   5.76298927
_cell_length_c   9.48086600
_cell_angle_alpha   89.96759894
_cell_angle_beta   90.03803412
_cell_angle_gamma   119.97153230
_symmetry_Int_Tables_number   1
_chemical_formula_structural   NaU3(PdPt)6
_chemical_formula_sum   'Na1 U3 Pd6 Pt6'
_cell_volume   273.29960706
_cell_formula_units_Z   1
loop_
 _symmetry_equiv_pos_site_id
 _symmetry_equiv_pos_as_xyz
  1  'x, y, z'
loop_
 _atom_site_type_symbol
 _atom_site_label
 _atom_site_symmetry_multiplicity
 _atom_site_fract_x
 _atom_site_fract_y
 _atom_site_fract_z
 _atom_site_occupancy
  Na  Na0  1  0.332832  0.666464  0.249247  1
  U  U1  1  0.000465  0.001230  0.491260  1
  U  U2  1  0.000967  0.001478  0.009058  1
  U  U3  1  0.664511  0.330973  0.749673  1
  Pd  Pd4  1  0.002429  0.502806  0.000945  1
  Pd  Pd5  1  0.829822  0.660544  0.249193  1
  Pd  Pd6  1  0.340744  0.170514  0.249009  1
  Pd  Pd7  1  0.830008  0.169266  0.249421  1
  Pd  Pd8  1  0.660771  0.828364  0.750798  1
  Pd  Pd9  1  0.165090  0.828371  0.751085  1
  Pt  Pt10  1  0.501770  0.501175  0.500401  1
  Pt  Pt11  1  0.500667  0.001511  0.500364  1
  Pt  Pt12  1  0.999904  0.501667  0.499868  1
  Pt  Pt13  1  0.504156  0.501955  0.999223  1
  Pt  Pt14  1  0.502702  0.003600  0.999355  1
  Pt  Pt15  1  0.163160  0.330084  0.751100  1
