# generated using pymatgen
data_LaYSe2
_symmetry_space_group_name_H-M   'P 1'
_cell_length_a   7.38656439
_cell_length_b   7.38656443
_cell_length_c   7.38656424
_cell_angle_alpha   32.77928649
_cell_angle_beta   32.77928887
_cell_angle_gamma   32.77928309
_symmetry_Int_Tables_number   1
_chemical_formula_structural   LaYSe2
_chemical_formula_sum   'La1 Y1 Se2'
_cell_volume   105.09063519
_cell_formula_units_Z   1
loop_
 _symmetry_equiv_pos_site_id
 _symmetry_equiv_pos_as_xyz
  1  'x, y, z'
loop_
 _atom_site_type_symbol
 _atom_site_label
 _atom_site_symmetry_multiplicity
 _atom_site_fract_x
 _atom_site_fract_y
 _atom_site_fract_z
 _atom_site_occupancy
  La  La0  1  0.500000  0.500000  0.500000  1
  Y  Y1  1  0.000000  0.000000  0.000000  1
  Se  Se2  1  0.256258  0.256258  0.256258  1
  Se  Se3  1  0.743742  0.743742  0.743742  1
