# generated using pymatgen
data_Nd9Er11Si15P
_symmetry_space_group_name_H-M   'P 1'
_cell_length_a   7.69011534
_cell_length_b   7.73249366
_cell_length_c   14.17422000
_cell_angle_alpha   89.17266620
_cell_angle_beta   90.49702663
_cell_angle_gamma   90.14241424
_symmetry_Int_Tables_number   1
_chemical_formula_structural   Nd9Er11Si15P
_chemical_formula_sum   'Nd9 Er11 Si15 P1'
_cell_volume   842.73060628
_cell_formula_units_Z   1
loop_
 _symmetry_equiv_pos_site_id
 _symmetry_equiv_pos_as_xyz
  1  'x, y, z'
loop_
 _atom_site_type_symbol
 _atom_site_label
 _atom_site_symmetry_multiplicity
 _atom_site_fract_x
 _atom_site_fract_y
 _atom_site_fract_z
 _atom_site_occupancy
  Nd  Nd0  1  0.010574  0.858594  0.126852  1
  Nd  Nd1  1  0.638446  0.992762  0.463371  1
  Nd  Nd2  1  0.358204  0.002743  0.955716  1
  Nd  Nd3  1  0.997203  0.647535  0.539089  1
  Nd  Nd4  1  0.493490  0.851332  0.211990  1
  Nd  Nd5  1  0.507547  0.150159  0.710603  1
  Nd  Nd6  1  0.853293  0.494692  0.787805  1
  Nd  Nd7  1  0.138047  0.501194  0.289839  1
  Nd  Nd8  1  0.008390  0.353584  0.040355  1
  Er  Er9  1  0.490703  0.354740  0.123052  1
  Er  Er10  1  0.995136  0.145115  0.627647  1
  Er  Er11  1  0.857892  0.006714  0.872792  1
  Er  Er12  1  0.145109  0.987285  0.382746  1
  Er  Er13  1  0.498724  0.652574  0.618290  1
  Er  Er14  1  0.360856  0.493848  0.873748  1
  Er  Er15  1  0.645989  0.500517  0.375896  1
  Er  Er16  1  0.318059  0.323695  0.499994  1
  Er  Er17  1  0.181047  0.822749  0.748374  1
  Er  Er18  1  0.817898  0.176440  0.252304  1
  Er  Er19  1  0.683449  0.678454  0.999095  1
  Si  Si20  1  0.707278  0.062206  0.059750  1
  Si  Si21  1  0.938378  0.288273  0.440479  1
  Si  Si22  1  0.440170  0.203350  0.313300  1
  Si  Si23  1  0.561833  0.790404  0.809244  1
  Si  Si24  1  0.208927  0.445894  0.686813  1
  Si  Si25  1  0.784791  0.554490  0.188446  1
  Si  Si26  1  0.062151  0.704156  0.934532  1
  Si  Si27  1  0.793743  0.853025  0.683790  1
  Si  Si28  1  0.208244  0.151102  0.194810  1
  Si  Si29  1  0.848462  0.795750  0.319023  1
  Si  Si30  1  0.355052  0.690179  0.423394  1
  Si  Si31  1  0.650505  0.293882  0.936835  1
  Si  Si32  1  0.704212  0.355977  0.565573  1
  Si  Si33  1  0.298761  0.645520  0.057890  1
  Si  Si34  1  0.147826  0.207602  0.814516  1
  P  P35  1  0.289613  0.963461  0.572044  1
