# generated using pymatgen
data_CsMg2H8Ir
_symmetry_space_group_name_H-M   'P 1'
_cell_length_a   5.15134300
_cell_length_b   5.15134300
_cell_length_c   11.20861500
_cell_angle_alpha   90.00000000
_cell_angle_beta   90.00000000
_cell_angle_gamma   90.00000000
_symmetry_Int_Tables_number   1
_chemical_formula_structural   CsMg2H8Ir
_chemical_formula_sum   'Cs2 Mg4 H16 Ir2'
_cell_volume   297.43555920
_cell_formula_units_Z   2
loop_
 _symmetry_equiv_pos_site_id
 _symmetry_equiv_pos_as_xyz
  1  'x, y, z'
loop_
 _atom_site_type_symbol
 _atom_site_label
 _atom_site_symmetry_multiplicity
 _atom_site_fract_x
 _atom_site_fract_y
 _atom_site_fract_z
 _atom_site_occupancy
  Cs  Cs0  1  0.500000  0.000000  0.000000  1
  Cs  Cs1  1  0.000000  0.500000  0.500000  1
  Mg  Mg2  1  0.500000  0.000000  0.632483  1
  Mg  Mg3  1  0.000000  0.500000  0.132483  1
  Mg  Mg4  1  0.500000  0.000000  0.367517  1
  Mg  Mg5  1  0.000000  0.500000  0.867517  1
  H  H6  1  0.231900  0.231900  0.750000  1
  H  H7  1  0.768100  0.768100  0.750000  1
  H  H8  1  0.768100  0.231900  0.250000  1
  H  H9  1  0.231900  0.768100  0.250000  1
  H  H10  1  0.768100  0.768100  0.250000  1
  H  H11  1  0.231900  0.231900  0.250000  1
  H  H12  1  0.231900  0.768100  0.750000  1
  H  H13  1  0.768100  0.231900  0.750000  1
  H  H14  1  0.500000  0.238608  0.500000  1
  H  H15  1  0.500000  0.761392  0.500000  1
  H  H16  1  0.761392  0.500000  0.000000  1
  H  H17  1  0.238608  0.500000  0.000000  1
  H  H18  1  0.000000  0.000000  0.600936  1
  H  H19  1  0.000000  0.000000  0.100936  1
  H  H20  1  0.000000  0.000000  0.399064  1
  H  H21  1  0.000000  0.000000  0.899064  1
  Ir  Ir22  1  0.000000  0.000000  0.750000  1
  Ir  Ir23  1  0.000000  0.000000  0.250000  1
