# generated using pymatgen
data_Ca2Tb2GaSiIr4
_symmetry_space_group_name_H-M   'P 1'
_cell_length_a   5.70611371
_cell_length_b   5.70611167
_cell_length_c   7.63311029
_cell_angle_alpha   79.09009592
_cell_angle_beta   79.09009771
_cell_angle_gamma   58.77158235
_symmetry_Int_Tables_number   1
_chemical_formula_structural   Ca2Tb2GaSiIr4
_chemical_formula_sum   'Ca2 Tb2 Ga1 Si1 Ir4'
_cell_volume   207.44736429
_cell_formula_units_Z   1
loop_
 _symmetry_equiv_pos_site_id
 _symmetry_equiv_pos_as_xyz
  1  'x, y, z'
loop_
 _atom_site_type_symbol
 _atom_site_label
 _atom_site_symmetry_multiplicity
 _atom_site_fract_x
 _atom_site_fract_y
 _atom_site_fract_z
 _atom_site_occupancy
  Ca  Ca0  1  0.009876  0.283921  0.851939  1
  Ca  Ca1  1  0.716079  0.990124  0.648061  1
  Tb  Tb2  1  0.994417  0.714035  0.143321  1
  Tb  Tb3  1  0.285965  0.005583  0.356679  1
  Ga  Ga4  1  0.399309  0.600691  0.750000  1
  Si  Si5  1  0.592950  0.407050  0.250000  1
  Ir  Ir6  1  0.488333  0.774537  0.007245  1
  Ir  Ir7  1  0.225463  0.511667  0.492755  1
  Ir  Ir8  1  0.507741  0.220131  0.026934  1
  Ir  Ir9  1  0.779869  0.492259  0.473066  1
