# generated using pymatgen
data_La12Pr8Si15Cl
_symmetry_space_group_name_H-M   'P 1'
_cell_length_a   8.04994805
_cell_length_b   7.97970377
_cell_length_c   15.38337271
_cell_angle_alpha   89.54967313
_cell_angle_beta   89.10626598
_cell_angle_gamma   90.69299983
_symmetry_Int_Tables_number   1
_chemical_formula_structural   La12Pr8Si15Cl
_chemical_formula_sum   'La12 Pr8 Si15 Cl1'
_cell_volume   987.94491949
_cell_formula_units_Z   1
loop_
 _symmetry_equiv_pos_site_id
 _symmetry_equiv_pos_as_xyz
  1  'x, y, z'
loop_
 _atom_site_type_symbol
 _atom_site_label
 _atom_site_symmetry_multiplicity
 _atom_site_fract_x
 _atom_site_fract_y
 _atom_site_fract_z
 _atom_site_occupancy
  La  La0  1  0.311164  0.311295  0.999634  1
  La  La1  1  0.185697  0.807089  0.249850  1
  La  La2  1  0.796097  0.189081  0.752727  1
  La  La3  1  0.687534  0.687301  0.496929  1
  La  La4  1  0.380842  0.002986  0.441958  1
  La  La5  1  0.499263  0.862977  0.701109  1
  La  La6  1  0.511793  0.122421  0.197605  1
  La  La7  1  0.872796  0.483303  0.299525  1
  La  La8  1  0.124502  0.518149  0.800692  1
  La  La9  1  0.635260  0.986097  0.953265  1
  La  La10  1  0.996359  0.381933  0.546079  1
  La  La11  1  0.994679  0.624095  0.051498  1
  Pr  Pr12  1  0.141523  0.993483  0.873824  1
  Pr  Pr13  1  0.515990  0.630768  0.125059  1
  Pr  Pr14  1  0.479412  0.363763  0.631164  1
  Pr  Pr15  1  0.637343  0.518282  0.876778  1
  Pr  Pr16  1  0.366711  0.480697  0.376562  1
  Pr  Pr17  1  0.870695  0.016089  0.376941  1
  Pr  Pr18  1  0.987076  0.125968  0.123777  1
  Pr  Pr19  1  0.014647  0.871465  0.622097  1
  Si  Si20  1  0.335766  0.702201  0.946237  1
  Si  Si21  1  0.659473  0.300857  0.452232  1
  Si  Si22  1  0.705804  0.336830  0.052816  1
  Si  Si23  1  0.300083  0.663876  0.554435  1
  Si  Si24  1  0.801242  0.832426  0.200625  1
  Si  Si25  1  0.166140  0.196621  0.298904  1
  Si  Si26  1  0.845480  0.802894  0.798772  1
  Si  Si27  1  0.290070  0.921125  0.056627  1
  Si  Si28  1  0.576224  0.784887  0.307153  1
  Si  Si29  1  0.449965  0.209039  0.822774  1
  Si  Si30  1  0.791946  0.579203  0.688725  1
  Si  Si31  1  0.212110  0.421511  0.191876  1
  Si  Si32  1  0.703982  0.075588  0.560209  1
  Si  Si33  1  0.927285  0.292031  0.941065  1
  Si  Si34  1  0.077362  0.711284  0.442942  1
  Cl  Cl35  1  0.147686  0.192389  0.687540  1
