# generated using pymatgen
data_Ta2Mo13W
_symmetry_space_group_name_H-M   'P 1'
_cell_length_a   6.37800400
_cell_length_b   6.36950400
_cell_length_c   6.36950400
_cell_angle_alpha   90.00000000
_cell_angle_beta   90.00000000
_cell_angle_gamma   90.00000000
_symmetry_Int_Tables_number   1
_chemical_formula_structural   Ta2Mo13W
_chemical_formula_sum   'Ta2 Mo13 W1'
_cell_volume   258.75932921
_cell_formula_units_Z   1
loop_
 _symmetry_equiv_pos_site_id
 _symmetry_equiv_pos_as_xyz
  1  'x, y, z'
loop_
 _atom_site_type_symbol
 _atom_site_label
 _atom_site_symmetry_multiplicity
 _atom_site_fract_x
 _atom_site_fract_y
 _atom_site_fract_z
 _atom_site_occupancy
  Ta  Ta0  1  0.000000  0.500000  0.000000  1
  Ta  Ta1  1  0.000000  0.000000  0.500000  1
  Mo  Mo2  1  0.000000  0.000000  0.000000  1
  Mo  Mo3  1  0.500000  0.500000  0.000000  1
  Mo  Mo4  1  0.252598  0.250156  0.250156  1
  Mo  Mo5  1  0.747401  0.250156  0.250156  1
  Mo  Mo6  1  0.252598  0.749843  0.250156  1
  Mo  Mo7  1  0.747401  0.749843  0.250156  1
  Mo  Mo8  1  0.500000  0.000000  0.500000  1
  Mo  Mo9  1  0.000000  0.500000  0.500000  1
  Mo  Mo10  1  0.500000  0.500000  0.500000  1
  Mo  Mo11  1  0.252598  0.250156  0.749843  1
  Mo  Mo12  1  0.747401  0.250156  0.749843  1
  Mo  Mo13  1  0.252598  0.749843  0.749843  1
  Mo  Mo14  1  0.747401  0.749843  0.749843  1
  W  W15  1  0.500000  0.000000  0.000000  1
