# generated using pymatgen
data_Pm2TaOs3
_symmetry_space_group_name_H-M   'P 1'
_cell_length_a   5.67796431
_cell_length_b   5.36696942
_cell_length_c   5.67796500
_cell_angle_alpha   58.06390814
_cell_angle_beta   60.00001345
_cell_angle_gamma   58.06391322
_symmetry_Int_Tables_number   1
_chemical_formula_structural   Pm2TaOs3
_chemical_formula_sum   'Pm2 Ta1 Os3'
_cell_volume   118.64518345
_cell_formula_units_Z   1
loop_
 _symmetry_equiv_pos_site_id
 _symmetry_equiv_pos_as_xyz
  1  'x, y, z'
loop_
 _atom_site_type_symbol
 _atom_site_label
 _atom_site_symmetry_multiplicity
 _atom_site_fract_x
 _atom_site_fract_y
 _atom_site_fract_z
 _atom_site_occupancy
  Pm  Pm0  1  0.749005  0.752985  0.749005  1
  Pm  Pm1  1  0.500995  0.497015  0.500995  1
  Ta  Ta2  1  0.125000  0.625000  0.125000  1
  Os  Os3  1  0.125000  0.125000  0.125000  1
  Os  Os4  1  0.625000  0.125000  0.125000  1
  Os  Os5  1  0.125000  0.125000  0.625000  1
