# generated using pymatgen
data_Sr6Co4SbO15
_symmetry_space_group_name_H-M   'P 1'
_cell_length_a   6.98480939
_cell_length_b   6.98480932
_cell_length_c   6.98480924
_cell_angle_alpha   87.44572469
_cell_angle_beta   87.44572190
_cell_angle_gamma   87.44571690
_symmetry_Int_Tables_number   1
_chemical_formula_structural   Sr6Co4SbO15
_chemical_formula_sum   'Sr6 Co4 Sb1 O15'
_cell_volume   339.78533057
_cell_formula_units_Z   1
loop_
 _symmetry_equiv_pos_site_id
 _symmetry_equiv_pos_as_xyz
  1  'x, y, z'
loop_
 _atom_site_type_symbol
 _atom_site_label
 _atom_site_symmetry_multiplicity
 _atom_site_fract_x
 _atom_site_fract_y
 _atom_site_fract_z
 _atom_site_occupancy
  Sr  Sr0  1  0.500000  0.865843  0.134157  1
  Sr  Sr1  1  0.134157  0.500000  0.865843  1
  Sr  Sr2  1  0.865843  0.134157  0.500000  1
  Sr  Sr3  1  0.000000  0.679898  0.320102  1
  Sr  Sr4  1  0.320102  0.000000  0.679898  1
  Sr  Sr5  1  0.679898  0.320102  0.000000  1
  Co  Co6  1  0.711726  0.711726  0.711726  1
  Co  Co7  1  0.288274  0.288274  0.288274  1
  Co  Co8  1  0.907128  0.907128  0.907128  1
  Co  Co9  1  0.092872  0.092872  0.092872  1
  Sb  Sb10  1  0.500000  0.500000  0.500000  1
  O  O11  1  0.361743  0.555698  0.251430  1
  O  O12  1  0.251430  0.361743  0.555698  1
  O  O13  1  0.555698  0.251430  0.361743  1
  O  O14  1  0.638257  0.748570  0.444302  1
  O  O15  1  0.444302  0.638257  0.748570  1
  O  O16  1  0.748570  0.444302  0.638257  1
  O  O17  1  0.202470  0.028521  0.338184  1
  O  O18  1  0.338184  0.202470  0.028521  1
  O  O19  1  0.028521  0.338184  0.202470  1
  O  O20  1  0.797530  0.661816  0.971479  1
  O  O21  1  0.971479  0.797530  0.661816  1
  O  O22  1  0.155140  0.844860  0.000000  1
  O  O23  1  0.844860  0.000000  0.155140  1
  O  O24  1  0.000000  0.155140  0.844860  1
  O  O25  1  0.661816  0.971479  0.797530  1
