# generated using pymatgen
data_Nd6YVO12
_symmetry_space_group_name_H-M   'P 1'
_cell_length_a   6.87011464
_cell_length_b   6.87011494
_cell_length_c   6.87011475
_cell_angle_alpha   93.68783696
_cell_angle_beta   93.68783840
_cell_angle_gamma   93.68784319
_symmetry_Int_Tables_number   1
_chemical_formula_structural   Nd6YVO12
_chemical_formula_sum   'Nd6 Y1 V1 O12'
_cell_volume   322.15358274
_cell_formula_units_Z   1
loop_
 _symmetry_equiv_pos_site_id
 _symmetry_equiv_pos_as_xyz
  1  'x, y, z'
loop_
 _atom_site_type_symbol
 _atom_site_label
 _atom_site_symmetry_multiplicity
 _atom_site_fract_x
 _atom_site_fract_y
 _atom_site_fract_z
 _atom_site_occupancy
  Nd  Nd0  1  0.737858  0.923328  0.434705  1
  Nd  Nd1  1  0.434705  0.737858  0.923328  1
  Nd  Nd2  1  0.076672  0.565295  0.262142  1
  Nd  Nd3  1  0.923328  0.434705  0.737858  1
  Nd  Nd4  1  0.565295  0.262142  0.076672  1
  Nd  Nd5  1  0.262142  0.076672  0.565295  1
  Y  Y6  1  0.000000  0.000000  0.000000  1
  V  V7  1  0.500000  0.500000  0.500000  1
  O  O8  1  0.064902  0.911281  0.313106  1
  O  O9  1  0.686894  0.935098  0.088719  1
  O  O10  1  0.459953  0.793100  0.585355  1
  O  O11  1  0.088719  0.686894  0.935098  1
  O  O12  1  0.793100  0.585355  0.459953  1
  O  O13  1  0.414645  0.540047  0.206900  1
  O  O14  1  0.585355  0.459953  0.793100  1
  O  O15  1  0.206900  0.414645  0.540047  1
  O  O16  1  0.911281  0.313106  0.064902  1
  O  O17  1  0.540047  0.206900  0.414645  1
  O  O18  1  0.313106  0.064902  0.911281  1
  O  O19  1  0.935098  0.088719  0.686894  1
