# generated using pymatgen
data_Lu8MoW3C8
_symmetry_space_group_name_H-M   'P 1'
_cell_length_a   5.66586807
_cell_length_b   5.66586775
_cell_length_c   9.65266700
_cell_angle_alpha   90.00000000
_cell_angle_beta   90.00000000
_cell_angle_gamma   90.00582477
_symmetry_Int_Tables_number   1
_chemical_formula_structural   Lu8MoW3C8
_chemical_formula_sum   'Lu8 Mo1 W3 C8'
_cell_volume   309.87048541
_cell_formula_units_Z   1
loop_
 _symmetry_equiv_pos_site_id
 _symmetry_equiv_pos_as_xyz
  1  'x, y, z'
loop_
 _atom_site_type_symbol
 _atom_site_label
 _atom_site_symmetry_multiplicity
 _atom_site_fract_x
 _atom_site_fract_y
 _atom_site_fract_z
 _atom_site_occupancy
  Lu  Lu0  1  0.298904  0.701096  0.158076  1
  Lu  Lu1  1  0.700879  0.299121  0.841641  1
  Lu  Lu2  1  0.799032  0.797671  0.341944  1
  Lu  Lu3  1  0.202329  0.200968  0.658056  1
  Lu  Lu4  1  0.700879  0.299121  0.158359  1
  Lu  Lu5  1  0.298904  0.701096  0.841924  1
  Lu  Lu6  1  0.202329  0.200968  0.341944  1
  Lu  Lu7  1  0.799032  0.797671  0.658056  1
  Mo  Mo8  1  0.678068  0.321932  0.500000  1
  W  W9  1  0.322737  0.677263  0.500000  1
  W  W10  1  0.821232  0.821619  0.000000  1
  W  W11  1  0.178381  0.178768  0.000000  1
  C  C12  1  0.999832  0.000168  0.839521  1
  C  C13  1  0.498630  0.501370  0.660776  1
  C  C14  1  0.498630  0.501370  0.339224  1
  C  C15  1  0.500020  0.000153  0.000000  1
  C  C16  1  0.499728  0.999224  0.500000  1
  C  C17  1  0.999847  0.499980  0.000000  1
  C  C18  1  0.000776  0.500272  0.500000  1
  C  C19  1  0.999832  0.000168  0.160479  1
