# generated using pymatgen
data_Pr19LuSi15Hg
_symmetry_space_group_name_H-M   'P 1'
_cell_length_a   7.94100296
_cell_length_b   7.93169830
_cell_length_c   15.29279120
_cell_angle_alpha   90.10504401
_cell_angle_beta   89.61049664
_cell_angle_gamma   89.91678742
_symmetry_Int_Tables_number   1
_chemical_formula_structural   Pr19LuSi15Hg
_chemical_formula_sum   'Pr19 Lu1 Si15 Hg1'
_cell_volume   963.20132569
_cell_formula_units_Z   1
loop_
 _symmetry_equiv_pos_site_id
 _symmetry_equiv_pos_as_xyz
  1  'x, y, z'
loop_
 _atom_site_type_symbol
 _atom_site_label
 _atom_site_symmetry_multiplicity
 _atom_site_fract_x
 _atom_site_fract_y
 _atom_site_fract_z
 _atom_site_occupancy
  Pr  Pr0  1  0.193736  0.807965  0.249215  1
  Pr  Pr1  1  0.797592  0.186991  0.752763  1
  Pr  Pr2  1  0.693438  0.690848  0.497765  1
  Pr  Pr3  1  0.374248  0.013015  0.448257  1
  Pr  Pr4  1  0.491942  0.868388  0.699953  1
  Pr  Pr5  1  0.509807  0.123337  0.196439  1
  Pr  Pr6  1  0.878910  0.488740  0.300056  1
  Pr  Pr7  1  0.120080  0.517812  0.804895  1
  Pr  Pr8  1  0.626396  0.986618  0.951676  1
  Pr  Pr9  1  0.001563  0.383215  0.547281  1
  Pr  Pr10  1  0.989566  0.625473  0.052578  1
  Pr  Pr11  1  0.130506  0.980862  0.880138  1
  Pr  Pr12  1  0.519720  0.629498  0.125972  1
  Pr  Pr13  1  0.484807  0.378261  0.626729  1
  Pr  Pr14  1  0.629206  0.520438  0.876918  1
  Pr  Pr15  1  0.374139  0.482040  0.370846  1
  Pr  Pr16  1  0.872687  0.019985  0.375169  1
  Pr  Pr17  1  0.982559  0.127217  0.123388  1
  Pr  Pr18  1  0.009955  0.860450  0.621349  1
  Lu  Lu19  1  0.310328  0.311352  0.999800  1
  Si  Si20  1  0.329617  0.690203  0.954595  1
  Si  Si21  1  0.662733  0.302946  0.450634  1
  Si  Si22  1  0.694615  0.331212  0.047986  1
  Si  Si23  1  0.306615  0.669654  0.545775  1
  Si  Si24  1  0.806624  0.831566  0.202330  1
  Si  Si25  1  0.169032  0.196158  0.296862  1
  Si  Si26  1  0.833771  0.804121  0.799389  1
  Si  Si27  1  0.288945  0.926645  0.059928  1
  Si  Si28  1  0.579605  0.788190  0.309131  1
  Si  Si29  1  0.427920  0.213654  0.821552  1
  Si  Si30  1  0.785662  0.577334  0.691930  1
  Si  Si31  1  0.215451  0.417994  0.185563  1
  Si  Si32  1  0.708792  0.079483  0.559413  1
  Si  Si33  1  0.928772  0.290575  0.942019  1
  Si  Si34  1  0.080193  0.713383  0.438298  1
  Hg  Hg35  1  0.190465  0.164381  0.693407  1
