# generated using pymatgen
data_Yb11Pr8LuPt16
_symmetry_space_group_name_H-M   'P 1'
_cell_length_a   7.55862122
_cell_length_b   7.73933465
_cell_length_c   14.50417400
_cell_angle_alpha   89.95671353
_cell_angle_beta   90.11496881
_cell_angle_gamma   90.11820463
_symmetry_Int_Tables_number   1
_chemical_formula_structural   Yb11Pr8LuPt16
_chemical_formula_sum   'Yb11 Pr8 Lu1 Pt16'
_cell_volume   848.47155762
_cell_formula_units_Z   1
loop_
 _symmetry_equiv_pos_site_id
 _symmetry_equiv_pos_as_xyz
  1  'x, y, z'
loop_
 _atom_site_type_symbol
 _atom_site_label
 _atom_site_symmetry_multiplicity
 _atom_site_fract_x
 _atom_site_fract_y
 _atom_site_fract_z
 _atom_site_occupancy
  Yb  Yb0  1  0.334575  0.167529  0.624855  1
  Yb  Yb1  1  0.664742  0.831500  0.375162  1
  Yb  Yb2  1  0.668833  0.003807  0.750665  1
  Yb  Yb3  1  0.165639  0.666481  0.374735  1
  Yb  Yb4  1  0.835338  0.333084  0.876835  1
  Yb  Yb5  1  0.834167  0.331793  0.624724  1
  Yb  Yb6  1  0.832417  0.502068  0.249939  1
  Yb  Yb7  1  0.328621  0.996676  0.249883  1
  Yb  Yb8  1  0.334724  0.166186  0.876815  1
  Yb  Yb9  1  0.164537  0.667975  0.123009  1
  Yb  Yb10  1  0.168451  0.494774  0.750281  1
  Pr  Pr11  1  0.006742  0.181212  0.403008  1
  Pr  Pr12  1  0.506902  0.318738  0.403118  1
  Pr  Pr13  1  0.493042  0.678209  0.903690  1
  Pr  Pr14  1  0.493707  0.678808  0.597565  1
  Pr  Pr15  1  0.992890  0.820599  0.596986  1
  Pr  Pr16  1  0.994242  0.820536  0.903263  1
  Pr  Pr17  1  0.507116  0.321451  0.096287  1
  Pr  Pr18  1  0.007784  0.178632  0.095986  1
  Lu  Lu19  1  0.665313  0.833411  0.125723  1
  Pt  Pt20  1  0.296249  0.855752  0.750173  1
  Pt  Pt21  1  0.466456  0.619049  0.244501  1
  Pt  Pt22  1  0.036171  0.113170  0.750832  1
  Pt  Pt23  1  0.536643  0.385494  0.751630  1
  Pt  Pt24  1  0.176184  0.466455  0.538441  1
  Pt  Pt25  1  0.958884  0.883040  0.246592  1
  Pt  Pt26  1  0.700960  0.141275  0.247701  1
  Pt  Pt27  1  0.817501  0.547112  0.038657  1
  Pt  Pt28  1  0.332553  0.963669  0.041073  1
  Pt  Pt29  1  0.172107  0.464374  0.961124  1
  Pt  Pt30  1  0.673965  0.032881  0.539383  1
  Pt  Pt31  1  0.322957  0.966711  0.460013  1
  Pt  Pt32  1  0.823825  0.532101  0.460647  1
  Pt  Pt33  1  0.796045  0.644085  0.749855  1
  Pt  Pt34  1  0.206956  0.358343  0.250318  1
  Pt  Pt35  1  0.682765  0.033020  0.966534  1
