# generated using pymatgen
data_Y5Tc5(P6Ir7)2
_symmetry_space_group_name_H-M   'P 1'
_cell_length_a   12.63034207
_cell_length_b   12.72713467
_cell_length_c   3.98483000
_cell_angle_alpha   90.00000000
_cell_angle_beta   90.00000000
_cell_angle_gamma   120.13074531
_symmetry_Int_Tables_number   1
_chemical_formula_structural   Y5Tc5(P6Ir7)2
_chemical_formula_sum   'Y5 Tc5 P12 Ir14'
_cell_volume   554.00349033
_cell_formula_units_Z   1
loop_
 _symmetry_equiv_pos_site_id
 _symmetry_equiv_pos_as_xyz
  1  'x, y, z'
loop_
 _atom_site_type_symbol
 _atom_site_label
 _atom_site_symmetry_multiplicity
 _atom_site_fract_x
 _atom_site_fract_y
 _atom_site_fract_z
 _atom_site_occupancy
  Y  Y0  1  0.334271  0.667947  0.500000  1
  Y  Y1  1  0.666610  0.333446  0.500000  1
  Y  Y2  1  0.999404  0.811079  0.000000  1
  Y  Y3  1  0.186547  0.185066  0.000000  1
  Y  Y4  1  0.810816  0.998586  0.000000  1
  Tc  Tc5  1  0.996765  0.450304  0.500000  1
  Tc  Tc6  1  0.548356  0.544872  0.500000  1
  Tc  Tc7  1  0.456871  0.008943  0.500000  1
  Tc  Tc8  1  0.620686  0.799302  0.500000  1
  Tc  Tc9  1  0.201066  0.821948  0.500000  1
  P  P10  1  0.006384  0.639770  0.500000  1
  P  P11  1  0.363678  0.364874  0.500000  1
  P  P12  1  0.633088  0.993576  0.500000  1
  P  P13  1  0.520302  0.693780  0.000000  1
  P  P14  1  0.308241  0.829982  0.000000  1
  P  P15  1  0.169782  0.483250  0.000000  1
  P  P16  1  0.483306  0.169480  0.000000  1
  P  P17  1  0.685956  0.516569  0.000000  1
  P  P18  1  0.832342  0.314816  0.000000  1
  P  P19  1  0.999047  0.176539  0.500000  1
  P  P20  1  0.817255  0.820397  0.500000  1
  P  P21  1  0.177240  0.993839  0.500000  1
  Ir  Ir22  1  0.507918  0.874543  0.000000  1
  Ir  Ir23  1  0.127763  0.636024  0.000000  1
  Ir  Ir24  1  0.361757  0.493855  0.000000  1
  Ir  Ir25  1  0.490809  0.359158  0.000000  1
  Ir  Ir26  1  0.866073  0.506430  0.000000  1
  Ir  Ir27  1  0.643150  0.136273  0.000000  1
  Ir  Ir28  1  0.000299  0.285670  0.000000  1
  Ir  Ir29  1  0.716217  0.710976  0.000000  1
  Ir  Ir30  1  0.287446  0.005160  0.000000  1
  Ir  Ir31  1  0.179975  0.375082  0.500000  1
  Ir  Ir32  1  0.374288  0.183563  0.500000  1
  Ir  Ir33  1  0.807299  0.622668  0.500000  1
  Ir  Ir34  1  0.819357  0.192914  0.500000  1
  Ir  Ir35  1  0.999637  0.999316  0.500000  1
