# generated using pymatgen
data_K2Al3SiAu6
_symmetry_space_group_name_H-M   'P 1'
_cell_length_a   5.62411329
_cell_length_b   7.11253742
_cell_length_c   13.42460800
_cell_angle_alpha   90.00000000
_cell_angle_beta   90.00000000
_cell_angle_gamma   89.98225412
_symmetry_Int_Tables_number   1
_chemical_formula_structural   K2Al3SiAu6
_chemical_formula_sum   'K4 Al6 Si2 Au12'
_cell_volume   537.00733432
_cell_formula_units_Z   2
loop_
 _symmetry_equiv_pos_site_id
 _symmetry_equiv_pos_as_xyz
  1  'x, y, z'
loop_
 _atom_site_type_symbol
 _atom_site_label
 _atom_site_symmetry_multiplicity
 _atom_site_fract_x
 _atom_site_fract_y
 _atom_site_fract_z
 _atom_site_occupancy
  K  K0  1  0.249866  0.107388  0.075975  1
  K  K1  1  0.250134  0.392612  0.575975  1
  K  K2  1  0.750116  0.891900  0.923775  1
  K  K3  1  0.749884  0.608100  0.423775  1
  Al  Al4  1  0.999468  0.900996  0.657868  1
  Al  Al5  1  0.500532  0.599004  0.157868  1
  Al  Al6  1  0.500769  0.099865  0.339768  1
  Al  Al7  1  0.999231  0.400135  0.839768  1
  Al  Al8  1  0.003427  0.097060  0.345839  1
  Al  Al9  1  0.496573  0.402940  0.845839  1
  Si  Si10  1  0.498519  0.899084  0.657463  1
  Si  Si11  1  0.001481  0.600916  0.157463  1
  Au  Au12  1  0.252832  0.114121  0.786491  1
  Au  Au13  1  0.247168  0.385879  0.286491  1
  Au  Au14  1  0.756510  0.884684  0.210379  1
  Au  Au15  1  0.743490  0.615316  0.710379  1
  Au  Au16  1  0.248580  0.695102  0.787843  1
  Au  Au17  1  0.251420  0.804898  0.287843  1
  Au  Au18  1  0.757020  0.305606  0.212174  1
  Au  Au19  1  0.742980  0.194394  0.712174  1
  Au  Au20  1  0.243267  0.575183  0.999365  1
  Au  Au21  1  0.256733  0.924817  0.499365  1
  Au  Au22  1  0.749371  0.419355  0.003064  1
  Au  Au23  1  0.750629  0.080645  0.503064  1
