# generated using pymatgen
data_Y3Ho10Lu7Bi12
_symmetry_space_group_name_H-M   'P 1'
_cell_length_a   8.18929568
_cell_length_b   9.47044688
_cell_length_c   11.99240116
_cell_angle_alpha   89.98248048
_cell_angle_beta   90.05344948
_cell_angle_gamma   89.98233938
_symmetry_Int_Tables_number   1
_chemical_formula_structural   Y3Ho10Lu7Bi12
_chemical_formula_sum   'Y3 Ho10 Lu7 Bi12'
_cell_volume   930.08564719
_cell_formula_units_Z   1
loop_
 _symmetry_equiv_pos_site_id
 _symmetry_equiv_pos_as_xyz
  1  'x, y, z'
loop_
 _atom_site_type_symbol
 _atom_site_label
 _atom_site_symmetry_multiplicity
 _atom_site_fract_x
 _atom_site_fract_y
 _atom_site_fract_z
 _atom_site_occupancy
  Y  Y0  1  0.853267  0.750717  0.283443  1
  Y  Y1  1  0.645596  0.250627  0.783826  1
  Y  Y2  1  0.146190  0.250472  0.716379  1
  Ho  Ho3  1  0.186224  0.750361  0.719120  1
  Ho  Ho4  1  0.686559  0.750714  0.781703  1
  Ho  Ho5  1  0.813816  0.249679  0.281309  1
  Ho  Ho6  1  0.313669  0.250295  0.218653  1
  Ho  Ho7  1  0.192353  0.564343  0.440668  1
  Ho  Ho8  1  0.693310  0.562496  0.059145  1
  Ho  Ho9  1  0.193692  0.936766  0.440084  1
  Ho  Ho10  1  0.306501  0.062331  0.940884  1
  Ho  Ho11  1  0.807022  0.437337  0.559263  1
  Ho  Ho12  1  0.356143  0.751845  0.216031  1
  Lu  Lu13  1  0.024177  0.750315  0.989097  1
  Lu  Lu14  1  0.525178  0.750414  0.510935  1
  Lu  Lu15  1  0.975659  0.250429  0.010853  1
  Lu  Lu16  1  0.476023  0.250021  0.488963  1
  Lu  Lu17  1  0.307137  0.432046  0.940954  1
  Lu  Lu18  1  0.806325  0.067355  0.559542  1
  Lu  Lu19  1  0.692674  0.932203  0.058715  1
  Bi  Bi20  1  0.434288  0.003350  0.672006  1
  Bi  Bi21  1  0.933864  0.497058  0.828254  1
  Bi  Bi22  1  0.566077  0.503659  0.327674  1
  Bi  Bi23  1  0.065997  0.997035  0.171758  1
  Bi  Bi24  1  0.566684  0.996929  0.328196  1
  Bi  Bi25  1  0.066870  0.504089  0.171468  1
  Bi  Bi26  1  0.433014  0.497025  0.671731  1
  Bi  Bi27  1  0.933179  0.003978  0.828488  1
  Bi  Bi28  1  0.405274  0.745988  0.957188  1
  Bi  Bi29  1  0.905964  0.754175  0.542845  1
  Bi  Bi30  1  0.594348  0.246306  0.042788  1
  Bi  Bi31  1  0.092925  0.249642  0.458039  1
