# generated using pymatgen
data_NaDy6CoSn23Ir5
_symmetry_space_group_name_H-M   'P 1'
_cell_length_a   9.85916207
_cell_length_b   9.88152688
_cell_length_c   10.07300000
_cell_angle_alpha   89.99999820
_cell_angle_beta   89.94225284
_cell_angle_gamma   120.07506687
_symmetry_Int_Tables_number   1
_chemical_formula_structural   NaDy6CoSn23Ir5
_chemical_formula_sum   'Na1 Dy6 Co1 Sn23 Ir5'
_cell_volume   849.22784468
_cell_formula_units_Z   1
loop_
 _symmetry_equiv_pos_site_id
 _symmetry_equiv_pos_as_xyz
  1  'x, y, z'
loop_
 _atom_site_type_symbol
 _atom_site_label
 _atom_site_symmetry_multiplicity
 _atom_site_fract_x
 _atom_site_fract_y
 _atom_site_fract_z
 _atom_site_occupancy
  Na  Na0  1  0.005339  0.002669  0.003473  1
  Dy  Dy1  1  0.481799  0.517742  0.305487  1
  Dy  Dy2  1  0.517968  0.482113  0.694156  1
  Dy  Dy3  1  0.481799  0.964057  0.305487  1
  Dy  Dy4  1  0.517968  0.035855  0.694156  1
  Dy  Dy5  1  0.035306  0.517653  0.304922  1
  Dy  Dy6  1  0.963507  0.481754  0.694875  1
  Co  Co7  1  0.655832  0.827916  0.797204  1
  Sn  Sn8  1  0.352482  0.000283  0.999170  1
  Sn  Sn9  1  0.651053  0.993948  0.995539  1
  Sn  Sn10  1  0.999826  0.350049  0.999854  1
  Sn  Sn11  1  0.999826  0.649776  0.999854  1
  Sn  Sn12  1  0.651053  0.657106  0.995539  1
  Sn  Sn13  1  0.352482  0.352199  0.999170  1
  Sn  Sn14  1  0.339509  0.669755  0.822431  1
  Sn  Sn15  1  0.666090  0.333044  0.172893  1
  Sn  Sn16  1  0.999624  0.999812  0.500748  1
  Sn  Sn17  1  0.779563  0.221417  0.462542  1
  Sn  Sn18  1  0.221029  0.777893  0.537476  1
  Sn  Sn19  1  0.779563  0.558147  0.462542  1
  Sn  Sn20  1  0.221029  0.443137  0.537476  1
  Sn  Sn21  1  0.443883  0.221941  0.462867  1
  Sn  Sn22  1  0.561984  0.780993  0.544119  1
  Sn  Sn23  1  0.333837  0.666919  0.119172  1
  Sn  Sn24  1  0.665145  0.332572  0.879037  1
  Sn  Sn25  1  0.115151  0.882985  0.280087  1
  Sn  Sn26  1  0.878731  0.109337  0.725187  1
  Sn  Sn27  1  0.115151  0.232166  0.280087  1
  Sn  Sn28  1  0.878731  0.769394  0.725187  1
  Sn  Sn29  1  0.767104  0.883552  0.280602  1
  Sn  Sn30  1  0.231085  0.115543  0.719107  1
  Ir  Ir31  1  0.825266  0.170421  0.202289  1
  Ir  Ir32  1  0.171053  0.826943  0.795746  1
  Ir  Ir33  1  0.825266  0.654844  0.202289  1
  Ir  Ir34  1  0.171053  0.344111  0.795746  1
  Ir  Ir35  1  0.343917  0.171957  0.203488  1
