# generated using pymatgen
data_Yb(Y3Ir2)3
_symmetry_space_group_name_H-M   'P 1'
_cell_length_a   6.38700100
_cell_length_b   10.93469900
_cell_length_c   10.93469900
_cell_angle_alpha   90.00000000
_cell_angle_beta   90.00000000
_cell_angle_gamma   90.00000000
_symmetry_Int_Tables_number   1
_chemical_formula_structural   Yb(Y3Ir2)3
_chemical_formula_sum   'Yb2 Y18 Ir12'
_cell_volume   763.67865043
_cell_formula_units_Z   2
loop_
 _symmetry_equiv_pos_site_id
 _symmetry_equiv_pos_as_xyz
  1  'x, y, z'
loop_
 _atom_site_type_symbol
 _atom_site_label
 _atom_site_symmetry_multiplicity
 _atom_site_fract_x
 _atom_site_fract_y
 _atom_site_fract_z
 _atom_site_occupancy
  Yb  Yb0  1  0.000000  0.250000  0.750000  1
  Yb  Yb1  1  0.500000  0.250000  0.750000  1
  Y  Y2  1  0.381904  0.839281  0.541361  1
  Y  Y3  1  0.881904  0.660719  0.541361  1
  Y  Y4  1  0.881904  0.839281  0.958639  1
  Y  Y5  1  0.381904  0.660719  0.958639  1
  Y  Y6  1  0.883410  0.540442  0.837986  1
  Y  Y7  1  0.383410  0.959558  0.837986  1
  Y  Y8  1  0.383410  0.540442  0.662014  1
  Y  Y9  1  0.883410  0.959558  0.662014  1
  Y  Y10  1  0.616590  0.162014  0.459559  1
  Y  Y11  1  0.116590  0.337986  0.459559  1
  Y  Y12  1  0.116590  0.162014  0.040442  1
  Y  Y13  1  0.616590  0.337986  0.040442  1
  Y  Y14  1  0.118096  0.458640  0.160719  1
  Y  Y15  1  0.618096  0.041361  0.160719  1
  Y  Y16  1  0.618096  0.458640  0.339281  1
  Y  Y17  1  0.118096  0.041361  0.339281  1
  Y  Y18  1  0.500000  0.750000  0.250000  1
  Y  Y19  1  0.000000  0.750000  0.250000  1
  Ir  Ir20  1  0.250000  0.903286  0.096714  1
  Ir  Ir21  1  0.750000  0.596714  0.096714  1
  Ir  Ir22  1  0.750000  0.903286  0.403286  1
  Ir  Ir23  1  0.250000  0.596714  0.403286  1
  Ir  Ir24  1  0.750000  0.092585  0.907415  1
  Ir  Ir25  1  0.250000  0.407415  0.907415  1
  Ir  Ir26  1  0.250000  0.092585  0.592585  1
  Ir  Ir27  1  0.750000  0.407415  0.592585  1
  Ir  Ir28  1  0.125881  0.750000  0.750000  1
  Ir  Ir29  1  0.625881  0.750000  0.750000  1
  Ir  Ir30  1  0.874119  0.250000  0.250000  1
  Ir  Ir31  1  0.374119  0.250000  0.250000  1
