# generated using pymatgen
data_Ca5Dy(BiO6)2
_symmetry_space_group_name_H-M   'P 1'
_cell_length_a   6.79548035
_cell_length_b   6.78509610
_cell_length_c   6.78693800
_cell_angle_alpha   92.03118371
_cell_angle_beta   91.68009835
_cell_angle_gamma   91.77312380
_symmetry_Int_Tables_number   1
_chemical_formula_structural   Ca5Dy(BiO6)2
_chemical_formula_sum   'Ca5 Dy1 Bi2 O12'
_cell_volume   312.44074458
_cell_formula_units_Z   1
loop_
 _symmetry_equiv_pos_site_id
 _symmetry_equiv_pos_as_xyz
  1  'x, y, z'
loop_
 _atom_site_type_symbol
 _atom_site_label
 _atom_site_symmetry_multiplicity
 _atom_site_fract_x
 _atom_site_fract_y
 _atom_site_fract_z
 _atom_site_occupancy
  Ca  Ca0  1  0.747022  0.937173  0.441975  1
  Ca  Ca1  1  0.556294  0.251848  0.064057  1
  Ca  Ca2  1  0.253339  0.060528  0.556369  1
  Ca  Ca3  1  0.064205  0.560449  0.253134  1
  Ca  Ca4  1  0.441966  0.746307  0.937416  1
  Dy  Dy5  1  0.936434  0.439447  0.747124  1
  Bi  Bi6  1  0.998731  0.999715  0.998587  1
  Bi  Bi7  1  0.498621  0.500083  0.500216  1
  O  O8  1  0.296358  0.061586  0.924121  1
  O  O9  1  0.064018  0.922418  0.295512  1
  O  O10  1  0.924517  0.304644  0.057109  1
  O  O11  1  0.701691  0.936065  0.074931  1
  O  O12  1  0.934587  0.089887  0.699973  1
  O  O13  1  0.069017  0.694254  0.925228  1
  O  O14  1  0.196534  0.411333  0.548440  1
  O  O15  1  0.410338  0.540511  0.201963  1
  O  O16  1  0.461045  0.798262  0.590903  1
  O  O17  1  0.600636  0.458545  0.799060  1
  O  O18  1  0.805578  0.585676  0.472088  1
  O  O19  1  0.539069  0.201270  0.411794  1
