# generated using pymatgen
data_Nb9InS16
_symmetry_space_group_name_H-M   'P 1'
_cell_length_a   6.65488200
_cell_length_b   6.65488261
_cell_length_c   13.63407100
_cell_angle_alpha   90.00000000
_cell_angle_beta   90.00000000
_cell_angle_gamma   120.00000690
_symmetry_Int_Tables_number   1
_chemical_formula_structural   Nb9InS16
_chemical_formula_sum   'Nb9 In1 S16'
_cell_volume   522.92199717
_cell_formula_units_Z   1
loop_
 _symmetry_equiv_pos_site_id
 _symmetry_equiv_pos_as_xyz
  1  'x, y, z'
loop_
 _atom_site_type_symbol
 _atom_site_label
 _atom_site_symmetry_multiplicity
 _atom_site_fract_x
 _atom_site_fract_y
 _atom_site_fract_z
 _atom_site_occupancy
  Nb  Nb0  1  0.000000  0.000000  0.272001  1
  Nb  Nb1  1  0.000000  0.000000  0.727999  1
  Nb  Nb2  1  0.503611  0.007222  0.270493  1
  Nb  Nb3  1  0.496389  0.992778  0.729507  1
  Nb  Nb4  1  0.992778  0.496389  0.270493  1
  Nb  Nb5  1  0.007222  0.503611  0.729507  1
  Nb  Nb6  1  0.503611  0.496389  0.270493  1
  Nb  Nb7  1  0.496389  0.503611  0.729507  1
  Nb  Nb8  1  0.000000  0.000000  0.500000  1
  In  In9  1  0.000000  0.000000  0.000000  1
  S  S10  1  0.333333  0.666667  0.612844  1
  S  S11  1  0.666667  0.333333  0.387156  1
  S  S12  1  0.666667  0.333333  0.153442  1
  S  S13  1  0.333333  0.666667  0.846558  1
  S  S14  1  0.165747  0.331494  0.155958  1
  S  S15  1  0.834253  0.668506  0.844042  1
  S  S16  1  0.668506  0.834253  0.155958  1
  S  S17  1  0.831357  0.662714  0.612188  1
  S  S18  1  0.331494  0.165747  0.844042  1
  S  S19  1  0.168643  0.337286  0.387812  1
  S  S20  1  0.165747  0.834253  0.155958  1
  S  S21  1  0.337286  0.168643  0.612188  1
  S  S22  1  0.834253  0.165747  0.844042  1
  S  S23  1  0.662714  0.831357  0.387812  1
  S  S24  1  0.831357  0.168643  0.612188  1
  S  S25  1  0.168643  0.831357  0.387812  1
