# generated using pymatgen
data_Tb3SmTl4
_symmetry_space_group_name_H-M   'P 1'
_cell_length_a   6.60640103
_cell_length_b   6.60640057
_cell_length_c   10.97410500
_cell_angle_alpha   90.00000000
_cell_angle_beta   90.00000000
_cell_angle_gamma   110.10678111
_symmetry_Int_Tables_number   1
_chemical_formula_structural   Tb3SmTl4
_chemical_formula_sum   'Tb6 Sm2 Tl8'
_cell_volume   449.76879060
_cell_formula_units_Z   2
loop_
 _symmetry_equiv_pos_site_id
 _symmetry_equiv_pos_as_xyz
  1  'x, y, z'
loop_
 _atom_site_type_symbol
 _atom_site_label
 _atom_site_symmetry_multiplicity
 _atom_site_fract_x
 _atom_site_fract_y
 _atom_site_fract_z
 _atom_site_occupancy
  Tb  Tb0  1  0.503748  0.503748  0.250000  1
  Tb  Tb1  1  0.496252  0.496252  0.750000  1
  Tb  Tb2  1  0.252874  0.747126  0.500000  1
  Tb  Tb3  1  0.252874  0.747126  0.000000  1
  Tb  Tb4  1  0.747126  0.252874  0.500000  1
  Tb  Tb5  1  0.747126  0.252874  0.000000  1
  Sm  Sm6  1  0.993069  0.993069  0.250000  1
  Sm  Sm7  1  0.006931  0.006931  0.750000  1
  Tl  Tl8  1  0.249548  0.249548  0.003177  1
  Tl  Tl9  1  0.750452  0.750452  0.996823  1
  Tl  Tl10  1  0.249548  0.249548  0.496823  1
  Tl  Tl11  1  0.750452  0.750452  0.503177  1
  Tl  Tl12  1  0.495950  0.001896  0.250000  1
  Tl  Tl13  1  0.998104  0.504050  0.750000  1
  Tl  Tl14  1  0.504050  0.998104  0.750000  1
  Tl  Tl15  1  0.001896  0.495950  0.250000  1
