# generated using pymatgen
data_ErTh3(ZnGe)4
_symmetry_space_group_name_H-M   'P 1'
_cell_length_a   4.21739000
_cell_length_b   4.21739011
_cell_length_c   16.63091100
_cell_angle_alpha   90.00000000
_cell_angle_beta   90.00000000
_cell_angle_gamma   119.99999917
_symmetry_Int_Tables_number   1
_chemical_formula_structural   ErTh3(ZnGe)4
_chemical_formula_sum   'Er1 Th3 Zn4 Ge4'
_cell_volume   256.17350686
_cell_formula_units_Z   1
loop_
 _symmetry_equiv_pos_site_id
 _symmetry_equiv_pos_as_xyz
  1  'x, y, z'
loop_
 _atom_site_type_symbol
 _atom_site_label
 _atom_site_symmetry_multiplicity
 _atom_site_fract_x
 _atom_site_fract_y
 _atom_site_fract_z
 _atom_site_occupancy
  Er  Er0  1  0.000000  0.000000  0.750000  1
  Th  Th1  1  0.000000  0.000000  0.250000  1
  Th  Th2  1  0.000000  0.000000  0.995781  1
  Th  Th3  1  0.000000  0.000000  0.504219  1
  Zn  Zn4  1  0.333333  0.666667  0.127937  1
  Zn  Zn5  1  0.666667  0.333333  0.853117  1
  Zn  Zn6  1  0.666667  0.333333  0.646883  1
  Zn  Zn7  1  0.333333  0.666667  0.372063  1
  Ge  Ge8  1  0.333333  0.666667  0.623582  1
  Ge  Ge9  1  0.666667  0.333333  0.380541  1
  Ge  Ge10  1  0.666667  0.333333  0.119459  1
  Ge  Ge11  1  0.333333  0.666667  0.876418  1
