# generated using pymatgen
data_Sr3Nd(Si5Pt3)2
_symmetry_space_group_name_H-M   'P 1'
_cell_length_a   8.39015239
_cell_length_b   8.38964908
_cell_length_c   8.38965002
_cell_angle_alpha   137.92774793
_cell_angle_beta   105.09961921
_cell_angle_gamma   89.83877257
_symmetry_Int_Tables_number   1
_chemical_formula_structural   Sr3Nd(Si5Pt3)2
_chemical_formula_sum   'Sr3 Nd1 Si10 Pt6'
_cell_volume   365.09775263
_cell_formula_units_Z   1
loop_
 _symmetry_equiv_pos_site_id
 _symmetry_equiv_pos_as_xyz
  1  'x, y, z'
loop_
 _atom_site_type_symbol
 _atom_site_label
 _atom_site_symmetry_multiplicity
 _atom_site_fract_x
 _atom_site_fract_y
 _atom_site_fract_z
 _atom_site_occupancy
  Sr  Sr0  1  0.864659  0.629504  0.235155  1
  Sr  Sr1  1  0.135910  0.371314  0.764596  1
  Sr  Sr2  1  0.392689  0.128054  0.264635  1
  Nd  Nd3  1  0.604399  0.870953  0.733445  1
  Si  Si4  1  0.499636  0.748605  0.249630  1
  Si  Si5  1  0.499636  0.250005  0.751031  1
  Si  Si6  1  0.230579  0.980385  0.750375  1
  Si  Si7  1  0.771237  0.522092  0.751358  1
  Si  Si8  1  0.771237  0.019880  0.249145  1
  Si  Si9  1  0.230579  0.480202  0.250194  1
  Si  Si10  1  0.036578  0.887482  0.149096  1
  Si  Si11  1  0.961483  0.110731  0.850752  1
  Si  Si12  1  0.739996  0.388063  0.351934  1
  Si  Si13  1  0.261363  0.613289  0.648073  1
  Pt  Pt14  1  0.998215  0.750642  0.749673  1
  Pt  Pt15  1  0.998215  0.248542  0.247573  1
  Pt  Pt16  1  0.255116  0.865106  0.390011  1
  Pt  Pt17  1  0.745601  0.134498  0.611102  1
  Pt  Pt18  1  0.478258  0.364332  0.113926  1
  Pt  Pt19  1  0.524616  0.636319  0.888298  1
