# generated using pymatgen
data_MgTa4Ti(ReSi)6
_symmetry_space_group_name_H-M   'P 1'
_cell_length_a   7.64621963
_cell_length_b   7.57717419
_cell_length_c   7.64622053
_cell_angle_alpha   125.89675865
_cell_angle_beta   129.29534517
_cell_angle_gamma   77.50801914
_symmetry_Int_Tables_number   1
_chemical_formula_structural   MgTa4Ti(ReSi)6
_chemical_formula_sum   'Mg1 Ta4 Ti1 Re6 Si6'
_cell_volume   269.09386632
_cell_formula_units_Z   1
loop_
 _symmetry_equiv_pos_site_id
 _symmetry_equiv_pos_as_xyz
  1  'x, y, z'
loop_
 _atom_site_type_symbol
 _atom_site_label
 _atom_site_symmetry_multiplicity
 _atom_site_fract_x
 _atom_site_fract_y
 _atom_site_fract_z
 _atom_site_occupancy
  Mg  Mg0  1  0.552548  0.102584  0.050038  1
  Ta  Ta1  1  0.949254  0.492773  0.043519  1
  Ta  Ta2  1  0.050382  0.095182  0.544800  1
  Ta  Ta3  1  0.751600  0.900340  0.648739  1
  Ta  Ta4  1  0.244712  0.891791  0.147078  1
  Ti  Ti5  1  0.448114  0.489815  0.541701  1
  Re  Re6  1  0.499895  0.238774  0.736254  1
  Re  Re7  1  0.002519  0.238774  0.238878  1
  Re  Re8  1  0.124339  0.756940  0.622526  1
  Re  Re9  1  0.876568  0.499439  0.633290  1
  Re  Re10  1  0.634414  0.756940  0.132602  1
  Re  Re11  1  0.366148  0.499439  0.122871  1
  Si  Si12  1  0.748234  0.494918  0.246684  1
  Si  Si13  1  0.253636  0.500155  0.746519  1
  Si  Si14  1  0.339562  0.827634  0.504941  1
  Si  Si15  1  0.660760  0.164533  0.489912  1
  Si  Si16  1  0.822693  0.827634  0.988073  1
  Si  Si17  1  0.174620  0.164533  0.003773  1
