# generated using pymatgen
data_Cr2Bi10RuO24
_symmetry_space_group_name_H-M   'P 1'
_cell_length_a   12.36443386
_cell_length_b   12.21568087
_cell_length_c   8.68098800
_cell_angle_alpha   84.34394073
_cell_angle_beta   84.10147921
_cell_angle_gamma   27.06268012
_symmetry_Int_Tables_number   1
_chemical_formula_structural   Cr2Bi10RuO24
_chemical_formula_sum   'Cr2 Bi10 Ru1 O24'
_cell_volume   593.30902151
_cell_formula_units_Z   1
loop_
 _symmetry_equiv_pos_site_id
 _symmetry_equiv_pos_as_xyz
  1  'x, y, z'
loop_
 _atom_site_type_symbol
 _atom_site_label
 _atom_site_symmetry_multiplicity
 _atom_site_fract_x
 _atom_site_fract_y
 _atom_site_fract_z
 _atom_site_occupancy
  Cr  Cr0  1  0.001813  0.983242  0.988896  1
  Cr  Cr1  1  0.599483  0.666062  0.079612  1
  Bi  Bi2  1  0.456910  0.469632  0.319063  1
  Bi  Bi3  1  0.607936  0.784446  0.454548  1
  Bi  Bi4  1  0.527220  0.546946  0.675307  1
  Bi  Bi5  1  0.209613  0.272211  0.187247  1
  Bi  Bi6  1  0.077645  0.080046  0.409232  1
  Bi  Bi7  1  0.210724  0.400240  0.567005  1
  Bi  Bi8  1  0.120840  0.177206  0.759086  1
  Bi  Bi9  1  0.916077  0.937064  0.586310  1
  Bi  Bi10  1  0.829657  0.873015  0.248896  1
  Bi  Bi11  1  0.705697  0.825592  0.822190  1
  Ru  Ru12  1  0.290066  0.462348  0.933386  1
  O  O13  1  0.879163  0.778600  0.648334  1
  O  O14  1  0.403117  0.939544  0.012632  1
  O  O15  1  0.243132  0.108940  0.360353  1
  O  O16  1  0.199571  0.895607  0.906997  1
  O  O17  1  0.712596  0.294588  0.489418  1
  O  O18  1  0.012643  0.543825  0.352449  1
  O  O19  1  0.235585  0.770802  0.500649  1
  O  O20  1  0.877269  0.137919  0.148110  1
  O  O21  1  0.730028  0.494623  0.929601  1
  O  O22  1  0.498318  0.270223  0.085668  1
  O  O23  1  0.406132  0.235094  0.834649  1
  O  O24  1  0.304743  0.540814  0.757881  1
  O  O25  1  0.644159  0.148242  0.410209  1
  O  O26  1  0.806814  0.545427  0.172132  1
  O  O27  1  0.469052  0.691235  0.207868  1
  O  O28  1  0.869740  0.338660  0.599819  1
  O  O29  1  0.136866  0.737754  0.045881  1
  O  O30  1  0.360595  0.859445  0.583130  1
  O  O31  1  0.967677  0.483195  0.696520  1
  O  O32  1  0.135237  0.655048  0.413868  1
  O  O33  1  0.535336  0.016030  0.306894  1
  O  O34  1  0.801757  0.147598  0.857508  1
  O  O35  1  0.012434  0.641541  0.994191  1
  O  O36  1  0.448932  0.002621  0.654461  1
