# generated using pymatgen
data_Lu7ThSiPd24
_symmetry_space_group_name_H-M   'P 1'
_cell_length_a   8.36495255
_cell_length_b   8.36495209
_cell_length_c   8.36495200
_cell_angle_alpha   89.97931450
_cell_angle_beta   89.97931450
_cell_angle_gamma   89.97931388
_symmetry_Int_Tables_number   1
_chemical_formula_structural   Lu7ThSiPd24
_chemical_formula_sum   'Lu7 Th1 Si1 Pd24'
_cell_volume   585.31588107
_cell_formula_units_Z   1
loop_
 _symmetry_equiv_pos_site_id
 _symmetry_equiv_pos_as_xyz
  1  'x, y, z'
loop_
 _atom_site_type_symbol
 _atom_site_label
 _atom_site_symmetry_multiplicity
 _atom_site_fract_x
 _atom_site_fract_y
 _atom_site_fract_z
 _atom_site_occupancy
  Lu  Lu0  1  0.745114  0.745114  0.745114  1
  Lu  Lu1  1  0.745501  0.745501  0.254829  1
  Lu  Lu2  1  0.745501  0.254829  0.745501  1
  Lu  Lu3  1  0.254441  0.254441  0.746391  1
  Lu  Lu4  1  0.254441  0.746391  0.254441  1
  Lu  Lu5  1  0.254829  0.745501  0.745501  1
  Lu  Lu6  1  0.746391  0.254441  0.254441  1
  Th  Th7  1  0.255882  0.255882  0.255882  1
  Si  Si8  1  0.998980  0.998980  0.998980  1
  Pd  Pd9  1  0.256519  0.500910  0.999253  1
  Pd  Pd10  1  0.743215  0.500201  0.999861  1
  Pd  Pd11  1  0.999253  0.256519  0.500910  1
  Pd  Pd12  1  0.500910  0.256519  0.999253  1
  Pd  Pd13  1  0.999861  0.743215  0.500201  1
  Pd  Pd14  1  0.500201  0.743215  0.999861  1
  Pd  Pd15  1  0.500910  0.999253  0.256519  1
  Pd  Pd16  1  0.256519  0.999253  0.500910  1
  Pd  Pd17  1  0.500201  0.999861  0.743215  1
  Pd  Pd18  1  0.743215  0.999861  0.500201  1
  Pd  Pd19  1  0.999253  0.500910  0.256519  1
  Pd  Pd20  1  0.999861  0.500201  0.743215  1
  Pd  Pd21  1  0.251968  0.501878  0.501878  1
  Pd  Pd22  1  0.748381  0.500059  0.500059  1
  Pd  Pd23  1  0.501878  0.251968  0.501878  1
  Pd  Pd24  1  0.500059  0.748381  0.500059  1
  Pd  Pd25  1  0.501878  0.501878  0.251968  1
  Pd  Pd26  1  0.500059  0.500059  0.748381  1
  Pd  Pd27  1  0.278681  0.997892  0.997892  1
  Pd  Pd28  1  0.720968  0.999675  0.999675  1
  Pd  Pd29  1  0.997892  0.278681  0.997892  1
  Pd  Pd30  1  0.999675  0.720968  0.999675  1
  Pd  Pd31  1  0.997892  0.997892  0.278681  1
  Pd  Pd32  1  0.999675  0.999675  0.720968  1
