# generated using pymatgen
data_La6Yb2SnPd24
_symmetry_space_group_name_H-M   'P 1'
_cell_length_a   8.53827102
_cell_length_b   8.53827102
_cell_length_c   8.53827102
_cell_angle_alpha   89.92136665
_cell_angle_beta   89.92136665
_cell_angle_gamma   89.92136665
_symmetry_Int_Tables_number   1
_chemical_formula_structural   La6Yb2SnPd24
_chemical_formula_sum   'La6 Yb2 Sn1 Pd24'
_cell_volume   622.45589125
_cell_formula_units_Z   1
loop_
 _symmetry_equiv_pos_site_id
 _symmetry_equiv_pos_as_xyz
  1  'x, y, z'
loop_
 _atom_site_type_symbol
 _atom_site_label
 _atom_site_symmetry_multiplicity
 _atom_site_fract_x
 _atom_site_fract_y
 _atom_site_fract_z
 _atom_site_occupancy
  La  La0  1  0.747383  0.747383  0.252395  1
  La  La1  1  0.747383  0.252395  0.747383  1
  La  La2  1  0.252617  0.252617  0.747605  1
  La  La3  1  0.252617  0.747605  0.252617  1
  La  La4  1  0.252395  0.747383  0.747383  1
  La  La5  1  0.747605  0.252617  0.252617  1
  Yb  Yb6  1  0.251769  0.251769  0.251769  1
  Yb  Yb7  1  0.748231  0.748231  0.748231  1
  Sn  Sn8  1  0.000000  0.000000  0.000000  1
  Pd  Pd9  1  0.267003  0.498286  0.002467  1
  Pd  Pd10  1  0.732997  0.501714  0.997533  1
  Pd  Pd11  1  0.002467  0.267003  0.498286  1
  Pd  Pd12  1  0.498286  0.267003  0.002467  1
  Pd  Pd13  1  0.997533  0.732997  0.501714  1
  Pd  Pd14  1  0.501714  0.732997  0.997533  1
  Pd  Pd15  1  0.498286  0.002467  0.267003  1
  Pd  Pd16  1  0.267003  0.002467  0.498286  1
  Pd  Pd17  1  0.501714  0.997533  0.732997  1
  Pd  Pd18  1  0.732997  0.997533  0.501714  1
  Pd  Pd19  1  0.002467  0.498286  0.267003  1
  Pd  Pd20  1  0.997533  0.501714  0.732997  1
  Pd  Pd21  1  0.255644  0.497807  0.497807  1
  Pd  Pd22  1  0.744356  0.502193  0.502193  1
  Pd  Pd23  1  0.497807  0.255644  0.497807  1
  Pd  Pd24  1  0.502193  0.744356  0.502193  1
  Pd  Pd25  1  0.497807  0.497807  0.255644  1
  Pd  Pd26  1  0.502193  0.502193  0.744356  1
  Pd  Pd27  1  0.313410  0.002110  0.002110  1
  Pd  Pd28  1  0.686590  0.997890  0.997890  1
  Pd  Pd29  1  0.002110  0.313410  0.002110  1
  Pd  Pd30  1  0.997890  0.686590  0.997890  1
  Pd  Pd31  1  0.002110  0.002110  0.313410  1
  Pd  Pd32  1  0.997890  0.997890  0.686590  1
