# generated using pymatgen
data_LiSc2Al(B4Ru5)2
_symmetry_space_group_name_H-M   'P 1'
_cell_length_a   2.97387200
_cell_length_b   8.33098140
_cell_length_c   10.10375364
_cell_angle_alpha   88.35535159
_cell_angle_beta   90.00000000
_cell_angle_gamma   90.00000000
_symmetry_Int_Tables_number   1
_chemical_formula_structural   LiSc2Al(B4Ru5)2
_chemical_formula_sum   'Li1 Sc2 Al1 B8 Ru10'
_cell_volume   250.22012809
_cell_formula_units_Z   1
loop_
 _symmetry_equiv_pos_site_id
 _symmetry_equiv_pos_as_xyz
  1  'x, y, z'
loop_
 _atom_site_type_symbol
 _atom_site_label
 _atom_site_symmetry_multiplicity
 _atom_site_fract_x
 _atom_site_fract_y
 _atom_site_fract_z
 _atom_site_occupancy
  Li  Li0  1  0.500000  0.855068  0.185750  1
  Sc  Sc1  1  0.500000  0.654575  0.683465  1
  Sc  Sc2  1  0.500000  0.348744  0.313329  1
  Al  Al3  1  0.500000  0.144273  0.832478  1
  B  B4  1  0.500000  0.962632  0.587497  1
  B  B5  1  0.500000  0.035799  0.408797  1
  B  B6  1  0.500000  0.852618  0.900961  1
  B  B7  1  0.500000  0.141178  0.105684  1
  B  B8  1  0.500000  0.654253  0.391290  1
  B  B9  1  0.500000  0.348635  0.599668  1
  B  B10  1  0.500000  0.458660  0.909674  1
  B  B11  1  0.500000  0.542698  0.088307  1
  Ru  Ru12  1  0.000000  0.655670  0.944075  1
  Ru  Ru13  1  0.000000  0.343857  0.050586  1
  Ru  Ru14  1  0.000000  0.841191  0.458229  1
  Ru  Ru15  1  0.000000  0.159261  0.540564  1
  Ru  Ru16  1  0.000000  0.001522  0.999929  1
  Ru  Ru17  1  0.000000  0.377965  0.763878  1
  Ru  Ru18  1  0.000000  0.612351  0.235074  1
  Ru  Ru19  1  0.000000  0.501686  0.500609  1
  Ru  Ru20  1  0.000000  0.912888  0.739937  1
  Ru  Ru21  1  0.000000  0.094474  0.260219  1
