# generated using pymatgen
data_Li6DyNp2N6
_symmetry_space_group_name_H-M   'P 1'
_cell_length_a   6.01049000
_cell_length_b   6.01049084
_cell_length_c   5.48673900
_cell_angle_alpha   90.00000000
_cell_angle_beta   90.00000000
_cell_angle_gamma   119.99999537
_symmetry_Int_Tables_number   1
_chemical_formula_structural   Li6DyNp2N6
_chemical_formula_sum   'Li6 Dy1 Np2 N6'
_cell_volume   171.65828615
_cell_formula_units_Z   1
loop_
 _symmetry_equiv_pos_site_id
 _symmetry_equiv_pos_as_xyz
  1  'x, y, z'
loop_
 _atom_site_type_symbol
 _atom_site_label
 _atom_site_symmetry_multiplicity
 _atom_site_fract_x
 _atom_site_fract_y
 _atom_site_fract_z
 _atom_site_occupancy
  Li  Li0  1  0.986272  0.659912  0.606888  1
  Li  Li1  1  0.340088  0.326360  0.606888  1
  Li  Li2  1  0.673640  0.013728  0.606888  1
  Li  Li3  1  0.013728  0.340088  0.393112  1
  Li  Li4  1  0.659912  0.673640  0.393112  1
  Li  Li5  1  0.326360  0.986272  0.393112  1
  Dy  Dy6  1  0.000000  0.000000  0.000000  1
  Np  Np7  1  0.333333  0.666667  0.994983  1
  Np  Np8  1  0.666667  0.333333  0.005017  1
  N  N9  1  0.000680  0.653499  0.225371  1
  N  N10  1  0.346501  0.347181  0.225371  1
  N  N11  1  0.652819  0.999320  0.225371  1
  N  N12  1  0.999320  0.346501  0.774629  1
  N  N13  1  0.653499  0.652819  0.774629  1
  N  N14  1  0.347181  0.000680  0.774629  1
