# generated using pymatgen
data_U8Tc2B24MoW
_symmetry_space_group_name_H-M   'P 1'
_cell_length_a   3.66359100
_cell_length_b   9.27173945
_cell_length_c   11.36000724
_cell_angle_alpha   90.04367521
_cell_angle_beta   90.00000000
_cell_angle_gamma   90.00000000
_symmetry_Int_Tables_number   1
_chemical_formula_structural   U8Tc2B24MoW
_chemical_formula_sum   'U8 Tc2 B24 Mo1 W1'
_cell_volume   385.87503679
_cell_formula_units_Z   1
loop_
 _symmetry_equiv_pos_site_id
 _symmetry_equiv_pos_as_xyz
  1  'x, y, z'
loop_
 _atom_site_type_symbol
 _atom_site_label
 _atom_site_symmetry_multiplicity
 _atom_site_fract_x
 _atom_site_fract_y
 _atom_site_fract_z
 _atom_site_occupancy
  U  U0  1  0.000000  0.335766  0.407271  1
  U  U1  1  0.000000  0.664055  0.592676  1
  U  U2  1  0.000000  0.836013  0.092031  1
  U  U3  1  0.000000  0.163855  0.907962  1
  U  U4  1  0.000000  0.956603  0.395240  1
  U  U5  1  0.000000  0.043201  0.604916  1
  U  U6  1  0.000000  0.455843  0.104650  1
  U  U7  1  0.000000  0.544442  0.895229  1
  Tc  Tc8  1  0.000000  0.644298  0.320216  1
  Tc  Tc9  1  0.000000  0.355770  0.679747  1
  B  B10  1  0.500000  0.549878  0.432815  1
  B  B11  1  0.500000  0.450081  0.567156  1
  B  B12  1  0.500000  0.049715  0.066748  1
  B  B13  1  0.500000  0.950028  0.933125  1
  B  B14  1  0.500000  0.742584  0.423300  1
  B  B15  1  0.500000  0.257401  0.576733  1
  B  B16  1  0.500000  0.243667  0.075346  1
  B  B17  1  0.500000  0.756598  0.924527  1
  B  B18  1  0.500000  0.803084  0.273277  1
  B  B19  1  0.500000  0.196897  0.726726  1
  B  B20  1  0.500000  0.304821  0.227248  1
  B  B21  1  0.500000  0.695346  0.772781  1
  B  B22  1  0.500000  0.644268  0.188653  1
  B  B23  1  0.500000  0.355761  0.811313  1
  B  B24  1  0.500000  0.145281  0.313149  1
  B  B25  1  0.500000  0.854643  0.687083  1
  B  B26  1  0.500000  0.984819  0.219112  1
  B  B27  1  0.500000  0.014974  0.780892  1
  B  B28  1  0.500000  0.486336  0.281585  1
  B  B29  1  0.500000  0.513696  0.718435  1
  B  B30  1  0.500000  0.642513  0.040238  1
  B  B31  1  0.500000  0.357693  0.959664  1
  B  B32  1  0.500000  0.143252  0.461340  1
  B  B33  1  0.500000  0.856698  0.538805  1
  Mo  Mo34  1  0.000000  0.854935  0.819750  1
  W  W35  1  0.000000  0.145188  0.180262  1
