# generated using pymatgen
data_NdY3(HfIr)4
_symmetry_space_group_name_H-M   'P 1'
_cell_length_a   4.54153500
_cell_length_b   7.14345657
_cell_length_c   8.38161639
_cell_angle_alpha   90.10506937
_cell_angle_beta   90.00000000
_cell_angle_gamma   90.00000000
_symmetry_Int_Tables_number   1
_chemical_formula_structural   NdY3(HfIr)4
_chemical_formula_sum   'Nd1 Y3 Hf4 Ir4'
_cell_volume   271.91810421
_cell_formula_units_Z   1
loop_
 _symmetry_equiv_pos_site_id
 _symmetry_equiv_pos_as_xyz
  1  'x, y, z'
loop_
 _atom_site_type_symbol
 _atom_site_label
 _atom_site_symmetry_multiplicity
 _atom_site_fract_x
 _atom_site_fract_y
 _atom_site_fract_z
 _atom_site_occupancy
  Nd  Nd0  1  0.250000  0.984869  0.321036  1
  Y  Y1  1  0.250000  0.485561  0.175974  1
  Y  Y2  1  0.750000  0.015593  0.680165  1
  Y  Y3  1  0.750000  0.517017  0.822919  1
  Hf  Hf4  1  0.250000  0.357950  0.574789  1
  Hf  Hf5  1  0.250000  0.859796  0.925174  1
  Hf  Hf6  1  0.750000  0.637113  0.430125  1
  Hf  Hf7  1  0.750000  0.142940  0.067229  1
  Ir  Ir8  1  0.250000  0.230288  0.906697  1
  Ir  Ir9  1  0.250000  0.725449  0.595093  1
  Ir  Ir10  1  0.750000  0.771933  0.089314  1
  Ir  Ir11  1  0.750000  0.271492  0.411486  1
