# generated using pymatgen
data_La9Nd7Cd4(RuAu)2
_symmetry_space_group_name_H-M   'P 1'
_cell_length_a   10.14221256
_cell_length_b   10.12544388
_cell_length_c   10.09454889
_cell_angle_alpha   60.09463366
_cell_angle_beta   59.80460576
_cell_angle_gamma   60.81659882
_symmetry_Int_Tables_number   1
_chemical_formula_structural   La9Nd7Cd4(RuAu)2
_chemical_formula_sum   'La9 Nd7 Cd4 Ru2 Au2'
_cell_volume   736.86291023
_cell_formula_units_Z   1
loop_
 _symmetry_equiv_pos_site_id
 _symmetry_equiv_pos_as_xyz
  1  'x, y, z'
loop_
 _atom_site_type_symbol
 _atom_site_label
 _atom_site_symmetry_multiplicity
 _atom_site_fract_x
 _atom_site_fract_y
 _atom_site_fract_z
 _atom_site_occupancy
  La  La0  1  0.309479  0.878858  0.905483  1
  La  La1  1  0.879985  0.308720  0.904997  1
  La  La2  1  0.307538  0.686042  0.691308  1
  La  La3  1  0.899381  0.898137  0.293880  1
  La  La4  1  0.058899  0.453989  0.061234  1
  La  La5  1  0.309927  0.307443  0.692002  1
  La  La6  1  0.059610  0.455870  0.425848  1
  La  La7  1  0.456449  0.059992  0.422012  1
  La  La8  1  0.683712  0.308042  0.691626  1
  Nd  Nd9  1  0.895801  0.901617  0.910217  1
  Nd  Nd10  1  0.442008  0.438819  0.061152  1
  Nd  Nd11  1  0.055667  0.053739  0.441953  1
  Nd  Nd12  1  0.451824  0.055395  0.060922  1
  Nd  Nd13  1  0.312396  0.684426  0.315276  1
  Nd  Nd14  1  0.683240  0.685767  0.310774  1
  Nd  Nd15  1  0.683142  0.311413  0.315614  1
  Cd  Cd16  1  0.668712  0.671160  0.994500  1
  Cd  Cd17  1  0.988069  0.675039  0.668023  1
  Cd  Cd18  1  0.673392  0.988903  0.669646  1
  Cd  Cd19  1  0.670369  0.669729  0.668209  1
  Ru  Ru20  1  0.108777  0.674264  0.108441  1
  Ru  Ru21  1  0.677530  0.110426  0.112663  1
  Au  Au22  1  0.110854  0.109429  0.677606  1
  Au  Au23  1  0.113241  0.112790  0.096611  1
