# generated using pymatgen
data_YLuHf2Zr4F30
_symmetry_space_group_name_H-M   'P 1'
_cell_length_a   8.17456324
_cell_length_b   8.17456348
_cell_length_c   8.17284339
_cell_angle_alpha   79.71443560
_cell_angle_beta   79.71443780
_cell_angle_gamma   100.06665902
_symmetry_Int_Tables_number   1
_chemical_formula_structural   YLuHf2Zr4F30
_chemical_formula_sum   'Y1 Lu1 Hf2 Zr4 F30'
_cell_volume   516.53743946
_cell_formula_units_Z   1
loop_
 _symmetry_equiv_pos_site_id
 _symmetry_equiv_pos_as_xyz
  1  'x, y, z'
loop_
 _atom_site_type_symbol
 _atom_site_label
 _atom_site_symmetry_multiplicity
 _atom_site_fract_x
 _atom_site_fract_y
 _atom_site_fract_z
 _atom_site_occupancy
  Y  Y0  1  0.821946  0.178054  0.750000  1
  Lu  Lu1  1  0.178007  0.821993  0.250000  1
  Hf  Hf2  1  0.751002  0.248998  0.250000  1
  Hf  Hf3  1  0.248699  0.751301  0.750000  1
  Zr  Zr4  1  0.749806  0.678022  0.673229  1
  Zr  Zr5  1  0.321978  0.250194  0.826771  1
  Zr  Zr6  1  0.252200  0.322234  0.324742  1
  Zr  Zr7  1  0.677766  0.747800  0.175258  1
  F  F8  1  0.316090  0.349794  0.053372  1
  F  F9  1  0.938021  0.811479  0.155300  1
  F  F10  1  0.847041  0.461608  0.681523  1
  F  F11  1  0.455917  0.841261  0.186223  1
  F  F12  1  0.813317  0.936537  0.649565  1
  F  F13  1  0.349384  0.315625  0.554399  1
  F  F14  1  0.684375  0.650616  0.945600  1
  F  F15  1  0.063463  0.186683  0.850435  1
  F  F16  1  0.158739  0.544083  0.313777  1
  F  F17  1  0.538392  0.152959  0.818477  1
  F  F18  1  0.188521  0.061979  0.344700  1
  F  F19  1  0.650206  0.683910  0.446628  1
  F  F20  1  0.774186  0.280499  0.999050  1
  F  F21  1  0.004508  0.276980  0.221276  1
  F  F22  1  0.775677  0.503854  0.222849  1
  F  F23  1  0.503486  0.775734  0.722200  1
  F  F24  1  0.275359  0.004879  0.721329  1
  F  F25  1  0.275363  0.776275  0.498344  1
  F  F26  1  0.223725  0.724637  0.001656  1
  F  F27  1  0.995121  0.724641  0.778671  1
  F  F28  1  0.224266  0.496514  0.777800  1
  F  F29  1  0.496146  0.224323  0.277151  1
  F  F30  1  0.723020  0.995492  0.278724  1
  F  F31  1  0.719501  0.225814  0.500950  1
  F  F32  1  0.467998  0.532002  0.250000  1
  F  F33  1  0.747343  0.953800  0.972126  1
  F  F34  1  0.046200  0.252657  0.527874  1
  F  F35  1  0.251113  0.042101  0.032242  1
  F  F36  1  0.957899  0.748887  0.467758  1
  F  F37  1  0.534219  0.465781  0.750000  1
