# generated using pymatgen
data_Tb4Y3HoTlCdPd2
_symmetry_space_group_name_H-M   'P 1'
_cell_length_a   9.73244511
_cell_length_b   9.73244608
_cell_length_c   9.72813000
_cell_angle_alpha   60.01466890
_cell_angle_beta   60.01466559
_cell_angle_gamma   59.97066677
_symmetry_Int_Tables_number   1
_chemical_formula_structural   Tb4Y3HoTlCdPd2
_chemical_formula_sum   'Tb8 Y6 Ho2 Tl2 Cd2 Pd4'
_cell_volume   651.56563485
_cell_formula_units_Z   2
loop_
 _symmetry_equiv_pos_site_id
 _symmetry_equiv_pos_as_xyz
  1  'x, y, z'
loop_
 _atom_site_type_symbol
 _atom_site_label
 _atom_site_symmetry_multiplicity
 _atom_site_fract_x
 _atom_site_fract_y
 _atom_site_fract_z
 _atom_site_occupancy
  Tb  Tb0  1  0.352912  0.352912  0.352901  1
  Tb  Tb1  1  0.352912  0.352912  0.941273  1
  Tb  Tb2  1  0.353566  0.938741  0.353846  1
  Tb  Tb3  1  0.938741  0.353566  0.353846  1
  Tb  Tb4  1  0.811348  0.188888  0.189797  1
  Tb  Tb5  1  0.188888  0.811348  0.809968  1
  Tb  Tb6  1  0.188888  0.811348  0.189797  1
  Tb  Tb7  1  0.811348  0.188888  0.809968  1
  Y  Y8  1  0.937971  0.564674  0.564333  1
  Y  Y9  1  0.564674  0.937971  0.933022  1
  Y  Y10  1  0.564674  0.937971  0.564333  1
  Y  Y11  1  0.937971  0.564674  0.933022  1
  Y  Y12  1  0.564626  0.564626  0.935374  1
  Y  Y13  1  0.936102  0.936102  0.563898  1
  Ho  Ho14  1  0.189281  0.189281  0.810719  1
  Ho  Ho15  1  0.809789  0.809789  0.190211  1
  Tl  Tl16  1  0.583866  0.583866  0.587562  1
  Tl  Tl17  1  0.583866  0.583866  0.244709  1
  Cd  Cd18  1  0.581334  0.249415  0.584627  1
  Cd  Cd19  1  0.249415  0.581334  0.584627  1
  Pd  Pd20  1  0.144511  0.144511  0.143416  1
  Pd  Pd21  1  0.144511  0.144511  0.567561  1
  Pd  Pd22  1  0.141564  0.567244  0.145595  1
  Pd  Pd23  1  0.567244  0.141564  0.145595  1
