# generated using pymatgen
data_CePr7Ag6(As8Au)2
_symmetry_space_group_name_H-M   'P 1'
_cell_length_a   5.82251403
_cell_length_b   5.84875365
_cell_length_c   20.89896123
_cell_angle_alpha   89.55336343
_cell_angle_beta   89.99442828
_cell_angle_gamma   89.99144159
_symmetry_Int_Tables_number   1
_chemical_formula_structural   CePr7Ag6(As8Au)2
_chemical_formula_sum   'Ce1 Pr7 Ag6 As16 Au2'
_cell_volume   711.68100027
_cell_formula_units_Z   1
loop_
 _symmetry_equiv_pos_site_id
 _symmetry_equiv_pos_as_xyz
  1  'x, y, z'
loop_
 _atom_site_type_symbol
 _atom_site_label
 _atom_site_symmetry_multiplicity
 _atom_site_fract_x
 _atom_site_fract_y
 _atom_site_fract_z
 _atom_site_occupancy
  Ce  Ce0  1  0.248226  0.994222  0.619054  1
  Pr  Pr1  1  0.748444  0.006519  0.386359  1
  Pr  Pr2  1  0.751868  0.987651  0.881074  1
  Pr  Pr3  1  0.251650  0.012250  0.118847  1
  Pr  Pr4  1  0.751543  0.491257  0.609787  1
  Pr  Pr5  1  0.251702  0.509815  0.386558  1
  Pr  Pr6  1  0.248188  0.485297  0.885140  1
  Pr  Pr7  1  0.748334  0.514833  0.114882  1
  Ag  Ag8  1  0.500284  0.733163  0.747741  1
  Ag  Ag9  1  0.999152  0.266027  0.251520  1
  Ag  Ag10  1  0.501104  0.267160  0.251481  1
  Ag  Ag11  1  0.999392  0.731766  0.747708  1
  Ag  Ag12  1  0.501144  0.237261  0.747831  1
  Ag  Ag13  1  0.999259  0.763312  0.251515  1
  As  As14  1  0.749707  0.991050  0.656828  1
  As  As15  1  0.250242  0.009814  0.339738  1
  As  As16  1  0.250025  0.986729  0.835961  1
  As  As17  1  0.749919  0.012932  0.162214  1
  As  As18  1  0.250132  0.491252  0.656191  1
  As  As19  1  0.750143  0.510108  0.342106  1
  As  As20  1  0.749865  0.486753  0.837050  1
  As  As21  1  0.249914  0.512941  0.161387  1
  As  As22  1  0.027146  0.222223  0.502867  1
  As  As23  1  0.474556  0.776404  0.503230  1
  As  As24  1  0.973024  0.223026  0.998743  1
  As  As25  1  0.472014  0.777466  0.000053  1
  As  As26  1  0.025176  0.776383  0.502960  1
  As  As27  1  0.472911  0.222576  0.503116  1
  As  As28  1  0.027565  0.777345  0.000327  1
  As  As29  1  0.526791  0.222995  0.998490  1
  Au  Au30  1  0.500279  0.765115  0.251517  1
  Au  Au31  1  0.000300  0.234357  0.747724  1
