# generated using pymatgen
data_Zr5ScTaTi3Al12Co7
_symmetry_space_group_name_H-M   'P 1'
_cell_length_a   8.56481453
_cell_length_b   8.56481307
_cell_length_c   8.56481500
_cell_angle_alpha   59.96728519
_cell_angle_beta   59.96729084
_cell_angle_gamma   59.96728625
_symmetry_Int_Tables_number   1
_chemical_formula_structural   Zr5ScTaTi3Al12Co7
_chemical_formula_sum   'Zr5 Sc1 Ta1 Ti3 Al12 Co7'
_cell_volume   443.93209948
_cell_formula_units_Z   1
loop_
 _symmetry_equiv_pos_site_id
 _symmetry_equiv_pos_as_xyz
  1  'x, y, z'
loop_
 _atom_site_type_symbol
 _atom_site_label
 _atom_site_symmetry_multiplicity
 _atom_site_fract_x
 _atom_site_fract_y
 _atom_site_fract_z
 _atom_site_occupancy
  Zr  Zr0  1  0.692740  0.308442  0.693083  1
  Zr  Zr1  1  0.692740  0.693083  0.308442  1
  Zr  Zr2  1  0.306776  0.693201  0.693201  1
  Zr  Zr3  1  0.306054  0.692440  0.308573  1
  Zr  Zr4  1  0.306054  0.308573  0.692440  1
  Sc  Sc5  1  0.693775  0.305740  0.305740  1
  Ta  Ta6  1  0.120057  0.118236  0.118236  1
  Ti  Ti7  1  0.645255  0.117588  0.117588  1
  Ti  Ti8  1  0.118527  0.644521  0.118733  1
  Ti  Ti9  1  0.118527  0.118733  0.644521  1
  Al  Al10  1  0.359004  0.878987  0.878987  1
  Al  Al11  1  0.879205  0.358798  0.879075  1
  Al  Al12  1  0.879205  0.879075  0.358798  1
  Al  Al13  1  0.880617  0.880246  0.880246  1
  Al  Al14  1  0.994326  0.336401  0.336401  1
  Al  Al15  1  0.336497  0.995616  0.336518  1
  Al  Al16  1  0.336497  0.336518  0.995616  1
  Al  Al17  1  0.335605  0.333993  0.333993  1
  Al  Al18  1  0.001420  0.666494  0.666494  1
  Al  Al19  1  0.666549  0.002107  0.665325  1
  Al  Al20  1  0.666549  0.665325  0.002107  1
  Al  Al21  1  0.665779  0.666119  0.666119  1
  Co  Co22  1  0.999927  0.999568  0.999568  1
  Co  Co23  1  0.493875  0.003611  0.003611  1
  Co  Co24  1  0.497322  0.003363  0.497856  1
  Co  Co25  1  0.497322  0.497856  0.003363  1
  Co  Co26  1  0.003088  0.497743  0.497743  1
  Co  Co27  1  0.003352  0.493610  0.004012  1
  Co  Co28  1  0.003352  0.004012  0.493610  1
