# generated using pymatgen
data_Gd3Ta2Bi3O14
_symmetry_space_group_name_H-M   'P 1'
_cell_length_a   6.43532844
_cell_length_b   6.71124914
_cell_length_c   7.65353700
_cell_angle_alpha   106.71200611
_cell_angle_beta   89.54441239
_cell_angle_gamma   98.23185686
_symmetry_Int_Tables_number   1
_chemical_formula_structural   Gd3Ta2Bi3O14
_chemical_formula_sum   'Gd3 Ta2 Bi3 O14'
_cell_volume   313.13329354
_cell_formula_units_Z   1
loop_
 _symmetry_equiv_pos_site_id
 _symmetry_equiv_pos_as_xyz
  1  'x, y, z'
loop_
 _atom_site_type_symbol
 _atom_site_label
 _atom_site_symmetry_multiplicity
 _atom_site_fract_x
 _atom_site_fract_y
 _atom_site_fract_z
 _atom_site_occupancy
  Gd  Gd0  1  0.549839  0.996231  0.754765  1
  Gd  Gd1  1  0.453703  0.003437  0.251940  1
  Gd  Gd2  1  0.252651  0.536808  0.882719  1
  Ta  Ta3  1  0.002793  0.006465  0.501514  1
  Ta  Ta4  1  0.004396  0.005888  0.000399  1
  Bi  Bi5  1  0.744534  0.484875  0.116972  1
  Bi  Bi6  1  0.730013  0.457421  0.612061  1
  Bi  Bi7  1  0.263819  0.538053  0.393234  1
  O  O8  1  0.446587  0.648235  0.168960  1
  O  O9  1  0.545775  0.347473  0.822617  1
  O  O10  1  0.291961  0.922630  0.950633  1
  O  O11  1  0.711872  0.043428  0.050549  1
  O  O12  1  0.286512  0.920044  0.514383  1
  O  O13  1  0.712851  0.083956  0.490376  1
  O  O14  1  0.527889  0.355741  0.349325  1
  O  O15  1  0.458357  0.643647  0.656307  1
  O  O16  1  0.928619  0.680584  0.956464  1
  O  O17  1  0.088229  0.304147  0.030514  1
  O  O18  1  0.095765  0.310949  0.619115  1
  O  O19  1  0.897754  0.705449  0.376775  1
  O  O20  1  0.915979  0.949914  0.737141  1
  O  O21  1  0.090101  0.054624  0.263236  1
