# generated using pymatgen
data_LaAl3Pd
_symmetry_space_group_name_H-M   'P 1'
_cell_length_a   6.19826192
_cell_length_b   6.19826292
_cell_length_c   5.97130400
_cell_angle_alpha   90.00000000
_cell_angle_beta   90.00000000
_cell_angle_gamma   116.81536036
_symmetry_Int_Tables_number   1
_chemical_formula_structural   LaAl3Pd
_chemical_formula_sum   'La2 Al6 Pd2'
_cell_volume   204.73884568
_cell_formula_units_Z   2
loop_
 _symmetry_equiv_pos_site_id
 _symmetry_equiv_pos_as_xyz
  1  'x, y, z'
loop_
 _atom_site_type_symbol
 _atom_site_label
 _atom_site_symmetry_multiplicity
 _atom_site_fract_x
 _atom_site_fract_y
 _atom_site_fract_z
 _atom_site_occupancy
  La  La0  1  0.233050  0.766950  0.750000  1
  La  La1  1  0.766950  0.233050  0.250000  1
  Al  Al2  1  0.666535  0.333465  0.750000  1
  Al  Al3  1  0.333465  0.666535  0.250000  1
  Al  Al4  1  0.719380  0.719380  0.000000  1
  Al  Al5  1  0.719380  0.719380  0.500000  1
  Al  Al6  1  0.280620  0.280620  0.000000  1
  Al  Al7  1  0.280620  0.280620  0.500000  1
  Pd  Pd8  1  0.903307  0.096693  0.750000  1
  Pd  Pd9  1  0.096693  0.903307  0.250000  1
