# generated using pymatgen
data_Ga10NiRh
_symmetry_space_group_name_H-M   'P 1'
_cell_length_a   6.69134325
_cell_length_b   6.69134245
_cell_length_c   6.69134257
_cell_angle_alpha   122.20485760
_cell_angle_beta   122.20484555
_cell_angle_gamma   86.22170610
_symmetry_Int_Tables_number   1
_chemical_formula_structural   Ga10NiRh
_chemical_formula_sum   'Ga10 Ni1 Rh1'
_cell_volume   204.30430860
_cell_formula_units_Z   1
loop_
 _symmetry_equiv_pos_site_id
 _symmetry_equiv_pos_as_xyz
  1  'x, y, z'
loop_
 _atom_site_type_symbol
 _atom_site_label
 _atom_site_symmetry_multiplicity
 _atom_site_fract_x
 _atom_site_fract_y
 _atom_site_fract_z
 _atom_site_occupancy
  Ga  Ga0  1  0.005674  0.005674  0.000000  1
  Ga  Ga1  1  0.494326  0.494326  0.000000  1
  Ga  Ga2  1  0.007978  0.506404  0.798594  1
  Ga  Ga3  1  0.707809  0.209383  0.201406  1
  Ga  Ga4  1  0.506404  0.707809  0.498426  1
  Ga  Ga5  1  0.209383  0.007978  0.501574  1
  Ga  Ga6  1  0.993596  0.492022  0.201406  1
  Ga  Ga7  1  0.290617  0.792191  0.798594  1
  Ga  Ga8  1  0.492022  0.290617  0.498426  1
  Ga  Ga9  1  0.792191  0.993596  0.501574  1
  Ni  Ni10  1  0.250000  0.250000  0.000000  1
  Rh  Rh11  1  0.750000  0.750000  0.000000  1
