# generated using pymatgen
data_Yb3CuAu5
_symmetry_space_group_name_H-M   'P 1'
_cell_length_a   8.27883200
_cell_length_b   8.27883293
_cell_length_c   13.22861100
_cell_angle_alpha   90.00000000
_cell_angle_beta   90.00000000
_cell_angle_gamma   126.48342450
_symmetry_Int_Tables_number   1
_chemical_formula_structural   Yb3CuAu5
_chemical_formula_sum   'Yb12 Cu4 Au20'
_cell_volume   728.99424115
_cell_formula_units_Z   4
loop_
 _symmetry_equiv_pos_site_id
 _symmetry_equiv_pos_as_xyz
  1  'x, y, z'
loop_
 _atom_site_type_symbol
 _atom_site_label
 _atom_site_symmetry_multiplicity
 _atom_site_fract_x
 _atom_site_fract_y
 _atom_site_fract_z
 _atom_site_occupancy
  Yb  Yb0  1  0.918370  0.081630  0.250000  1
  Yb  Yb1  1  0.081630  0.918370  0.750000  1
  Yb  Yb2  1  0.332082  0.667918  0.250000  1
  Yb  Yb3  1  0.667918  0.332082  0.750000  1
  Yb  Yb4  1  0.628320  0.371680  0.452326  1
  Yb  Yb5  1  0.371680  0.628320  0.547674  1
  Yb  Yb6  1  0.628320  0.371680  0.047674  1
  Yb  Yb7  1  0.371680  0.628320  0.952326  1
  Yb  Yb8  1  0.880125  0.119875  0.949014  1
  Yb  Yb9  1  0.119875  0.880125  0.050986  1
  Yb  Yb10  1  0.880125  0.119875  0.550986  1
  Yb  Yb11  1  0.119875  0.880125  0.449014  1
  Cu  Cu12  1  0.717987  0.282013  0.250000  1
  Cu  Cu13  1  0.282013  0.717987  0.750000  1
  Cu  Cu14  1  0.536849  0.463151  0.250000  1
  Cu  Cu15  1  0.463151  0.536849  0.750000  1
  Au  Au16  1  0.318284  0.063554  0.250000  1
  Au  Au17  1  0.063554  0.318284  0.750000  1
  Au  Au18  1  0.681716  0.936446  0.750000  1
  Au  Au19  1  0.936446  0.681716  0.250000  1
  Au  Au20  1  0.560147  0.997513  0.395709  1
  Au  Au21  1  0.997513  0.560147  0.604291  1
  Au  Au22  1  0.560147  0.997513  0.104291  1
  Au  Au23  1  0.997513  0.560147  0.895709  1
  Au  Au24  1  0.439853  0.002487  0.604291  1
  Au  Au25  1  0.002487  0.439853  0.395709  1
  Au  Au26  1  0.439853  0.002487  0.895709  1
  Au  Au27  1  0.002487  0.439853  0.104291  1
  Au  Au28  1  0.691032  0.748414  0.393651  1
  Au  Au29  1  0.748414  0.691032  0.606349  1
  Au  Au30  1  0.691032  0.748414  0.106349  1
  Au  Au31  1  0.748414  0.691032  0.893651  1
  Au  Au32  1  0.308968  0.251586  0.606349  1
  Au  Au33  1  0.251586  0.308968  0.393651  1
  Au  Au34  1  0.308968  0.251586  0.893651  1
  Au  Au35  1  0.251586  0.308968  0.106349  1
