# generated using pymatgen
data_Na4US5
_symmetry_space_group_name_H-M   'P 1'
_cell_length_a   7.04796317
_cell_length_b   7.04796373
_cell_length_c   7.04796246
_cell_angle_alpha   98.80826152
_cell_angle_beta   98.80826632
_cell_angle_gamma   133.92715349
_symmetry_Int_Tables_number   1
_chemical_formula_structural   Na4US5
_chemical_formula_sum   'Na4 U1 S5'
_cell_volume   232.04183888
_cell_formula_units_Z   1
loop_
 _symmetry_equiv_pos_site_id
 _symmetry_equiv_pos_as_xyz
  1  'x, y, z'
loop_
 _atom_site_type_symbol
 _atom_site_label
 _atom_site_symmetry_multiplicity
 _atom_site_fract_x
 _atom_site_fract_y
 _atom_site_fract_z
 _atom_site_occupancy
  Na  Na0  1  0.800724  0.396202  0.196927  1
  Na  Na1  1  0.199276  0.603798  0.803073  1
  Na  Na2  1  0.603798  0.800724  0.404522  1
  Na  Na3  1  0.396202  0.199276  0.595478  1
  U  U4  1  0.000000  0.000000  0.000000  1
  S  S5  1  0.500000  0.500000  0.000000  1
  S  S6  1  0.736265  0.079027  0.815292  1
  S  S7  1  0.263735  0.920973  0.184708  1
  S  S8  1  0.920973  0.736265  0.657238  1
  S  S9  1  0.079027  0.263735  0.342762  1
