# generated using pymatgen
data_Cs8Nb3IrBr24
_symmetry_space_group_name_H-M   'P 1'
_cell_length_a   13.16612255
_cell_length_b   13.16612264
_cell_length_c   13.16612300
_cell_angle_alpha   131.53365220
_cell_angle_beta   131.53365256
_cell_angle_gamma   70.96657542
_symmetry_Int_Tables_number   1
_chemical_formula_structural   Cs8Nb3IrBr24
_chemical_formula_sum   'Cs8 Nb3 Ir1 Br24'
_cell_volume   1252.37055424
_cell_formula_units_Z   1
loop_
 _symmetry_equiv_pos_site_id
 _symmetry_equiv_pos_as_xyz
  1  'x, y, z'
loop_
 _atom_site_type_symbol
 _atom_site_label
 _atom_site_symmetry_multiplicity
 _atom_site_fract_x
 _atom_site_fract_y
 _atom_site_fract_z
 _atom_site_occupancy
  Cs  Cs0  1  0.118511  0.638720  0.999005  1
  Cs  Cs1  1  0.361280  0.881489  0.000995  1
  Cs  Cs2  1  0.639715  0.638720  0.520208  1
  Cs  Cs3  1  0.361280  0.360285  0.479792  1
  Cs  Cs4  1  0.880494  0.360285  0.999005  1
  Cs  Cs5  1  0.880494  0.881489  0.520208  1
  Cs  Cs6  1  0.118511  0.119506  0.479792  1
  Cs  Cs7  1  0.639715  0.119506  0.000995  1
  Nb  Nb8  1  0.750000  0.250000  0.500000  1
  Nb  Nb9  1  0.500000  0.500000  0.000000  1
  Nb  Nb10  1  0.250000  0.750000  0.500000  1
  Ir  Ir11  1  0.000000  0.000000  0.000000  1
  Br  Br12  1  0.233223  0.999869  0.233354  1
  Br  Br13  1  0.000131  0.766777  0.766646  1
  Br  Br14  1  0.251611  0.990014  0.738404  1
  Br  Br15  1  0.748473  0.487352  0.738881  1
  Br  Br16  1  0.486793  0.748389  0.738404  1
  Br  Br17  1  0.117667  0.117667  0.000000  1
  Br  Br18  1  0.499759  0.738970  0.239210  1
  Br  Br19  1  0.870474  0.370474  0.500000  1
  Br  Br20  1  0.000131  0.233485  0.233354  1
  Br  Br21  1  0.379674  0.379674  0.000000  1
  Br  Br22  1  0.620326  0.620326  0.000000  1
  Br  Br23  1  0.499759  0.260549  0.760790  1
  Br  Br24  1  0.261030  0.500241  0.760790  1
  Br  Br25  1  0.512648  0.251527  0.261119  1
  Br  Br26  1  0.370117  0.870117  0.500000  1
  Br  Br27  1  0.629526  0.129526  0.500000  1
  Br  Br28  1  0.251611  0.513207  0.261596  1
  Br  Br29  1  0.129883  0.629883  0.500000  1
  Br  Br30  1  0.009986  0.748389  0.261596  1
  Br  Br31  1  0.990408  0.251527  0.738881  1
  Br  Br32  1  0.766515  0.999869  0.766646  1
  Br  Br33  1  0.739451  0.500241  0.239210  1
  Br  Br34  1  0.748473  0.009592  0.261119  1
  Br  Br35  1  0.882333  0.882333  0.000000  1
