# generated using pymatgen
data_Y6Zn4PdPt12
_symmetry_space_group_name_H-M   'P 1'
_cell_length_a   8.27662859
_cell_length_b   8.26979623
_cell_length_c   8.26979680
_cell_angle_alpha   109.42090167
_cell_angle_beta   109.47964818
_cell_angle_gamma   109.47963990
_symmetry_Int_Tables_number   1
_chemical_formula_structural   Y6Zn4PdPt12
_chemical_formula_sum   'Y6 Zn4 Pd1 Pt12'
_cell_volume   435.91356346
_cell_formula_units_Z   1
loop_
 _symmetry_equiv_pos_site_id
 _symmetry_equiv_pos_as_xyz
  1  'x, y, z'
loop_
 _atom_site_type_symbol
 _atom_site_label
 _atom_site_symmetry_multiplicity
 _atom_site_fract_x
 _atom_site_fract_y
 _atom_site_fract_z
 _atom_site_occupancy
  Y  Y0  1  0.699474  0.698915  0.000559  1
  Y  Y1  1  0.300920  0.999975  0.300945  1
  Y  Y2  1  0.999905  0.300477  0.300477  1
  Y  Y3  1  0.300920  0.300945  0.999975  1
  Y  Y4  1  0.699474  0.000559  0.698915  1
  Y  Y5  1  0.999905  0.699428  0.699428  1
  Zn  Zn6  1  0.999919  0.999960  0.499960  1
  Zn  Zn7  1  0.999919  0.499960  0.999960  1
  Zn  Zn8  1  0.499661  0.999497  0.999497  1
  Zn  Zn9  1  0.499661  0.500164  0.500164  1
  Pd  Pd10  1  0.334049  0.667026  0.667026  1
  Pt  Pt11  1  0.332703  0.333202  0.665324  1
  Pt  Pt12  1  0.667235  0.000057  0.332529  1
  Pt  Pt13  1  0.000584  0.667370  0.333214  1
  Pt  Pt14  1  0.667235  0.332529  0.000057  1
  Pt  Pt15  1  0.332703  0.665324  0.333202  1
  Pt  Pt16  1  0.000584  0.333214  0.667370  1
  Pt  Pt17  1  0.332703  0.667381  0.999501  1
  Pt  Pt18  1  0.332703  0.999501  0.667381  1
  Pt  Pt19  1  0.665568  0.332783  0.332783  1
  Pt  Pt20  1  0.667235  0.667178  0.334704  1
  Pt  Pt21  1  0.667235  0.334704  0.667178  1
  Pt  Pt22  1  0.999705  0.999853  0.999853  1
