# generated using pymatgen
data_LaCd(CuO2)4
_symmetry_space_group_name_H-M   'P 1'
_cell_length_a   6.35099574
_cell_length_b   6.35099576
_cell_length_c   6.35099520
_cell_angle_alpha   125.26290031
_cell_angle_beta   125.26289247
_cell_angle_gamma   81.10303071
_symmetry_Int_Tables_number   1
_chemical_formula_structural   LaCd(CuO2)4
_chemical_formula_sum   'La1 Cd1 Cu4 O8'
_cell_volume   164.53928200
_cell_formula_units_Z   1
loop_
 _symmetry_equiv_pos_site_id
 _symmetry_equiv_pos_as_xyz
  1  'x, y, z'
loop_
 _atom_site_type_symbol
 _atom_site_label
 _atom_site_symmetry_multiplicity
 _atom_site_fract_x
 _atom_site_fract_y
 _atom_site_fract_z
 _atom_site_occupancy
  La  La0  1  0.750000  0.250000  0.500000  1
  Cd  Cd1  1  0.000000  0.000000  0.000000  1
  Cu  Cu2  1  0.375276  0.628278  0.252962  1
  Cu  Cu3  1  0.375316  0.122314  0.747038  1
  Cu  Cu4  1  0.371722  0.624684  0.746998  1
  Cu  Cu5  1  0.877686  0.624724  0.253002  1
  O  O6  1  0.728776  0.302077  0.126391  1
  O  O7  1  0.175686  0.602385  0.873609  1
  O  O8  1  0.025486  0.939117  0.363674  1
  O  O9  1  0.575443  0.661812  0.636326  1
  O  O10  1  0.060883  0.424557  0.086369  1
  O  O11  1  0.338188  0.974514  0.913631  1
  O  O12  1  0.397615  0.271224  0.573301  1
  O  O13  1  0.697923  0.824314  0.426699  1
