# generated using pymatgen
data_VSb(PO4)3
_symmetry_space_group_name_H-M   'P 1'
_cell_length_a   8.46484409
_cell_length_b   8.43801452
_cell_length_c   8.87290224
_cell_angle_alpha   89.85219238
_cell_angle_beta   118.48290910
_cell_angle_gamma   119.80459813
_symmetry_Int_Tables_number   1
_chemical_formula_structural   VSb(PO4)3
_chemical_formula_sum   'V2 Sb2 P6 O24'
_cell_volume   459.96041032
_cell_formula_units_Z   2
loop_
 _symmetry_equiv_pos_site_id
 _symmetry_equiv_pos_as_xyz
  1  'x, y, z'
loop_
 _atom_site_type_symbol
 _atom_site_label
 _atom_site_symmetry_multiplicity
 _atom_site_fract_x
 _atom_site_fract_y
 _atom_site_fract_z
 _atom_site_occupancy
  V  V0  1  0.793533  0.644059  0.436644  1
  V  V1  1  0.783213  0.140753  0.923814  1
  Sb  Sb2  1  0.211841  0.856931  0.069623  1
  Sb  Sb3  1  0.203845  0.354038  0.556869  1
  P  P4  1  0.996628  0.963536  0.247458  1
  P  P5  1  0.997243  0.034893  0.746960  1
  P  P6  1  0.710455  0.246401  0.249670  1
  P  P7  1  0.285662  0.752399  0.742510  1
  P  P8  1  0.281308  0.532609  0.246167  1
  P  P9  1  0.715172  0.463072  0.746627  1
  O  O10  1  0.140586  0.021720  0.932884  1
  O  O11  1  0.237708  0.521077  0.401508  1
  O  O12  1  0.877699  0.002163  0.072294  1
  O  O13  1  0.495874  0.100224  0.236870  1
  O  O14  1  0.861390  0.094133  0.760815  1
  O  O15  1  0.753317  0.447235  0.289426  1
  O  O16  1  0.176739  0.157071  0.405599  1
  O  O17  1  0.759816  0.487204  0.598420  1
  O  O18  1  0.698999  0.198705  0.079033  1
  O  O19  1  0.244146  0.548187  0.720924  1
  O  O20  1  0.107844  0.757979  0.580937  1
  O  O21  1  0.338027  0.735860  0.231227  1
  O  O22  1  0.478096  0.527176  0.300690  1
  O  O23  1  0.170740  0.191016  0.715187  1
  O  O24  1  0.129346  0.893737  0.234152  1
  O  O25  1  0.674937  0.271305  0.779444  1
  O  O26  1  0.504726  0.898906  0.769370  1
  O  O27  1  0.079446  0.376757  0.069928  1
  O  O28  1  0.883368  0.230755  0.415141  1
  O  O29  1  0.296450  0.792165  0.919685  1
  O  O30  1  0.847727  0.841776  0.597921  1
  O  O31  1  0.833172  0.814298  0.285732  1
  O  O32  1  0.908592  0.626678  0.927925  1
  O  O33  1  0.522355  0.475180  0.708546  1
