# generated using pymatgen
data_La3Co8TcP6
_symmetry_space_group_name_H-M   'P 1'
_cell_length_a   3.80154900
_cell_length_b   10.73807500
_cell_length_c   12.50850700
_cell_angle_alpha   90.00000000
_cell_angle_beta   90.00000000
_cell_angle_gamma   90.00000000
_symmetry_Int_Tables_number   1
_chemical_formula_structural   La3Co8TcP6
_chemical_formula_sum   'La6 Co16 Tc2 P12'
_cell_volume   510.61374543
_cell_formula_units_Z   2
loop_
 _symmetry_equiv_pos_site_id
 _symmetry_equiv_pos_as_xyz
  1  'x, y, z'
loop_
 _atom_site_type_symbol
 _atom_site_label
 _atom_site_symmetry_multiplicity
 _atom_site_fract_x
 _atom_site_fract_y
 _atom_site_fract_z
 _atom_site_occupancy
  La  La0  1  0.000000  0.500000  0.524613  1
  La  La1  1  0.500000  0.000000  0.475387  1
  La  La2  1  0.500000  0.819940  0.206350  1
  La  La3  1  0.500000  0.180060  0.206350  1
  La  La4  1  0.000000  0.680060  0.793650  1
  La  La5  1  0.000000  0.319940  0.793650  1
  Co  Co6  1  0.500000  0.500000  0.704663  1
  Co  Co7  1  0.000000  0.000000  0.295337  1
  Co  Co8  1  0.000000  0.500000  0.989461  1
  Co  Co9  1  0.500000  0.000000  0.010539  1
  Co  Co10  1  0.500000  0.332191  0.992608  1
  Co  Co11  1  0.500000  0.667809  0.992608  1
  Co  Co12  1  0.000000  0.167809  0.007392  1
  Co  Co13  1  0.000000  0.832191  0.007392  1
  Co  Co14  1  0.500000  0.297049  0.430525  1
  Co  Co15  1  0.500000  0.702951  0.430525  1
  Co  Co16  1  0.000000  0.202951  0.569475  1
  Co  Co17  1  0.000000  0.797049  0.569475  1
  Co  Co18  1  0.500000  0.881950  0.710138  1
  Co  Co19  1  0.500000  0.118050  0.710138  1
  Co  Co20  1  0.000000  0.618050  0.289862  1
  Co  Co21  1  0.000000  0.381950  0.289862  1
  Tc  Tc22  1  0.500000  0.500000  0.153922  1
  Tc  Tc23  1  0.000000  0.000000  0.846078  1
  P  P24  1  0.500000  0.500000  0.888949  1
  P  P25  1  0.000000  0.000000  0.111051  1
  P  P26  1  0.500000  0.500000  0.342061  1
  P  P27  1  0.000000  0.000000  0.657939  1
  P  P28  1  0.500000  0.303535  0.613118  1
  P  P29  1  0.500000  0.696465  0.613118  1
  P  P30  1  0.000000  0.196465  0.386882  1
  P  P31  1  0.000000  0.803535  0.386882  1
  P  P32  1  0.500000  0.847992  0.896218  1
  P  P33  1  0.500000  0.152008  0.896218  1
  P  P34  1  0.000000  0.652008  0.103782  1
  P  P35  1  0.000000  0.347992  0.103782  1
