# generated using pymatgen
data_Zr2Ni(SeS)2
_symmetry_space_group_name_H-M   'P 1'
_cell_length_a   7.13564042
_cell_length_b   7.13564020
_cell_length_c   6.39971107
_cell_angle_alpha   63.48902298
_cell_angle_beta   63.48902548
_cell_angle_gamma   30.51540676
_symmetry_Int_Tables_number   1
_chemical_formula_structural   Zr2Ni(SeS)2
_chemical_formula_sum   'Zr2 Ni1 Se2 S2'
_cell_volume   146.68478939
_cell_formula_units_Z   1
loop_
 _symmetry_equiv_pos_site_id
 _symmetry_equiv_pos_as_xyz
  1  'x, y, z'
loop_
 _atom_site_type_symbol
 _atom_site_label
 _atom_site_symmetry_multiplicity
 _atom_site_fract_x
 _atom_site_fract_y
 _atom_site_fract_z
 _atom_site_occupancy
  Zr  Zr0  1  0.505183  0.505183  0.499238  1
  Zr  Zr1  1  0.009846  0.009846  0.982962  1
  Ni  Ni2  1  0.669414  0.669414  0.662143  1
  Se  Se3  1  0.370702  0.370702  0.963495  1
  Se  Se4  1  0.871192  0.871192  0.464115  1
  S  S5  1  0.625092  0.625092  0.046256  1
  S  S6  1  0.131030  0.131030  0.532641  1
