# generated using pymatgen
data_Ac5Sm(SnIr)6
_symmetry_space_group_name_H-M   'P 1'
_cell_length_a   7.69907500
_cell_length_b   7.72134385
_cell_length_c   8.63163700
_cell_angle_alpha   90.00005936
_cell_angle_beta   89.99989581
_cell_angle_gamma   120.09440067
_symmetry_Int_Tables_number   1
_chemical_formula_structural   Ac5Sm(SnIr)6
_chemical_formula_sum   'Ac5 Sm1 Sn6 Ir6'
_cell_volume   443.95743821
_cell_formula_units_Z   1
loop_
 _symmetry_equiv_pos_site_id
 _symmetry_equiv_pos_as_xyz
  1  'x, y, z'
loop_
 _atom_site_type_symbol
 _atom_site_label
 _atom_site_symmetry_multiplicity
 _atom_site_fract_x
 _atom_site_fract_y
 _atom_site_fract_z
 _atom_site_occupancy
  Ac  Ac0  1  0.417307  0.000253  0.249970  1
  Ac  Ac1  1  0.585902  0.583932  0.750007  1
  Ac  Ac2  1  0.582713  0.583047  0.249981  1
  Ac  Ac3  1  0.000022  0.416854  0.750052  1
  Ac  Ac4  1  0.414176  0.998070  0.749998  1
  Sm  Sm5  1  0.999901  0.408722  0.249977  1
  Sn  Sn6  1  0.241544  0.244574  0.498758  1
  Sn  Sn7  1  0.241522  0.244559  0.001238  1
  Sn  Sn8  1  0.758560  0.003100  0.001202  1
  Sn  Sn9  1  0.000040  0.753879  0.492739  1
  Sn  Sn10  1  0.758564  0.003094  0.498804  1
  Sn  Sn11  1  0.000012  0.753877  0.007274  1
  Ir  Ir12  1  0.677172  0.337280  0.494944  1
  Ir  Ir13  1  0.677133  0.337266  0.005052  1
  Ir  Ir14  1  0.322712  0.659999  0.005074  1
  Ir  Ir15  1  0.322676  0.659980  0.494924  1
  Ir  Ir16  1  0.000061  0.000595  0.750008  1
  Ir  Ir17  1  0.999985  0.010916  0.249999  1
