# generated using pymatgen
data_Zn22CoNiRh2
_symmetry_space_group_name_H-M   'P 1'
_cell_length_a   7.83024860
_cell_length_b   7.83024854
_cell_length_c   7.85101186
_cell_angle_alpha   109.43384858
_cell_angle_beta   109.43384833
_cell_angle_gamma   109.39510266
_symmetry_Int_Tables_number   1
_chemical_formula_structural   Zn22CoNiRh2
_chemical_formula_sum   'Zn22 Co1 Ni1 Rh2'
_cell_volume   371.24511902
_cell_formula_units_Z   1
loop_
 _symmetry_equiv_pos_site_id
 _symmetry_equiv_pos_as_xyz
  1  'x, y, z'
loop_
 _atom_site_type_symbol
 _atom_site_label
 _atom_site_symmetry_multiplicity
 _atom_site_fract_x
 _atom_site_fract_y
 _atom_site_fract_z
 _atom_site_occupancy
  Zn  Zn0  1  0.213157  0.002726  0.998739  1
  Zn  Zn1  1  0.002726  0.213157  0.998739  1
  Zn  Zn2  1  0.002957  0.002957  0.210199  1
  Zn  Zn3  1  0.795994  0.795994  0.791906  1
  Zn  Zn4  1  0.995447  0.641842  0.640327  1
  Zn  Zn5  1  0.356071  0.002191  0.356552  1
  Zn  Zn6  1  0.355207  0.355207  0.000657  1
  Zn  Zn7  1  0.002191  0.356071  0.356552  1
  Zn  Zn8  1  0.641842  0.995447  0.640327  1
  Zn  Zn9  1  0.641334  0.641334  0.995710  1
  Zn  Zn10  1  0.350998  0.734545  0.000715  1
  Zn  Zn11  1  0.614194  0.268161  0.269409  1
  Zn  Zn12  1  0.345335  0.998965  0.732075  1
  Zn  Zn13  1  0.734545  0.350998  0.000715  1
  Zn  Zn14  1  0.998965  0.345335  0.732075  1
  Zn  Zn15  1  0.268161  0.614194  0.269409  1
  Zn  Zn16  1  0.259456  0.259456  0.611456  1
  Zn  Zn17  1  0.999089  0.744422  0.356276  1
  Zn  Zn18  1  0.744422  0.999089  0.356276  1
  Zn  Zn19  1  0.648391  0.648391  0.389517  1
  Zn  Zn20  1  0.387780  0.643464  0.644809  1
  Zn  Zn21  1  0.643464  0.387780  0.644809  1
  Co  Co22  1  0.001214  0.001214  0.657344  1
  Ni  Ni23  1  0.342522  0.342522  0.342700  1
  Rh  Rh24  1  0.653146  0.001389  0.001353  1
  Rh  Rh25  1  0.001389  0.653146  0.001353  1
