# generated using pymatgen
data_CaLa2(CoSi)4
_symmetry_space_group_name_H-M   'P 1'
_cell_length_a   6.10291200
_cell_length_b   6.10291195
_cell_length_c   10.84587200
_cell_angle_alpha   90.00000000
_cell_angle_beta   90.00000000
_cell_angle_gamma   111.99757946
_symmetry_Int_Tables_number   1
_chemical_formula_structural   CaLa2(CoSi)4
_chemical_formula_sum   'Ca2 La4 Co8 Si8'
_cell_volume   374.55186095
_cell_formula_units_Z   2
loop_
 _symmetry_equiv_pos_site_id
 _symmetry_equiv_pos_as_xyz
  1  'x, y, z'
loop_
 _atom_site_type_symbol
 _atom_site_label
 _atom_site_symmetry_multiplicity
 _atom_site_fract_x
 _atom_site_fract_y
 _atom_site_fract_z
 _atom_site_occupancy
  Ca  Ca0  1  0.028584  0.028584  0.250000  1
  Ca  Ca1  1  0.971416  0.971416  0.750000  1
  La  La2  1  0.210678  0.789322  0.500000  1
  La  La3  1  0.210678  0.789322  0.000000  1
  La  La4  1  0.789322  0.210678  0.500000  1
  La  La5  1  0.789322  0.210678  0.000000  1
  Co  Co6  1  0.517767  0.260130  0.250000  1
  Co  Co7  1  0.739870  0.482233  0.750000  1
  Co  Co8  1  0.482233  0.739870  0.750000  1
  Co  Co9  1  0.260130  0.517767  0.250000  1
  Co  Co10  1  0.668686  0.668686  0.368776  1
  Co  Co11  1  0.331314  0.331314  0.631224  1
  Co  Co12  1  0.668686  0.668686  0.131224  1
  Co  Co13  1  0.331314  0.331314  0.868776  1
  Si  Si14  1  0.517091  0.897503  0.250000  1
  Si  Si15  1  0.102497  0.482909  0.750000  1
  Si  Si16  1  0.482909  0.102497  0.750000  1
  Si  Si17  1  0.897503  0.517091  0.250000  1
  Si  Si18  1  0.349709  0.349709  0.427084  1
  Si  Si19  1  0.650291  0.650291  0.572916  1
  Si  Si20  1  0.349709  0.349709  0.072916  1
  Si  Si21  1  0.650291  0.650291  0.927084  1
