# generated using pymatgen
data_Nd20Ir5Pd2Ru5
_symmetry_space_group_name_H-M   'P 1'
_cell_length_a   11.26080369
_cell_length_b   11.26080340
_cell_length_c   6.64249004
_cell_angle_alpha   90.03651354
_cell_angle_beta   90.03651343
_cell_angle_gamma   89.87530277
_symmetry_Int_Tables_number   1
_chemical_formula_structural   Nd20Ir5Pd2Ru5
_chemical_formula_sum   'Nd20 Ir5 Pd2 Ru5'
_cell_volume   842.30323951
_cell_formula_units_Z   1
loop_
 _symmetry_equiv_pos_site_id
 _symmetry_equiv_pos_as_xyz
  1  'x, y, z'
loop_
 _atom_site_type_symbol
 _atom_site_label
 _atom_site_symmetry_multiplicity
 _atom_site_fract_x
 _atom_site_fract_y
 _atom_site_fract_z
 _atom_site_occupancy
  Nd  Nd0  1  0.092772  0.295020  0.113838  1
  Nd  Nd1  1  0.794076  0.416776  0.116026  1
  Nd  Nd2  1  0.203558  0.588151  0.123529  1
  Nd  Nd3  1  0.911787  0.707885  0.115592  1
  Nd  Nd4  1  0.411849  0.796442  0.376471  1
  Nd  Nd5  1  0.583224  0.205924  0.383974  1
  Nd  Nd6  1  0.292115  0.088213  0.384408  1
  Nd  Nd7  1  0.704980  0.907228  0.386162  1
  Nd  Nd8  1  0.411790  0.207354  0.884710  1
  Nd  Nd9  1  0.704037  0.086805  0.876419  1
  Nd  Nd10  1  0.292969  0.916160  0.884740  1
  Nd  Nd11  1  0.592446  0.794792  0.885757  1
  Nd  Nd12  1  0.083840  0.707031  0.615260  1
  Nd  Nd13  1  0.913195  0.295963  0.623581  1
  Nd  Nd14  1  0.205208  0.407554  0.614243  1
  Nd  Nd15  1  0.792646  0.588210  0.615290  1
  Nd  Nd16  1  0.002993  0.997991  0.999757  1
  Nd  Nd17  1  0.501779  0.498340  0.000742  1
  Nd  Nd18  1  0.501660  0.498221  0.499258  1
  Nd  Nd19  1  0.002009  0.997007  0.500243  1
  Ir  Ir20  1  0.348295  0.348556  0.249871  1
  Ir  Ir21  1  0.651444  0.651705  0.250129  1
  Ir  Ir22  1  0.152113  0.152615  0.749715  1
  Ir  Ir23  1  0.847385  0.847887  0.750285  1
  Ir  Ir24  1  0.653910  0.346090  0.750000  1
  Pd  Pd25  1  0.846032  0.153968  0.250000  1
  Pd  Pd26  1  0.346460  0.653540  0.750000  1
  Ru  Ru27  1  0.152844  0.847156  0.250000  1
  Ru  Ru28  1  0.000491  0.499477  0.378076  1
  Ru  Ru29  1  0.500523  0.999509  0.121924  1
  Ru  Ru30  1  0.500570  0.998999  0.622579  1
  Ru  Ru31  1  0.001001  0.499430  0.877421  1
