# generated using pymatgen
data_Y8TiPd5Pt19
_symmetry_space_group_name_H-M   'P 1'
_cell_length_a   8.42859200
_cell_length_b   8.44273600
_cell_length_c   8.43925800
_cell_angle_alpha   90.00000000
_cell_angle_beta   90.00000000
_cell_angle_gamma   90.00000000
_symmetry_Int_Tables_number   1
_chemical_formula_structural   Y8TiPd5Pt19
_chemical_formula_sum   'Y8 Ti1 Pd5 Pt19'
_cell_volume   600.54078179
_cell_formula_units_Z   1
loop_
 _symmetry_equiv_pos_site_id
 _symmetry_equiv_pos_as_xyz
  1  'x, y, z'
loop_
 _atom_site_type_symbol
 _atom_site_label
 _atom_site_symmetry_multiplicity
 _atom_site_fract_x
 _atom_site_fract_y
 _atom_site_fract_z
 _atom_site_occupancy
  Y  Y0  1  0.250804  0.250875  0.251364  1
  Y  Y1  1  0.749465  0.749204  0.748585  1
  Y  Y2  1  0.749465  0.749204  0.251415  1
  Y  Y3  1  0.749196  0.250875  0.748636  1
  Y  Y4  1  0.250804  0.250875  0.748636  1
  Y  Y5  1  0.250535  0.749204  0.251415  1
  Y  Y6  1  0.250535  0.749204  0.748585  1
  Y  Y7  1  0.749196  0.250875  0.251364  1
  Ti  Ti8  1  0.000000  0.000356  0.000000  1
  Pd  Pd9  1  0.000000  0.499952  0.264463  1
  Pd  Pd10  1  0.000000  0.499952  0.735537  1
  Pd  Pd11  1  0.500000  0.744472  0.500000  1
  Pd  Pd12  1  0.500000  0.499942  0.255302  1
  Pd  Pd13  1  0.500000  0.499942  0.744698  1
  Pt  Pt14  1  0.264202  0.500072  0.000000  1
  Pt  Pt15  1  0.735798  0.500072  0.000000  1
  Pt  Pt16  1  0.000000  0.264846  0.500000  1
  Pt  Pt17  1  0.500000  0.265158  0.000000  1
  Pt  Pt18  1  0.000000  0.734602  0.500000  1
  Pt  Pt19  1  0.500000  0.734709  0.000000  1
  Pt  Pt20  1  0.500000  0.999987  0.264726  1
  Pt  Pt21  1  0.264713  0.000277  0.500000  1
  Pt  Pt22  1  0.500000  0.999987  0.735274  1
  Pt  Pt23  1  0.735287  0.000277  0.500000  1
  Pt  Pt24  1  0.253865  0.499538  0.500000  1
  Pt  Pt25  1  0.746135  0.499538  0.500000  1
  Pt  Pt26  1  0.500000  0.255455  0.500000  1
  Pt  Pt27  1  0.301991  0.999935  0.000000  1
  Pt  Pt28  1  0.698009  0.999935  0.000000  1
  Pt  Pt29  1  0.000000  0.302138  0.000000  1
  Pt  Pt30  1  0.000000  0.698617  0.000000  1
  Pt  Pt31  1  0.000000  0.999964  0.301253  1
  Pt  Pt32  1  0.000000  0.999964  0.698747  1
