# generated using pymatgen
data_Sr3Sn4Ir3Rh
_symmetry_space_group_name_H-M   'P 1'
_cell_length_a   7.09196249
_cell_length_b   7.07247263
_cell_length_c   7.09196235
_cell_angle_alpha   109.41556396
_cell_angle_beta   109.52682431
_cell_angle_gamma   109.41555946
_symmetry_Int_Tables_number   1
_chemical_formula_structural   Sr3Sn4Ir3Rh
_chemical_formula_sum   'Sr3 Sn4 Ir3 Rh1'
_cell_volume   274.01862506
_cell_formula_units_Z   1
loop_
 _symmetry_equiv_pos_site_id
 _symmetry_equiv_pos_as_xyz
  1  'x, y, z'
loop_
 _atom_site_type_symbol
 _atom_site_label
 _atom_site_symmetry_multiplicity
 _atom_site_fract_x
 _atom_site_fract_y
 _atom_site_fract_z
 _atom_site_occupancy
  Sr  Sr0  1  0.499164  0.499695  0.000000  1
  Sr  Sr1  1  0.000000  0.499695  0.499164  1
  Sr  Sr2  1  0.500836  0.000531  0.500836  1
  Sn  Sn3  1  0.385987  0.000330  0.000000  1
  Sn  Sn4  1  0.000000  0.000330  0.385987  1
  Sn  Sn5  1  0.000000  0.386103  0.000000  1
  Sn  Sn6  1  0.614012  0.614342  0.614013  1
  Ir  Ir7  1  0.000000  0.999318  0.750406  1
  Ir  Ir8  1  0.249594  0.248912  0.249594  1
  Ir  Ir9  1  0.750406  0.999318  0.000000  1
  Rh  Rh10  1  0.000000  0.751426  0.000000  1
