# generated using pymatgen
data_NdEr3U4(ReB6)4
_symmetry_space_group_name_H-M   'P 1'
_cell_length_a   3.64322500
_cell_length_b   9.31131811
_cell_length_c   11.43415836
_cell_angle_alpha   89.94404584
_cell_angle_beta   90.00000000
_cell_angle_gamma   90.00000000
_symmetry_Int_Tables_number   1
_chemical_formula_structural   NdEr3U4(ReB6)4
_chemical_formula_sum   'Nd1 Er3 U4 Re4 B24'
_cell_volume   387.88336384
_cell_formula_units_Z   1
loop_
 _symmetry_equiv_pos_site_id
 _symmetry_equiv_pos_as_xyz
  1  'x, y, z'
loop_
 _atom_site_type_symbol
 _atom_site_label
 _atom_site_symmetry_multiplicity
 _atom_site_fract_x
 _atom_site_fract_y
 _atom_site_fract_z
 _atom_site_occupancy
  Nd  Nd0  1  0.000000  0.162899  0.907729  1
  Er  Er1  1  0.000000  0.337272  0.407766  1
  Er  Er2  1  0.000000  0.662872  0.591693  1
  Er  Er3  1  0.000000  0.836637  0.092904  1
  U  U4  1  0.000000  0.956559  0.396398  1
  U  U5  1  0.000000  0.042982  0.603295  1
  U  U6  1  0.000000  0.457748  0.104473  1
  U  U7  1  0.000000  0.544210  0.896631  1
  Re  Re8  1  0.000000  0.645978  0.318403  1
  Re  Re9  1  0.000000  0.355639  0.680039  1
  Re  Re10  1  0.000000  0.145920  0.183343  1
  Re  Re11  1  0.000000  0.851278  0.817658  1
  B  B12  1  0.500000  0.551965  0.430886  1
  B  B13  1  0.500000  0.448933  0.568022  1
  B  B14  1  0.500000  0.051287  0.071255  1
  B  B15  1  0.500000  0.944373  0.930687  1
  B  B16  1  0.500000  0.742844  0.422858  1
  B  B17  1  0.500000  0.257744  0.575979  1
  B  B18  1  0.500000  0.244471  0.079291  1
  B  B19  1  0.500000  0.755370  0.922782  1
  B  B20  1  0.500000  0.802498  0.275290  1
  B  B21  1  0.500000  0.198853  0.723040  1
  B  B22  1  0.500000  0.302942  0.226234  1
  B  B23  1  0.500000  0.696462  0.774323  1
  B  B24  1  0.500000  0.645098  0.188716  1
  B  B25  1  0.500000  0.357651  0.810435  1
  B  B26  1  0.500000  0.144768  0.312264  1
  B  B27  1  0.500000  0.853562  0.687460  1
  B  B28  1  0.500000  0.989067  0.220453  1
  B  B29  1  0.500000  0.007351  0.778820  1
  B  B30  1  0.500000  0.489563  0.280969  1
  B  B31  1  0.500000  0.511342  0.718528  1
  B  B32  1  0.500000  0.640598  0.039287  1
  B  B33  1  0.500000  0.363838  0.962491  1
  B  B34  1  0.500000  0.140781  0.461145  1
  B  B35  1  0.500000  0.858642  0.538451  1
