# generated using pymatgen
data_Y11Th3Au20
_symmetry_space_group_name_H-M   'P 1'
_cell_length_a   8.83607965
_cell_length_b   8.83607997
_cell_length_c   10.44312399
_cell_angle_alpha   89.91600071
_cell_angle_beta   89.91600000
_cell_angle_gamma   107.32922145
_symmetry_Int_Tables_number   1
_chemical_formula_structural   Y11Th3Au20
_chemical_formula_sum   'Y11 Th3 Au20'
_cell_volume   778.34814467
_cell_formula_units_Z   1
loop_
 _symmetry_equiv_pos_site_id
 _symmetry_equiv_pos_as_xyz
  1  'x, y, z'
loop_
 _atom_site_type_symbol
 _atom_site_label
 _atom_site_symmetry_multiplicity
 _atom_site_fract_x
 _atom_site_fract_y
 _atom_site_fract_z
 _atom_site_occupancy
  Y  Y0  1  0.692365  0.305887  0.000441  1
  Y  Y1  1  0.305887  0.692365  0.000441  1
  Y  Y2  1  0.804362  0.195335  0.499851  1
  Y  Y3  1  0.195335  0.804362  0.499851  1
  Y  Y4  1  0.003235  0.003235  0.001443  1
  Y  Y5  1  0.498469  0.498469  0.496981  1
  Y  Y6  1  0.002813  0.497858  0.249952  1
  Y  Y7  1  0.998638  0.500005  0.750633  1
  Y  Y8  1  0.500005  0.998638  0.750633  1
  Y  Y9  1  0.497858  0.002813  0.249952  1
  Y  Y10  1  0.311091  0.311091  0.188844  1
  Th  Th11  1  0.689569  0.689569  0.811199  1
  Th  Th12  1  0.190026  0.190026  0.688580  1
  Th  Th13  1  0.810367  0.810367  0.310687  1
  Au  Au14  1  0.856729  0.149038  0.208289  1
  Au  Au15  1  0.141241  0.850551  0.792492  1
  Au  Au16  1  0.640271  0.350096  0.707733  1
  Au  Au17  1  0.649656  0.359543  0.290796  1
  Au  Au18  1  0.359543  0.649656  0.290796  1
  Au  Au19  1  0.350096  0.640271  0.707733  1
  Au  Au20  1  0.850551  0.141241  0.792492  1
  Au  Au21  1  0.149038  0.856729  0.208289  1
  Au  Au22  1  0.938354  0.645908  0.004760  1
  Au  Au23  1  0.062788  0.354781  0.996469  1
  Au  Au24  1  0.561036  0.854210  0.503069  1
  Au  Au25  1  0.145079  0.439095  0.496924  1
  Au  Au26  1  0.439095  0.145079  0.496924  1
  Au  Au27  1  0.854210  0.561036  0.503069  1
  Au  Au28  1  0.354781  0.062788  0.996469  1
  Au  Au29  1  0.645908  0.938354  0.004760  1
  Au  Au30  1  0.103279  0.103279  0.396945  1
  Au  Au31  1  0.899157  0.899157  0.600388  1
  Au  Au32  1  0.398239  0.398239  0.900202  1
  Au  Au33  1  0.600928  0.600928  0.101913  1
