# generated using pymatgen
data_Pa3Al3IrOs2
_symmetry_space_group_name_H-M   'P 1'
_cell_length_a   7.05150500
_cell_length_b   7.05150621
_cell_length_c   4.02573300
_cell_angle_alpha   90.00000000
_cell_angle_beta   90.00000000
_cell_angle_gamma   120.00000838
_symmetry_Int_Tables_number   1
_chemical_formula_structural   Pa3Al3IrOs2
_chemical_formula_sum   'Pa3 Al3 Ir1 Os2'
_cell_volume   173.35615816
_cell_formula_units_Z   1
loop_
 _symmetry_equiv_pos_site_id
 _symmetry_equiv_pos_as_xyz
  1  'x, y, z'
loop_
 _atom_site_type_symbol
 _atom_site_label
 _atom_site_symmetry_multiplicity
 _atom_site_fract_x
 _atom_site_fract_y
 _atom_site_fract_z
 _atom_site_occupancy
  Pa  Pa0  1  0.421932  0.421932  0.500000  1
  Pa  Pa1  1  0.578068  0.000000  0.500000  1
  Pa  Pa2  1  0.000000  0.578068  0.500000  1
  Al  Al3  1  0.765004  0.765004  0.000000  1
  Al  Al4  1  0.234996  0.000000  0.000000  1
  Al  Al5  1  0.000000  0.234996  0.000000  1
  Ir  Ir6  1  0.000000  0.000000  0.500000  1
  Os  Os7  1  0.666667  0.333333  0.000000  1
  Os  Os8  1  0.333333  0.666667  0.000000  1
