# generated using pymatgen
data_Sc13Ga3(Pt2O)4
_symmetry_space_group_name_H-M   'P 1'
_cell_length_a   8.56132767
_cell_length_b   8.56132697
_cell_length_c   8.56132827
_cell_angle_alpha   60.42463297
_cell_angle_beta   60.42463556
_cell_angle_gamma   60.42463214
_symmetry_Int_Tables_number   1
_chemical_formula_structural   Sc13Ga3(Pt2O)4
_chemical_formula_sum   'Sc13 Ga3 Pt8 O4'
_cell_volume   447.97965609
_cell_formula_units_Z   1
loop_
 _symmetry_equiv_pos_site_id
 _symmetry_equiv_pos_as_xyz
  1  'x, y, z'
loop_
 _atom_site_type_symbol
 _atom_site_label
 _atom_site_symmetry_multiplicity
 _atom_site_fract_x
 _atom_site_fract_y
 _atom_site_fract_z
 _atom_site_occupancy
  Sc  Sc0  1  0.625000  0.625000  0.625000  1
  Sc  Sc1  1  0.812438  0.812438  0.183648  1
  Sc  Sc2  1  0.187169  0.187169  0.810090  1
  Sc  Sc3  1  0.812438  0.183648  0.812438  1
  Sc  Sc4  1  0.187169  0.810090  0.187169  1
  Sc  Sc5  1  0.183648  0.812438  0.812438  1
  Sc  Sc6  1  0.810090  0.187169  0.187169  1
  Sc  Sc7  1  0.437562  0.437562  0.066352  1
  Sc  Sc8  1  0.062831  0.062831  0.439910  1
  Sc  Sc9  1  0.437562  0.066352  0.437562  1
  Sc  Sc10  1  0.062831  0.439910  0.062831  1
  Sc  Sc11  1  0.066352  0.437562  0.437562  1
  Sc  Sc12  1  0.439910  0.062831  0.062831  1
  Ga  Ga13  1  0.125000  0.625000  0.625000  1
  Ga  Ga14  1  0.625000  0.125000  0.625000  1
  Ga  Ga15  1  0.625000  0.625000  0.125000  1
  Pt  Pt16  1  0.766826  0.409068  0.409068  1
  Pt  Pt17  1  0.409068  0.766826  0.409068  1
  Pt  Pt18  1  0.409068  0.409068  0.766826  1
  Pt  Pt19  1  0.413339  0.413339  0.413339  1
  Pt  Pt20  1  0.483174  0.840932  0.840932  1
  Pt  Pt21  1  0.840932  0.483174  0.840932  1
  Pt  Pt22  1  0.840932  0.840932  0.483174  1
  Pt  Pt23  1  0.836661  0.836661  0.836661  1
  O  O24  1  0.625000  0.125000  0.125000  1
  O  O25  1  0.125000  0.625000  0.125000  1
  O  O26  1  0.125000  0.125000  0.625000  1
  O  O27  1  0.125000  0.125000  0.125000  1
