# generated using pymatgen
data_Sm3CrFeCo7P6
_symmetry_space_group_name_H-M   'P 1'
_cell_length_a   3.72514000
_cell_length_b   10.66592200
_cell_length_c   12.29424600
_cell_angle_alpha   90.00000000
_cell_angle_beta   90.00000000
_cell_angle_gamma   90.00000000
_symmetry_Int_Tables_number   1
_chemical_formula_structural   Sm3CrFeCo7P6
_chemical_formula_sum   'Sm6 Cr2 Fe2 Co14 P12'
_cell_volume   488.47562972
_cell_formula_units_Z   2
loop_
 _symmetry_equiv_pos_site_id
 _symmetry_equiv_pos_as_xyz
  1  'x, y, z'
loop_
 _atom_site_type_symbol
 _atom_site_label
 _atom_site_symmetry_multiplicity
 _atom_site_fract_x
 _atom_site_fract_y
 _atom_site_fract_z
 _atom_site_occupancy
  Sm  Sm0  1  0.000000  0.500000  0.523398  1
  Sm  Sm1  1  0.500000  0.000000  0.476602  1
  Sm  Sm2  1  0.500000  0.818820  0.203405  1
  Sm  Sm3  1  0.500000  0.181180  0.203405  1
  Sm  Sm4  1  0.000000  0.681180  0.796595  1
  Sm  Sm5  1  0.000000  0.318820  0.796595  1
  Cr  Cr6  1  0.500000  0.500000  0.151901  1
  Cr  Cr7  1  0.000000  0.000000  0.848099  1
  Fe  Fe8  1  0.000000  0.500000  0.989395  1
  Fe  Fe9  1  0.500000  0.000000  0.010605  1
  Co  Co10  1  0.500000  0.500000  0.701544  1
  Co  Co11  1  0.000000  0.000000  0.298456  1
  Co  Co12  1  0.500000  0.331972  0.994767  1
  Co  Co13  1  0.500000  0.668028  0.994767  1
  Co  Co14  1  0.000000  0.168028  0.005233  1
  Co  Co15  1  0.000000  0.831972  0.005233  1
  Co  Co16  1  0.500000  0.296202  0.430241  1
  Co  Co17  1  0.500000  0.703798  0.430241  1
  Co  Co18  1  0.000000  0.203798  0.569759  1
  Co  Co19  1  0.000000  0.796202  0.569759  1
  Co  Co20  1  0.500000  0.880618  0.709304  1
  Co  Co21  1  0.500000  0.119382  0.709304  1
  Co  Co22  1  0.000000  0.619382  0.290696  1
  Co  Co23  1  0.000000  0.380618  0.290696  1
  P  P24  1  0.500000  0.500000  0.885987  1
  P  P25  1  0.000000  0.000000  0.114013  1
  P  P26  1  0.500000  0.500000  0.343693  1
  P  P27  1  0.000000  0.000000  0.656307  1
  P  P28  1  0.500000  0.308776  0.615476  1
  P  P29  1  0.500000  0.691224  0.615476  1
  P  P30  1  0.000000  0.191224  0.384524  1
  P  P31  1  0.000000  0.808776  0.384524  1
  P  P32  1  0.500000  0.847684  0.895215  1
  P  P33  1  0.500000  0.152316  0.895215  1
  P  P34  1  0.000000  0.652316  0.104785  1
  P  P35  1  0.000000  0.347684  0.104785  1
