# generated using pymatgen
data_Eu3Ho2Pa(Al3Os)8
_symmetry_space_group_name_H-M   'P 1'
_cell_length_a   8.83971200
_cell_length_b   8.87176753
_cell_length_c   9.63841500
_cell_angle_alpha   90.00000000
_cell_angle_beta   90.00000000
_cell_angle_gamma   119.88054045
_symmetry_Int_Tables_number   1
_chemical_formula_structural   Eu3Ho2Pa(Al3Os)8
_chemical_formula_sum   'Eu3 Ho2 Pa1 Al24 Os8'
_cell_volume   655.39941350
_cell_formula_units_Z   1
loop_
 _symmetry_equiv_pos_site_id
 _symmetry_equiv_pos_as_xyz
  1  'x, y, z'
loop_
 _atom_site_type_symbol
 _atom_site_label
 _atom_site_symmetry_multiplicity
 _atom_site_fract_x
 _atom_site_fract_y
 _atom_site_fract_z
 _atom_site_occupancy
  Eu  Eu0  1  0.808852  0.617705  0.750000  1
  Eu  Eu1  1  0.385263  0.191045  0.750000  1
  Eu  Eu2  1  0.805781  0.191045  0.750000  1
  Ho  Ho3  1  0.610124  0.801276  0.250000  1
  Ho  Ho4  1  0.191153  0.801276  0.250000  1
  Pa  Pa5  1  0.197773  0.395545  0.250000  1
  Al  Al6  1  0.336734  0.673469  0.020507  1
  Al  Al7  1  0.667791  0.335580  0.995223  1
  Al  Al8  1  0.667791  0.335580  0.504777  1
  Al  Al9  1  0.336734  0.673469  0.479493  1
  Al  Al10  1  0.163469  0.326938  0.573572  1
  Al  Al11  1  0.837538  0.675075  0.424139  1
  Al  Al12  1  0.671925  0.835137  0.571239  1
  Al  Al13  1  0.837538  0.675075  0.075861  1
  Al  Al14  1  0.324106  0.161194  0.422485  1
  Al  Al15  1  0.163469  0.326938  0.926428  1
  Al  Al16  1  0.163211  0.835137  0.571239  1
  Al  Al17  1  0.324106  0.161194  0.077515  1
  Al  Al18  1  0.837087  0.161194  0.422485  1
  Al  Al19  1  0.671925  0.835137  0.928761  1
  Al  Al20  1  0.837087  0.161194  0.077515  1
  Al  Al21  1  0.163211  0.835137  0.928761  1
  Al  Al22  1  0.559297  0.118593  0.250000  1
  Al  Al23  1  0.435724  0.871448  0.750000  1
  Al  Al24  1  0.874432  0.438797  0.250000  1
  Al  Al25  1  0.123541  0.560588  0.750000  1
  Al  Al26  1  0.564363  0.438797  0.250000  1
  Al  Al27  1  0.437048  0.560588  0.750000  1
  Al  Al28  1  0.001398  0.002795  0.250000  1
  Al  Al29  1  0.000301  0.000603  0.750000  1
  Os  Os30  1  0.501412  0.002823  0.999915  1
  Os  Os31  1  0.004943  0.500020  0.008089  1
  Os  Os32  1  0.501412  0.002823  0.500085  1
  Os  Os33  1  0.495077  0.500020  0.008089  1
  Os  Os34  1  0.004943  0.500020  0.491911  1
  Os  Os35  1  0.495077  0.500020  0.491911  1
  Os  Os36  1  0.999180  0.998362  0.000315  1
  Os  Os37  1  0.999180  0.998362  0.499685  1
