# generated using pymatgen
data_Tb2Pr2DySn4
_symmetry_space_group_name_H-M   'P 1'
_cell_length_a   8.16164300
_cell_length_b   8.34179700
_cell_length_c   15.74339500
_cell_angle_alpha   90.00000000
_cell_angle_beta   90.00000000
_cell_angle_gamma   90.00000000
_symmetry_Int_Tables_number   1
_chemical_formula_structural   Tb2Pr2DySn4
_chemical_formula_sum   'Tb8 Pr8 Dy4 Sn16'
_cell_volume   1071.85392652
_cell_formula_units_Z   4
loop_
 _symmetry_equiv_pos_site_id
 _symmetry_equiv_pos_as_xyz
  1  'x, y, z'
loop_
 _atom_site_type_symbol
 _atom_site_label
 _atom_site_symmetry_multiplicity
 _atom_site_fract_x
 _atom_site_fract_y
 _atom_site_fract_z
 _atom_site_occupancy
  Tb  Tb0  1  0.360758  0.836071  0.877159  1
  Tb  Tb1  1  0.860758  0.663929  0.622841  1
  Tb  Tb2  1  0.639242  0.163929  0.377159  1
  Tb  Tb3  1  0.139242  0.336071  0.122841  1
  Tb  Tb4  1  0.639242  0.163929  0.122841  1
  Tb  Tb5  1  0.139242  0.336071  0.377159  1
  Tb  Tb6  1  0.360758  0.836071  0.622841  1
  Tb  Tb7  1  0.860758  0.663929  0.877159  1
  Pr  Pr8  1  0.514000  0.321737  0.903045  1
  Pr  Pr9  1  0.014000  0.178263  0.596955  1
  Pr  Pr10  1  0.486000  0.678263  0.403045  1
  Pr  Pr11  1  0.986000  0.821737  0.096955  1
  Pr  Pr12  1  0.486000  0.678263  0.096955  1
  Pr  Pr13  1  0.986000  0.821737  0.403045  1
  Pr  Pr14  1  0.514000  0.321737  0.596955  1
  Pr  Pr15  1  0.014000  0.178263  0.903045  1
  Dy  Dy16  1  0.195304  0.502153  0.750000  1
  Dy  Dy17  1  0.695304  0.997847  0.750000  1
  Dy  Dy18  1  0.804696  0.497847  0.250000  1
  Dy  Dy19  1  0.304696  0.002153  0.250000  1
  Sn  Sn20  1  0.303564  0.040957  0.042048  1
  Sn  Sn21  1  0.803564  0.459043  0.457952  1
  Sn  Sn22  1  0.696436  0.959043  0.542048  1
  Sn  Sn23  1  0.196436  0.540957  0.957952  1
  Sn  Sn24  1  0.696436  0.959043  0.957952  1
  Sn  Sn25  1  0.196436  0.540957  0.542048  1
  Sn  Sn26  1  0.303564  0.040957  0.457952  1
  Sn  Sn27  1  0.803564  0.459043  0.042048  1
  Sn  Sn28  1  0.560322  0.624014  0.750000  1
  Sn  Sn29  1  0.060322  0.875986  0.750000  1
  Sn  Sn30  1  0.439678  0.375986  0.250000  1
  Sn  Sn31  1  0.939678  0.124014  0.250000  1
  Sn  Sn32  1  0.323711  0.141993  0.750000  1
  Sn  Sn33  1  0.823711  0.358007  0.750000  1
  Sn  Sn34  1  0.676289  0.858007  0.250000  1
  Sn  Sn35  1  0.176289  0.641993  0.250000  1
