# generated using pymatgen
data_Tb2YLu7(In2Ni)4
_symmetry_space_group_name_H-M   'P 1'
_cell_length_a   3.54675400
_cell_length_b   7.93298783
_cell_length_c   17.75353923
_cell_angle_alpha   90.06572696
_cell_angle_beta   90.00000000
_cell_angle_gamma   90.00000000
_symmetry_Int_Tables_number   1
_chemical_formula_structural   Tb2YLu7(In2Ni)4
_chemical_formula_sum   'Tb2 Y1 Lu7 In8 Ni4'
_cell_volume   499.51957683
_cell_formula_units_Z   1
loop_
 _symmetry_equiv_pos_site_id
 _symmetry_equiv_pos_as_xyz
  1  'x, y, z'
loop_
 _atom_site_type_symbol
 _atom_site_label
 _atom_site_symmetry_multiplicity
 _atom_site_fract_x
 _atom_site_fract_y
 _atom_site_fract_z
 _atom_site_occupancy
  Tb  Tb0  1  0.000000  0.882290  0.087869  1
  Tb  Tb1  1  0.000000  0.500282  0.999614  1
  Y  Y2  1  0.000000  0.999717  0.500243  1
  Lu  Lu3  1  0.000000  0.754187  0.279013  1
  Lu  Lu4  1  0.000000  0.745148  0.778222  1
  Lu  Lu5  1  0.000000  0.383401  0.410458  1
  Lu  Lu6  1  0.000000  0.117011  0.909631  1
  Lu  Lu7  1  0.000000  0.245439  0.721298  1
  Lu  Lu8  1  0.000000  0.254326  0.222239  1
  Lu  Lu9  1  0.000000  0.616602  0.589998  1
  In  In10  1  0.500000  0.206755  0.069560  1
  In  In11  1  0.500000  0.425203  0.846686  1
  In  In12  1  0.500000  0.570878  0.153878  1
  In  In13  1  0.500000  0.074952  0.347851  1
  In  In14  1  0.500000  0.925166  0.652786  1
  In  In15  1  0.500000  0.797310  0.928972  1
  In  In16  1  0.500000  0.701489  0.431708  1
  In  In17  1  0.500000  0.298354  0.568622  1
  Ni  Ni18  1  0.500000  0.976999  0.197493  1
  Ni  Ni19  1  0.500000  0.024651  0.803619  1
  Ni  Ni20  1  0.500000  0.524313  0.695763  1
  Ni  Ni21  1  0.500000  0.475528  0.304476  1
