# generated using pymatgen
data_Dy18Er2Si15Ir
_symmetry_space_group_name_H-M   'P 1'
_cell_length_a   7.42807776
_cell_length_b   7.67074247
_cell_length_c   14.57921617
_cell_angle_alpha   89.77458930
_cell_angle_beta   89.69888037
_cell_angle_gamma   90.19972547
_symmetry_Int_Tables_number   1
_chemical_formula_structural   Dy18Er2Si15Ir
_chemical_formula_sum   'Dy18 Er2 Si15 Ir1'
_cell_volume   830.68427859
_cell_formula_units_Z   1
loop_
 _symmetry_equiv_pos_site_id
 _symmetry_equiv_pos_as_xyz
  1  'x, y, z'
loop_
 _atom_site_type_symbol
 _atom_site_label
 _atom_site_symmetry_multiplicity
 _atom_site_fract_x
 _atom_site_fract_y
 _atom_site_fract_z
 _atom_site_occupancy
  Dy  Dy0  1  0.847726  0.488262  0.758750  1
  Dy  Dy1  1  0.353009  0.010569  0.752581  1
  Dy  Dy2  1  0.973053  0.814503  0.097093  1
  Dy  Dy3  1  0.471045  0.682758  0.401258  1
  Dy  Dy4  1  0.530904  0.323842  0.901517  1
  Dy  Dy5  1  0.029715  0.184689  0.599464  1
  Dy  Dy6  1  0.027874  0.186788  0.902486  1
  Dy  Dy7  1  0.529994  0.317904  0.598699  1
  Dy  Dy8  1  0.475224  0.681078  0.098850  1
  Dy  Dy9  1  0.969977  0.817058  0.400512  1
  Dy  Dy10  1  0.684412  0.811675  0.882719  1
  Dy  Dy11  1  0.178770  0.681934  0.621681  1
  Dy  Dy12  1  0.817504  0.333005  0.118865  1
  Dy  Dy13  1  0.315942  0.178013  0.375985  1
  Dy  Dy14  1  0.320311  0.178648  0.123702  1
  Dy  Dy15  1  0.819235  0.319104  0.377106  1
  Dy  Dy16  1  0.175821  0.675667  0.878524  1
  Dy  Dy17  1  0.682793  0.818974  0.622354  1
  Er  Er18  1  0.648412  0.992593  0.248470  1
  Er  Er19  1  0.147952  0.511208  0.247544  1
  Si  Si20  1  0.764626  0.629798  0.252099  1
  Si  Si21  1  0.266121  0.871759  0.250671  1
  Si  Si22  1  0.733443  0.123392  0.748265  1
  Si  Si23  1  0.235975  0.373771  0.746314  1
  Si  Si24  1  0.019133  0.104857  0.248977  1
  Si  Si25  1  0.521941  0.396915  0.251378  1
  Si  Si26  1  0.471593  0.606146  0.746044  1
  Si  Si27  1  0.977219  0.898381  0.748061  1
  Si  Si28  1  0.354406  0.972131  0.539733  1
  Si  Si29  1  0.645811  0.026586  0.042574  1
  Si  Si30  1  0.147268  0.470615  0.459819  1
  Si  Si31  1  0.155253  0.472573  0.041558  1
  Si  Si32  1  0.643713  0.028263  0.459285  1
  Si  Si33  1  0.353680  0.969198  0.961595  1
  Si  Si34  1  0.854495  0.528763  0.538669  1
  Ir  Ir35  1  0.855656  0.518583  0.956797  1
