# generated using pymatgen
data_K10SrPb12
_symmetry_space_group_name_H-M   'P 1'
_cell_length_a   10.83139171
_cell_length_b   10.83139231
_cell_length_c   10.83139100
_cell_angle_alpha   109.47122006
_cell_angle_beta   109.47122118
_cell_angle_gamma   109.47121897
_symmetry_Int_Tables_number   1
_chemical_formula_structural   K10SrPb12
_chemical_formula_sum   'K10 Sr1 Pb12'
_cell_volume   978.20730104
_cell_formula_units_Z   1
loop_
 _symmetry_equiv_pos_site_id
 _symmetry_equiv_pos_as_xyz
  1  'x, y, z'
loop_
 _atom_site_type_symbol
 _atom_site_label
 _atom_site_symmetry_multiplicity
 _atom_site_fract_x
 _atom_site_fract_y
 _atom_site_fract_z
 _atom_site_occupancy
  K  K0  1  0.250000  0.500000  0.750000  1
  K  K1  1  0.397139  0.397139  0.397139  1
  K  K2  1  0.000000  0.602861  0.000000  1
  K  K3  1  0.602861  0.000000  0.000000  1
  K  K4  1  0.000000  0.000000  0.602861  1
  K  K5  1  0.750000  0.500000  0.250000  1
  K  K6  1  0.250000  0.750000  0.500000  1
  K  K7  1  0.750000  0.250000  0.500000  1
  K  K8  1  0.500000  0.250000  0.750000  1
  K  K9  1  0.500000  0.750000  0.250000  1
  Sr  Sr10  1  0.000000  0.000000  0.000000  1
  Pb  Pb11  1  0.644255  0.644255  0.825086  1
  Pb  Pb12  1  0.000000  0.180830  0.355745  1
  Pb  Pb13  1  0.180830  0.000000  0.355745  1
  Pb  Pb14  1  0.819170  0.174914  0.819170  1
  Pb  Pb15  1  0.174914  0.819170  0.819170  1
  Pb  Pb16  1  0.825086  0.644255  0.644255  1
  Pb  Pb17  1  0.000000  0.355745  0.180830  1
  Pb  Pb18  1  0.355745  0.000000  0.180830  1
  Pb  Pb19  1  0.644255  0.825086  0.644255  1
  Pb  Pb20  1  0.180830  0.355745  0.000000  1
  Pb  Pb21  1  0.355745  0.180830  0.000000  1
  Pb  Pb22  1  0.819170  0.819170  0.174914  1
