# generated using pymatgen
data_Th6Al24Re7Ru
_symmetry_space_group_name_H-M   'P 1'
_cell_length_a   9.00545700
_cell_length_b   9.00545579
_cell_length_c   9.71196000
_cell_angle_alpha   90.00000000
_cell_angle_beta   90.00000000
_cell_angle_gamma   119.99999344
_symmetry_Int_Tables_number   1
_chemical_formula_structural   Th6Al24Re7Ru
_chemical_formula_sum   'Th6 Al24 Re7 Ru1'
_cell_volume   682.10149387
_cell_formula_units_Z   1
loop_
 _symmetry_equiv_pos_site_id
 _symmetry_equiv_pos_as_xyz
  1  'x, y, z'
loop_
 _atom_site_type_symbol
 _atom_site_label
 _atom_site_symmetry_multiplicity
 _atom_site_fract_x
 _atom_site_fract_y
 _atom_site_fract_z
 _atom_site_occupancy
  Th  Th0  1  0.805059  0.610117  0.749402  1
  Th  Th1  1  0.194941  0.805059  0.250598  1
  Th  Th2  1  0.610117  0.805059  0.250598  1
  Th  Th3  1  0.389883  0.194941  0.749402  1
  Th  Th4  1  0.805059  0.194941  0.749402  1
  Th  Th5  1  0.194941  0.389883  0.250598  1
  Al  Al6  1  0.333333  0.666667  0.496149  1
  Al  Al7  1  0.666667  0.333333  0.998090  1
  Al  Al8  1  0.666667  0.333333  0.503851  1
  Al  Al9  1  0.333333  0.666667  0.001910  1
  Al  Al10  1  0.162110  0.324221  0.576512  1
  Al  Al11  1  0.675779  0.837890  0.576512  1
  Al  Al12  1  0.162110  0.837890  0.576512  1
  Al  Al13  1  0.838131  0.161869  0.075446  1
  Al  Al14  1  0.837890  0.162110  0.423488  1
  Al  Al15  1  0.838131  0.676261  0.075446  1
  Al  Al16  1  0.323739  0.161869  0.075446  1
  Al  Al17  1  0.676261  0.838131  0.924554  1
  Al  Al18  1  0.161869  0.323739  0.924554  1
  Al  Al19  1  0.837890  0.675779  0.423488  1
  Al  Al20  1  0.000000  0.000000  0.247079  1
  Al  Al21  1  0.000000  0.000000  0.752921  1
  Al  Al22  1  0.562819  0.125639  0.250167  1
  Al  Al23  1  0.437181  0.562819  0.749833  1
  Al  Al24  1  0.125639  0.562819  0.749833  1
  Al  Al25  1  0.874361  0.437181  0.250167  1
  Al  Al26  1  0.562819  0.437181  0.250167  1
  Al  Al27  1  0.437181  0.874361  0.749833  1
  Al  Al28  1  0.161869  0.838131  0.924554  1
  Al  Al29  1  0.324221  0.162110  0.423488  1
  Re  Re30  1  0.000000  0.000000  0.500000  1
  Re  Re31  1  0.500000  0.000000  0.500000  1
  Re  Re32  1  0.500000  0.500000  0.000000  1
  Re  Re33  1  0.000000  0.500000  0.000000  1
  Re  Re34  1  0.000000  0.500000  0.500000  1
  Re  Re35  1  0.500000  0.500000  0.500000  1
  Re  Re36  1  0.500000  0.000000  0.000000  1
  Ru  Ru37  1  0.000000  0.000000  0.000000  1
