# generated using pymatgen
data_Zr10CdSb6
_symmetry_space_group_name_H-M   'P 1'
_cell_length_a   5.91236586
_cell_length_b   8.67223528
_cell_length_c   8.65300348
_cell_angle_alpha   119.93050371
_cell_angle_beta   89.75368437
_cell_angle_gamma   90.12206633
_symmetry_Int_Tables_number   1
_chemical_formula_structural   Zr10CdSb6
_chemical_formula_sum   'Zr10 Cd1 Sb6'
_cell_volume   384.49399033
_cell_formula_units_Z   1
loop_
 _symmetry_equiv_pos_site_id
 _symmetry_equiv_pos_as_xyz
  1  'x, y, z'
loop_
 _atom_site_type_symbol
 _atom_site_label
 _atom_site_symmetry_multiplicity
 _atom_site_fract_x
 _atom_site_fract_y
 _atom_site_fract_z
 _atom_site_occupancy
  Zr  Zr0  1  0.499341  0.338477  0.671066  1
  Zr  Zr1  1  0.499331  0.661529  0.332594  1
  Zr  Zr2  1  0.001391  0.664465  0.332813  1
  Zr  Zr3  1  0.001395  0.335533  0.668332  1
  Zr  Zr4  1  0.771018  0.268077  0.000144  1
  Zr  Zr5  1  0.771030  0.731933  0.732072  1
  Zr  Zr6  1  0.787072  0.000007  0.264666  1
  Zr  Zr7  1  0.224104  0.729438  0.998889  1
  Zr  Zr8  1  0.224113  0.270556  0.269449  1
  Zr  Zr9  1  0.228957  0.999995  0.729997  1
  Cd  Cd10  1  0.263057  0.000010  0.384960  1
  Sb  Sb11  1  0.741541  0.614975  0.002689  1
  Sb  Sb12  1  0.741544  0.385033  0.387689  1
  Sb  Sb13  1  0.742985  0.000009  0.607409  1
  Sb  Sb14  1  0.253186  0.385381  0.999638  1
  Sb  Sb15  1  0.253247  0.614596  0.614255  1
  Sb  Sb16  1  0.496686  0.999985  0.003337  1
