# generated using pymatgen
data_Lu12Cd2FeTc2
_symmetry_space_group_name_H-M   'P 1'
_cell_length_a   8.24131062
_cell_length_b   8.24131203
_cell_length_c   8.24131096
_cell_angle_alpha   108.50984619
_cell_angle_beta   108.50985585
_cell_angle_gamma   111.41155056
_symmetry_Int_Tables_number   1
_chemical_formula_structural   Lu12Cd2FeTc2
_chemical_formula_sum   'Lu12 Cd2 Fe1 Tc2'
_cell_volume   430.51864312
_cell_formula_units_Z   1
loop_
 _symmetry_equiv_pos_site_id
 _symmetry_equiv_pos_as_xyz
  1  'x, y, z'
loop_
 _atom_site_type_symbol
 _atom_site_label
 _atom_site_symmetry_multiplicity
 _atom_site_fract_x
 _atom_site_fract_y
 _atom_site_fract_z
 _atom_site_occupancy
  Lu  Lu0  1  0.305741  0.305741  0.613436  1
  Lu  Lu1  1  0.692305  0.692305  0.386564  1
  Lu  Lu2  1  0.692305  0.305741  0.000000  1
  Lu  Lu3  1  0.305741  0.692305  0.000000  1
  Lu  Lu4  1  0.190194  0.431052  0.240858  1
  Lu  Lu5  1  0.807187  0.569625  0.762438  1
  Lu  Lu6  1  0.190194  0.949335  0.759142  1
  Lu  Lu7  1  0.949335  0.190194  0.759142  1
  Lu  Lu8  1  0.807187  0.044751  0.237562  1
  Lu  Lu9  1  0.044751  0.807187  0.237562  1
  Lu  Lu10  1  0.431052  0.190194  0.240858  1
  Lu  Lu11  1  0.569625  0.807187  0.762438  1
  Cd  Cd12  1  0.998013  0.498013  0.500000  1
  Cd  Cd13  1  0.498013  0.998013  0.500000  1
  Fe  Fe14  1  0.631932  0.631932  0.000000  1
  Tc  Tc15  1  0.385644  0.385644  0.000000  1
  Tc  Tc16  1  0.000781  0.000781  0.000000  1
