# generated using pymatgen
data_Nb8Cr2SiGeB4
_symmetry_space_group_name_H-M   'P 1'
_cell_length_a   7.25410355
_cell_length_b   7.25410389
_cell_length_c   7.25410461
_cell_angle_alpha   130.13645943
_cell_angle_beta   130.13645840
_cell_angle_gamma   73.18870768
_symmetry_Int_Tables_number   1
_chemical_formula_structural   Nb8Cr2SiGeB4
_chemical_formula_sum   'Nb8 Cr2 Si1 Ge1 B4'
_cell_volume   217.83860106
_cell_formula_units_Z   1
loop_
 _symmetry_equiv_pos_site_id
 _symmetry_equiv_pos_as_xyz
  1  'x, y, z'
loop_
 _atom_site_type_symbol
 _atom_site_label
 _atom_site_symmetry_multiplicity
 _atom_site_fract_x
 _atom_site_fract_y
 _atom_site_fract_z
 _atom_site_occupancy
  Nb  Nb0  1  0.803754  0.307866  0.840907  1
  Nb  Nb1  1  0.192134  0.696246  0.159093  1
  Nb  Nb2  1  0.466959  0.962847  0.159093  1
  Nb  Nb3  1  0.307866  0.466959  0.504112  1
  Nb  Nb4  1  0.033041  0.192134  0.495888  1
  Nb  Nb5  1  0.537153  0.033041  0.840907  1
  Nb  Nb6  1  0.696246  0.537153  0.504112  1
  Nb  Nb7  1  0.962847  0.803754  0.495888  1
  Cr  Cr8  1  0.999156  0.999156  0.000000  1
  Cr  Cr9  1  0.500844  0.500844  0.000000  1
  Si  Si10  1  0.750000  0.750000  0.000000  1
  Ge  Ge11  1  0.250000  0.250000  0.000000  1
  B  B12  1  0.118812  0.618812  0.737623  1
  B  B13  1  0.881188  0.381188  0.262377  1
  B  B14  1  0.618812  0.881188  0.500000  1
  B  B15  1  0.381188  0.118812  0.500000  1
