# generated using pymatgen
data_ErZrCuS4
_symmetry_space_group_name_H-M   'P 1'
_cell_length_a   7.54815271
_cell_length_b   7.54815229
_cell_length_c   7.54815326
_cell_angle_alpha   120.69821883
_cell_angle_beta   119.44024680
_cell_angle_gamma   89.88358697
_symmetry_Int_Tables_number   1
_chemical_formula_structural   ErZrCuS4
_chemical_formula_sum   'Er2 Zr2 Cu2 S8'
_cell_volume   303.72865723
_cell_formula_units_Z   2
loop_
 _symmetry_equiv_pos_site_id
 _symmetry_equiv_pos_as_xyz
  1  'x, y, z'
loop_
 _atom_site_type_symbol
 _atom_site_label
 _atom_site_symmetry_multiplicity
 _atom_site_fract_x
 _atom_site_fract_y
 _atom_site_fract_z
 _atom_site_occupancy
  Er  Er0  1  0.500000  0.500000  0.000000  1
  Er  Er1  1  0.000000  0.500000  0.500000  1
  Zr  Zr2  1  0.000000  0.500000  0.000000  1
  Zr  Zr3  1  0.000000  0.000000  0.500000  1
  Cu  Cu4  1  0.373125  0.123125  0.250000  1
  Cu  Cu5  1  0.626875  0.876875  0.750000  1
  S  S6  1  0.243658  0.753883  0.489775  1
  S  S7  1  0.764109  0.753883  0.010225  1
  S  S8  1  0.759226  0.761989  0.502763  1
  S  S9  1  0.759226  0.256464  0.997237  1
  S  S10  1  0.756342  0.246117  0.510225  1
  S  S11  1  0.235891  0.246117  0.989775  1
  S  S12  1  0.240774  0.238011  0.497237  1
  S  S13  1  0.240774  0.743536  0.002763  1
