# generated using pymatgen
data_La2PrAg(Pt2O7)2
_symmetry_space_group_name_H-M   'P 1'
_cell_length_a   7.34777761
_cell_length_b   7.34777691
_cell_length_c   7.35549456
_cell_angle_alpha   61.43868566
_cell_angle_beta   61.43868181
_cell_angle_gamma   61.42339599
_symmetry_Int_Tables_number   1
_chemical_formula_structural   La2PrAg(Pt2O7)2
_chemical_formula_sum   'La2 Pr1 Ag1 Pt4 O14'
_cell_volume   289.84826812
_cell_formula_units_Z   1
loop_
 _symmetry_equiv_pos_site_id
 _symmetry_equiv_pos_as_xyz
  1  'x, y, z'
loop_
 _atom_site_type_symbol
 _atom_site_label
 _atom_site_symmetry_multiplicity
 _atom_site_fract_x
 _atom_site_fract_y
 _atom_site_fract_z
 _atom_site_occupancy
  La  La0  1  0.625000  0.125000  0.125000  1
  La  La1  1  0.125000  0.625000  0.125000  1
  Pr  Pr2  1  0.125000  0.125000  0.625000  1
  Ag  Ag3  1  0.125000  0.125000  0.125000  1
  Pt  Pt4  1  0.625000  0.625000  0.125000  1
  Pt  Pt5  1  0.625000  0.625000  0.625000  1
  Pt  Pt6  1  0.625000  0.125000  0.625000  1
  Pt  Pt7  1  0.125000  0.625000  0.625000  1
  O  O8  1  0.694425  0.299568  0.299973  1
  O  O9  1  0.710597  0.710597  0.292531  1
  O  O10  1  0.299568  0.694425  0.299973  1
  O  O11  1  0.008898  0.008898  0.008175  1
  O  O12  1  0.712717  0.291577  0.709840  1
  O  O13  1  0.958423  0.537283  0.540160  1
  O  O14  1  0.291577  0.712717  0.709840  1
  O  O15  1  0.537283  0.958423  0.540160  1
  O  O16  1  0.241102  0.241102  0.241825  1
  O  O17  1  0.950432  0.555575  0.950027  1
  O  O18  1  0.539403  0.539403  0.957469  1
  O  O19  1  0.951066  0.951066  0.556434  1
  O  O20  1  0.555575  0.950432  0.950027  1
  O  O21  1  0.298934  0.298934  0.693566  1
