# generated using pymatgen
data_TcMoOs5Ru
_symmetry_space_group_name_H-M   'P 1'
_cell_length_a   5.54586847
_cell_length_b   5.54586910
_cell_length_c   4.35879400
_cell_angle_alpha   90.00000000
_cell_angle_beta   90.00000000
_cell_angle_gamma   119.95327194
_symmetry_Int_Tables_number   1
_chemical_formula_structural   TcMoOs5Ru
_chemical_formula_sum   'Tc1 Mo1 Os5 Ru1'
_cell_volume   116.15568146
_cell_formula_units_Z   1
loop_
 _symmetry_equiv_pos_site_id
 _symmetry_equiv_pos_as_xyz
  1  'x, y, z'
loop_
 _atom_site_type_symbol
 _atom_site_label
 _atom_site_symmetry_multiplicity
 _atom_site_fract_x
 _atom_site_fract_y
 _atom_site_fract_z
 _atom_site_occupancy
  Tc  Tc0  1  0.337785  0.662215  0.750000  1
  Mo  Mo1  1  0.666637  0.333363  0.250000  1
  Os  Os2  1  0.167336  0.335826  0.250000  1
  Os  Os3  1  0.664174  0.832664  0.250000  1
  Os  Os4  1  0.168408  0.831592  0.250000  1
  Os  Os5  1  0.829783  0.668774  0.750000  1
  Os  Os6  1  0.331226  0.170217  0.750000  1
  Ru  Ru7  1  0.834649  0.165351  0.750000  1
