# generated using pymatgen
data_Ta12Re6Tc5Mo
_symmetry_space_group_name_H-M   'P 1'
_cell_length_a   4.51507300
_cell_length_b   6.40036200
_cell_length_c   13.61904000
_cell_angle_alpha   90.00000000
_cell_angle_beta   90.00056112
_cell_angle_gamma   90.00000000
_symmetry_Int_Tables_number   1
_chemical_formula_structural   Ta12Re6Tc5Mo
_chemical_formula_sum   'Ta12 Re6 Tc5 Mo1'
_cell_volume   393.56440237
_cell_formula_units_Z   1
loop_
 _symmetry_equiv_pos_site_id
 _symmetry_equiv_pos_as_xyz
  1  'x, y, z'
loop_
 _atom_site_type_symbol
 _atom_site_label
 _atom_site_symmetry_multiplicity
 _atom_site_fract_x
 _atom_site_fract_y
 _atom_site_fract_z
 _atom_site_occupancy
  Ta  Ta0  1  0.500000  0.249758  0.000000  1
  Ta  Ta1  1  0.500000  0.750242  0.000000  1
  Ta  Ta2  1  0.999989  0.250110  0.166279  1
  Ta  Ta3  1  0.999989  0.749890  0.166279  1
  Ta  Ta4  1  0.499990  0.249929  0.333236  1
  Ta  Ta5  1  0.499990  0.750072  0.333236  1
  Ta  Ta6  1  0.000000  0.250243  0.500000  1
  Ta  Ta7  1  0.000000  0.749758  0.500000  1
  Ta  Ta8  1  0.500011  0.249929  0.666764  1
  Ta  Ta9  1  0.500011  0.750072  0.666764  1
  Ta  Ta10  1  0.000011  0.250110  0.833721  1
  Ta  Ta11  1  0.000011  0.749890  0.833721  1
  Re  Re12  1  0.000000  0.000000  0.000000  1
  Re  Re13  1  0.500002  0.500000  0.167587  1
  Re  Re14  1  0.000001  0.000000  0.333826  1
  Re  Re15  1  0.500001  0.500000  0.500000  1
  Re  Re16  1  0.999999  0.000000  0.666174  1
  Re  Re17  1  0.499999  0.500000  0.832413  1
  Tc  Tc18  1  0.500020  0.000000  0.167107  1
  Tc  Tc19  1  0.000003  0.500000  0.333994  1
  Tc  Tc20  1  0.500001  0.000000  0.500000  1
  Tc  Tc21  1  0.999997  0.500000  0.666006  1
  Tc  Tc22  1  0.499982  0.000000  0.832894  1
  Mo  Mo23  1  0.000000  0.500000  0.000000  1
