# generated using pymatgen
data_Eu6Sc(CoC4)3
_symmetry_space_group_name_H-M   'P 1'
_cell_length_a   8.32508200
_cell_length_b   8.32508207
_cell_length_c   5.23137100
_cell_angle_alpha   90.00000000
_cell_angle_beta   90.00000000
_cell_angle_gamma   120.00000768
_symmetry_Int_Tables_number   1
_chemical_formula_structural   Eu6Sc(CoC4)3
_chemical_formula_sum   'Eu6 Sc1 Co3 C12'
_cell_volume   313.99531044
_cell_formula_units_Z   1
loop_
 _symmetry_equiv_pos_site_id
 _symmetry_equiv_pos_as_xyz
  1  'x, y, z'
loop_
 _atom_site_type_symbol
 _atom_site_label
 _atom_site_symmetry_multiplicity
 _atom_site_fract_x
 _atom_site_fract_y
 _atom_site_fract_z
 _atom_site_occupancy
  Eu  Eu0  1  0.609060  0.677569  0.747765  1
  Eu  Eu1  1  0.931492  0.609060  0.252235  1
  Eu  Eu2  1  0.677569  0.068508  0.252235  1
  Eu  Eu3  1  0.322431  0.931492  0.747765  1
  Eu  Eu4  1  0.068508  0.390940  0.747765  1
  Eu  Eu5  1  0.390940  0.322431  0.252235  1
  Sc  Sc6  1  0.000000  0.000000  0.500000  1
  Co  Co7  1  0.000000  0.000000  0.000000  1
  Co  Co8  1  0.666667  0.333333  0.759175  1
  Co  Co9  1  0.333333  0.666667  0.240825  1
  C  C10  1  0.958838  0.753983  0.754665  1
  C  C11  1  0.204853  0.958838  0.245335  1
  C  C12  1  0.753983  0.795147  0.245335  1
  C  C13  1  0.246017  0.204853  0.754665  1
  C  C14  1  0.795147  0.041162  0.754665  1
  C  C15  1  0.041162  0.246017  0.245335  1
  C  C16  1  0.855577  0.570523  0.759772  1
  C  C17  1  0.285053  0.855577  0.240228  1
  C  C18  1  0.570523  0.714947  0.240228  1
  C  C19  1  0.429477  0.285053  0.759772  1
  C  C20  1  0.144423  0.429477  0.240228  1
  C  C21  1  0.714947  0.144423  0.759772  1
