# generated using pymatgen
data_Pr3Nd(Ga5Ir3)2
_symmetry_space_group_name_H-M   'P 1'
_cell_length_a   8.67724145
_cell_length_b   8.67671161
_cell_length_c   8.67671200
_cell_angle_alpha   140.74228883
_cell_angle_beta   108.27283413
_cell_angle_gamma   84.95929410
_symmetry_Int_Tables_number   1
_chemical_formula_structural   Pr3Nd(Ga5Ir3)2
_chemical_formula_sum   'Pr3 Nd1 Ga10 Ir6'
_cell_volume   379.27979021
_cell_formula_units_Z   1
loop_
 _symmetry_equiv_pos_site_id
 _symmetry_equiv_pos_as_xyz
  1  'x, y, z'
loop_
 _atom_site_type_symbol
 _atom_site_label
 _atom_site_symmetry_multiplicity
 _atom_site_fract_x
 _atom_site_fract_y
 _atom_site_fract_z
 _atom_site_occupancy
  Pr  Pr0  1  0.865906  0.635584  0.230321  1
  Pr  Pr1  1  0.134096  0.364401  0.769696  1
  Pr  Pr2  1  0.405318  0.135641  0.269678  1
  Nd  Nd3  1  0.594723  0.864415  0.730308  1
  Ga  Ga4  1  0.500033  0.750011  0.250126  1
  Ga  Ga5  1  0.500033  0.249908  0.750022  1
  Ga  Ga6  1  0.207833  0.957761  0.750022  1
  Ga  Ga7  1  0.792190  0.542368  0.750002  1
  Ga  Ga8  1  0.792190  0.042189  0.249822  1
  Ga  Ga9  1  0.207833  0.457810  0.250072  1
  Ga  Ga10  1  0.077542  0.907489  0.170054  1
  Ga  Ga11  1  0.922313  0.092396  0.829916  1
  Ga  Ga12  1  0.737338  0.407474  0.329864  1
  Ga  Ga13  1  0.262538  0.592514  0.670023  1
  Ir  Ir14  1  0.999940  0.750046  0.750023  1
  Ir  Ir15  1  0.999940  0.249917  0.249894  1
  Ir  Ir16  1  0.257114  0.852565  0.404551  1
  Ir  Ir17  1  0.743020  0.147446  0.595574  1
  Ir  Ir18  1  0.448222  0.352553  0.095670  1
  Ir  Ir19  1  0.551878  0.647515  0.904362  1
