# generated using pymatgen
data_Nd12Si8(IrRh3)3
_symmetry_space_group_name_H-M   'P 1'
_cell_length_a   5.72245303
_cell_length_b   7.77905004
_cell_length_c   14.97584300
_cell_angle_alpha   90.00000000
_cell_angle_beta   90.00000000
_cell_angle_gamma   90.01123678
_symmetry_Int_Tables_number   1
_chemical_formula_structural   Nd12Si8(IrRh3)3
_chemical_formula_sum   'Nd12 Si8 Ir3 Rh9'
_cell_volume   666.65335889
_cell_formula_units_Z   1
loop_
 _symmetry_equiv_pos_site_id
 _symmetry_equiv_pos_as_xyz
  1  'x, y, z'
loop_
 _atom_site_type_symbol
 _atom_site_label
 _atom_site_symmetry_multiplicity
 _atom_site_fract_x
 _atom_site_fract_y
 _atom_site_fract_z
 _atom_site_occupancy
  Nd  Nd0  1  0.138670  0.472625  0.890362  1
  Nd  Nd1  1  0.361619  0.972716  0.890113  1
  Nd  Nd2  1  0.607056  0.331814  0.750000  1
  Nd  Nd3  1  0.385970  0.668073  0.250000  1
  Nd  Nd4  1  0.638731  0.028140  0.390928  1
  Nd  Nd5  1  0.861065  0.525779  0.109104  1
  Nd  Nd6  1  0.861065  0.525779  0.390896  1
  Nd  Nd7  1  0.361619  0.972716  0.609887  1
  Nd  Nd8  1  0.892829  0.832163  0.750000  1
  Nd  Nd9  1  0.138670  0.472625  0.609638  1
  Nd  Nd10  1  0.638731  0.028140  0.109072  1
  Nd  Nd11  1  0.107893  0.166204  0.250000  1
  Si  Si12  1  0.368935  0.373422  0.099291  1
  Si  Si13  1  0.630475  0.626747  0.900798  1
  Si  Si14  1  0.869654  0.126740  0.900705  1
  Si  Si15  1  0.368935  0.373422  0.400709  1
  Si  Si16  1  0.869654  0.126740  0.599295  1
  Si  Si17  1  0.630475  0.626747  0.599202  1
  Si  Si18  1  0.131883  0.873508  0.402007  1
  Si  Si19  1  0.131883  0.873508  0.097993  1
  Ir  Ir20  1  0.576990  0.320937  0.250000  1
  Ir  Ir21  1  0.077489  0.179647  0.750000  1
  Ir  Ir22  1  0.423359  0.679277  0.750000  1
  Rh  Rh23  1  0.604990  0.338083  0.962052  1
  Rh  Rh24  1  0.397656  0.662038  0.038043  1
  Rh  Rh25  1  0.397656  0.662038  0.461957  1
  Rh  Rh26  1  0.103947  0.162469  0.462269  1
  Rh  Rh27  1  0.924036  0.820660  0.250000  1
  Rh  Rh28  1  0.103947  0.162469  0.037731  1
  Rh  Rh29  1  0.604990  0.338083  0.537948  1
  Rh  Rh30  1  0.894562  0.838345  0.538027  1
  Rh  Rh31  1  0.894562  0.838345  0.961973  1
