# generated using pymatgen
data_Ho12Fe4CuBi
_symmetry_space_group_name_H-M   'P 1'
_cell_length_a   8.31759082
_cell_length_b   8.31711624
_cell_length_c   8.31759152
_cell_angle_alpha   111.06489555
_cell_angle_beta   110.92126016
_cell_angle_gamma   106.47081960
_symmetry_Int_Tables_number   1
_chemical_formula_structural   Ho12Fe4CuBi
_chemical_formula_sum   'Ho12 Fe4 Cu1 Bi1'
_cell_volume   442.02281179
_cell_formula_units_Z   1
loop_
 _symmetry_equiv_pos_site_id
 _symmetry_equiv_pos_as_xyz
  1  'x, y, z'
loop_
 _atom_site_type_symbol
 _atom_site_label
 _atom_site_symmetry_multiplicity
 _atom_site_fract_x
 _atom_site_fract_y
 _atom_site_fract_z
 _atom_site_occupancy
  Ho  Ho0  1  0.814147  0.712227  0.526367  1
  Ho  Ho1  1  0.185853  0.287773  0.473633  1
  Ho  Ho2  1  0.185862  0.712227  0.898081  1
  Ho  Ho3  1  0.814138  0.287773  0.101919  1
  Ho  Ho4  1  0.690499  0.386423  0.695924  1
  Ho  Ho5  1  0.309501  0.613577  0.304076  1
  Ho  Ho6  1  0.690507  0.994640  0.304133  1
  Ho  Ho7  1  0.309493  0.005360  0.695867  1
  Ho  Ho8  1  0.583116  0.787012  0.796091  1
  Ho  Ho9  1  0.416884  0.212988  0.203909  1
  Ho  Ho10  1  0.990921  0.787012  0.203896  1
  Ho  Ho11  1  0.009079  0.212988  0.796104  1
  Fe  Fe12  1  0.615088  0.000000  0.615088  1
  Fe  Fe13  1  0.384912  0.000000  0.384912  1
  Fe  Fe14  1  0.107767  0.607856  0.500089  1
  Fe  Fe15  1  0.892233  0.392144  0.499911  1
  Cu  Cu16  1  0.000000  0.000000  0.000000  1
  Bi  Bi17  1  0.500000  0.500000  0.000000  1
