# generated using pymatgen
data_La10Mg(AlOs2)3
_symmetry_space_group_name_H-M   'P 1'
_cell_length_a   8.71672011
_cell_length_b   8.71671952
_cell_length_c   8.62790800
_cell_angle_alpha   109.26496361
_cell_angle_beta   109.26496225
_cell_angle_gamma   109.67668722
_symmetry_Int_Tables_number   1
_chemical_formula_structural   La10Mg(AlOs2)3
_chemical_formula_sum   'La10 Mg1 Al3 Os6'
_cell_volume   505.92828900
_cell_formula_units_Z   1
loop_
 _symmetry_equiv_pos_site_id
 _symmetry_equiv_pos_as_xyz
  1  'x, y, z'
loop_
 _atom_site_type_symbol
 _atom_site_label
 _atom_site_symmetry_multiplicity
 _atom_site_fract_x
 _atom_site_fract_y
 _atom_site_fract_z
 _atom_site_occupancy
  La  La0  1  0.245195  0.679054  0.433992  1
  La  La1  1  0.750077  0.808380  0.062800  1
  La  La2  1  0.433859  0.254805  0.688796  1
  La  La3  1  0.691620  0.441697  0.254420  1
  La  La4  1  0.058304  0.749923  0.812724  1
  La  La5  1  0.820946  0.066142  0.754937  1
  La  La6  1  0.214543  0.212411  0.212454  1
  La  La7  1  0.500001  0.000000  0.298236  1
  La  La8  1  0.287589  0.502133  0.000044  1
  La  La9  1  0.997868  0.285457  0.497913  1
  Mg  Mg10  1  0.500001  0.000000  0.914659  1
  Al  Al11  1  0.587042  0.588340  0.586328  1
  Al  Al12  1  0.911660  0.498704  0.997989  1
  Al  Al13  1  0.001297  0.912958  0.499287  1
  Os  Os14  1  0.240461  0.125671  0.861980  1
  Os  Os15  1  0.747016  0.385837  0.632823  1
  Os  Os16  1  0.885213  0.259541  0.121520  1
  Os  Os17  1  0.114162  0.861178  0.246987  1
  Os  Os18  1  0.638821  0.752984  0.385806  1
  Os  Os19  1  0.374328  0.614786  0.736308  1
