# generated using pymatgen
data_Yb3Sn3AsIr2
_symmetry_space_group_name_H-M   'P 1'
_cell_length_a   7.40511400
_cell_length_b   7.40511364
_cell_length_c   4.18260300
_cell_angle_alpha   90.00000000
_cell_angle_beta   90.00000000
_cell_angle_gamma   119.99999269
_symmetry_Int_Tables_number   1
_chemical_formula_structural   Yb3Sn3AsIr2
_chemical_formula_sum   'Yb3 Sn3 As1 Ir2'
_cell_volume   198.62814401
_cell_formula_units_Z   1
loop_
 _symmetry_equiv_pos_site_id
 _symmetry_equiv_pos_as_xyz
  1  'x, y, z'
loop_
 _atom_site_type_symbol
 _atom_site_label
 _atom_site_symmetry_multiplicity
 _atom_site_fract_x
 _atom_site_fract_y
 _atom_site_fract_z
 _atom_site_occupancy
  Yb  Yb0  1  0.993161  0.410075  0.500000  1
  Yb  Yb1  1  0.589925  0.583085  0.500000  1
  Yb  Yb2  1  0.416915  0.006839  0.500000  1
  Sn  Sn3  1  0.974457  0.738572  0.000000  1
  Sn  Sn4  1  0.261428  0.235885  0.000000  1
  Sn  Sn5  1  0.764115  0.025543  0.000000  1
  As  As6  1  0.333333  0.666667  0.000000  1
  Ir  Ir7  1  0.666667  0.333333  0.000000  1
  Ir  Ir8  1  0.000000  0.000000  0.500000  1
