# generated using pymatgen
data_Tb10Y5Th(CdNi)4
_symmetry_space_group_name_H-M   'P 1'
_cell_length_a   9.60487338
_cell_length_b   9.61400623
_cell_length_c   9.61399658
_cell_angle_alpha   60.05925068
_cell_angle_beta   60.05076136
_cell_angle_gamma   60.05074853
_symmetry_Int_Tables_number   1
_chemical_formula_structural   Tb10Y5Th(CdNi)4
_chemical_formula_sum   'Tb10 Y5 Th1 Cd4 Ni4'
_cell_volume   628.50993745
_cell_formula_units_Z   1
loop_
 _symmetry_equiv_pos_site_id
 _symmetry_equiv_pos_as_xyz
  1  'x, y, z'
loop_
 _atom_site_type_symbol
 _atom_site_label
 _atom_site_symmetry_multiplicity
 _atom_site_fract_x
 _atom_site_fract_y
 _atom_site_fract_z
 _atom_site_occupancy
  Tb  Tb0  1  0.598442  0.598330  0.201713  1
  Tb  Tb1  1  0.598441  0.201714  0.598331  1
  Tb  Tb2  1  0.201775  0.598352  0.598354  1
  Tb  Tb3  1  0.062425  0.439560  0.439560  1
  Tb  Tb4  1  0.439459  0.061908  0.061907  1
  Tb  Tb5  1  0.439685  0.062427  0.439574  1
  Tb  Tb6  1  0.061961  0.439615  0.061949  1
  Tb  Tb7  1  0.439685  0.439574  0.062425  1
  Tb  Tb8  1  0.061960  0.061950  0.439615  1
  Tb  Tb9  1  0.188199  0.814502  0.814501  1
  Y  Y10  1  0.812777  0.186446  0.186446  1
  Y  Y11  1  0.814310  0.188226  0.814313  1
  Y  Y12  1  0.186248  0.812984  0.186427  1
  Y  Y13  1  0.814309  0.814313  0.188226  1
  Y  Y14  1  0.186248  0.186426  0.812985  1
  Th  Th15  1  0.593639  0.594214  0.594214  1
  Cd  Cd16  1  0.830614  0.830779  0.830779  1
  Cd  Cd17  1  0.831755  0.831618  0.505422  1
  Cd  Cd18  1  0.831755  0.505422  0.831618  1
  Cd  Cd19  1  0.505761  0.831635  0.831634  1
  Ni  Ni20  1  0.392721  0.392812  0.392813  1
  Ni  Ni21  1  0.393724  0.393215  0.820436  1
  Ni  Ni22  1  0.393725  0.820435  0.393216  1
  Ni  Ni23  1  0.820382  0.393542  0.393542  1
