# generated using pymatgen
data_Pr(S8Cl)3
_symmetry_space_group_name_H-M   'P 1'
_cell_length_a   15.56552605
_cell_length_b   15.56552547
_cell_length_c   15.56552662
_cell_angle_alpha   119.22049571
_cell_angle_beta   119.22049926
_cell_angle_gamma   119.22049165
_symmetry_Int_Tables_number   1
_chemical_formula_structural   Pr(S8Cl)3
_chemical_formula_sum   'Pr1 S24 Cl3'
_cell_volume   863.21160713
_cell_formula_units_Z   1
loop_
 _symmetry_equiv_pos_site_id
 _symmetry_equiv_pos_as_xyz
  1  'x, y, z'
loop_
 _atom_site_type_symbol
 _atom_site_label
 _atom_site_symmetry_multiplicity
 _atom_site_fract_x
 _atom_site_fract_y
 _atom_site_fract_z
 _atom_site_occupancy
  Pr  Pr0  1  0.433238  0.433238  0.433238  1
  S  S1  1  0.012962  0.599437  0.599437  1
  S  S2  1  0.599437  0.599437  0.012962  1
  S  S3  1  0.599437  0.012962  0.599437  1
  S  S4  1  0.267035  0.866124  0.741203  1
  S  S5  1  0.866124  0.741203  0.267035  1
  S  S6  1  0.741203  0.267035  0.866124  1
  S  S7  1  0.866124  0.267035  0.741203  1
  S  S8  1  0.267035  0.741203  0.866124  1
  S  S9  1  0.741203  0.866124  0.267035  1
  S  S10  1  0.084926  0.602874  0.427590  1
  S  S11  1  0.602874  0.427590  0.084926  1
  S  S12  1  0.427590  0.084926  0.602874  1
  S  S13  1  0.602874  0.084926  0.427590  1
  S  S14  1  0.084926  0.427590  0.602874  1
  S  S15  1  0.427590  0.602874  0.084926  1
  S  S16  1  0.379337  0.761303  0.634970  1
  S  S17  1  0.761303  0.634970  0.379337  1
  S  S18  1  0.634970  0.379337  0.761303  1
  S  S19  1  0.761303  0.379337  0.634970  1
  S  S20  1  0.379337  0.634970  0.761303  1
  S  S21  1  0.634970  0.761303  0.379337  1
  S  S22  1  0.174059  0.448939  0.448939  1
  S  S23  1  0.448939  0.448939  0.174059  1
  S  S24  1  0.448939  0.174059  0.448939  1
  Cl  Cl25  1  0.018130  0.890618  0.890618  1
  Cl  Cl26  1  0.890618  0.890618  0.018130  1
  Cl  Cl27  1  0.890618  0.018130  0.890618  1
