# generated using pymatgen
data_MgZnAg4(SnO4)2
_symmetry_space_group_name_H-M   'P 1'
_cell_length_a   5.50576701
_cell_length_b   7.36667091
_cell_length_c   6.44710800
_cell_angle_alpha   115.96384509
_cell_angle_beta   89.99633585
_cell_angle_gamma   104.87355289
_symmetry_Int_Tables_number   1
_chemical_formula_structural   MgZnAg4(SnO4)2
_chemical_formula_sum   'Mg1 Zn1 Ag4 Sn2 O8'
_cell_volume   225.31434108
_cell_formula_units_Z   1
loop_
 _symmetry_equiv_pos_site_id
 _symmetry_equiv_pos_as_xyz
  1  'x, y, z'
loop_
 _atom_site_type_symbol
 _atom_site_label
 _atom_site_symmetry_multiplicity
 _atom_site_fract_x
 _atom_site_fract_y
 _atom_site_fract_z
 _atom_site_occupancy
  Mg  Mg0  1  0.500000  0.500001  0.250000  1
  Zn  Zn1  1  0.500000  0.500000  0.749999  1
  Ag  Ag2  1  0.999761  0.999050  0.499470  1
  Ag  Ag3  1  0.000239  0.000950  0.000533  1
  Ag  Ag4  1  0.500000  0.000000  0.250000  1
  Ag  Ag5  1  0.500000  0.000000  0.750000  1
  Sn  Sn6  1  0.000021  0.500019  0.499965  1
  Sn  Sn7  1  0.999980  0.499981  0.000036  1
  O  O8  1  0.380400  0.664637  0.579755  1
  O  O9  1  0.380390  0.664618  0.085011  1
  O  O10  1  0.619610  0.335382  0.414989  1
  O  O11  1  0.619599  0.335362  0.920245  1
  O  O12  1  0.892297  0.666583  0.333327  1
  O  O13  1  0.897234  0.668834  0.834469  1
  O  O14  1  0.102766  0.331165  0.665531  1
  O  O15  1  0.107702  0.333417  0.166672  1
