# generated using pymatgen
data_YbLuRh2O7
_symmetry_space_group_name_H-M   'P 1'
_cell_length_a   7.13094667
_cell_length_b   7.15741143
_cell_length_c   7.15741105
_cell_angle_alpha   60.12305126
_cell_angle_beta   60.12223760
_cell_angle_gamma   60.12224115
_symmetry_Int_Tables_number   1
_chemical_formula_structural   YbLuRh2O7
_chemical_formula_sum   'Yb2 Lu2 Rh4 O14'
_cell_volume   259.02866496
_cell_formula_units_Z   2
loop_
 _symmetry_equiv_pos_site_id
 _symmetry_equiv_pos_as_xyz
  1  'x, y, z'
loop_
 _atom_site_type_symbol
 _atom_site_label
 _atom_site_symmetry_multiplicity
 _atom_site_fract_x
 _atom_site_fract_y
 _atom_site_fract_z
 _atom_site_occupancy
  Yb  Yb0  1  0.625000  0.625000  0.125000  1
  Yb  Yb1  1  0.625000  0.125000  0.625000  1
  Lu  Lu2  1  0.625000  0.625000  0.625000  1
  Lu  Lu3  1  0.125000  0.625000  0.625000  1
  Rh  Rh4  1  0.125000  0.125000  0.125000  1
  Rh  Rh5  1  0.625000  0.125000  0.125000  1
  Rh  Rh6  1  0.125000  0.125000  0.625000  1
  Rh  Rh7  1  0.125000  0.625000  0.125000  1
  O  O8  1  0.042399  0.457601  0.457601  1
  O  O9  1  0.792421  0.791366  0.217787  1
  O  O10  1  0.793593  0.206407  0.206407  1
  O  O11  1  0.457579  0.032213  0.458634  1
  O  O12  1  0.758654  0.741346  0.741346  1
  O  O13  1  0.051574  0.458634  0.032213  1
  O  O14  1  0.051574  0.032213  0.458634  1
  O  O15  1  0.198426  0.791366  0.217787  1
  O  O16  1  0.198426  0.217787  0.791366  1
  O  O17  1  0.792421  0.217787  0.791366  1
  O  O18  1  0.491346  0.508654  0.508654  1
  O  O19  1  0.456407  0.043593  0.043593  1
  O  O20  1  0.457579  0.458634  0.032213  1
  O  O21  1  0.207601  0.792399  0.792399  1
