# generated using pymatgen
data_LaNdB6Ir4Rh5
_symmetry_space_group_name_H-M   'P 1'
_cell_length_a   5.69002700
_cell_length_b   5.69047546
_cell_length_c   8.60651700
_cell_angle_alpha   89.99968372
_cell_angle_beta   90.00047133
_cell_angle_gamma   119.99814347
_symmetry_Int_Tables_number   1
_chemical_formula_structural   LaNdB6Ir4Rh5
_chemical_formula_sum   'La1 Nd1 B6 Ir4 Rh5'
_cell_volume   241.33986700
_cell_formula_units_Z   1
loop_
 _symmetry_equiv_pos_site_id
 _symmetry_equiv_pos_as_xyz
  1  'x, y, z'
loop_
 _atom_site_type_symbol
 _atom_site_label
 _atom_site_symmetry_multiplicity
 _atom_site_fract_x
 _atom_site_fract_y
 _atom_site_fract_z
 _atom_site_occupancy
  La  La0  1  0.999996  0.999995  0.710510  1
  Nd  Nd1  1  0.999980  0.999991  0.295487  1
  B  B2  1  0.333897  0.667807  0.000369  1
  B  B3  1  0.666088  0.332200  0.000371  1
  B  B4  1  0.333720  0.667440  0.332158  1
  B  B5  1  0.666275  0.332558  0.332153  1
  B  B6  1  0.666828  0.333672  0.666385  1
  B  B7  1  0.333167  0.666330  0.666377  1
  Ir  Ir8  1  0.499992  0.999996  0.162151  1
  Ir  Ir9  1  0.499995  0.000006  0.500000  1
  Ir  Ir10  1  0.499993  0.500000  0.499309  1
  Ir  Ir11  1  0.999991  0.500008  0.499298  1
  Rh  Rh12  1  0.499987  0.499990  0.162350  1
  Rh  Rh13  1  0.999992  0.500001  0.162345  1
  Rh  Rh14  1  0.500007  0.000004  0.836466  1
  Rh  Rh15  1  0.499991  0.499997  0.837140  1
  Rh  Rh16  1  0.000000  0.500006  0.837133  1
