# generated using pymatgen
data_HfMgSc6(Si4Ru3)4
_symmetry_space_group_name_H-M   'P 1'
_cell_length_a   9.91948641
_cell_length_b   9.92278475
_cell_length_c   13.43993123
_cell_angle_alpha   53.80778719
_cell_angle_beta   53.66465981
_cell_angle_gamma   31.04535139
_symmetry_Int_Tables_number   1
_chemical_formula_structural   HfMgSc6(Si4Ru3)4
_chemical_formula_sum   'Hf1 Mg1 Sc6 Si16 Ru12'
_cell_volume   538.53767718
_cell_formula_units_Z   1
loop_
 _symmetry_equiv_pos_site_id
 _symmetry_equiv_pos_as_xyz
  1  'x, y, z'
loop_
 _atom_site_type_symbol
 _atom_site_label
 _atom_site_symmetry_multiplicity
 _atom_site_fract_x
 _atom_site_fract_y
 _atom_site_fract_z
 _atom_site_occupancy
  Hf  Hf0  1  0.294255  0.039210  0.135622  1
  Mg  Mg1  1  0.305791  0.560311  0.639478  1
  Sc  Sc2  1  0.438980  0.707795  0.854026  1
  Sc  Sc3  1  0.700104  0.443782  0.356270  1
  Sc  Sc4  1  0.561183  0.292507  0.145593  1
  Sc  Sc5  1  0.039936  0.288471  0.638402  1
  Sc  Sc6  1  0.709317  0.962352  0.860675  1
  Sc  Sc7  1  0.963762  0.705646  0.361609  1
  Si  Si8  1  0.872739  0.126081  0.250923  1
  Si  Si9  1  0.128674  0.869706  0.750782  1
  Si  Si10  1  0.383063  0.616765  0.249764  1
  Si  Si11  1  0.619003  0.378979  0.751145  1
  Si  Si12  1  0.972833  0.253657  0.895564  1
  Si  Si13  1  0.744825  0.027841  0.604543  1
  Si  Si14  1  0.025891  0.746110  0.108840  1
  Si  Si15  1  0.245281  0.983344  0.389487  1
  Si  Si16  1  0.575686  0.080773  0.067128  1
  Si  Si17  1  0.917294  0.424275  0.434633  1
  Si  Si18  1  0.427384  0.919541  0.931715  1
  Si  Si19  1  0.081721  0.575492  0.568017  1
  Si  Si20  1  0.385409  0.142606  0.397612  1
  Si  Si21  1  0.853660  0.614680  0.103600  1
  Si  Si22  1  0.613575  0.860965  0.598655  1
  Si  Si23  1  0.142800  0.387601  0.898404  1
  Ru  Ru24  1  0.645754  0.830077  0.283419  1
  Ru  Ru25  1  0.167208  0.351621  0.218016  1
  Ru  Ru26  1  0.755644  0.485788  0.069282  1
  Ru  Ru27  1  0.832358  0.646862  0.782754  1
  Ru  Ru28  1  0.900619  0.134713  0.587513  1
  Ru  Ru29  1  0.858399  0.103455  0.914577  1
  Ru  Ru30  1  0.101045  0.859563  0.412721  1
  Ru  Ru31  1  0.143925  0.897389  0.086030  1
  Ru  Ru32  1  0.243489  0.510319  0.934587  1
  Ru  Ru33  1  0.494384  0.750608  0.569659  1
  Ru  Ru34  1  0.504167  0.250189  0.431281  1
  Ru  Ru35  1  0.349841  0.170928  0.717675  1
