# generated using pymatgen
data_Nd6Y10Cd3Hg(IrPt)2
_symmetry_space_group_name_H-M   'P 1'
_cell_length_a   9.78291093
_cell_length_b   9.78196977
_cell_length_c   9.75469400
_cell_angle_alpha   60.19034902
_cell_angle_beta   60.15376400
_cell_angle_gamma   60.43663521
_symmetry_Int_Tables_number   1
_chemical_formula_structural   Nd6Y10Cd3Hg(IrPt)2
_chemical_formula_sum   'Nd6 Y10 Cd3 Hg1 Ir2 Pt2'
_cell_volume   663.95348851
_cell_formula_units_Z   1
loop_
 _symmetry_equiv_pos_site_id
 _symmetry_equiv_pos_as_xyz
  1  'x, y, z'
loop_
 _atom_site_type_symbol
 _atom_site_label
 _atom_site_symmetry_multiplicity
 _atom_site_fract_x
 _atom_site_fract_y
 _atom_site_fract_z
 _atom_site_occupancy
  Nd  Nd0  1  0.940169  0.562372  0.559096  1
  Nd  Nd1  1  0.559866  0.941291  0.939562  1
  Nd  Nd2  1  0.562434  0.940175  0.559167  1
  Nd  Nd3  1  0.941203  0.559802  0.939614  1
  Nd  Nd4  1  0.560189  0.560161  0.939328  1
  Nd  Nd5  1  0.940032  0.940168  0.559038  1
  Y  Y6  1  0.348660  0.348488  0.346574  1
  Y  Y7  1  0.350530  0.350687  0.952816  1
  Y  Y8  1  0.356381  0.944595  0.350831  1
  Y  Y9  1  0.944846  0.356291  0.350632  1
  Y  Y10  1  0.808128  0.190392  0.186670  1
  Y  Y11  1  0.186915  0.808098  0.814037  1
  Y  Y12  1  0.190334  0.808140  0.186796  1
  Y  Y13  1  0.808062  0.187036  0.814036  1
  Y  Y14  1  0.188599  0.188770  0.811811  1
  Y  Y15  1  0.812885  0.812961  0.182854  1
  Cd  Cd16  1  0.579709  0.579686  0.259668  1
  Cd  Cd17  1  0.579246  0.261020  0.579541  1
  Cd  Cd18  1  0.260970  0.579253  0.579569  1
  Hg  Hg19  1  0.582898  0.582913  0.582262  1
  Ir  Ir20  1  0.140445  0.574284  0.143642  1
  Ir  Ir21  1  0.574221  0.140350  0.143583  1
  Pt  Pt22  1  0.142148  0.142012  0.145811  1
  Pt  Pt23  1  0.141132  0.141055  0.573060  1
