# generated using pymatgen
data_Th2Al19VRe4
_symmetry_space_group_name_H-M   'P 1'
_cell_length_a   6.93364906
_cell_length_b   6.93364998
_cell_length_c   9.24390296
_cell_angle_alpha   90.12619431
_cell_angle_beta   89.87380522
_cell_angle_gamma   97.11078787
_symmetry_Int_Tables_number   1
_chemical_formula_structural   Th2Al19VRe4
_chemical_formula_sum   'Th2 Al19 V1 Re4'
_cell_volume   440.98523623
_cell_formula_units_Z   1
loop_
 _symmetry_equiv_pos_site_id
 _symmetry_equiv_pos_as_xyz
  1  'x, y, z'
loop_
 _atom_site_type_symbol
 _atom_site_label
 _atom_site_symmetry_multiplicity
 _atom_site_fract_x
 _atom_site_fract_y
 _atom_site_fract_z
 _atom_site_occupancy
  Th  Th0  1  0.869855  0.125801  0.748014  1
  Th  Th1  1  0.125799  0.869850  0.251986  1
  Al  Al2  1  0.519118  0.779940  0.757377  1
  Al  Al3  1  0.480971  0.216266  0.251973  1
  Al  Al4  1  0.599041  0.860668  0.246473  1
  Al  Al5  1  0.162388  0.843024  0.602574  1
  Al  Al6  1  0.229553  0.229557  0.000000  1
  Al  Al7  1  0.141248  0.403958  0.251170  1
  Al  Al8  1  0.628217  0.380961  0.956196  1
  Al  Al9  1  0.845381  0.145889  0.097291  1
  Al  Al10  1  0.378036  0.620796  0.454363  1
  Al  Al11  1  0.145887  0.845378  0.902709  1
  Al  Al12  1  0.216265  0.480970  0.748027  1
  Al  Al13  1  0.380958  0.628213  0.043805  1
  Al  Al14  1  0.843027  0.162388  0.397426  1
  Al  Al15  1  0.620798  0.378037  0.545639  1
  Al  Al16  1  0.403957  0.141248  0.748829  1
  Al  Al17  1  0.779943  0.519117  0.242622  1
  Al  Al18  1  0.774059  0.774057  0.500000  1
  Al  Al19  1  0.227200  0.227202  0.500000  1
  Al  Al20  1  0.860670  0.599040  0.753528  1
  V  V21  1  0.760804  0.760808  0.999999  1
  Re  Re22  1  0.997853  0.504680  0.499308  1
  Re  Re23  1  0.005569  0.498730  0.001358  1
  Re  Re24  1  0.498722  0.005576  0.998638  1
  Re  Re25  1  0.504680  0.997849  0.500697  1
