# generated using pymatgen
data_Tb10Tl3Tc
_symmetry_space_group_name_H-M   'P 1'
_cell_length_a   9.84216800
_cell_length_b   9.84216755
_cell_length_c   9.80531900
_cell_angle_alpha   90.00000000
_cell_angle_beta   90.00000000
_cell_angle_gamma   120.00000150
_symmetry_Int_Tables_number   1
_chemical_formula_structural   Tb10Tl3Tc
_chemical_formula_sum   'Tb20 Tl6 Tc2'
_cell_volume   822.57192098
_cell_formula_units_Z   2
loop_
 _symmetry_equiv_pos_site_id
 _symmetry_equiv_pos_as_xyz
  1  'x, y, z'
loop_
 _atom_site_type_symbol
 _atom_site_label
 _atom_site_symmetry_multiplicity
 _atom_site_fract_x
 _atom_site_fract_y
 _atom_site_fract_z
 _atom_site_occupancy
  Tb  Tb0  1  0.000000  0.000000  0.500000  1
  Tb  Tb1  1  0.000000  0.000000  0.000000  1
  Tb  Tb2  1  0.210436  0.789564  0.438372  1
  Tb  Tb3  1  0.210436  0.420875  0.438372  1
  Tb  Tb4  1  0.579125  0.789564  0.438372  1
  Tb  Tb5  1  0.789564  0.210436  0.561628  1
  Tb  Tb6  1  0.789564  0.579125  0.561628  1
  Tb  Tb7  1  0.420875  0.210436  0.561628  1
  Tb  Tb8  1  0.789564  0.210436  0.938372  1
  Tb  Tb9  1  0.789564  0.579125  0.938372  1
  Tb  Tb10  1  0.420875  0.210436  0.938372  1
  Tb  Tb11  1  0.210436  0.789564  0.061628  1
  Tb  Tb12  1  0.210436  0.420875  0.061628  1
  Tb  Tb13  1  0.579125  0.789564  0.061628  1
  Tb  Tb14  1  0.537549  0.462451  0.250000  1
  Tb  Tb15  1  0.537549  0.075099  0.250000  1
  Tb  Tb16  1  0.924901  0.462451  0.250000  1
  Tb  Tb17  1  0.462451  0.537549  0.750000  1
  Tb  Tb18  1  0.462451  0.924901  0.750000  1
  Tb  Tb19  1  0.075099  0.537549  0.750000  1
  Tl  Tl20  1  0.882144  0.117856  0.250000  1
  Tl  Tl21  1  0.882144  0.764289  0.250000  1
  Tl  Tl22  1  0.235711  0.117856  0.250000  1
  Tl  Tl23  1  0.117856  0.882144  0.750000  1
  Tl  Tl24  1  0.117856  0.235711  0.750000  1
  Tl  Tl25  1  0.764289  0.882144  0.750000  1
  Tc  Tc26  1  0.333333  0.666667  0.250000  1
  Tc  Tc27  1  0.666667  0.333333  0.750000  1
