# generated using pymatgen
data_TbNdTh2(Al3Ir)6
_symmetry_space_group_name_H-M   'P 1'
_cell_length_a   7.63071301
_cell_length_b   7.63934552
_cell_length_c   9.52561700
_cell_angle_alpha   90.00000000
_cell_angle_beta   90.00000000
_cell_angle_gamma   119.49980649
_symmetry_Int_Tables_number   1
_chemical_formula_structural   TbNdTh2(Al3Ir)6
_chemical_formula_sum   'Tb1 Nd1 Th2 Al18 Ir6'
_cell_volume   483.29465772
_cell_formula_units_Z   1
loop_
 _symmetry_equiv_pos_site_id
 _symmetry_equiv_pos_as_xyz
  1  'x, y, z'
loop_
 _atom_site_type_symbol
 _atom_site_label
 _atom_site_symmetry_multiplicity
 _atom_site_fract_x
 _atom_site_fract_y
 _atom_site_fract_z
 _atom_site_occupancy
  Tb  Tb0  1  0.328320  0.005419  0.750000  1
  Nd  Nd1  1  0.004547  0.328931  0.750000  1
  Th  Th2  1  0.995288  0.671347  0.250000  1
  Th  Th3  1  0.671307  0.994601  0.250000  1
  Al  Al4  1  0.135531  0.134002  0.250000  1
  Al  Al5  1  0.872349  0.871967  0.750000  1
  Al  Al6  1  0.005784  0.335543  0.071834  1
  Al  Al7  1  0.999909  0.666389  0.920485  1
  Al  Al8  1  0.999909  0.666389  0.579515  1
  Al  Al9  1  0.335488  0.005048  0.430664  1
  Al  Al10  1  0.005784  0.335543  0.428166  1
  Al  Al11  1  0.662775  0.998479  0.579406  1
  Al  Al12  1  0.662775  0.998479  0.920594  1
  Al  Al13  1  0.335488  0.005048  0.069336  1
  Al  Al14  1  0.333483  0.332534  0.554423  1
  Al  Al15  1  0.663096  0.662945  0.456227  1
  Al  Al16  1  0.663096  0.662945  0.043773  1
  Al  Al17  1  0.333483  0.332534  0.945577  1
  Al  Al18  1  0.341285  0.543488  0.250000  1
  Al  Al19  1  0.657518  0.449029  0.750000  1
  Al  Al20  1  0.543744  0.339051  0.250000  1
  Al  Al21  1  0.449837  0.660620  0.750000  1
  Ir  Ir22  1  0.672773  0.328712  0.002095  1
  Ir  Ir23  1  0.328844  0.673323  0.002303  1
  Ir  Ir24  1  0.328844  0.673323  0.497697  1
  Ir  Ir25  1  0.672773  0.328712  0.497905  1
  Ir  Ir26  1  0.997984  0.997798  0.002844  1
  Ir  Ir27  1  0.997984  0.997798  0.497156  1
