# generated using pymatgen
data_Zr2Co10Si7Ir2
_symmetry_space_group_name_H-M   'P 1'
_cell_length_a   9.08003509
_cell_length_b   9.12774457
_cell_length_c   3.65168800
_cell_angle_alpha   90.00000000
_cell_angle_beta   90.00000000
_cell_angle_gamma   120.01418040
_symmetry_Int_Tables_number   1
_chemical_formula_structural   Zr2Co10Si7Ir2
_chemical_formula_sum   'Zr2 Co10 Si7 Ir2'
_cell_volume   262.06753686
_cell_formula_units_Z   1
loop_
 _symmetry_equiv_pos_site_id
 _symmetry_equiv_pos_as_xyz
  1  'x, y, z'
loop_
 _atom_site_type_symbol
 _atom_site_label
 _atom_site_symmetry_multiplicity
 _atom_site_fract_x
 _atom_site_fract_y
 _atom_site_fract_z
 _atom_site_occupancy
  Zr  Zr0  1  0.997304  0.000500  0.000000  1
  Zr  Zr1  1  0.332614  0.668293  0.500000  1
  Co  Co2  1  0.289229  0.391911  0.000000  1
  Co  Co3  1  0.105419  0.712129  0.000000  1
  Co  Co4  1  0.384091  0.177069  0.000000  1
  Co  Co5  1  0.795581  0.617600  0.000000  1
  Co  Co6  1  0.818820  0.204181  0.000000  1
  Co  Co7  1  0.233732  0.952158  0.500000  1
  Co  Co8  1  0.047025  0.275554  0.500000  1
  Co  Co9  1  0.723402  0.772498  0.500000  1
  Co  Co10  1  0.557283  0.093831  0.500000  1
  Co  Co11  1  0.607305  0.897063  0.000000  1
  Si  Si12  1  0.664886  0.330191  0.000000  1
  Si  Si13  1  0.075441  0.446233  0.000000  1
  Si  Si14  1  0.254379  0.213321  0.500000  1
  Si  Si15  1  0.778426  0.039950  0.500000  1
  Si  Si16  1  0.963055  0.747975  0.500000  1
  Si  Si17  1  0.552626  0.629450  0.000000  1
  Si  Si18  1  0.377728  0.929063  0.000000  1
  Ir  Ir19  1  0.900749  0.461258  0.500000  1
  Ir  Ir20  1  0.540903  0.439772  0.500000  1
