# generated using pymatgen
data_NpMo7O24
_symmetry_space_group_name_H-M   'P 1'
_cell_length_a   7.80534511
_cell_length_b   7.70217289
_cell_length_c   10.97272964
_cell_angle_alpha   45.78969759
_cell_angle_beta   90.07975121
_cell_angle_gamma   90.11656112
_symmetry_Int_Tables_number   1
_chemical_formula_structural   NpMo7O24
_chemical_formula_sum   'Np1 Mo7 O24'
_cell_volume   472.83346405
_cell_formula_units_Z   1
loop_
 _symmetry_equiv_pos_site_id
 _symmetry_equiv_pos_as_xyz
  1  'x, y, z'
loop_
 _atom_site_type_symbol
 _atom_site_label
 _atom_site_symmetry_multiplicity
 _atom_site_fract_x
 _atom_site_fract_y
 _atom_site_fract_z
 _atom_site_occupancy
  Np  Np0  1  0.494416  0.515802  0.742045  1
  Mo  Mo1  1  0.996910  0.450814  0.780942  1
  Mo  Mo2  1  0.525943  0.452529  0.279635  1
  Mo  Mo3  1  0.028968  0.508110  0.224733  1
  Mo  Mo4  1  0.469474  0.990318  0.237584  1
  Mo  Mo5  1  0.968511  0.954163  0.278352  1
  Mo  Mo6  1  0.528896  0.978546  0.779494  1
  Mo  Mo7  1  0.023325  0.008639  0.720733  1
  O  O8  1  0.004205  0.732568  0.500979  1
  O  O9  1  0.509863  0.283929  0.005844  1
  O  O10  1  0.997203  0.271822  0.498786  1
  O  O11  1  0.499023  0.726001  0.000208  1
  O  O12  1  0.484719  0.744045  0.483425  1
  O  O13  1  0.983499  0.267269  0.002778  1
  O  O14  1  0.515426  0.286321  0.499389  1
  O  O15  1  0.012340  0.735666  0.999032  1
  O  O16  1  0.030019  0.227549  0.774597  1
  O  O17  1  0.531453  0.808519  0.710210  1
  O  O18  1  0.973979  0.765443  0.235874  1
  O  O19  1  0.478118  0.225742  0.278999  1
  O  O20  1  0.455908  0.223838  0.770974  1
  O  O21  1  0.964274  0.773394  0.731168  1
  O  O22  1  0.514250  0.784973  0.215781  1
  O  O23  1  0.022914  0.237476  0.264004  1
  O  O24  1  0.249675  0.979617  0.738120  1
  O  O25  1  0.754173  0.023506  0.767100  1
  O  O26  1  0.744642  0.008175  0.264325  1
  O  O27  1  0.242219  0.998600  0.230928  1
  O  O28  1  0.253415  0.522032  0.251764  1
  O  O29  1  0.752785  0.483189  0.246485  1
  O  O30  1  0.755506  0.486892  0.734987  1
  O  O31  1  0.233949  0.544513  0.750723  1
