# generated using pymatgen
data_HoTm2In3HgPt2
_symmetry_space_group_name_H-M   'P 1'
_cell_length_a   7.68418381
_cell_length_b   7.68591250
_cell_length_c   3.96589700
_cell_angle_alpha   90.00000000
_cell_angle_beta   90.00000000
_cell_angle_gamma   120.09056609
_symmetry_Int_Tables_number   1
_chemical_formula_structural   HoTm2In3HgPt2
_chemical_formula_sum   'Ho1 Tm2 In3 Hg1 Pt2'
_cell_volume   202.66006657
_cell_formula_units_Z   1
loop_
 _symmetry_equiv_pos_site_id
 _symmetry_equiv_pos_as_xyz
  1  'x, y, z'
loop_
 _atom_site_type_symbol
 _atom_site_label
 _atom_site_symmetry_multiplicity
 _atom_site_fract_x
 _atom_site_fract_y
 _atom_site_fract_z
 _atom_site_occupancy
  Ho  Ho0  1  0.390703  0.410890  0.500000  1
  Tm  Tm1  1  0.589181  0.979368  0.500000  1
  Tm  Tm2  1  0.020721  0.609892  0.500000  1
  In  In3  1  0.001561  0.256425  0.000000  1
  In  In4  1  0.743525  0.745588  0.000000  1
  In  In5  1  0.254499  0.997697  0.000000  1
  Hg  Hg6  1  0.667178  0.333147  0.000000  1
  Pt  Pt7  1  0.999539  0.999521  0.500000  1
  Pt  Pt8  1  0.333092  0.667473  0.000000  1
