# generated using pymatgen
data_K2NdY(SbAu)4
_symmetry_space_group_name_H-M   'P 1'
_cell_length_a   4.63849400
_cell_length_b   4.63849395
_cell_length_c   19.18942100
_cell_angle_alpha   90.00000000
_cell_angle_beta   90.00000000
_cell_angle_gamma   120.00001465
_symmetry_Int_Tables_number   1
_chemical_formula_structural   K2NdY(SbAu)4
_chemical_formula_sum   'K2 Nd1 Y1 Sb4 Au4'
_cell_volume   357.55794446
_cell_formula_units_Z   1
loop_
 _symmetry_equiv_pos_site_id
 _symmetry_equiv_pos_as_xyz
  1  'x, y, z'
loop_
 _atom_site_type_symbol
 _atom_site_label
 _atom_site_symmetry_multiplicity
 _atom_site_fract_x
 _atom_site_fract_y
 _atom_site_fract_z
 _atom_site_occupancy
  K  K0  1  0.000000  0.000000  0.500590  1
  K  K1  1  0.000000  0.000000  0.999410  1
  Nd  Nd2  1  0.000000  0.000000  0.250000  1
  Y  Y3  1  0.000000  0.000000  0.750000  1
  Sb  Sb4  1  0.333333  0.666667  0.367938  1
  Sb  Sb5  1  0.666667  0.333333  0.634545  1
  Sb  Sb6  1  0.666667  0.333333  0.865455  1
  Sb  Sb7  1  0.333333  0.666667  0.132062  1
  Au  Au8  1  0.666667  0.333333  0.340691  1
  Au  Au9  1  0.333333  0.666667  0.666107  1
  Au  Au10  1  0.333333  0.666667  0.833893  1
  Au  Au11  1  0.666667  0.333333  0.159309  1
