# generated using pymatgen
data_Ti5Cr(SnRu2)6
_symmetry_space_group_name_H-M   'P 1'
_cell_length_a   4.45212700
_cell_length_b   6.27814600
_cell_length_c   13.33700700
_cell_angle_alpha   90.00000000
_cell_angle_beta   90.00005583
_cell_angle_gamma   90.00000000
_symmetry_Int_Tables_number   1
_chemical_formula_structural   Ti5Cr(SnRu2)6
_chemical_formula_sum   'Ti5 Cr1 Sn6 Ru12'
_cell_volume   372.78406059
_cell_formula_units_Z   1
loop_
 _symmetry_equiv_pos_site_id
 _symmetry_equiv_pos_as_xyz
  1  'x, y, z'
loop_
 _atom_site_type_symbol
 _atom_site_label
 _atom_site_symmetry_multiplicity
 _atom_site_fract_x
 _atom_site_fract_y
 _atom_site_fract_z
 _atom_site_occupancy
  Ti  Ti0  1  0.499848  0.500000  0.165917  1
  Ti  Ti1  1  0.999838  0.000000  0.332819  1
  Ti  Ti2  1  0.499999  0.500000  0.500000  1
  Ti  Ti3  1  0.000163  0.000000  0.667182  1
  Ti  Ti4  1  0.500151  0.500000  0.834083  1
  Cr  Cr5  1  0.000000  0.000000  0.000000  1
  Sn  Sn6  1  0.000000  0.500000  0.000000  1
  Sn  Sn7  1  0.499961  0.000000  0.165738  1
  Sn  Sn8  1  0.999948  0.500000  0.333083  1
  Sn  Sn9  1  0.499999  0.000000  0.500000  1
  Sn  Sn10  1  0.000052  0.500000  0.666917  1
  Sn  Sn11  1  0.500037  0.000000  0.834262  1
  Ru  Ru12  1  0.500000  0.248061  0.000000  1
  Ru  Ru13  1  0.500000  0.751941  0.000000  1
  Ru  Ru14  1  0.999951  0.249389  0.166550  1
  Ru  Ru15  1  0.999951  0.750610  0.166550  1
  Ru  Ru16  1  0.499948  0.249793  0.333418  1
  Ru  Ru17  1  0.499948  0.750206  0.333418  1
  Ru  Ru18  1  0.000000  0.250133  0.499999  1
  Ru  Ru19  1  0.000000  0.749867  0.499999  1
  Ru  Ru20  1  0.500052  0.249793  0.666582  1
  Ru  Ru21  1  0.500052  0.750206  0.666582  1
  Ru  Ru22  1  0.000049  0.249389  0.833449  1
  Ru  Ru23  1  0.000049  0.750610  0.833449  1
