# generated using pymatgen
data_La2Pr2CdRu
_symmetry_space_group_name_H-M   'P 1'
_cell_length_a   10.04069096
_cell_length_b   10.04092115
_cell_length_c   10.08848531
_cell_angle_alpha   59.74120737
_cell_angle_beta   59.73984693
_cell_angle_gamma   60.27882140
_symmetry_Int_Tables_number   1
_chemical_formula_structural   La2Pr2CdRu
_chemical_formula_sum   'La8 Pr8 Cd4 Ru4'
_cell_volume   717.84911443
_cell_formula_units_Z   4
loop_
 _symmetry_equiv_pos_site_id
 _symmetry_equiv_pos_as_xyz
  1  'x, y, z'
loop_
 _atom_site_type_symbol
 _atom_site_label
 _atom_site_symmetry_multiplicity
 _atom_site_fract_x
 _atom_site_fract_y
 _atom_site_fract_z
 _atom_site_occupancy
  La  La0  1  0.344502  0.344524  0.344833  1
  La  La1  1  0.344623  0.344650  0.962695  1
  La  La2  1  0.346280  0.962255  0.343866  1
  La  La3  1  0.962231  0.346290  0.343894  1
  La  La4  1  0.811651  0.188836  0.188707  1
  La  La5  1  0.189715  0.812102  0.813005  1
  La  La6  1  0.188826  0.811643  0.188704  1
  La  La7  1  0.812112  0.189721  0.813001  1
  Pr  Pr8  1  0.192639  0.192648  0.806941  1
  Pr  Pr9  1  0.808212  0.808208  0.194457  1
  Pr  Pr10  1  0.933100  0.565532  0.566852  1
  Pr  Pr11  1  0.564957  0.937504  0.937104  1
  Pr  Pr12  1  0.565522  0.933085  0.566868  1
  Pr  Pr13  1  0.937569  0.564912  0.937110  1
  Pr  Pr14  1  0.562463  0.562473  0.938179  1
  Pr  Pr15  1  0.940822  0.940821  0.561207  1
  Cd  Cd16  1  0.579736  0.579743  0.577576  1
  Cd  Cd17  1  0.579752  0.579747  0.261324  1
  Cd  Cd18  1  0.577478  0.261582  0.579853  1
  Cd  Cd19  1  0.261554  0.577481  0.579872  1
  Ru  Ru20  1  0.132168  0.132217  0.146425  1
  Ru  Ru21  1  0.129757  0.129703  0.588909  1
  Ru  Ru22  1  0.146056  0.588235  0.129321  1
  Ru  Ru23  1  0.588274  0.146086  0.129296  1
