# generated using pymatgen
data_Na3Sb(CO3)3
_symmetry_space_group_name_H-M   'P 1'
_cell_length_a   6.79349588
_cell_length_b   6.79349632
_cell_length_c   10.29624700
_cell_angle_alpha   90.00000000
_cell_angle_beta   90.00000000
_cell_angle_gamma   112.59104349
_symmetry_Int_Tables_number   1
_chemical_formula_structural   Na3Sb(CO3)3
_chemical_formula_sum   'Na6 Sb2 C6 O18'
_cell_volume   438.72710757
_cell_formula_units_Z   2
loop_
 _symmetry_equiv_pos_site_id
 _symmetry_equiv_pos_as_xyz
  1  'x, y, z'
loop_
 _atom_site_type_symbol
 _atom_site_label
 _atom_site_symmetry_multiplicity
 _atom_site_fract_x
 _atom_site_fract_y
 _atom_site_fract_z
 _atom_site_occupancy
  Na  Na0  1  0.078400  0.078400  0.000000  1
  Na  Na1  1  0.368823  0.397237  0.250000  1
  Na  Na2  1  0.166891  0.745429  0.250000  1
  Na  Na3  1  0.078400  0.078400  0.500000  1
  Na  Na4  1  0.745429  0.166891  0.750000  1
  Na  Na5  1  0.397237  0.368823  0.750000  1
  Sb  Sb6  1  0.719088  0.164729  0.250000  1
  Sb  Sb7  1  0.164729  0.719088  0.750000  1
  C  C8  1  0.544510  0.134994  0.007019  1
  C  C9  1  0.760827  0.783931  0.250000  1
  C  C10  1  0.544510  0.134994  0.492981  1
  C  C11  1  0.134994  0.544510  0.507019  1
  C  C12  1  0.783931  0.760827  0.750000  1
  C  C13  1  0.134994  0.544510  0.992981  1
  O  O14  1  0.724981  0.111856  0.013643  1
  O  O15  1  0.451828  0.139859  0.121478  1
  O  O16  1  0.154264  0.455447  0.097627  1
  O  O17  1  0.743107  0.593259  0.250000  1
  O  O18  1  0.942387  0.948587  0.250000  1
  O  O19  1  0.585112  0.830634  0.250000  1
  O  O20  1  0.154264  0.455447  0.402373  1
  O  O21  1  0.451828  0.139859  0.378522  1
  O  O22  1  0.724981  0.111856  0.486357  1
  O  O23  1  0.111856  0.724981  0.513643  1
  O  O24  1  0.139859  0.451828  0.621478  1
  O  O25  1  0.455447  0.154264  0.597627  1
  O  O26  1  0.830634  0.585112  0.750000  1
  O  O27  1  0.593259  0.743107  0.750000  1
  O  O28  1  0.948587  0.942387  0.750000  1
  O  O29  1  0.455447  0.154264  0.902373  1
  O  O30  1  0.139859  0.451828  0.878522  1
  O  O31  1  0.111856  0.724981  0.986357  1
