# generated using pymatgen
data_La4Pr(GeC)2
_symmetry_space_group_name_H-M   'P 1'
_cell_length_a   8.25271200
_cell_length_b   12.99169200
_cell_length_c   4.28638200
_cell_angle_alpha   90.00000000
_cell_angle_beta   90.00000000
_cell_angle_gamma   90.00000000
_symmetry_Int_Tables_number   1
_chemical_formula_structural   La4Pr(GeC)2
_chemical_formula_sum   'La8 Pr2 Ge4 C4'
_cell_volume   459.57170070
_cell_formula_units_Z   2
loop_
 _symmetry_equiv_pos_site_id
 _symmetry_equiv_pos_as_xyz
  1  'x, y, z'
loop_
 _atom_site_type_symbol
 _atom_site_label
 _atom_site_symmetry_multiplicity
 _atom_site_fract_x
 _atom_site_fract_y
 _atom_site_fract_z
 _atom_site_occupancy
  La  La0  1  0.173821  0.212002  0.000000  1
  La  La1  1  0.673822  0.287998  0.000000  1
  La  La2  1  0.326179  0.712002  0.000000  1
  La  La3  1  0.826179  0.787998  0.000000  1
  La  La4  1  0.832803  0.060559  0.499998  1
  La  La5  1  0.332803  0.439441  0.499998  1
  La  La6  1  0.667198  0.560559  0.499998  1
  La  La7  1  0.167198  0.939441  0.499998  1
  Pr  Pr8  1  0.500000  0.000000  0.000000  1
  Pr  Pr9  1  0.000000  0.500000  0.000000  1
  Ge  Ge10  1  0.453111  0.169457  0.499998  1
  Ge  Ge11  1  0.953111  0.330543  0.499998  1
  Ge  Ge12  1  0.046888  0.669457  0.499998  1
  Ge  Ge13  1  0.546890  0.830543  0.499998  1
  C  C14  1  0.040324  0.046421  0.000000  1
  C  C15  1  0.540323  0.453579  0.000000  1
  C  C16  1  0.459676  0.546421  0.000000  1
  C  C17  1  0.959677  0.953579  0.000000  1
