# generated using pymatgen
data_Hf6Sc3CrRe3As
_symmetry_space_group_name_H-M   'P 1'
_cell_length_a   8.66741700
_cell_length_b   8.66741606
_cell_length_c   8.49533500
_cell_angle_alpha   90.00000000
_cell_angle_beta   90.00000000
_cell_angle_gamma   120.00226715
_symmetry_Int_Tables_number   1
_chemical_formula_structural   Hf6Sc3CrRe3As
_chemical_formula_sum   'Hf12 Sc6 Cr2 Re6 As2'
_cell_volume   552.68866095
_cell_formula_units_Z   2
loop_
 _symmetry_equiv_pos_site_id
 _symmetry_equiv_pos_as_xyz
  1  'x, y, z'
loop_
 _atom_site_type_symbol
 _atom_site_label
 _atom_site_symmetry_multiplicity
 _atom_site_fract_x
 _atom_site_fract_y
 _atom_site_fract_z
 _atom_site_occupancy
  Hf  Hf0  1  0.808550  0.617082  0.545781  1
  Hf  Hf1  1  0.808536  0.191464  0.545787  1
  Hf  Hf2  1  0.382918  0.191450  0.545781  1
  Hf  Hf3  1  0.191450  0.382918  0.454219  1
  Hf  Hf4  1  0.191464  0.808536  0.454213  1
  Hf  Hf5  1  0.617082  0.808550  0.454219  1
  Hf  Hf6  1  0.191450  0.382918  0.045781  1
  Hf  Hf7  1  0.191464  0.808536  0.045787  1
  Hf  Hf8  1  0.617082  0.808550  0.045781  1
  Hf  Hf9  1  0.808550  0.617082  0.954219  1
  Hf  Hf10  1  0.808536  0.191464  0.954213  1
  Hf  Hf11  1  0.382918  0.191450  0.954219  1
  Sc  Sc12  1  0.459168  0.918276  0.750000  1
  Sc  Sc13  1  0.459180  0.540820  0.750000  1
  Sc  Sc14  1  0.081724  0.540832  0.750000  1
  Sc  Sc15  1  0.540832  0.081724  0.250000  1
  Sc  Sc16  1  0.540820  0.459180  0.250000  1
  Sc  Sc17  1  0.918276  0.459168  0.250000  1
  Cr  Cr18  1  0.000000  0.000000  0.500000  1
  Cr  Cr19  1  0.000000  0.000000  0.000000  1
  Re  Re20  1  0.106500  0.212898  0.750000  1
  Re  Re21  1  0.106501  0.893499  0.750000  1
  Re  Re22  1  0.787102  0.893500  0.750000  1
  Re  Re23  1  0.893500  0.787102  0.250000  1
  Re  Re24  1  0.893499  0.106501  0.250000  1
  Re  Re25  1  0.212898  0.106500  0.250000  1
  As  As26  1  0.666665  0.333335  0.750000  1
  As  As27  1  0.333335  0.666665  0.250000  1
