# generated using pymatgen
data_YbHf(Al3Ni)6
_symmetry_space_group_name_H-M   'P 1'
_cell_length_a   10.01151276
_cell_length_b   10.01151301
_cell_length_c   10.01151327
_cell_angle_alpha   42.33237248
_cell_angle_beta   42.33237351
_cell_angle_gamma   42.33237230
_symmetry_Int_Tables_number   1
_chemical_formula_structural   YbHf(Al3Ni)6
_chemical_formula_sum   'Yb1 Hf1 Al18 Ni6'
_cell_volume   411.92377480
_cell_formula_units_Z   1
loop_
 _symmetry_equiv_pos_site_id
 _symmetry_equiv_pos_as_xyz
  1  'x, y, z'
loop_
 _atom_site_type_symbol
 _atom_site_label
 _atom_site_symmetry_multiplicity
 _atom_site_fract_x
 _atom_site_fract_y
 _atom_site_fract_z
 _atom_site_occupancy
  Yb  Yb0  1  0.833108  0.833108  0.833108  1
  Hf  Hf1  1  0.166999  0.166999  0.166999  1
  Al  Al2  1  0.102474  0.432941  0.766687  1
  Al  Al3  1  0.432941  0.766687  0.102474  1
  Al  Al4  1  0.565200  0.897707  0.234993  1
  Al  Al5  1  0.946921  0.946921  0.946921  1
  Al  Al6  1  0.052528  0.052528  0.052528  1
  Al  Al7  1  0.292656  0.716796  0.490474  1
  Al  Al8  1  0.897707  0.234993  0.565200  1
  Al  Al9  1  0.388276  0.388276  0.388276  1
  Al  Al10  1  0.490474  0.292656  0.716796  1
  Al  Al11  1  0.234993  0.565200  0.897707  1
  Al  Al12  1  0.718910  0.718910  0.718910  1
  Al  Al13  1  0.612666  0.612666  0.612666  1
  Al  Al14  1  0.333464  0.001424  0.665087  1
  Al  Al15  1  0.716796  0.490474  0.292656  1
  Al  Al16  1  0.665087  0.333464  0.001424  1
  Al  Al17  1  0.280862  0.280862  0.280862  1
  Al  Al18  1  0.001424  0.665087  0.333464  1
  Al  Al19  1  0.766687  0.102474  0.432941  1
  Ni  Ni20  1  0.417231  0.079614  0.758745  1
  Ni  Ni21  1  0.579854  0.241771  0.922613  1
  Ni  Ni22  1  0.079614  0.758745  0.417231  1
  Ni  Ni23  1  0.758745  0.417231  0.079614  1
  Ni  Ni24  1  0.922613  0.579854  0.241771  1
  Ni  Ni25  1  0.241771  0.922613  0.579854  1
