# generated using pymatgen
data_V4As5O13
_symmetry_space_group_name_H-M   'P 1'
_cell_length_a   9.13094065
_cell_length_b   9.28883464
_cell_length_c   9.32033200
_cell_angle_alpha   94.15072373
_cell_angle_beta   115.98231779
_cell_angle_gamma   112.48112151
_symmetry_Int_Tables_number   1
_chemical_formula_structural   V4As5O13
_chemical_formula_sum   'V8 As10 O26'
_cell_volume   628.62866058
_cell_formula_units_Z   2
loop_
 _symmetry_equiv_pos_site_id
 _symmetry_equiv_pos_as_xyz
  1  'x, y, z'
loop_
 _atom_site_type_symbol
 _atom_site_label
 _atom_site_symmetry_multiplicity
 _atom_site_fract_x
 _atom_site_fract_y
 _atom_site_fract_z
 _atom_site_occupancy
  V  V0  1  0.000000  0.500000  0.000000  1
  V  V1  1  0.000000  0.500000  0.500000  1
  V  V2  1  0.736490  0.305444  0.620050  1
  V  V3  1  0.263510  0.694556  0.379950  1
  V  V4  1  0.353250  0.885426  0.802280  1
  V  V5  1  0.646750  0.114574  0.197720  1
  V  V6  1  0.472801  0.723773  0.113952  1
  V  V7  1  0.527199  0.276227  0.886048  1
  As  As8  1  0.903262  0.706624  0.699951  1
  As  As9  1  0.096738  0.293376  0.300049  1
  As  As10  1  0.156084  0.334795  0.830586  1
  As  As11  1  0.843916  0.665205  0.169414  1
  As  As12  1  0.215657  0.931819  0.100350  1
  As  As13  1  0.784343  0.068181  0.899650  1
  As  As14  1  0.529751  0.404108  0.256519  1
  As  As15  1  0.470249  0.595892  0.743481  1
  As  As16  1  0.703935  0.952698  0.463998  1
  As  As17  1  0.296065  0.047302  0.536002  1
  O  O18  1  0.095566  0.702385  0.684375  1
  O  O19  1  0.904434  0.297615  0.315625  1
  O  O20  1  0.620422  0.088081  0.954581  1
  O  O21  1  0.379578  0.911919  0.045419  1
  O  O22  1  0.011053  0.649448  0.357752  1
  O  O23  1  0.988947  0.350552  0.642248  1
  O  O24  1  0.487517  0.766173  0.360676  1
  O  O25  1  0.512483  0.233827  0.639324  1
  O  O26  1  0.269191  0.564940  0.553573  1
  O  O27  1  0.730809  0.435060  0.446427  1
  O  O28  1  0.858121  0.258235  0.849823  1
  O  O29  1  0.141879  0.741765  0.150177  1
  O  O30  1  0.279411  0.055227  0.724973  1
  O  O31  1  0.720589  0.944773  0.275027  1
  O  O32  1  0.138995  0.468474  0.221203  1
  O  O33  1  0.861005  0.531526  0.778797  1
  O  O34  1  0.787680  0.483605  0.030497  1
  O  O35  1  0.212320  0.516395  0.969503  1
  O  O36  1  0.621716  0.104142  0.420647  1
  O  O37  1  0.378284  0.895858  0.579353  1
  O  O38  1  0.365493  0.414584  0.802682  1
  O  O39  1  0.634507  0.585416  0.197318  1
  O  O40  1  0.975965  0.129533  0.108665  1
  O  O41  1  0.526741  0.257726  0.117284  1
  O  O42  1  0.024035  0.870467  0.891335  1
  O  O43  1  0.473259  0.742274  0.882716  1
