# generated using pymatgen
data_Pr4U(BiO6)2
_symmetry_space_group_name_H-M   'P 1'
_cell_length_a   6.76886824
_cell_length_b   6.88439100
_cell_length_c   6.99949038
_cell_angle_alpha   99.95764887
_cell_angle_beta   100.01816080
_cell_angle_gamma   97.55525921
_symmetry_Int_Tables_number   1
_chemical_formula_structural   Pr4U(BiO6)2
_chemical_formula_sum   'Pr4 U1 Bi2 O12'
_cell_volume   311.94120787
_cell_formula_units_Z   1
loop_
 _symmetry_equiv_pos_site_id
 _symmetry_equiv_pos_as_xyz
  1  'x, y, z'
loop_
 _atom_site_type_symbol
 _atom_site_label
 _atom_site_symmetry_multiplicity
 _atom_site_fract_x
 _atom_site_fract_y
 _atom_site_fract_z
 _atom_site_occupancy
  Pr  Pr0  1  0.301269  0.608731  0.139030  1
  Pr  Pr1  1  0.613341  0.141009  0.309598  1
  Pr  Pr2  1  0.386659  0.858991  0.690402  1
  Pr  Pr3  1  0.698731  0.391269  0.860970  1
  U  U4  1  0.000000  0.000000  0.000000  1
  Bi  Bi5  1  0.838894  0.671831  0.397087  1
  Bi  Bi6  1  0.161106  0.328169  0.602913  1
  O  O7  1  0.437832  0.180611  0.584347  1
  O  O8  1  0.937361  0.702474  0.032780  1
  O  O9  1  0.188247  0.568653  0.434175  1
  O  O10  1  0.811753  0.431347  0.565825  1
  O  O11  1  0.562168  0.819389  0.415653  1
  O  O12  1  0.594720  0.435534  0.175264  1
  O  O13  1  0.405280  0.564466  0.824736  1
  O  O14  1  0.961106  0.086133  0.290112  1
  O  O15  1  0.038894  0.913867  0.709888  1
  O  O16  1  0.691686  0.045388  0.926540  1
  O  O17  1  0.062639  0.297526  0.967220  1
  O  O18  1  0.308314  0.954612  0.073460  1
