# generated using pymatgen
data_Ag2Te2O7F
_symmetry_space_group_name_H-M   'P 1'
_cell_length_a   5.17837600
_cell_length_b   5.25380420
_cell_length_c   12.81148492
_cell_angle_alpha   87.63896308
_cell_angle_beta   90.00000000
_cell_angle_gamma   90.00000000
_symmetry_Int_Tables_number   1
_chemical_formula_structural   Ag2Te2O7F
_chemical_formula_sum   'Ag4 Te4 O14 F2'
_cell_volume   348.25558836
_cell_formula_units_Z   2
loop_
 _symmetry_equiv_pos_site_id
 _symmetry_equiv_pos_as_xyz
  1  'x, y, z'
loop_
 _atom_site_type_symbol
 _atom_site_label
 _atom_site_symmetry_multiplicity
 _atom_site_fract_x
 _atom_site_fract_y
 _atom_site_fract_z
 _atom_site_occupancy
  Ag  Ag0  1  0.711085  0.956684  0.663623  1
  Ag  Ag1  1  0.211085  0.543316  0.836377  1
  Ag  Ag2  1  0.255118  0.999352  0.326692  1
  Ag  Ag3  1  0.755118  0.500648  0.173308  1
  Te  Te4  1  0.758010  0.493495  0.423509  1
  Te  Te5  1  0.258010  0.006505  0.076491  1
  Te  Te6  1  0.257806  0.495481  0.560696  1
  Te  Te7  1  0.757806  0.004519  0.939304  1
  O  O8  1  0.860049  0.816507  0.825975  1
  O  O9  1  0.360049  0.683493  0.674025  1
  O  O10  1  0.898792  0.716123  0.318599  1
  O  O11  1  0.398792  0.783877  0.181401  1
  O  O12  1  0.116905  0.219654  0.177539  1
  O  O13  1  0.616905  0.280346  0.322461  1
  O  O14  1  0.571219  0.285662  0.542094  1
  O  O15  1  0.071219  0.214338  0.957906  1
  O  O16  1  0.433065  0.813019  0.961152  1
  O  O17  1  0.933065  0.686981  0.538848  1
  O  O18  1  0.441553  0.708463  0.451059  1
  O  O19  1  0.941553  0.791537  0.048941  1
  O  O20  1  0.578269  0.214705  0.046292  1
  O  O21  1  0.078269  0.285295  0.453708  1
  F  F22  1  0.118128  0.238796  0.661030  1
  F  F23  1  0.618128  0.261204  0.838970  1
