# generated using pymatgen
data_Er6B14MoOs
_symmetry_space_group_name_H-M   'P 1'
_cell_length_a   8.04449847
_cell_length_b   8.04449837
_cell_length_c   9.33431200
_cell_angle_alpha   90.00000000
_cell_angle_beta   90.00000000
_cell_angle_gamma   154.98873220
_symmetry_Int_Tables_number   1
_chemical_formula_structural   Er6B14MoOs
_chemical_formula_sum   'Er6 B14 Mo1 Os1'
_cell_volume   255.39455045
_cell_formula_units_Z   1
loop_
 _symmetry_equiv_pos_site_id
 _symmetry_equiv_pos_as_xyz
  1  'x, y, z'
loop_
 _atom_site_type_symbol
 _atom_site_label
 _atom_site_symmetry_multiplicity
 _atom_site_fract_x
 _atom_site_fract_y
 _atom_site_fract_z
 _atom_site_occupancy
  Er  Er0  1  0.756410  0.243590  0.250000  1
  Er  Er1  1  0.244120  0.755880  0.750000  1
  Er  Er2  1  0.893075  0.106925  0.559377  1
  Er  Er3  1  0.106014  0.893986  0.438496  1
  Er  Er4  1  0.106014  0.893986  0.061504  1
  Er  Er5  1  0.893075  0.106925  0.940623  1
  B  B6  1  0.543710  0.456290  0.250000  1
  B  B7  1  0.453153  0.546847  0.750000  1
  B  B8  1  0.519265  0.480735  0.909366  1
  B  B9  1  0.479425  0.520575  0.096015  1
  B  B10  1  0.479425  0.520575  0.403985  1
  B  B11  1  0.519265  0.480735  0.590634  1
  B  B12  1  0.634517  0.365483  0.852824  1
  B  B13  1  0.368228  0.631772  0.150372  1
  B  B14  1  0.728322  0.271678  0.967171  1
  B  B15  1  0.273225  0.726775  0.035049  1
  B  B16  1  0.273225  0.726775  0.464951  1
  B  B17  1  0.728322  0.271678  0.532829  1
  B  B18  1  0.634517  0.365483  0.647176  1
  B  B19  1  0.368228  0.631772  0.349628  1
  Mo  Mo20  1  0.052298  0.947702  0.750000  1
  Os  Os21  1  0.946168  0.053832  0.250000  1
