# generated using pymatgen
data_Ho8Er2IrRu3
_symmetry_space_group_name_H-M   'P 1'
_cell_length_a   6.31401019
_cell_length_b   7.28862506
_cell_length_c   8.41786933
_cell_angle_alpha   96.78064334
_cell_angle_beta   111.92454449
_cell_angle_gamma   90.12235206
_symmetry_Int_Tables_number   1
_chemical_formula_structural   Ho8Er2IrRu3
_chemical_formula_sum   'Ho8 Er2 Ir1 Ru3'
_cell_volume   356.41325141
_cell_formula_units_Z   1
loop_
 _symmetry_equiv_pos_site_id
 _symmetry_equiv_pos_as_xyz
  1  'x, y, z'
loop_
 _atom_site_type_symbol
 _atom_site_label
 _atom_site_symmetry_multiplicity
 _atom_site_fract_x
 _atom_site_fract_y
 _atom_site_fract_z
 _atom_site_occupancy
  Ho  Ho0  1  0.792726  0.582395  0.814834  1
  Ho  Ho1  1  0.978487  0.914877  0.186851  1
  Ho  Ho2  1  0.208036  0.415341  0.185843  1
  Ho  Ho3  1  0.024244  0.085645  0.814943  1
  Ho  Ho4  1  0.205081  0.684082  0.564626  1
  Ho  Ho5  1  0.642163  0.815701  0.434197  1
  Ho  Ho6  1  0.793422  0.314838  0.434562  1
  Ho  Ho7  1  0.356700  0.185835  0.563861  1
  Er  Er8  1  0.420223  0.749809  0.000343  1
  Er  Er9  1  0.579898  0.251320  0.000738  1
  Ir  Ir10  1  0.601337  0.923345  0.779149  1
  Ru  Ru11  1  0.823700  0.576660  0.219898  1
  Ru  Ru12  1  0.395989  0.075889  0.220388  1
  Ru  Ru13  1  0.177996  0.424261  0.779764  1
