# generated using pymatgen
data_La14Pd5Ru
_symmetry_space_group_name_H-M   'P 1'
_cell_length_a   10.33904728
_cell_length_b   10.33904685
_cell_length_c   6.60428296
_cell_angle_alpha   89.76178220
_cell_angle_beta   90.23821786
_cell_angle_gamma   119.85041430
_symmetry_Int_Tables_number   1
_chemical_formula_structural   La14Pd5Ru
_chemical_formula_sum   'La14 Pd5 Ru1'
_cell_volume   612.30099787
_cell_formula_units_Z   1
loop_
 _symmetry_equiv_pos_site_id
 _symmetry_equiv_pos_as_xyz
  1  'x, y, z'
loop_
 _atom_site_type_symbol
 _atom_site_label
 _atom_site_symmetry_multiplicity
 _atom_site_fract_x
 _atom_site_fract_y
 _atom_site_fract_z
 _atom_site_occupancy
  La  La0  1  0.333837  0.666163  0.454474  1
  La  La1  1  0.670048  0.329952  0.963727  1
  La  La2  1  0.126601  0.873399  0.244098  1
  La  La3  1  0.751801  0.885786  0.242406  1
  La  La4  1  0.114214  0.248199  0.242406  1
  La  La5  1  0.873002  0.126998  0.753127  1
  La  La6  1  0.252995  0.125880  0.744754  1
  La  La7  1  0.874120  0.747005  0.744754  1
  La  La8  1  0.537183  0.462817  0.444147  1
  La  La9  1  0.919177  0.452788  0.435967  1
  La  La10  1  0.547212  0.080823  0.435967  1
  La  La11  1  0.462871  0.537129  0.943905  1
  La  La12  1  0.075623  0.535972  0.942426  1
  La  La13  1  0.464028  0.924377  0.942426  1
  Pd  Pd14  1  0.374408  0.188774  0.191312  1
  Pd  Pd15  1  0.811226  0.625592  0.191312  1
  Pd  Pd16  1  0.188184  0.811816  0.691415  1
  Pd  Pd17  1  0.622811  0.810590  0.691676  1
  Pd  Pd18  1  0.189410  0.377189  0.691676  1
  Ru  Ru19  1  0.811251  0.188749  0.193812  1
