# generated using pymatgen
data_Sc4Re7W
_symmetry_space_group_name_H-M   'P 1'
_cell_length_a   5.31401800
_cell_length_b   5.31401836
_cell_length_c   8.62743600
_cell_angle_alpha   90.00000000
_cell_angle_beta   90.00000000
_cell_angle_gamma   119.99999776
_symmetry_Int_Tables_number   1
_chemical_formula_structural   Sc4Re7W
_chemical_formula_sum   'Sc4 Re7 W1'
_cell_volume   210.98834209
_cell_formula_units_Z   1
loop_
 _symmetry_equiv_pos_site_id
 _symmetry_equiv_pos_as_xyz
  1  'x, y, z'
loop_
 _atom_site_type_symbol
 _atom_site_label
 _atom_site_symmetry_multiplicity
 _atom_site_fract_x
 _atom_site_fract_y
 _atom_site_fract_z
 _atom_site_occupancy
  Sc  Sc0  1  0.333333  0.666667  0.437201  1
  Sc  Sc1  1  0.666667  0.333333  0.937855  1
  Sc  Sc2  1  0.666667  0.333333  0.562799  1
  Sc  Sc3  1  0.333333  0.666667  0.062145  1
  Re  Re4  1  0.656224  0.828112  0.750469  1
  Re  Re5  1  0.343776  0.171888  0.249531  1
  Re  Re6  1  0.828112  0.171888  0.249531  1
  Re  Re7  1  0.171888  0.343776  0.750469  1
  Re  Re8  1  0.171888  0.828112  0.750469  1
  Re  Re9  1  0.828112  0.656224  0.249531  1
  Re  Re10  1  0.000000  0.000000  0.000000  1
  W  W11  1  0.000000  0.000000  0.500000  1
