# generated using pymatgen
data_Sr(RhO2)3
_symmetry_space_group_name_H-M   'P 1'
_cell_length_a   5.41364571
_cell_length_b   5.95773601
_cell_length_c   9.35541900
_cell_angle_alpha   89.99996153
_cell_angle_beta   89.99998942
_cell_angle_gamma   72.50686736
_symmetry_Int_Tables_number   1
_chemical_formula_structural   Sr(RhO2)3
_chemical_formula_sum   'Sr2 Rh6 O12'
_cell_volume   287.78638247
_cell_formula_units_Z   2
loop_
 _symmetry_equiv_pos_site_id
 _symmetry_equiv_pos_as_xyz
  1  'x, y, z'
loop_
 _atom_site_type_symbol
 _atom_site_label
 _atom_site_symmetry_multiplicity
 _atom_site_fract_x
 _atom_site_fract_y
 _atom_site_fract_z
 _atom_site_occupancy
  Sr  Sr0  1  0.000000  0.499999  0.166781  1
  Sr  Sr1  1  0.500001  0.500000  0.666636  1
  Rh  Rh2  1  0.000000  0.000000  0.666642  1
  Rh  Rh3  1  0.500000  0.000000  0.835034  1
  Rh  Rh4  1  0.500000  0.000000  0.498143  1
  Rh  Rh5  1  0.500000  0.000000  0.166673  1
  Rh  Rh6  1  0.000000  0.000000  0.334985  1
  Rh  Rh7  1  0.000000  0.000000  0.998439  1
  O  O8  1  0.777886  0.171745  0.166699  1
  O  O9  1  0.278052  0.171601  0.666664  1
  O  O10  1  0.222113  0.828255  0.166700  1
  O  O11  1  0.721948  0.828399  0.666664  1
  O  O12  1  0.273683  0.176990  0.000881  1
  O  O13  1  0.773588  0.177183  0.500866  1
  O  O14  1  0.273547  0.177200  0.332436  1
  O  O15  1  0.773760  0.176936  0.832453  1
  O  O16  1  0.726453  0.822800  0.332436  1
  O  O17  1  0.226240  0.823065  0.832453  1
  O  O18  1  0.726317  0.823009  0.000881  1
  O  O19  1  0.226412  0.822818  0.500866  1
