# generated using pymatgen
data_Th3Co2CuBi4
_symmetry_space_group_name_H-M   'P 1'
_cell_length_a   8.53848139
_cell_length_b   8.54598330
_cell_length_c   8.54598304
_cell_angle_alpha   109.29251712
_cell_angle_beta   109.59507668
_cell_angle_gamma   109.59507737
_symmetry_Int_Tables_number   1
_chemical_formula_structural   Th3Co2CuBi4
_chemical_formula_sum   'Th6 Co4 Cu2 Bi8'
_cell_volume   479.63333666
_cell_formula_units_Z   2
loop_
 _symmetry_equiv_pos_site_id
 _symmetry_equiv_pos_as_xyz
  1  'x, y, z'
loop_
 _atom_site_type_symbol
 _atom_site_label
 _atom_site_symmetry_multiplicity
 _atom_site_fract_x
 _atom_site_fract_y
 _atom_site_fract_z
 _atom_site_occupancy
  Th  Th0  1  0.380921  0.260505  0.634155  1
  Th  Th1  1  0.741592  0.879468  0.112386  1
  Th  Th2  1  0.241592  0.612386  0.379468  1
  Th  Th3  1  0.625620  0.364874  0.245674  1
  Th  Th4  1  0.880921  0.134155  0.760505  1
  Th  Th5  1  0.125620  0.745674  0.864874  1
  Co  Co6  1  0.874964  0.249194  0.128021  1
  Co  Co7  1  0.251757  0.125582  0.877384  1
  Co  Co8  1  0.751757  0.377384  0.625582  1
  Co  Co9  1  0.374964  0.628021  0.749194  1
  Cu  Cu10  1  0.124250  0.873889  0.248378  1
  Cu  Cu11  1  0.624250  0.748378  0.373889  1
  Bi  Bi12  1  0.998460  0.330213  0.500827  1
  Bi  Bi13  1  0.833142  0.497048  0.997450  1
  Bi  Bi14  1  0.498460  0.000827  0.830213  1
  Bi  Bi15  1  0.665117  0.663346  0.666279  1
  Bi  Bi16  1  0.165117  0.166279  0.163346  1
  Bi  Bi17  1  0.333142  0.497450  0.997048  1
  Bi  Bi18  1  0.504178  0.004079  0.341249  1
  Bi  Bi19  1  0.004178  0.841249  0.504079  1
