# generated using pymatgen
data_CaPu2PbCl12
_symmetry_space_group_name_H-M   'P 1'
_cell_length_a   6.71940000
_cell_length_b   6.71939941
_cell_length_c   12.63799600
_cell_angle_alpha   90.00000000
_cell_angle_beta   90.00000000
_cell_angle_gamma   119.99999303
_symmetry_Int_Tables_number   1
_chemical_formula_structural   CaPu2PbCl12
_chemical_formula_sum   'Ca1 Pu2 Pb1 Cl12'
_cell_volume   494.16254840
_cell_formula_units_Z   1
loop_
 _symmetry_equiv_pos_site_id
 _symmetry_equiv_pos_as_xyz
  1  'x, y, z'
loop_
 _atom_site_type_symbol
 _atom_site_label
 _atom_site_symmetry_multiplicity
 _atom_site_fract_x
 _atom_site_fract_y
 _atom_site_fract_z
 _atom_site_occupancy
  Ca  Ca0  1  0.666667  0.333333  0.750000  1
  Pu  Pu1  1  0.000000  0.000000  0.504398  1
  Pu  Pu2  1  0.000000  0.000000  0.995602  1
  Pb  Pb3  1  0.333333  0.666667  0.250000  1
  Cl  Cl4  1  0.680884  0.000249  0.622376  1
  Cl  Cl5  1  0.320824  0.014701  0.383162  1
  Cl  Cl6  1  0.999751  0.680635  0.622376  1
  Cl  Cl7  1  0.680884  0.680635  0.877624  1
  Cl  Cl8  1  0.985299  0.306123  0.383162  1
  Cl  Cl9  1  0.320824  0.306123  0.116838  1
  Cl  Cl10  1  0.319365  0.319116  0.622376  1
  Cl  Cl11  1  0.999751  0.319116  0.877624  1
  Cl  Cl12  1  0.693877  0.679176  0.383162  1
  Cl  Cl13  1  0.985299  0.679176  0.116838  1
  Cl  Cl14  1  0.319365  0.000249  0.877624  1
  Cl  Cl15  1  0.693877  0.014701  0.116838  1
