# generated using pymatgen
data_LiAcB2O5
_symmetry_space_group_name_H-M   'P 1'
_cell_length_a   5.36222400
_cell_length_b   5.36222301
_cell_length_c   4.12772381
_cell_angle_alpha   85.51294056
_cell_angle_beta   85.51293112
_cell_angle_gamma   110.99955684
_symmetry_Int_Tables_number   1
_chemical_formula_structural   LiAcB2O5
_chemical_formula_sum   'Li1 Ac1 B2 O5'
_cell_volume   109.74146254
_cell_formula_units_Z   1
loop_
 _symmetry_equiv_pos_site_id
 _symmetry_equiv_pos_as_xyz
  1  'x, y, z'
loop_
 _atom_site_type_symbol
 _atom_site_label
 _atom_site_symmetry_multiplicity
 _atom_site_fract_x
 _atom_site_fract_y
 _atom_site_fract_z
 _atom_site_occupancy
  Li  Li0  1  0.401205  0.598795  0.500000  1
  Ac  Ac1  1  0.997972  0.002028  0.000000  1
  B  B2  1  0.872491  0.487539  0.627190  1
  B  B3  1  0.512461  0.127509  0.372810  1
  O  O4  1  0.783344  0.690281  0.542322  1
  O  O5  1  0.482995  0.933220  0.169841  1
  O  O6  1  0.765905  0.234095  0.500000  1
  O  O7  1  0.066780  0.517005  0.830159  1
  O  O8  1  0.309719  0.216656  0.457678  1
