# generated using pymatgen
data_Ca3HoIr8
_symmetry_space_group_name_H-M   'P 1'
_cell_length_a   5.35345200
_cell_length_b   5.35345213
_cell_length_c   8.74586500
_cell_angle_alpha   90.00000000
_cell_angle_beta   90.00000000
_cell_angle_gamma   120.00001157
_symmetry_Int_Tables_number   1
_chemical_formula_structural   Ca3HoIr8
_chemical_formula_sum   'Ca3 Ho1 Ir8'
_cell_volume   217.07069008
_cell_formula_units_Z   1
loop_
 _symmetry_equiv_pos_site_id
 _symmetry_equiv_pos_as_xyz
  1  'x, y, z'
loop_
 _atom_site_type_symbol
 _atom_site_label
 _atom_site_symmetry_multiplicity
 _atom_site_fract_x
 _atom_site_fract_y
 _atom_site_fract_z
 _atom_site_occupancy
  Ca  Ca0  1  0.333334  0.666667  0.437096  1
  Ca  Ca1  1  0.666666  0.333334  0.568088  1
  Ca  Ca2  1  0.666666  0.333334  0.927903  1
  Ho  Ho3  1  0.333334  0.666667  0.069448  1
  Ir  Ir4  1  0.000000  0.000000  0.999139  1
  Ir  Ir5  1  0.341016  0.170508  0.247951  1
  Ir  Ir6  1  0.829492  0.170508  0.247951  1
  Ir  Ir7  1  0.829492  0.658983  0.247951  1
  Ir  Ir8  1  0.000000  0.000000  0.499881  1
  Ir  Ir9  1  0.170433  0.340866  0.751531  1
  Ir  Ir10  1  0.170434  0.829566  0.751531  1
  Ir  Ir11  1  0.659132  0.829566  0.751531  1
