# generated using pymatgen
data_Sm4Lu4Mn(B8Ru)3
_symmetry_space_group_name_H-M   'P 1'
_cell_length_a   3.63704700
_cell_length_b   9.11556715
_cell_length_c   11.53293619
_cell_angle_alpha   89.97935702
_cell_angle_beta   90.00000000
_cell_angle_gamma   90.00000000
_symmetry_Int_Tables_number   1
_chemical_formula_structural   Sm4Lu4Mn(B8Ru)3
_chemical_formula_sum   'Sm4 Lu4 Mn1 B24 Ru3'
_cell_volume   382.36001388
_cell_formula_units_Z   1
loop_
 _symmetry_equiv_pos_site_id
 _symmetry_equiv_pos_as_xyz
  1  'x, y, z'
loop_
 _atom_site_type_symbol
 _atom_site_label
 _atom_site_symmetry_multiplicity
 _atom_site_fract_x
 _atom_site_fract_y
 _atom_site_fract_z
 _atom_site_occupancy
  Sm  Sm0  1  0.000000  0.325340  0.413153  1
  Sm  Sm1  1  0.000000  0.676958  0.582200  1
  Sm  Sm2  1  0.000000  0.820464  0.087835  1
  Sm  Sm3  1  0.000000  0.177465  0.915340  1
  Lu  Lu4  1  0.000000  0.940914  0.371249  1
  Lu  Lu5  1  0.000000  0.056451  0.627962  1
  Lu  Lu6  1  0.000000  0.446352  0.130518  1
  Lu  Lu7  1  0.000000  0.556220  0.871532  1
  Mn  Mn8  1  0.000000  0.639649  0.318917  1
  B  B9  1  0.500000  0.556124  0.429653  1
  B  B10  1  0.500000  0.444713  0.568558  1
  B  B11  1  0.500000  0.055521  0.069108  1
  B  B12  1  0.500000  0.944318  0.931401  1
  B  B13  1  0.500000  0.748651  0.415878  1
  B  B14  1  0.500000  0.249562  0.582211  1
  B  B15  1  0.500000  0.251103  0.082746  1
  B  B16  1  0.500000  0.749397  0.917741  1
  B  B17  1  0.500000  0.789989  0.266592  1
  B  B18  1  0.500000  0.208265  0.734049  1
  B  B19  1  0.500000  0.292185  0.234030  1
  B  B20  1  0.500000  0.708372  0.765711  1
  B  B21  1  0.500000  0.630516  0.186322  1
  B  B22  1  0.500000  0.369725  0.815615  1
  B  B23  1  0.500000  0.129999  0.315319  1
  B  B24  1  0.500000  0.869700  0.684274  1
  B  B25  1  0.500000  0.983712  0.214166  1
  B  B26  1  0.500000  0.015781  0.786199  1
  B  B27  1  0.500000  0.486387  0.286841  1
  B  B28  1  0.500000  0.515866  0.713797  1
  B  B29  1  0.500000  0.601290  0.027653  1
  B  B30  1  0.500000  0.398973  0.972765  1
  B  B31  1  0.500000  0.101210  0.472235  1
  B  B32  1  0.500000  0.898770  0.527389  1
  Ru  Ru33  1  0.000000  0.359961  0.681501  1
  Ru  Ru34  1  0.000000  0.139723  0.180702  1
  Ru  Ru35  1  0.000000  0.860374  0.818839  1
