# generated using pymatgen
data_Sm2ThIn3Pt2Rh
_symmetry_space_group_name_H-M   'P 1'
_cell_length_a   7.82687057
_cell_length_b   7.78129747
_cell_length_c   3.91395400
_cell_angle_alpha   90.00000000
_cell_angle_beta   90.00000000
_cell_angle_gamma   119.80757281
_symmetry_Int_Tables_number   1
_chemical_formula_structural   Sm2ThIn3Pt2Rh
_chemical_formula_sum   'Sm2 Th1 In3 Pt2 Rh1'
_cell_volume   206.83563562
_cell_formula_units_Z   1
loop_
 _symmetry_equiv_pos_site_id
 _symmetry_equiv_pos_as_xyz
  1  'x, y, z'
loop_
 _atom_site_type_symbol
 _atom_site_label
 _atom_site_symmetry_multiplicity
 _atom_site_fract_x
 _atom_site_fract_y
 _atom_site_fract_z
 _atom_site_occupancy
  Sm  Sm0  1  0.592637  0.588795  0.500000  1
  Sm  Sm1  1  0.407363  0.996158  0.500000  1
  Th  Th2  1  0.000000  0.407663  0.500000  1
  In  In3  1  0.264495  0.252795  0.000000  1
  In  In4  1  0.000000  0.757767  0.000000  1
  In  In5  1  0.735505  0.988298  0.000000  1
  Pt  Pt6  1  0.320304  0.655887  0.000000  1
  Pt  Pt7  1  0.679696  0.335582  0.000000  1
  Rh  Rh8  1  0.000000  0.017057  0.500000  1
