# generated using pymatgen
data_Er6Cd16Ag7P
_symmetry_space_group_name_H-M   'P 1'
_cell_length_a   9.68969473
_cell_length_b   9.68969325
_cell_length_c   9.68969400
_cell_angle_alpha   59.99999743
_cell_angle_beta   60.00000249
_cell_angle_gamma   59.99999660
_symmetry_Int_Tables_number   1
_chemical_formula_structural   Er6Cd16Ag7P
_chemical_formula_sum   'Er6 Cd16 Ag7 P1'
_cell_volume   643.30240712
_cell_formula_units_Z   1
loop_
 _symmetry_equiv_pos_site_id
 _symmetry_equiv_pos_as_xyz
  1  'x, y, z'
loop_
 _atom_site_type_symbol
 _atom_site_label
 _atom_site_symmetry_multiplicity
 _atom_site_fract_x
 _atom_site_fract_y
 _atom_site_fract_z
 _atom_site_occupancy
  Er  Er0  1  0.800964  0.800964  0.199036  1
  Er  Er1  1  0.199036  0.800964  0.199036  1
  Er  Er2  1  0.800964  0.199036  0.199036  1
  Er  Er3  1  0.199036  0.199036  0.800964  1
  Er  Er4  1  0.800964  0.199036  0.800964  1
  Er  Er5  1  0.199036  0.800964  0.800964  1
  Cd  Cd6  1  0.834817  0.834817  0.495551  1
  Cd  Cd7  1  0.834817  0.495551  0.834817  1
  Cd  Cd8  1  0.495551  0.834817  0.834817  1
  Cd  Cd9  1  0.834817  0.834817  0.834817  1
  Cd  Cd10  1  0.165183  0.165183  0.504449  1
  Cd  Cd11  1  0.165183  0.504449  0.165183  1
  Cd  Cd12  1  0.504449  0.165183  0.165183  1
  Cd  Cd13  1  0.165183  0.165183  0.165183  1
  Cd  Cd14  1  0.619710  0.619710  0.140871  1
  Cd  Cd15  1  0.619710  0.140871  0.619710  1
  Cd  Cd16  1  0.140871  0.619710  0.619710  1
  Cd  Cd17  1  0.619710  0.619710  0.619710  1
  Cd  Cd18  1  0.380290  0.380290  0.859129  1
  Cd  Cd19  1  0.380290  0.859129  0.380290  1
  Cd  Cd20  1  0.859129  0.380290  0.380290  1
  Cd  Cd21  1  0.380290  0.380290  0.380290  1
  Ag  Ag22  1  0.000000  0.000000  0.500000  1
  Ag  Ag23  1  0.500000  0.000000  0.500000  1
  Ag  Ag24  1  0.000000  0.500000  0.500000  1
  Ag  Ag25  1  0.500000  0.500000  0.000000  1
  Ag  Ag26  1  0.000000  0.500000  0.000000  1
  Ag  Ag27  1  0.500000  0.000000  0.000000  1
  Ag  Ag28  1  0.500000  0.500000  0.500000  1
  P  P29  1  0.000000  0.000000  0.000000  1
