# generated using pymatgen
data_Ho2TaNb3(B2Ru5)2
_symmetry_space_group_name_H-M   'P 1'
_cell_length_a   9.55913617
_cell_length_b   9.56163836
_cell_length_c   3.09017400
_cell_angle_alpha   90.00000000
_cell_angle_beta   90.00000000
_cell_angle_gamma   90.64664581
_symmetry_Int_Tables_number   1
_chemical_formula_structural   Ho2TaNb3(B2Ru5)2
_chemical_formula_sum   'Ho2 Ta1 Nb3 B4 Ru10'
_cell_volume   282.42701530
_cell_formula_units_Z   1
loop_
 _symmetry_equiv_pos_site_id
 _symmetry_equiv_pos_as_xyz
  1  'x, y, z'
loop_
 _atom_site_type_symbol
 _atom_site_label
 _atom_site_symmetry_multiplicity
 _atom_site_fract_x
 _atom_site_fract_y
 _atom_site_fract_z
 _atom_site_occupancy
  Ho  Ho0  1  0.823917  0.676343  0.000000  1
  Ho  Ho1  1  0.176083  0.323657  0.000000  1
  Ta  Ta2  1  0.000000  0.000000  0.000000  1
  Nb  Nb3  1  0.324382  0.824630  0.000000  1
  Nb  Nb4  1  0.675618  0.175370  0.000000  1
  Nb  Nb5  1  0.500000  0.500000  0.000000  1
  B  B6  1  0.620718  0.879146  0.000000  1
  B  B7  1  0.379282  0.120854  0.000000  1
  B  B8  1  0.121030  0.620996  0.000000  1
  B  B9  1  0.878970  0.379004  0.000000  1
  Ru  Ru10  1  0.559829  0.723013  0.500000  1
  Ru  Ru11  1  0.440171  0.276987  0.500000  1
  Ru  Ru12  1  0.080531  0.785232  0.500000  1
  Ru  Ru13  1  0.919469  0.214768  0.500000  1
  Ru  Ru14  1  0.284647  0.581007  0.500000  1
  Ru  Ru15  1  0.715353  0.418993  0.500000  1
  Ru  Ru16  1  0.222422  0.059934  0.500000  1
  Ru  Ru17  1  0.777578  0.940066  0.500000  1
  Ru  Ru18  1  0.500000  0.000000  0.500000  1
  Ru  Ru19  1  0.000000  0.500000  0.500000  1
