# generated using pymatgen
data_PmFeSi2Pt
_symmetry_space_group_name_H-M   'P 1'
_cell_length_a   5.80872250
_cell_length_b   5.80872167
_cell_length_c   5.80872271
_cell_angle_alpha   139.24455397
_cell_angle_beta   139.24454374
_cell_angle_gamma   59.00215415
_symmetry_Int_Tables_number   1
_chemical_formula_structural   PmFeSi2Pt
_chemical_formula_sum   'Pm1 Fe1 Si2 Pt1'
_cell_volume   82.73144010
_cell_formula_units_Z   1
loop_
 _symmetry_equiv_pos_site_id
 _symmetry_equiv_pos_as_xyz
  1  'x, y, z'
loop_
 _atom_site_type_symbol
 _atom_site_label
 _atom_site_symmetry_multiplicity
 _atom_site_fract_x
 _atom_site_fract_y
 _atom_site_fract_z
 _atom_site_occupancy
  Pm  Pm0  1  0.000000  0.000000  0.000000  1
  Fe  Fe1  1  0.750000  0.250000  0.500000  1
  Si  Si2  1  0.376244  0.376244  0.000000  1
  Si  Si3  1  0.623755  0.623755  0.000000  1
  Pt  Pt4  1  0.250000  0.750000  0.500000  1
