# generated using pymatgen
data_Y4BeB14
_symmetry_space_group_name_H-M   'P 1'
_cell_length_a   7.22596700
_cell_length_b   7.22596700
_cell_length_c   7.40632000
_cell_angle_alpha   90.00000000
_cell_angle_beta   90.00000000
_cell_angle_gamma   90.00000000
_symmetry_Int_Tables_number   1
_chemical_formula_structural   Y4BeB14
_chemical_formula_sum   'Y8 Be2 B28'
_cell_volume   386.71802950
_cell_formula_units_Z   2
loop_
 _symmetry_equiv_pos_site_id
 _symmetry_equiv_pos_as_xyz
  1  'x, y, z'
loop_
 _atom_site_type_symbol
 _atom_site_label
 _atom_site_symmetry_multiplicity
 _atom_site_fract_x
 _atom_site_fract_y
 _atom_site_fract_z
 _atom_site_occupancy
  Y  Y0  1  0.194711  0.328955  0.000000  1
  Y  Y1  1  0.671045  0.194711  0.000000  1
  Y  Y2  1  0.328955  0.805289  0.000000  1
  Y  Y3  1  0.694711  0.171045  0.500000  1
  Y  Y4  1  0.305289  0.828955  0.500000  1
  Y  Y5  1  0.805289  0.671045  0.000000  1
  Y  Y6  1  0.828955  0.694711  0.500000  1
  Y  Y7  1  0.171045  0.305289  0.500000  1
  Be  Be8  1  0.000000  0.000000  0.000000  1
  Be  Be9  1  0.500000  0.500000  0.500000  1
  B  B10  1  0.173946  0.038887  0.227956  1
  B  B11  1  0.961113  0.173946  0.227956  1
  B  B12  1  0.038887  0.826054  0.227956  1
  B  B13  1  0.673946  0.461113  0.272044  1
  B  B14  1  0.326054  0.538887  0.272044  1
  B  B15  1  0.826054  0.961113  0.227956  1
  B  B16  1  0.538887  0.673946  0.272044  1
  B  B17  1  0.461113  0.326054  0.272044  1
  B  B18  1  0.826054  0.961113  0.772044  1
  B  B19  1  0.038887  0.826054  0.772044  1
  B  B20  1  0.961113  0.173946  0.772044  1
  B  B21  1  0.326054  0.538887  0.727956  1
  B  B22  1  0.673946  0.461113  0.727956  1
  B  B23  1  0.173946  0.038887  0.772044  1
  B  B24  1  0.461113  0.326054  0.727956  1
  B  B25  1  0.538887  0.673946  0.727956  1
  B  B26  1  0.088372  0.588372  0.250000  1
  B  B27  1  0.411628  0.088372  0.250000  1
  B  B28  1  0.588372  0.911628  0.250000  1
  B  B29  1  0.911628  0.411628  0.250000  1
  B  B30  1  0.911628  0.411628  0.750000  1
  B  B31  1  0.588372  0.911628  0.750000  1
  B  B32  1  0.411628  0.088372  0.750000  1
  B  B33  1  0.088372  0.588372  0.750000  1
  B  B34  1  0.000000  0.000000  0.387625  1
  B  B35  1  0.500000  0.500000  0.112375  1
  B  B36  1  0.000000  0.000000  0.612375  1
  B  B37  1  0.500000  0.500000  0.887625  1
