# generated using pymatgen
data_Sr2Al20Ir3Os
_symmetry_space_group_name_H-M   'P 1'
_cell_length_a   6.92413401
_cell_length_b   6.93166195
_cell_length_c   9.22714892
_cell_angle_alpha   89.95314886
_cell_angle_beta   89.93242093
_cell_angle_gamma   96.77133501
_symmetry_Int_Tables_number   1
_chemical_formula_structural   Sr2Al20Ir3Os
_chemical_formula_sum   'Sr2 Al20 Ir3 Os1'
_cell_volume   439.77433656
_cell_formula_units_Z   1
loop_
 _symmetry_equiv_pos_site_id
 _symmetry_equiv_pos_as_xyz
  1  'x, y, z'
loop_
 _atom_site_type_symbol
 _atom_site_label
 _atom_site_symmetry_multiplicity
 _atom_site_fract_x
 _atom_site_fract_y
 _atom_site_fract_z
 _atom_site_occupancy
  Sr  Sr0  1  0.623860  0.376543  0.750106  1
  Sr  Sr1  1  0.376140  0.623457  0.249894  1
  Al  Al2  1  0.276061  0.017483  0.750213  1
  Al  Al3  1  0.017786  0.278887  0.252580  1
  Al  Al4  1  0.723939  0.982517  0.249787  1
  Al  Al5  1  0.982214  0.721113  0.747420  1
  Al  Al6  1  0.879291  0.121372  0.950153  1
  Al  Al7  1  0.120709  0.878628  0.049847  1
  Al  Al8  1  0.879829  0.123400  0.548576  1
  Al  Al9  1  0.120171  0.876600  0.451424  1
  Al  Al10  1  0.645989  0.913338  0.749776  1
  Al  Al11  1  0.913323  0.645218  0.250890  1
  Al  Al12  1  0.354011  0.086662  0.250224  1
  Al  Al13  1  0.086677  0.354782  0.749110  1
  Al  Al14  1  0.339646  0.660724  0.896186  1
  Al  Al15  1  0.660354  0.339276  0.103814  1
  Al  Al16  1  0.339054  0.659229  0.601727  1
  Al  Al17  1  0.660946  0.340771  0.398273  1
  Al  Al18  1  0.725206  0.724593  0.000116  1
  Al  Al19  1  0.724921  0.723147  0.501472  1
  Al  Al20  1  0.274794  0.275407  0.999884  1
  Al  Al21  1  0.275079  0.276853  0.498528  1
  Ir  Ir22  1  0.500000  0.000000  0.000000  1
  Ir  Ir23  1  0.000000  0.500000  0.000000  1
  Ir  Ir24  1  0.500000  0.000000  0.500000  1
  Os  Os25  1  0.000000  0.500000  0.500000  1
