# generated using pymatgen
data_Dy6NiP12Ru17
_symmetry_space_group_name_H-M   'P 1'
_cell_length_a   3.93965657
_cell_length_b   11.00820320
_cell_length_c   12.69642801
_cell_angle_alpha   89.49139116
_cell_angle_beta   90.09570664
_cell_angle_gamma   89.96386936
_symmetry_Int_Tables_number   1
_chemical_formula_structural   Dy6NiP12Ru17
_chemical_formula_sum   'Dy6 Ni1 P12 Ru17'
_cell_volume   550.60296893
_cell_formula_units_Z   1
loop_
 _symmetry_equiv_pos_site_id
 _symmetry_equiv_pos_as_xyz
  1  'x, y, z'
loop_
 _atom_site_type_symbol
 _atom_site_label
 _atom_site_symmetry_multiplicity
 _atom_site_fract_x
 _atom_site_fract_y
 _atom_site_fract_z
 _atom_site_occupancy
  Dy  Dy0  1  0.751585  0.000986  0.474041  1
  Dy  Dy1  1  0.251651  0.497647  0.527623  1
  Dy  Dy2  1  0.251976  0.680480  0.789178  1
  Dy  Dy3  1  0.251716  0.320430  0.794538  1
  Dy  Dy4  1  0.751669  0.815816  0.206631  1
  Dy  Dy5  1  0.751752  0.178496  0.204369  1
  Ni  Ni6  1  0.753325  0.667834  0.980978  1
  P  P7  1  0.251669  0.194283  0.384221  1
  P  P8  1  0.251541  0.807702  0.385929  1
  P  P9  1  0.751635  0.305055  0.614555  1
  P  P10  1  0.751809  0.697614  0.615846  1
  P  P11  1  0.251915  0.992784  0.118633  1
  P  P12  1  0.751908  0.502802  0.877331  1
  P  P13  1  0.251640  0.648992  0.117637  1
  P  P14  1  0.251882  0.349416  0.102071  1
  P  P15  1  0.751915  0.843768  0.893552  1
  P  P16  1  0.751814  0.154026  0.896530  1
  P  P17  1  0.251735  0.000644  0.663794  1
  P  P18  1  0.751629  0.499056  0.338667  1
  Ru  Ru19  1  0.751931  0.992941  0.015402  1
  Ru  Ru20  1  0.252413  0.514496  0.983693  1
  Ru  Ru21  1  0.251674  0.202357  0.571999  1
  Ru  Ru22  1  0.251634  0.800945  0.571627  1
  Ru  Ru23  1  0.751673  0.298251  0.425969  1
  Ru  Ru24  1  0.751675  0.706017  0.431138  1
  Ru  Ru25  1  0.251617  0.617653  0.294347  1
  Ru  Ru26  1  0.251524  0.379214  0.282153  1
  Ru  Ru27  1  0.751744  0.879881  0.715017  1
  Ru  Ru28  1  0.751716  0.120808  0.716937  1
  Ru  Ru29  1  0.251873  0.166629  0.006603  1
  Ru  Ru30  1  0.252490  0.815501  0.008118  1
  Ru  Ru31  1  0.751868  0.337831  0.993241  1
  Ru  Ru32  1  0.251924  0.994516  0.848571  1
  Ru  Ru33  1  0.751589  0.513930  0.151691  1
  Ru  Ru34  1  0.251645  0.000519  0.303100  1
  Ru  Ru35  1  0.751853  0.500680  0.694271  1
