# generated using pymatgen
data_La5(CSe2)2
_symmetry_space_group_name_H-M   'P 1'
_cell_length_a   4.08248051
_cell_length_b   9.31188448
_cell_length_c   9.78648000
_cell_angle_alpha   92.65179533
_cell_angle_beta   77.75185567
_cell_angle_gamma   49.08414192
_symmetry_Int_Tables_number   1
_chemical_formula_structural   La5(CSe2)2
_chemical_formula_sum   'La5 C2 Se4'
_cell_volume   265.95885323
_cell_formula_units_Z   1
loop_
 _symmetry_equiv_pos_site_id
 _symmetry_equiv_pos_as_xyz
  1  'x, y, z'
loop_
 _atom_site_type_symbol
 _atom_site_label
 _atom_site_symmetry_multiplicity
 _atom_site_fract_x
 _atom_site_fract_y
 _atom_site_fract_z
 _atom_site_occupancy
  La  La0  1  0.427648  0.933505  0.819410  1
  La  La1  1  0.315285  0.799438  0.446697  1
  La  La2  1  0.499615  0.287369  0.610013  1
  La  La3  1  0.387066  0.153500  0.237439  1
  La  La4  1  0.407957  0.543575  0.027288  1
  C  C5  1  0.398884  0.070401  0.464481  1
  C  C6  1  0.415521  0.016750  0.592452  1
  Se  Se7  1  0.454887  0.613904  0.722330  1
  Se  Se8  1  0.403212  0.845965  0.129258  1
  Se  Se9  1  0.360370  0.473224  0.332942  1
  Se  Se10  1  0.411902  0.240896  0.927375  1
