# generated using pymatgen
data_TbY5(BCl3)2
_symmetry_space_group_name_H-M   'P 1'
_cell_length_a   9.47755643
_cell_length_b   9.47755700
_cell_length_c   9.47928532
_cell_angle_alpha   109.50288517
_cell_angle_beta   109.47029278
_cell_angle_gamma   109.43309845
_symmetry_Int_Tables_number   1
_chemical_formula_structural   TbY5(BCl3)2
_chemical_formula_sum   'Tb2 Y10 B4 Cl12'
_cell_volume   655.51999901
_cell_formula_units_Z   2
loop_
 _symmetry_equiv_pos_site_id
 _symmetry_equiv_pos_as_xyz
  1  'x, y, z'
loop_
 _atom_site_type_symbol
 _atom_site_label
 _atom_site_symmetry_multiplicity
 _atom_site_fract_x
 _atom_site_fract_y
 _atom_site_fract_z
 _atom_site_occupancy
  Tb  Tb0  1  0.470105  0.484754  0.235024  1
  Tb  Tb1  1  0.749731  0.235081  0.264976  1
  Y  Y2  1  0.749969  0.015495  0.484539  1
  Y  Y3  1  0.234531  0.468966  0.484484  1
  Y  Y4  1  0.265182  0.749884  0.234501  1
  Y  Y5  1  0.030955  0.265430  0.015461  1
  Y  Y6  1  0.015384  0.030680  0.265499  1
  Y  Y7  1  0.484481  0.750047  0.015516  1
  Y  Y8  1  0.484472  0.234354  0.468977  1
  Y  Y9  1  0.015057  0.484446  0.749758  1
  Y  Y10  1  0.265378  0.015496  0.031023  1
  Y  Y11  1  0.234688  0.265299  0.750242  1
  B  B12  1  0.249758  0.249947  0.249913  1
  B  B13  1  0.500033  0.999844  0.250087  1
  B  B14  1  0.000002  0.249875  0.500015  1
  B  B15  1  0.249861  0.499988  0.999985  1
  Cl  Cl16  1  0.249977  0.755282  0.744685  1
  Cl  Cl17  1  0.510596  0.505291  0.755315  1
  Cl  Cl18  1  0.989307  0.744651  0.994591  1
  Cl  Cl19  1  0.744573  0.249968  0.755371  1
  Cl  Cl20  1  0.994597  0.989202  0.744629  1
  Cl  Cl21  1  0.250060  0.994716  0.505409  1
  Cl  Cl22  1  0.755908  0.510842  0.506313  1
  Cl  Cl23  1  0.504529  0.249594  0.993687  1
  Cl  Cl24  1  0.755848  0.745210  0.249956  1
  Cl  Cl25  1  0.744558  0.994320  0.989113  1
  Cl  Cl26  1  0.995255  0.505892  0.250044  1
  Cl  Cl27  1  0.505207  0.755445  0.510887  1
