# generated using pymatgen
data_NdCd3P6N13
_symmetry_space_group_name_H-M   'P 1'
_cell_length_a   7.36310841
_cell_length_b   7.34144340
_cell_length_c   7.34144400
_cell_angle_alpha   109.41136055
_cell_angle_beta   109.53102254
_cell_angle_gamma   109.53101698
_symmetry_Int_Tables_number   1
_chemical_formula_structural   NdCd3P6N13
_chemical_formula_sum   'Nd1 Cd3 P6 N13'
_cell_volume   305.26792815
_cell_formula_units_Z   1
loop_
 _symmetry_equiv_pos_site_id
 _symmetry_equiv_pos_as_xyz
  1  'x, y, z'
loop_
 _atom_site_type_symbol
 _atom_site_label
 _atom_site_symmetry_multiplicity
 _atom_site_fract_x
 _atom_site_fract_y
 _atom_site_fract_z
 _atom_site_occupancy
  Nd  Nd0  1  0.697723  0.000000  0.000000  1
  Cd  Cd1  1  0.005112  0.000000  0.702424  1
  Cd  Cd2  1  0.005112  0.702424  0.000000  1
  Cd  Cd3  1  0.302688  0.297576  0.297576  1
  P  P4  1  0.245642  0.748825  0.496226  1
  P  P5  1  0.749416  0.252599  0.503774  1
  P  P6  1  0.749416  0.503774  0.252599  1
  P  P7  1  0.245642  0.496226  0.748825  1
  P  P8  1  0.496817  0.747401  0.251175  1
  P  P9  1  0.496817  0.251175  0.747401  1
  N  N10  1  0.006896  0.000000  0.000000  1
  N  N11  1  0.716745  0.289997  0.289997  1
  N  N12  1  0.278443  0.709789  0.279590  1
  N  N13  1  0.297984  0.578689  0.578689  1
  N  N14  1  0.568654  0.569800  0.290211  1
  N  N15  1  0.426748  0.710003  0.000000  1
  N  N16  1  0.998854  0.720410  0.430200  1
  N  N17  1  0.568654  0.290211  0.569800  1
  N  N18  1  0.719295  0.000000  0.421311  1
  N  N19  1  0.426748  0.000000  0.710003  1
  N  N20  1  0.719295  0.421311  0.000000  1
  N  N21  1  0.278443  0.279590  0.709789  1
  N  N22  1  0.998854  0.430200  0.720410  1
