# generated using pymatgen
data_CeMoP3Rh4
_symmetry_space_group_name_H-M   'P 1'
_cell_length_a   3.96780200
_cell_length_b   10.97676800
_cell_length_c   12.56037200
_cell_angle_alpha   90.00000000
_cell_angle_beta   90.00000000
_cell_angle_gamma   90.00000000
_symmetry_Int_Tables_number   1
_chemical_formula_structural   CeMoP3Rh4
_chemical_formula_sum   'Ce4 Mo4 P12 Rh16'
_cell_volume   547.04994578
_cell_formula_units_Z   4
loop_
 _symmetry_equiv_pos_site_id
 _symmetry_equiv_pos_as_xyz
  1  'x, y, z'
loop_
 _atom_site_type_symbol
 _atom_site_label
 _atom_site_symmetry_multiplicity
 _atom_site_fract_x
 _atom_site_fract_y
 _atom_site_fract_z
 _atom_site_occupancy
  Ce  Ce0  1  0.250000  0.582292  0.703462  1
  Ce  Ce1  1  0.250000  0.917708  0.203462  1
  Ce  Ce2  1  0.750000  0.417708  0.296538  1
  Ce  Ce3  1  0.750000  0.082292  0.796538  1
  Mo  Mo4  1  0.250000  0.712859  0.988876  1
  Mo  Mo5  1  0.250000  0.787141  0.488876  1
  Mo  Mo6  1  0.750000  0.287141  0.011124  1
  Mo  Mo7  1  0.750000  0.212859  0.511124  1
  P  P8  1  0.250000  0.418629  0.114268  1
  P  P9  1  0.250000  0.081371  0.614268  1
  P  P10  1  0.750000  0.581371  0.885732  1
  P  P11  1  0.750000  0.918629  0.385732  1
  P  P12  1  0.250000  0.264933  0.868225  1
  P  P13  1  0.250000  0.235067  0.368225  1
  P  P14  1  0.750000  0.735067  0.131775  1
  P  P15  1  0.750000  0.764933  0.631775  1
  P  P16  1  0.250000  0.601023  0.394123  1
  P  P17  1  0.250000  0.898977  0.894123  1
  P  P18  1  0.750000  0.398977  0.605877  1
  P  P19  1  0.750000  0.101023  0.105877  1
  Rh  Rh20  1  0.250000  0.405964  0.486984  1
  Rh  Rh21  1  0.250000  0.094036  0.986984  1
  Rh  Rh22  1  0.750000  0.594036  0.513016  1
  Rh  Rh23  1  0.750000  0.905964  0.013016  1
  Rh  Rh24  1  0.250000  0.226346  0.177845  1
  Rh  Rh25  1  0.250000  0.273654  0.677845  1
  Rh  Rh26  1  0.750000  0.773654  0.822155  1
  Rh  Rh27  1  0.750000  0.726346  0.322155  1
  Rh  Rh28  1  0.250000  0.888430  0.704391  1
  Rh  Rh29  1  0.250000  0.611570  0.204391  1
  Rh  Rh30  1  0.750000  0.111570  0.295609  1
  Rh  Rh31  1  0.750000  0.388430  0.795609  1
  Rh  Rh32  1  0.250000  0.463054  0.932276  1
  Rh  Rh33  1  0.250000  0.036946  0.432276  1
  Rh  Rh34  1  0.750000  0.536946  0.067724  1
  Rh  Rh35  1  0.750000  0.963054  0.567724  1
