# generated using pymatgen
data_Er2Lu(Zn3Ni2)3
_symmetry_space_group_name_H-M   'P 1'
_cell_length_a   8.80281700
_cell_length_b   8.80281712
_cell_length_c   4.12781000
_cell_angle_alpha   90.00000000
_cell_angle_beta   90.00000000
_cell_angle_gamma   120.00000330
_symmetry_Int_Tables_number   1
_chemical_formula_structural   Er2Lu(Zn3Ni2)3
_chemical_formula_sum   'Er2 Lu1 Zn9 Ni6'
_cell_volume   277.00886583
_cell_formula_units_Z   1
loop_
 _symmetry_equiv_pos_site_id
 _symmetry_equiv_pos_as_xyz
  1  'x, y, z'
loop_
 _atom_site_type_symbol
 _atom_site_label
 _atom_site_symmetry_multiplicity
 _atom_site_fract_x
 _atom_site_fract_y
 _atom_site_fract_z
 _atom_site_occupancy
  Er  Er0  1  0.666667  0.333333  0.500000  1
  Er  Er1  1  0.333333  0.666667  0.500000  1
  Lu  Lu2  1  0.000000  0.000000  0.000000  1
  Zn  Zn3  1  0.500000  0.500000  0.000000  1
  Zn  Zn4  1  0.500000  0.000000  0.000000  1
  Zn  Zn5  1  0.000000  0.500000  0.000000  1
  Zn  Zn6  1  0.705114  0.705114  0.500000  1
  Zn  Zn7  1  0.294886  0.000000  0.500000  1
  Zn  Zn8  1  0.000000  0.294886  0.500000  1
  Zn  Zn9  1  0.294886  0.294886  0.500000  1
  Zn  Zn10  1  0.705114  0.000000  0.500000  1
  Zn  Zn11  1  0.000000  0.705114  0.500000  1
  Ni  Ni12  1  0.818688  0.181312  0.000000  1
  Ni  Ni13  1  0.818688  0.637377  0.000000  1
  Ni  Ni14  1  0.362623  0.181312  0.000000  1
  Ni  Ni15  1  0.181312  0.818688  0.000000  1
  Ni  Ni16  1  0.637377  0.818688  0.000000  1
  Ni  Ni17  1  0.181312  0.362623  0.000000  1
