# generated using pymatgen
data_TbNd6(YPb2)3
_symmetry_space_group_name_H-M   'P 1'
_cell_length_a   9.28587300
_cell_length_b   9.28587332
_cell_length_c   6.80012700
_cell_angle_alpha   90.00000000
_cell_angle_beta   90.00000000
_cell_angle_gamma   120.00000241
_symmetry_Int_Tables_number   1
_chemical_formula_structural   TbNd6(YPb2)3
_chemical_formula_sum   'Tb1 Nd6 Y3 Pb6'
_cell_volume   507.80051777
_cell_formula_units_Z   1
loop_
 _symmetry_equiv_pos_site_id
 _symmetry_equiv_pos_as_xyz
  1  'x, y, z'
loop_
 _atom_site_type_symbol
 _atom_site_label
 _atom_site_symmetry_multiplicity
 _atom_site_fract_x
 _atom_site_fract_y
 _atom_site_fract_z
 _atom_site_occupancy
  Tb  Tb0  1  0.666667  0.333333  0.500000  1
  Nd  Nd1  1  0.760084  0.760068  0.749987  1
  Nd  Nd2  1  0.239932  0.000016  0.749987  1
  Nd  Nd3  1  0.999984  0.239916  0.749987  1
  Nd  Nd4  1  0.239932  0.239916  0.250013  1
  Nd  Nd5  1  0.760084  0.000016  0.250013  1
  Nd  Nd6  1  0.999984  0.760068  0.250013  1
  Y  Y7  1  0.666667  0.333333  0.000000  1
  Y  Y8  1  0.333333  0.666667  0.000000  1
  Y  Y9  1  0.333333  0.666667  0.500000  1
  Pb  Pb10  1  0.397811  0.397705  0.749863  1
  Pb  Pb11  1  0.602295  0.000106  0.749863  1
  Pb  Pb12  1  0.999894  0.602189  0.749863  1
  Pb  Pb13  1  0.602295  0.602189  0.250137  1
  Pb  Pb14  1  0.397811  0.000106  0.250137  1
  Pb  Pb15  1  0.999894  0.397705  0.250137  1
