# generated using pymatgen
data_Pr3Th(CuAs2)4
_symmetry_space_group_name_H-M   'P 1'
_cell_length_a   4.01544200
_cell_length_b   4.02070921
_cell_length_c   20.23815665
_cell_angle_alpha   89.76606164
_cell_angle_beta   90.00000000
_cell_angle_gamma   90.00000000
_symmetry_Int_Tables_number   1
_chemical_formula_structural   Pr3Th(CuAs2)4
_chemical_formula_sum   'Pr3 Th1 Cu4 As8'
_cell_volume   326.74079002
_cell_formula_units_Z   1
loop_
 _symmetry_equiv_pos_site_id
 _symmetry_equiv_pos_as_xyz
  1  'x, y, z'
loop_
 _atom_site_type_symbol
 _atom_site_label
 _atom_site_symmetry_multiplicity
 _atom_site_fract_x
 _atom_site_fract_y
 _atom_site_fract_z
 _atom_site_occupancy
  Pr  Pr0  1  0.750000  0.740809  0.379557  1
  Pr  Pr1  1  0.250000  0.259455  0.621313  1
  Pr  Pr2  1  0.750000  0.754968  0.882820  1
  Th  Th3  1  0.250000  0.245367  0.117389  1
  Cu  Cu4  1  0.750000  0.242161  0.248030  1
  Cu  Cu5  1  0.250000  0.741885  0.248028  1
  Cu  Cu6  1  0.750000  0.258004  0.751553  1
  Cu  Cu7  1  0.250000  0.758020  0.751522  1
  As  As8  1  0.250000  0.748236  0.002483  1
  As  As9  1  0.750000  0.744150  0.170125  1
  As  As10  1  0.250000  0.241098  0.322102  1
  As  As11  1  0.750000  0.231330  0.499730  1
  As  As12  1  0.250000  0.768376  0.500208  1
  As  As13  1  0.750000  0.758929  0.676527  1
  As  As14  1  0.250000  0.256323  0.826258  1
  As  As15  1  0.750000  0.250890  0.002357  1
