# generated using pymatgen
data_TmScP7Ru11Pt
_symmetry_space_group_name_H-M   'P 1'
_cell_length_a   9.32985815
_cell_length_b   9.43893144
_cell_length_c   3.92816500
_cell_angle_alpha   90.00000000
_cell_angle_beta   90.00000000
_cell_angle_gamma   119.28214064
_symmetry_Int_Tables_number   1
_chemical_formula_structural   TmScP7Ru11Pt
_chemical_formula_sum   'Tm1 Sc1 P7 Ru11 Pt1'
_cell_volume   301.72723832
_cell_formula_units_Z   1
loop_
 _symmetry_equiv_pos_site_id
 _symmetry_equiv_pos_as_xyz
  1  'x, y, z'
loop_
 _atom_site_type_symbol
 _atom_site_label
 _atom_site_symmetry_multiplicity
 _atom_site_fract_x
 _atom_site_fract_y
 _atom_site_fract_z
 _atom_site_occupancy
  Tm  Tm0  1  0.328604  0.658334  0.000000  1
  Sc  Sc1  1  0.671042  0.338353  0.500000  1
  P  P2  1  0.598134  0.705933  0.500000  1
  P  P3  1  0.997697  0.001308  0.000000  1
  P  P4  1  0.269858  0.875569  0.500000  1
  P  P5  1  0.119648  0.401632  0.500000  1
  P  P6  1  0.885742  0.577153  0.000000  1
  P  P7  1  0.430668  0.310266  0.000000  1
  P  P8  1  0.702822  0.129140  0.000000  1
  Ru  Ru9  1  0.392527  0.439167  0.500000  1
  Ru  Ru10  1  0.911410  0.127459  0.500000  1
  Ru  Ru11  1  0.211077  0.086362  0.500000  1
  Ru  Ru12  1  0.876126  0.794594  0.500000  1
  Ru  Ru13  1  0.722653  0.893528  0.000000  1
  Ru  Ru14  1  0.111482  0.838900  0.000000  1
  Ru  Ru15  1  0.164700  0.270878  0.000000  1
  Ru  Ru16  1  0.434993  0.071527  0.000000  1
  Ru  Ru17  1  0.935713  0.364314  0.000000  1
  Ru  Ru18  1  0.642367  0.573449  0.000000  1
  Ru  Ru19  1  0.050184  0.606789  0.500000  1
  Pt  Pt20  1  0.542551  0.935346  0.500000  1
