# generated using pymatgen
data_Tm4Sc4B24Ir3W
_symmetry_space_group_name_H-M   'P 1'
_cell_length_a   3.53708000
_cell_length_b   8.99170926
_cell_length_c   11.37059461
_cell_angle_alpha   90.12374079
_cell_angle_beta   90.00000000
_cell_angle_gamma   90.00000000
_symmetry_Int_Tables_number   1
_chemical_formula_structural   Tm4Sc4B24Ir3W
_chemical_formula_sum   'Tm4 Sc4 B24 Ir3 W1'
_cell_volume   361.63403878
_cell_formula_units_Z   1
loop_
 _symmetry_equiv_pos_site_id
 _symmetry_equiv_pos_as_xyz
  1  'x, y, z'
loop_
 _atom_site_type_symbol
 _atom_site_label
 _atom_site_symmetry_multiplicity
 _atom_site_fract_x
 _atom_site_fract_y
 _atom_site_fract_z
 _atom_site_occupancy
  Tm  Tm0  1  0.500000  0.317391  0.411275  1
  Tm  Tm1  1  0.500000  0.680545  0.585394  1
  Tm  Tm2  1  0.500000  0.180497  0.916023  1
  Tm  Tm3  1  0.500000  0.821071  0.086618  1
  Sc  Sc4  1  0.500000  0.444222  0.123674  1
  Sc  Sc5  1  0.500000  0.555594  0.875585  1
  Sc  Sc6  1  0.500000  0.054870  0.625356  1
  Sc  Sc7  1  0.500000  0.947396  0.375299  1
  B  B8  1  0.000000  0.100307  0.474597  1
  B  B9  1  0.000000  0.898655  0.528223  1
  B  B10  1  0.000000  0.401123  0.971374  1
  B  B11  1  0.000000  0.601651  0.026754  1
  B  B12  1  0.000000  0.129868  0.319488  1
  B  B13  1  0.000000  0.869388  0.681206  1
  B  B14  1  0.000000  0.370308  0.818685  1
  B  B15  1  0.000000  0.629948  0.181864  1
  B  B16  1  0.000000  0.051950  0.063615  1
  B  B17  1  0.000000  0.945279  0.933158  1
  B  B18  1  0.000000  0.445226  0.565383  1
  B  B19  1  0.000000  0.554036  0.434406  1
  B  B20  1  0.000000  0.481816  0.286338  1
  B  B21  1  0.000000  0.518815  0.714522  1
  B  B22  1  0.000000  0.018975  0.785139  1
  B  B23  1  0.000000  0.977485  0.215134  1
  B  B24  1  0.000000  0.255584  0.078409  1
  B  B25  1  0.000000  0.746488  0.920132  1
  B  B26  1  0.000000  0.246173  0.579792  1
  B  B27  1  0.000000  0.753971  0.420493  1
  B  B28  1  0.000000  0.298213  0.236052  1
  B  B29  1  0.000000  0.704531  0.764167  1
  B  B30  1  0.000000  0.205474  0.736256  1
  B  B31  1  0.000000  0.793963  0.265957  1
  Ir  Ir32  1  0.500000  0.858960  0.818720  1
  Ir  Ir33  1  0.500000  0.360252  0.680374  1
  Ir  Ir34  1  0.500000  0.640499  0.319823  1
  W  W35  1  0.500000  0.139477  0.180716  1
