# generated using pymatgen
data_TbPr16Lu3Sn16
_symmetry_space_group_name_H-M   'P 1'
_cell_length_a   8.25661800
_cell_length_b   8.41684604
_cell_length_c   16.00042400
_cell_angle_alpha   90.00000000
_cell_angle_beta   90.00000000
_cell_angle_gamma   89.99465629
_symmetry_Int_Tables_number   1
_chemical_formula_structural   TbPr16Lu3Sn16
_chemical_formula_sum   'Tb1 Pr16 Lu3 Sn16'
_cell_volume   1111.94438073
_cell_formula_units_Z   1
loop_
 _symmetry_equiv_pos_site_id
 _symmetry_equiv_pos_as_xyz
  1  'x, y, z'
loop_
 _atom_site_type_symbol
 _atom_site_label
 _atom_site_symmetry_multiplicity
 _atom_site_fract_x
 _atom_site_fract_y
 _atom_site_fract_z
 _atom_site_occupancy
  Tb  Tb0  1  0.197623  0.501847  0.750000  1
  Pr  Pr1  1  0.367644  0.838431  0.879326  1
  Pr  Pr2  1  0.866660  0.662286  0.620762  1
  Pr  Pr3  1  0.632709  0.161837  0.379239  1
  Pr  Pr4  1  0.132804  0.338086  0.121008  1
  Pr  Pr5  1  0.632709  0.161837  0.120761  1
  Pr  Pr6  1  0.132804  0.338086  0.378992  1
  Pr  Pr7  1  0.367644  0.838431  0.620674  1
  Pr  Pr8  1  0.866660  0.662286  0.879238  1
  Pr  Pr9  1  0.518854  0.318291  0.901408  1
  Pr  Pr10  1  0.018557  0.181303  0.598633  1
  Pr  Pr11  1  0.481471  0.681519  0.401266  1
  Pr  Pr12  1  0.981411  0.818489  0.098655  1
  Pr  Pr13  1  0.481471  0.681519  0.098734  1
  Pr  Pr14  1  0.981411  0.818489  0.401345  1
  Pr  Pr15  1  0.518854  0.318291  0.598592  1
  Pr  Pr16  1  0.018557  0.181303  0.901367  1
  Lu  Lu17  1  0.698963  0.997961  0.750000  1
  Lu  Lu18  1  0.801053  0.497942  0.250000  1
  Lu  Lu19  1  0.301069  0.001871  0.250000  1
  Sn  Sn20  1  0.291965  0.033607  0.045439  1
  Sn  Sn21  1  0.792182  0.466513  0.454583  1
  Sn  Sn22  1  0.707914  0.966420  0.544925  1
  Sn  Sn23  1  0.207963  0.534060  0.955803  1
  Sn  Sn24  1  0.707914  0.966420  0.955075  1
  Sn  Sn25  1  0.207963  0.534060  0.544197  1
  Sn  Sn26  1  0.291965  0.033607  0.454561  1
  Sn  Sn27  1  0.792182  0.466513  0.045417  1
  Sn  Sn28  1  0.564228  0.616278  0.750000  1
  Sn  Sn29  1  0.062406  0.884289  0.750000  1
  Sn  Sn30  1  0.437272  0.383756  0.250000  1
  Sn  Sn31  1  0.936955  0.116325  0.250000  1
  Sn  Sn32  1  0.323650  0.146188  0.750000  1
  Sn  Sn33  1  0.823479  0.351621  0.750000  1
  Sn  Sn34  1  0.676724  0.852029  0.250000  1
  Sn  Sn35  1  0.176311  0.648207  0.250000  1
