# generated using pymatgen
data_Y3Fe2Co9B4
_symmetry_space_group_name_H-M   'P 1'
_cell_length_a   5.08025300
_cell_length_b   5.08298047
_cell_length_c   9.66744300
_cell_angle_alpha   89.99990505
_cell_angle_beta   90.00017872
_cell_angle_gamma   119.98225786
_symmetry_Int_Tables_number   1
_chemical_formula_structural   Y3Fe2Co9B4
_chemical_formula_sum   'Y3 Fe2 Co9 B4'
_cell_volume   216.23383469
_cell_formula_units_Z   1
loop_
 _symmetry_equiv_pos_site_id
 _symmetry_equiv_pos_as_xyz
  1  'x, y, z'
loop_
 _atom_site_type_symbol
 _atom_site_label
 _atom_site_symmetry_multiplicity
 _atom_site_fract_x
 _atom_site_fract_y
 _atom_site_fract_z
 _atom_site_occupancy
  Y  Y0  1  0.999985  0.000000  0.999894  1
  Y  Y1  1  0.999997  0.000000  0.341929  1
  Y  Y2  1  0.999999  0.000000  0.658330  1
  Fe  Fe3  1  0.333341  0.666717  0.999912  1
  Fe  Fe4  1  0.666625  0.333283  0.999912  1
  Co  Co5  1  0.499997  0.000000  0.500078  1
  Co  Co6  1  0.499998  0.500001  0.500069  1
  Co  Co7  1  0.999998  0.499999  0.500069  1
  Co  Co8  1  0.499994  0.000000  0.202744  1
  Co  Co9  1  0.499994  0.500001  0.202726  1
  Co  Co10  1  0.999993  0.499999  0.202726  1
  Co  Co11  1  0.499998  0.000000  0.797130  1
  Co  Co12  1  0.499998  0.500001  0.797149  1
  Co  Co13  1  0.999996  0.499999  0.797149  1
  B  B14  1  0.333360  0.666726  0.349765  1
  B  B15  1  0.666633  0.333274  0.349765  1
  B  B16  1  0.666631  0.333268  0.650330  1
  B  B17  1  0.333362  0.666732  0.650330  1
