# generated using pymatgen
data_Li4Gd3ZrPt4
_symmetry_space_group_name_H-M   'P 1'
_cell_length_a   3.92758500
_cell_length_b   6.99422428
_cell_length_c   8.49445600
_cell_angle_alpha   90.80088792
_cell_angle_beta   90.00000000
_cell_angle_gamma   90.00000000
_symmetry_Int_Tables_number   1
_chemical_formula_structural   Li4Gd3ZrPt4
_chemical_formula_sum   'Li4 Gd3 Zr1 Pt4'
_cell_volume   233.32339612
_cell_formula_units_Z   1
loop_
 _symmetry_equiv_pos_site_id
 _symmetry_equiv_pos_as_xyz
  1  'x, y, z'
loop_
 _atom_site_type_symbol
 _atom_site_label
 _atom_site_symmetry_multiplicity
 _atom_site_fract_x
 _atom_site_fract_y
 _atom_site_fract_z
 _atom_site_occupancy
  Li  Li0  1  0.250000  0.886152  0.948402  1
  Li  Li1  1  0.250000  0.372265  0.552786  1
  Li  Li2  1  0.750000  0.124125  0.057214  1
  Li  Li3  1  0.750000  0.620323  0.441523  1
  Gd  Gd4  1  0.250000  0.451778  0.185990  1
  Gd  Gd5  1  0.750000  0.050186  0.676225  1
  Gd  Gd6  1  0.750000  0.558454  0.821669  1
  Zr  Zr7  1  0.250000  0.939321  0.323357  1
  Pt  Pt8  1  0.250000  0.262019  0.873675  1
  Pt  Pt9  1  0.250000  0.757668  0.613480  1
  Pt  Pt10  1  0.750000  0.761037  0.138224  1
  Pt  Pt11  1  0.750000  0.216673  0.367456  1
