# generated using pymatgen
data_Er4TmW2C7
_symmetry_space_group_name_H-M   'P 1'
_cell_length_a   8.35958599
_cell_length_b   8.35958465
_cell_length_c   3.39059700
_cell_angle_alpha   90.00000000
_cell_angle_beta   90.00000000
_cell_angle_gamma   122.33410621
_symmetry_Int_Tables_number   1
_chemical_formula_structural   Er4TmW2C7
_chemical_formula_sum   'Er4 Tm1 W2 C7'
_cell_volume   200.20428330
_cell_formula_units_Z   1
loop_
 _symmetry_equiv_pos_site_id
 _symmetry_equiv_pos_as_xyz
  1  'x, y, z'
loop_
 _atom_site_type_symbol
 _atom_site_label
 _atom_site_symmetry_multiplicity
 _atom_site_fract_x
 _atom_site_fract_y
 _atom_site_fract_z
 _atom_site_occupancy
  Er  Er0  1  0.074954  0.332450  0.500000  1
  Er  Er1  1  0.925046  0.667550  0.500000  1
  Er  Er2  1  0.667550  0.925046  0.500000  1
  Er  Er3  1  0.332450  0.074954  0.500000  1
  Tm  Tm4  1  0.500000  0.500000  0.000000  1
  W  W5  1  0.712706  0.287294  0.000000  1
  W  W6  1  0.287294  0.712706  0.000000  1
  C  C7  1  0.623046  0.376954  0.500000  1
  C  C8  1  0.376954  0.623046  0.500000  1
  C  C9  1  0.000000  0.000000  0.000000  1
  C  C10  1  0.168183  0.168183  0.000000  1
  C  C11  1  0.831817  0.831817  0.000000  1
  C  C12  1  0.000000  0.500000  0.000000  1
  C  C13  1  0.500000  0.000000  0.000000  1
