# generated using pymatgen
data_La5PrCd4IrPd12
_symmetry_space_group_name_H-M   'P 1'
_cell_length_a   8.60863957
_cell_length_b   8.60863896
_cell_length_c   8.60863968
_cell_angle_alpha   109.60576939
_cell_angle_beta   109.60576249
_cell_angle_gamma   109.20245472
_symmetry_Int_Tables_number   1
_chemical_formula_structural   La5PrCd4IrPd12
_chemical_formula_sum   'La5 Pr1 Cd4 Ir1 Pd12'
_cell_volume   491.10521369
_cell_formula_units_Z   1
loop_
 _symmetry_equiv_pos_site_id
 _symmetry_equiv_pos_as_xyz
  1  'x, y, z'
loop_
 _atom_site_type_symbol
 _atom_site_label
 _atom_site_symmetry_multiplicity
 _atom_site_fract_x
 _atom_site_fract_y
 _atom_site_fract_z
 _atom_site_occupancy
  La  La0  1  0.000187  0.297754  0.297567  1
  La  La1  1  0.000187  0.702619  0.702433  1
  La  La2  1  0.297754  0.000187  0.297567  1
  La  La3  1  0.701034  0.701034  0.000000  1
  La  La4  1  0.702619  0.000187  0.702433  1
  Pr  Pr5  1  0.298440  0.298440  0.000000  1
  Cd  Cd6  1  0.000502  0.000502  0.500930  1
  Cd  Cd7  1  0.499572  0.000502  0.000000  1
  Cd  Cd8  1  0.000502  0.499572  0.000000  1
  Cd  Cd9  1  0.499572  0.499572  0.499070  1
  Ir  Ir10  1  0.998730  0.998730  0.000000  1
  Pd  Pd11  1  0.342524  0.658062  0.000000  1
  Pd  Pd12  1  0.000196  0.342448  0.657748  1
  Pd  Pd13  1  0.657485  0.999958  0.342473  1
  Pd  Pd14  1  0.315011  0.657485  0.657527  1
  Pd  Pd15  1  0.657485  0.315011  0.657527  1
  Pd  Pd16  1  0.684701  0.342448  0.342252  1
  Pd  Pd17  1  0.342448  0.684701  0.342252  1
  Pd  Pd18  1  0.342524  0.342524  0.684464  1
  Pd  Pd19  1  0.999958  0.657485  0.342473  1
  Pd  Pd20  1  0.658062  0.658062  0.315536  1
  Pd  Pd21  1  0.342448  0.000196  0.657748  1
  Pd  Pd22  1  0.658062  0.342524  0.000000  1
