# generated using pymatgen
data_La2Y13Tm5Bi12
_symmetry_space_group_name_H-M   'P 1'
_cell_length_a   8.29858241
_cell_length_b   9.55810939
_cell_length_c   12.16015703
_cell_angle_alpha   90.00447506
_cell_angle_beta   90.04587992
_cell_angle_gamma   90.00395475
_symmetry_Int_Tables_number   1
_chemical_formula_structural   La2Y13Tm5Bi12
_chemical_formula_sum   'La2 Y13 Tm5 Bi12'
_cell_volume   964.52824289
_cell_formula_units_Z   1
loop_
 _symmetry_equiv_pos_site_id
 _symmetry_equiv_pos_as_xyz
  1  'x, y, z'
loop_
 _atom_site_type_symbol
 _atom_site_label
 _atom_site_symmetry_multiplicity
 _atom_site_fract_x
 _atom_site_fract_y
 _atom_site_fract_z
 _atom_site_occupancy
  La  La0  1  0.183665  0.750007  0.721967  1
  La  La1  1  0.683898  0.750096  0.778174  1
  Y  Y2  1  0.814115  0.250111  0.280929  1
  Y  Y3  1  0.313990  0.250431  0.218561  1
  Y  Y4  1  0.807052  0.063254  0.559212  1
  Y  Y5  1  0.693027  0.937433  0.061002  1
  Y  Y6  1  0.193782  0.562230  0.438587  1
  Y  Y7  1  0.693754  0.562102  0.061309  1
  Y  Y8  1  0.193680  0.937801  0.438498  1
  Y  Y9  1  0.307134  0.063131  0.941176  1
  Y  Y10  1  0.807000  0.436965  0.559176  1
  Y  Y11  1  0.354762  0.750485  0.217391  1
  Y  Y12  1  0.854374  0.750238  0.282501  1
  Y  Y13  1  0.646293  0.250629  0.785131  1
  Y  Y14  1  0.147698  0.250810  0.715612  1
  Tm  Tm15  1  0.024794  0.749988  0.990501  1
  Tm  Tm16  1  0.524709  0.750138  0.509650  1
  Tm  Tm17  1  0.975570  0.250503  0.012254  1
  Tm  Tm18  1  0.474762  0.250143  0.487680  1
  Tm  Tm19  1  0.306534  0.433956  0.940962  1
  Bi  Bi20  1  0.434857  0.010180  0.669789  1
  Bi  Bi21  1  0.935374  0.490268  0.830488  1
  Bi  Bi22  1  0.566268  0.503389  0.327622  1
  Bi  Bi23  1  0.066442  0.996865  0.172205  1
  Bi  Bi24  1  0.566394  0.996972  0.327679  1
  Bi  Bi25  1  0.066447  0.503576  0.172042  1
  Bi  Bi26  1  0.434624  0.490251  0.669815  1
  Bi  Bi27  1  0.934986  0.010338  0.830440  1
  Bi  Bi28  1  0.404962  0.747222  0.963864  1
  Bi  Bi29  1  0.906067  0.750077  0.535673  1
  Bi  Bi30  1  0.591518  0.250415  0.041745  1
  Bi  Bi31  1  0.091469  0.249994  0.458364  1
