# generated using pymatgen
data_LuUC2
_symmetry_space_group_name_H-M   'P 1'
_cell_length_a   5.94953893
_cell_length_b   5.94953925
_cell_length_c   5.94953742
_cell_angle_alpha   34.70344074
_cell_angle_beta   34.70343465
_cell_angle_gamma   34.70344127
_symmetry_Int_Tables_number   1
_chemical_formula_structural   LuUC2
_chemical_formula_sum   'Lu1 U1 C2'
_cell_volume   60.91867739
_cell_formula_units_Z   1
loop_
 _symmetry_equiv_pos_site_id
 _symmetry_equiv_pos_as_xyz
  1  'x, y, z'
loop_
 _atom_site_type_symbol
 _atom_site_label
 _atom_site_symmetry_multiplicity
 _atom_site_fract_x
 _atom_site_fract_y
 _atom_site_fract_z
 _atom_site_occupancy
  Lu  Lu0  1  0.000000  0.000000  0.000000  1
  U  U1  1  0.500000  0.500000  0.500000  1
  C  C2  1  0.240768  0.240768  0.240768  1
  C  C3  1  0.759232  0.759232  0.759232  1
