# generated using pymatgen
data_NdMn3Cl7O
_symmetry_space_group_name_H-M   'P 1'
_cell_length_a   7.62967019
_cell_length_b   7.94773549
_cell_length_c   7.62969500
_cell_angle_alpha   58.35769024
_cell_angle_beta   56.36993554
_cell_angle_gamma   58.35825797
_symmetry_Int_Tables_number   1
_chemical_formula_structural   NdMn3Cl7O
_chemical_formula_sum   'Nd1 Mn3 Cl7 O1'
_cell_volume   309.55902339
_cell_formula_units_Z   1
loop_
 _symmetry_equiv_pos_site_id
 _symmetry_equiv_pos_as_xyz
  1  'x, y, z'
loop_
 _atom_site_type_symbol
 _atom_site_label
 _atom_site_symmetry_multiplicity
 _atom_site_fract_x
 _atom_site_fract_y
 _atom_site_fract_z
 _atom_site_occupancy
  Nd  Nd0  1  0.470969  0.529910  0.470963  1
  Mn  Mn1  1  0.477223  0.518660  0.014204  1
  Mn  Mn2  1  0.498774  0.009749  0.498731  1
  Mn  Mn3  1  0.014192  0.518638  0.477286  1
  Cl  Cl4  1  0.742341  0.306557  0.742349  1
  Cl  Cl5  1  0.754388  0.766615  0.251534  1
  Cl  Cl6  1  0.262786  0.247678  0.262786  1
  Cl  Cl7  1  0.251541  0.766621  0.754371  1
  Cl  Cl8  1  0.753970  0.233058  0.251431  1
  Cl  Cl9  1  0.737479  0.748237  0.737483  1
  Cl  Cl10  1  0.251442  0.233047  0.753961  1
  O  O11  1  0.284897  0.621231  0.284904  1
