# generated using pymatgen
data_La10TbSm(SiBr3)4
_symmetry_space_group_name_H-M   'P 1'
_cell_length_a   10.55360951
_cell_length_b   10.58300429
_cell_length_c   10.66082089
_cell_angle_alpha   109.63013869
_cell_angle_beta   109.63344075
_cell_angle_gamma   109.16209163
_symmetry_Int_Tables_number   1
_chemical_formula_structural   La10TbSm(SiBr3)4
_chemical_formula_sum   'La10 Tb1 Sm1 Si4 Br12'
_cell_volume   916.44641920
_cell_formula_units_Z   1
loop_
 _symmetry_equiv_pos_site_id
 _symmetry_equiv_pos_as_xyz
  1  'x, y, z'
loop_
 _atom_site_type_symbol
 _atom_site_label
 _atom_site_symmetry_multiplicity
 _atom_site_fract_x
 _atom_site_fract_y
 _atom_site_fract_z
 _atom_site_occupancy
  La  La0  1  0.262268  0.009696  0.022603  1
  La  La1  1  0.022566  0.259471  0.012203  1
  La  La2  1  0.491364  0.753516  0.014594  1
  La  La3  1  0.747862  0.239631  0.260835  1
  La  La4  1  0.011309  0.020021  0.261227  1
  La  La5  1  0.008563  0.489343  0.750857  1
  La  La6  1  0.239643  0.259648  0.750634  1
  La  La7  1  0.262822  0.753042  0.242293  1
  La  La8  1  0.240103  0.477298  0.491139  1
  La  La9  1  0.481108  0.490112  0.242272  1
  Tb  Tb10  1  0.484080  0.232163  0.466282  1
  Sm  Sm11  1  0.748083  0.015674  0.485276  1
  Si  Si12  1  0.998814  0.248648  0.500849  1
  Si  Si13  1  0.250043  0.499670  0.000506  1
  Si  Si14  1  0.501806  0.002867  0.254640  1
  Si  Si15  1  0.252757  0.250023  0.253325  1
  Br  Br16  1  0.755669  0.752303  0.258418  1
  Br  Br17  1  0.505166  0.250235  0.995929  1
  Br  Br18  1  0.262995  0.007404  0.506994  1
  Br  Br19  1  0.508816  0.495165  0.747177  1
  Br  Br20  1  0.990295  0.991524  0.741382  1
  Br  Br21  1  0.745459  0.995378  0.991199  1
  Br  Br22  1  0.510215  0.759217  0.509400  1
  Br  Br23  1  0.744162  0.499264  0.507059  1
  Br  Br24  1  0.995465  0.504674  0.250540  1
  Br  Br25  1  0.990624  0.745608  0.995914  1
  Br  Br26  1  0.249983  0.754423  0.745655  1
  Br  Br27  1  0.737958  0.243981  0.740799  1
