# generated using pymatgen
data_Nb3Fe(AsO4)6
_symmetry_space_group_name_H-M   'P 1'
_cell_length_a   9.36271127
_cell_length_b   9.36271114
_cell_length_c   9.36271118
_cell_angle_alpha   58.38384164
_cell_angle_beta   58.38383500
_cell_angle_gamma   58.38383360
_symmetry_Int_Tables_number   1
_chemical_formula_structural   Nb3Fe(AsO4)6
_chemical_formula_sum   'Nb3 Fe1 As6 O24'
_cell_volume   558.87974646
_cell_formula_units_Z   1
loop_
 _symmetry_equiv_pos_site_id
 _symmetry_equiv_pos_as_xyz
  1  'x, y, z'
loop_
 _atom_site_type_symbol
 _atom_site_label
 _atom_site_symmetry_multiplicity
 _atom_site_fract_x
 _atom_site_fract_y
 _atom_site_fract_z
 _atom_site_occupancy
  Nb  Nb0  1  0.139634  0.139634  0.139634  1
  Nb  Nb1  1  0.358289  0.358289  0.358289  1
  Nb  Nb2  1  0.639077  0.639077  0.639077  1
  Fe  Fe3  1  0.858483  0.858483  0.858483  1
  As  As4  1  0.028946  0.476480  0.749903  1
  As  As5  1  0.476480  0.749903  0.028946  1
  As  As6  1  0.749903  0.028946  0.476480  1
  As  As7  1  0.241766  0.966483  0.537707  1
  As  As8  1  0.537707  0.241766  0.966483  1
  As  As9  1  0.966483  0.537707  0.241766  1
  O  O10  1  0.143036  0.496381  0.286559  1
  O  O11  1  0.286559  0.143036  0.496381  1
  O  O12  1  0.056671  0.284774  0.933044  1
  O  O13  1  0.496381  0.286559  0.143036  1
  O  O14  1  0.218339  0.429200  0.572752  1
  O  O15  1  0.015538  0.655411  0.762387  1
  O  O16  1  0.284774  0.933044  0.056671  1
  O  O17  1  0.429200  0.572752  0.218339  1
  O  O18  1  0.572752  0.218339  0.429200  1
  O  O19  1  0.225565  0.995593  0.348878  1
  O  O20  1  0.064618  0.946758  0.723836  1
  O  O21  1  0.348878  0.225565  0.995593  1
  O  O22  1  0.655411  0.762387  0.015538  1
  O  O23  1  0.933044  0.056671  0.284774  1
  O  O24  1  0.762387  0.015538  0.655411  1
  O  O25  1  0.432384  0.781872  0.557938  1
  O  O26  1  0.557938  0.432384  0.781872  1
  O  O27  1  0.723836  0.064618  0.946758  1
  O  O28  1  0.995593  0.348878  0.225565  1
  O  O29  1  0.781872  0.557938  0.432384  1
  O  O30  1  0.496972  0.725867  0.848855  1
  O  O31  1  0.946758  0.723836  0.064618  1
  O  O32  1  0.725867  0.848855  0.496972  1
  O  O33  1  0.848855  0.496972  0.725867  1
