# generated using pymatgen
data_BrCl19
_symmetry_space_group_name_H-M   'P 1'
_cell_length_a   5.45931091
_cell_length_b   10.63232914
_cell_length_c   17.73973961
_cell_angle_alpha   64.32237274
_cell_angle_beta   89.36832530
_cell_angle_gamma   76.42244161
_symmetry_Int_Tables_number   1
_chemical_formula_structural   BrCl19
_chemical_formula_sum   'Br1 Cl19'
_cell_volume   897.23630112
_cell_formula_units_Z   1
loop_
 _symmetry_equiv_pos_site_id
 _symmetry_equiv_pos_as_xyz
  1  'x, y, z'
loop_
 _atom_site_type_symbol
 _atom_site_label
 _atom_site_symmetry_multiplicity
 _atom_site_fract_x
 _atom_site_fract_y
 _atom_site_fract_z
 _atom_site_occupancy
  Br  Br0  1  0.330007  0.769407  0.375012  1
  Cl  Cl1  1  0.644173  0.975405  0.366799  1
  Cl  Cl2  1  0.088060  0.090193  0.130577  1
  Cl  Cl3  1  0.472344  0.097110  0.589168  1
  Cl  Cl4  1  0.991677  0.930544  0.860612  1
  Cl  Cl5  1  0.871643  0.103463  0.364339  1
  Cl  Cl6  1  0.417112  0.831475  0.108461  1
  Cl  Cl7  1  0.267520  0.774517  0.638850  1
  Cl  Cl8  1  0.563600  0.216095  0.827329  1
  Cl  Cl9  1  0.087947  0.422793  0.892738  1
  Cl  Cl10  1  0.618140  0.698362  0.617870  1
  Cl  Cl11  1  0.707065  0.665330  0.121391  1
  Cl  Cl12  1  0.161234  0.357625  0.350783  1
  Cl  Cl13  1  0.755280  0.569395  0.866695  1
  Cl  Cl14  1  0.340362  0.330743  0.719347  1
  Cl  Cl15  1  0.266939  0.413549  0.235161  1
  Cl  Cl16  1  0.637447  0.604798  0.369349  1
  Cl  Cl17  1  0.296177  0.761778  0.910291  1
  Cl  Cl18  1  0.752450  0.194846  0.574888  1
  Cl  Cl19  1  0.730825  0.192572  0.080342  1
