# generated using pymatgen
data_Tb3NdDy12(CdPt)4
_symmetry_space_group_name_H-M   'P 1'
_cell_length_a   9.71458995
_cell_length_b   9.72044661
_cell_length_c   9.72012893
_cell_angle_alpha   59.96121607
_cell_angle_beta   60.02101446
_cell_angle_gamma   59.89620293
_symmetry_Int_Tables_number   1
_chemical_formula_structural   Tb3NdDy12(CdPt)4
_chemical_formula_sum   'Tb3 Nd1 Dy12 Cd4 Pt4'
_cell_volume   648.43642177
_cell_formula_units_Z   1
loop_
 _symmetry_equiv_pos_site_id
 _symmetry_equiv_pos_as_xyz
  1  'x, y, z'
loop_
 _atom_site_type_symbol
 _atom_site_label
 _atom_site_symmetry_multiplicity
 _atom_site_fract_x
 _atom_site_fract_y
 _atom_site_fract_z
 _atom_site_occupancy
  Tb  Tb0  1  0.563645  0.934706  0.565288  1
  Tb  Tb1  1  0.934706  0.563645  0.936360  1
  Tb  Tb2  1  0.565334  0.565334  0.934666  1
  Nd  Nd3  1  0.933818  0.933818  0.566182  1
  Dy  Dy4  1  0.353094  0.350973  0.350462  1
  Dy  Dy5  1  0.350973  0.353094  0.945472  1
  Dy  Dy6  1  0.352028  0.945464  0.352343  1
  Dy  Dy7  1  0.945464  0.352028  0.350165  1
  Dy  Dy8  1  0.809749  0.190881  0.188587  1
  Dy  Dy9  1  0.190881  0.809749  0.810783  1
  Dy  Dy10  1  0.190946  0.809653  0.188759  1
  Dy  Dy11  1  0.809653  0.190946  0.810642  1
  Dy  Dy12  1  0.190026  0.190026  0.809974  1
  Dy  Dy13  1  0.810201  0.810201  0.189799  1
  Dy  Dy14  1  0.937845  0.560457  0.562107  1
  Dy  Dy15  1  0.560457  0.937845  0.939591  1
  Cd  Cd16  1  0.582709  0.580919  0.580653  1
  Cd  Cd17  1  0.580919  0.582709  0.255720  1
  Cd  Cd18  1  0.578947  0.257565  0.582647  1
  Cd  Cd19  1  0.257565  0.578947  0.580842  1
  Pt  Pt20  1  0.144996  0.143075  0.141295  1
  Pt  Pt21  1  0.143075  0.144996  0.570633  1
  Pt  Pt22  1  0.142473  0.570497  0.144474  1
  Pt  Pt23  1  0.570497  0.142473  0.142555  1
