# generated using pymatgen
data_LuTh(FeB)8
_symmetry_space_group_name_H-M   'P 1'
_cell_length_a   6.98726900
_cell_length_b   6.98726900
_cell_length_c   3.81972800
_cell_angle_alpha   90.00000000
_cell_angle_beta   90.00000000
_cell_angle_gamma   90.00000000
_symmetry_Int_Tables_number   1
_chemical_formula_structural   LuTh(FeB)8
_chemical_formula_sum   'Lu1 Th1 Fe8 B8'
_cell_volume   186.48648569
_cell_formula_units_Z   1
loop_
 _symmetry_equiv_pos_site_id
 _symmetry_equiv_pos_as_xyz
  1  'x, y, z'
loop_
 _atom_site_type_symbol
 _atom_site_label
 _atom_site_symmetry_multiplicity
 _atom_site_fract_x
 _atom_site_fract_y
 _atom_site_fract_z
 _atom_site_occupancy
  Lu  Lu0  1  0.000000  0.000000  0.000000  1
  Th  Th1  1  0.500000  0.500000  0.500000  1
  Fe  Fe2  1  0.869669  0.385061  0.107466  1
  Fe  Fe3  1  0.130331  0.614939  0.107466  1
  Fe  Fe4  1  0.887144  0.633617  0.605378  1
  Fe  Fe5  1  0.112856  0.366383  0.605378  1
  Fe  Fe6  1  0.633617  0.112856  0.394622  1
  Fe  Fe7  1  0.366383  0.887144  0.394622  1
  Fe  Fe8  1  0.614939  0.869669  0.892534  1
  Fe  Fe9  1  0.385061  0.130331  0.892534  1
  B  B10  1  0.331194  0.803794  0.897572  1
  B  B11  1  0.668806  0.196206  0.897572  1
  B  B12  1  0.292254  0.162214  0.391754  1
  B  B13  1  0.707746  0.837786  0.391754  1
  B  B14  1  0.162214  0.707746  0.608246  1
  B  B15  1  0.837786  0.292254  0.608246  1
  B  B16  1  0.196206  0.331194  0.102428  1
  B  B17  1  0.803794  0.668806  0.102428  1
