# generated using pymatgen
data_Nd18Er2Ir5Pt7
_symmetry_space_group_name_H-M   'P 1'
_cell_length_a   11.38634883
_cell_length_b   11.38634947
_cell_length_c   6.50858900
_cell_angle_alpha   90.04701371
_cell_angle_beta   90.04701371
_cell_angle_gamma   89.98077956
_symmetry_Int_Tables_number   1
_chemical_formula_structural   Nd18Er2Ir5Pt7
_chemical_formula_sum   'Nd18 Er2 Ir5 Pt7'
_cell_volume   843.83109498
_cell_formula_units_Z   1
loop_
 _symmetry_equiv_pos_site_id
 _symmetry_equiv_pos_as_xyz
  1  'x, y, z'
loop_
 _atom_site_type_symbol
 _atom_site_label
 _atom_site_symmetry_multiplicity
 _atom_site_fract_x
 _atom_site_fract_y
 _atom_site_fract_z
 _atom_site_occupancy
  Nd  Nd0  1  0.293627  0.086120  0.375547  1
  Nd  Nd1  1  0.292572  0.909387  0.881357  1
  Nd  Nd2  1  0.705592  0.088869  0.876675  1
  Nd  Nd3  1  0.704437  0.910704  0.376260  1
  Nd  Nd4  1  0.587782  0.792362  0.877831  1
  Nd  Nd5  1  0.587800  0.207544  0.378179  1
  Nd  Nd6  1  0.408364  0.793033  0.378689  1
  Nd  Nd7  1  0.411623  0.207335  0.878077  1
  Nd  Nd8  1  0.207638  0.412218  0.622169  1
  Nd  Nd9  1  0.206967  0.591636  0.121311  1
  Nd  Nd10  1  0.792456  0.412200  0.121821  1
  Nd  Nd11  1  0.792665  0.588377  0.621923  1
  Nd  Nd12  1  0.913880  0.706373  0.124453  1
  Nd  Nd13  1  0.911131  0.294408  0.623325  1
  Nd  Nd14  1  0.090613  0.707428  0.618643  1
  Nd  Nd15  1  0.089296  0.295563  0.123740  1
  Nd  Nd16  1  0.001442  0.998109  0.499538  1
  Nd  Nd17  1  0.001891  0.998558  0.000462  1
  Er  Er18  1  0.499650  0.499778  0.000116  1
  Er  Er19  1  0.500222  0.500350  0.499884  1
  Ir  Ir20  1  0.153653  0.846347  0.250000  1
  Ir  Ir21  1  0.500993  0.000241  0.118115  1
  Ir  Ir22  1  0.500304  0.000346  0.619444  1
  Ir  Ir23  1  0.999654  0.499696  0.880556  1
  Ir  Ir24  1  0.999759  0.499007  0.381885  1
  Pt  Pt25  1  0.845542  0.154458  0.250000  1
  Pt  Pt26  1  0.844172  0.844553  0.749958  1
  Pt  Pt27  1  0.155447  0.155828  0.750042  1
  Pt  Pt28  1  0.646861  0.353139  0.750000  1
  Pt  Pt29  1  0.646994  0.646624  0.249674  1
  Pt  Pt30  1  0.353376  0.353006  0.250326  1
  Pt  Pt31  1  0.353599  0.646401  0.750000  1
