# generated using pymatgen
data_Tb16Cd4FePdPt2
_symmetry_space_group_name_H-M   'P 1'
_cell_length_a   9.70466848
_cell_length_b   9.70466798
_cell_length_c   9.69420639
_cell_angle_alpha   59.80313985
_cell_angle_beta   59.80314095
_cell_angle_gamma   59.85135632
_symmetry_Int_Tables_number   1
_chemical_formula_structural   Tb16Cd4FePdPt2
_chemical_formula_sum   'Tb16 Cd4 Fe1 Pd1 Pt2'
_cell_volume   642.94323305
_cell_formula_units_Z   1
loop_
 _symmetry_equiv_pos_site_id
 _symmetry_equiv_pos_as_xyz
  1  'x, y, z'
loop_
 _atom_site_type_symbol
 _atom_site_label
 _atom_site_symmetry_multiplicity
 _atom_site_fract_x
 _atom_site_fract_y
 _atom_site_fract_z
 _atom_site_occupancy
  Tb  Tb0  1  0.353017  0.353017  0.351553  1
  Tb  Tb1  1  0.346974  0.346974  0.950322  1
  Tb  Tb2  1  0.347679  0.949240  0.346012  1
  Tb  Tb3  1  0.949240  0.347679  0.346012  1
  Tb  Tb4  1  0.819804  0.188813  0.188320  1
  Tb  Tb5  1  0.188945  0.808671  0.811006  1
  Tb  Tb6  1  0.188813  0.819804  0.188320  1
  Tb  Tb7  1  0.808671  0.188945  0.811006  1
  Tb  Tb8  1  0.188429  0.188429  0.822020  1
  Tb  Tb9  1  0.809822  0.809822  0.188717  1
  Tb  Tb10  1  0.935877  0.565480  0.563799  1
  Tb  Tb11  1  0.560399  0.936887  0.936639  1
  Tb  Tb12  1  0.565480  0.935877  0.563799  1
  Tb  Tb13  1  0.936887  0.560399  0.936639  1
  Tb  Tb14  1  0.563882  0.563882  0.935987  1
  Tb  Tb15  1  0.936329  0.936329  0.560347  1
  Cd  Cd16  1  0.579814  0.579814  0.579604  1
  Cd  Cd17  1  0.581318  0.581318  0.254415  1
  Cd  Cd18  1  0.581203  0.254459  0.581343  1
  Cd  Cd19  1  0.254459  0.581203  0.581343  1
  Fe  Fe20  1  0.143450  0.143450  0.142545  1
  Pd  Pd21  1  0.144182  0.144182  0.571007  1
  Pt  Pt22  1  0.143963  0.571365  0.144623  1
  Pt  Pt23  1  0.571365  0.143963  0.144623  1
