# generated using pymatgen
data_V2RuRhF20
_symmetry_space_group_name_H-M   'P 1'
_cell_length_a   10.19768480
_cell_length_b   5.61377801
_cell_length_c   7.53902814
_cell_angle_alpha   89.96485553
_cell_angle_beta   89.95853363
_cell_angle_gamma   89.93080330
_symmetry_Int_Tables_number   1
_chemical_formula_structural   V2RuRhF20
_chemical_formula_sum   'V2 Ru1 Rh1 F20'
_cell_volume   431.59029650
_cell_formula_units_Z   1
loop_
 _symmetry_equiv_pos_site_id
 _symmetry_equiv_pos_as_xyz
  1  'x, y, z'
loop_
 _atom_site_type_symbol
 _atom_site_label
 _atom_site_symmetry_multiplicity
 _atom_site_fract_x
 _atom_site_fract_y
 _atom_site_fract_z
 _atom_site_occupancy
  V  V0  1  0.279693  0.485058  0.889967  1
  V  V1  1  0.890993  0.015371  0.429032  1
  Ru  Ru2  1  0.384935  0.984148  0.580261  1
  Rh  Rh3  1  0.780860  0.515364  0.126520  1
  F  F4  1  0.264253  0.989468  0.392828  1
  F  F5  1  0.487274  0.977247  0.786509  1
  F  F6  1  0.770653  0.778821  0.310174  1
  F  F7  1  0.485415  0.753140  0.471136  1
  F  F8  1  0.980497  0.777722  0.515155  1
  F  F9  1  0.785073  0.741253  0.944425  1
  F  F10  1  0.286265  0.722341  0.037435  1
  F  F11  1  0.271603  0.728368  0.688207  1
  F  F12  1  0.961941  0.521751  0.155461  1
  F  F13  1  0.599176  0.511676  0.134619  1
  F  F14  1  0.109837  0.485735  0.852105  1
  F  F15  1  0.446539  0.478003  0.832311  1
  F  F16  1  0.775068  0.271556  0.324538  1
  F  F17  1  0.787652  0.271567  0.958051  1
  F  F18  1  0.284025  0.265145  0.051794  1
  F  F19  1  0.481024  0.229968  0.482841  1
  F  F20  1  0.985948  0.236710  0.526845  1
  F  F21  1  0.268157  0.223382  0.701881  1
  F  F22  1  0.969143  0.023198  0.220067  1
  F  F23  1  0.764786  0.013004  0.587835  1
