# generated using pymatgen
data_Mg2ZnSiPt2
_symmetry_space_group_name_H-M   'P 1'
_cell_length_a   6.57795800
_cell_length_b   3.97547500
_cell_length_c   7.71614200
_cell_angle_alpha   90.00000000
_cell_angle_beta   90.00000000
_cell_angle_gamma   90.00000000
_symmetry_Int_Tables_number   1
_chemical_formula_structural   Mg2ZnSiPt2
_chemical_formula_sum   'Mg4 Zn2 Si2 Pt4'
_cell_volume   201.78102986
_cell_formula_units_Z   2
loop_
 _symmetry_equiv_pos_site_id
 _symmetry_equiv_pos_as_xyz
  1  'x, y, z'
loop_
 _atom_site_type_symbol
 _atom_site_label
 _atom_site_symmetry_multiplicity
 _atom_site_fract_x
 _atom_site_fract_y
 _atom_site_fract_z
 _atom_site_occupancy
  Mg  Mg0  1  0.967815  0.750000  0.168838  1
  Mg  Mg1  1  0.467815  0.750000  0.331162  1
  Mg  Mg2  1  0.518000  0.250001  0.669380  1
  Mg  Mg3  1  0.018001  0.250001  0.830620  1
  Zn  Zn4  1  0.664494  0.250001  0.064498  1
  Zn  Zn5  1  0.164494  0.250001  0.435501  1
  Si  Si6  1  0.859029  0.750000  0.556656  1
  Si  Si7  1  0.359030  0.750000  0.943345  1
  Pt  Pt8  1  0.273218  0.250001  0.112797  1
  Pt  Pt9  1  0.773219  0.250001  0.387202  1
  Pt  Pt10  1  0.217443  0.750000  0.650700  1
  Pt  Pt11  1  0.717443  0.750000  0.849301  1
