# generated using pymatgen
data_Tm2(MoO4)3
_symmetry_space_group_name_H-M   'P 1'
_cell_length_a   7.37513300
_cell_length_b   7.37513300
_cell_length_c   10.61986200
_cell_angle_alpha   90.00000000
_cell_angle_beta   90.00000000
_cell_angle_gamma   90.00000000
_symmetry_Int_Tables_number   1
_chemical_formula_structural   Tm2(MoO4)3
_chemical_formula_sum   'Tm4 Mo6 O24'
_cell_volume   577.64176530
_cell_formula_units_Z   2
loop_
 _symmetry_equiv_pos_site_id
 _symmetry_equiv_pos_as_xyz
  1  'x, y, z'
loop_
 _atom_site_type_symbol
 _atom_site_label
 _atom_site_symmetry_multiplicity
 _atom_site_fract_x
 _atom_site_fract_y
 _atom_site_fract_z
 _atom_site_occupancy
  Tm  Tm0  1  0.685778  0.185778  0.261703  1
  Tm  Tm1  1  0.814222  0.685778  0.738297  1
  Tm  Tm2  1  0.314222  0.814222  0.261703  1
  Tm  Tm3  1  0.185778  0.314222  0.738297  1
  Mo  Mo4  1  0.500000  0.500000  0.000000  1
  Mo  Mo5  1  0.000000  0.000000  0.000000  1
  Mo  Mo6  1  0.706032  0.206032  0.643145  1
  Mo  Mo7  1  0.793968  0.706032  0.356855  1
  Mo  Mo8  1  0.293968  0.793968  0.643145  1
  Mo  Mo9  1  0.206032  0.293968  0.356855  1
  O  O10  1  0.307777  0.455650  0.901691  1
  O  O11  1  0.192223  0.955650  0.098309  1
  O  O12  1  0.692223  0.544350  0.901691  1
  O  O13  1  0.807777  0.044350  0.098309  1
  O  O14  1  0.544350  0.307777  0.098309  1
  O  O15  1  0.955650  0.807777  0.901691  1
  O  O16  1  0.455650  0.692223  0.098309  1
  O  O17  1  0.044350  0.192223  0.901691  1
  O  O18  1  0.990819  0.224894  0.297578  1
  O  O19  1  0.509181  0.724894  0.702422  1
  O  O20  1  0.009181  0.775106  0.297578  1
  O  O21  1  0.490819  0.275106  0.702422  1
  O  O22  1  0.775106  0.990819  0.702422  1
  O  O23  1  0.724894  0.490819  0.297578  1
  O  O24  1  0.224894  0.009181  0.702422  1
  O  O25  1  0.275106  0.509181  0.297578  1
  O  O26  1  0.693884  0.193884  0.475841  1
  O  O27  1  0.806116  0.693884  0.524159  1
  O  O28  1  0.306116  0.806116  0.475841  1
  O  O29  1  0.193884  0.306116  0.524159  1
  O  O30  1  0.874853  0.374853  0.691884  1
  O  O31  1  0.625147  0.874853  0.308116  1
  O  O32  1  0.125147  0.625147  0.691884  1
  O  O33  1  0.374853  0.125147  0.308116  1
