# generated using pymatgen
data_Y4Ho2Al21Si3Os8
_symmetry_space_group_name_H-M   'P 1'
_cell_length_a   8.72329300
_cell_length_b   8.72333930
_cell_length_c   9.65344400
_cell_angle_alpha   90.00177454
_cell_angle_beta   89.99797357
_cell_angle_gamma   120.00189086
_symmetry_Int_Tables_number   1
_chemical_formula_structural   Y4Ho2Al21Si3Os8
_chemical_formula_sum   'Y4 Ho2 Al21 Si3 Os8'
_cell_volume   636.16220410
_cell_formula_units_Z   1
loop_
 _symmetry_equiv_pos_site_id
 _symmetry_equiv_pos_as_xyz
  1  'x, y, z'
loop_
 _atom_site_type_symbol
 _atom_site_label
 _atom_site_symmetry_multiplicity
 _atom_site_fract_x
 _atom_site_fract_y
 _atom_site_fract_z
 _atom_site_occupancy
  Y  Y0  1  0.194818  0.389812  0.247634  1
  Y  Y1  1  0.804635  0.609117  0.752683  1
  Y  Y2  1  0.610184  0.805185  0.247638  1
  Y  Y3  1  0.390884  0.195360  0.752680  1
  Ho  Ho4  1  0.195105  0.804895  0.247492  1
  Ho  Ho5  1  0.804297  0.195704  0.752727  1
  Al  Al6  1  0.333263  0.666739  0.475944  1
  Al  Al7  1  0.164228  0.328620  0.574196  1
  Al  Al8  1  0.835078  0.669978  0.423707  1
  Al  Al9  1  0.671379  0.835772  0.574195  1
  Al  Al10  1  0.834933  0.669674  0.076564  1
  Al  Al11  1  0.330022  0.164921  0.423707  1
  Al  Al12  1  0.165448  0.331083  0.922869  1
  Al  Al13  1  0.164345  0.835656  0.573997  1
  Al  Al14  1  0.330327  0.165067  0.076564  1
  Al  Al15  1  0.834952  0.165047  0.423910  1
  Al  Al16  1  0.668916  0.834551  0.922869  1
  Al  Al17  1  0.834795  0.165206  0.076348  1
  Al  Al18  1  0.165586  0.834413  0.923077  1
  Al  Al19  1  0.563378  0.127004  0.248900  1
  Al  Al20  1  0.436959  0.873676  0.748828  1
  Al  Al21  1  0.872996  0.436621  0.248901  1
  Al  Al22  1  0.126325  0.563042  0.748829  1
  Al  Al23  1  0.563609  0.436391  0.248901  1
  Al  Al24  1  0.436733  0.563268  0.748829  1
  Al  Al25  1  0.000196  0.999805  0.248746  1
  Al  Al26  1  0.999817  0.000184  0.749332  1
  Si  Si27  1  0.333200  0.666802  0.039493  1
  Si  Si28  1  0.666796  0.333201  0.961913  1
  Si  Si29  1  0.666775  0.333225  0.539396  1
  Os  Os30  1  0.499978  0.999923  0.998902  1
  Os  Os31  1  0.000074  0.500020  0.998900  1
  Os  Os32  1  0.504320  0.008603  0.501536  1
  Os  Os33  1  0.499948  0.500056  0.998931  1
  Os  Os34  1  0.991400  0.495682  0.501535  1
  Os  Os35  1  0.504309  0.495690  0.501514  1
  Os  Os36  1  0.999996  0.000004  0.998745  1
  Os  Os37  1  0.999997  0.000002  0.499066  1
