# generated using pymatgen
data_Li6Sm6Sb(TeO8)3
_symmetry_space_group_name_H-M   'P 1'
_cell_length_a   10.91159868
_cell_length_b   10.91159871
_cell_length_c   12.60959088
_cell_angle_alpha   54.87156257
_cell_angle_beta   54.87156556
_cell_angle_gamma   70.64574918
_symmetry_Int_Tables_number   1
_chemical_formula_structural   Li6Sm6Sb(TeO8)3
_chemical_formula_sum   'Li12 Sm12 Sb2 Te6 O48'
_cell_volume   1004.24611638
_cell_formula_units_Z   2
loop_
 _symmetry_equiv_pos_site_id
 _symmetry_equiv_pos_as_xyz
  1  'x, y, z'
loop_
 _atom_site_type_symbol
 _atom_site_label
 _atom_site_symmetry_multiplicity
 _atom_site_fract_x
 _atom_site_fract_y
 _atom_site_fract_z
 _atom_site_occupancy
  Li  Li0  1  0.874938  0.374325  0.875909  1
  Li  Li1  1  0.874776  0.125224  0.250000  1
  Li  Li2  1  0.751117  0.750357  0.373934  1
  Li  Li3  1  0.624463  0.375537  0.750000  1
  Li  Li4  1  0.750357  0.751117  0.873934  1
  Li  Li5  1  0.625675  0.125062  0.624091  1
  Li  Li6  1  0.374325  0.874938  0.375909  1
  Li  Li7  1  0.248883  0.249643  0.626066  1
  Li  Li8  1  0.249643  0.248883  0.126066  1
  Li  Li9  1  0.375537  0.624463  0.250000  1
  Li  Li10  1  0.125224  0.874776  0.750000  1
  Li  Li11  1  0.125062  0.625675  0.124091  1
  Sm  Sm12  1  0.875220  0.124780  0.750000  1
  Sm  Sm13  1  0.748463  0.749473  0.626533  1
  Sm  Sm14  1  0.873009  0.375509  0.374906  1
  Sm  Sm15  1  0.375853  0.624147  0.750000  1
  Sm  Sm16  1  0.749473  0.748463  0.126533  1
  Sm  Sm17  1  0.624491  0.126991  0.125094  1
  Sm  Sm18  1  0.375509  0.873009  0.874906  1
  Sm  Sm19  1  0.250527  0.251537  0.873467  1
  Sm  Sm20  1  0.624147  0.375853  0.250000  1
  Sm  Sm21  1  0.126991  0.624491  0.625094  1
  Sm  Sm22  1  0.251537  0.250527  0.373467  1
  Sm  Sm23  1  0.124780  0.875220  0.250000  1
  Sb  Sb24  1  0.500000  0.500000  0.500000  1
  Sb  Sb25  1  0.500000  0.500000  0.000000  1
  Te  Te26  1  0.000000  0.500000  0.000000  1
  Te  Te27  1  0.500000  0.000000  0.500000  1
  Te  Te28  1  0.500000  0.000000  0.000000  1
  Te  Te29  1  0.000000  0.500000  0.500000  1
  Te  Te30  1  0.000000  0.000000  0.500000  1
  Te  Te31  1  0.000000  0.000000  0.000000  1
  O  O32  1  0.906852  0.805002  0.670424  1
  O  O33  1  0.976046  0.922888  0.905862  1
  O  O34  1  0.882363  0.170650  0.922164  1
  O  O35  1  0.922843  0.523883  0.670938  1
  O  O36  1  0.922888  0.976046  0.405862  1
  O  O37  1  0.906745  0.695457  0.422778  1
  O  O38  1  0.829133  0.381455  0.593753  1
  O  O39  1  0.580008  0.529557  0.797324  1
  O  O40  1  0.618545  0.170867  0.906247  1
  O  O41  1  0.695457  0.906745  0.922778  1
  O  O42  1  0.829350  0.117637  0.577836  1
  O  O43  1  0.670740  0.117123  0.305845  1
  O  O44  1  0.975601  0.577047  0.118003  1
  O  O45  1  0.805002  0.906852  0.170424  1
  O  O46  1  0.594265  0.805617  0.523078  1
  O  O47  1  0.702386  0.594190  0.377006  1
  O  O48  1  0.673527  0.377158  0.028436  1
  O  O49  1  0.882877  0.329260  0.194155  1
  O  O50  1  0.594190  0.702386  0.877006  1
  O  O51  1  0.470443  0.419992  0.702676  1
  O  O52  1  0.476117  0.077157  0.829062  1
  O  O53  1  0.622842  0.326473  0.471564  1
  O  O54  1  0.805617  0.594265  0.023078  1
  O  O55  1  0.422953  0.024399  0.381997  1
  O  O56  1  0.194383  0.405735  0.976922  1
  O  O57  1  0.577047  0.975601  0.618003  1
  O  O58  1  0.377158  0.673527  0.528436  1
  O  O59  1  0.523883  0.922843  0.170938  1
  O  O60  1  0.529557  0.580008  0.297324  1
  O  O61  1  0.405810  0.297614  0.122994  1
  O  O62  1  0.117123  0.670740  0.805845  1
  O  O63  1  0.326473  0.622842  0.971564  1
  O  O64  1  0.297614  0.405810  0.622994  1
  O  O65  1  0.405735  0.194383  0.476922  1
  O  O66  1  0.194998  0.093148  0.829576  1
  O  O67  1  0.024399  0.422953  0.881997  1
  O  O68  1  0.329260  0.882877  0.694155  1
  O  O69  1  0.170650  0.882363  0.422164  1
  O  O70  1  0.304543  0.093255  0.077222  1
  O  O71  1  0.381455  0.829133  0.093753  1
  O  O72  1  0.419992  0.470443  0.202676  1
  O  O73  1  0.170867  0.618545  0.406247  1
  O  O74  1  0.093255  0.304543  0.577222  1
  O  O75  1  0.077112  0.023954  0.594138  1
  O  O76  1  0.077157  0.476117  0.329062  1
  O  O77  1  0.117637  0.829350  0.077836  1
  O  O78  1  0.023954  0.077112  0.094138  1
  O  O79  1  0.093148  0.194998  0.329576  1
