# generated using pymatgen
data_Ho5Mg2P12Ru17
_symmetry_space_group_name_H-M   'P 1'
_cell_length_a   12.75023200
_cell_length_b   12.57808235
_cell_length_c   3.96950800
_cell_angle_alpha   90.00000000
_cell_angle_beta   90.00000000
_cell_angle_gamma   120.45378730
_symmetry_Int_Tables_number   1
_chemical_formula_structural   Ho5Mg2P12Ru17
_chemical_formula_sum   'Ho5 Mg2 P12 Ru17'
_cell_volume   548.77679018
_cell_formula_units_Z   1
loop_
 _symmetry_equiv_pos_site_id
 _symmetry_equiv_pos_as_xyz
  1  'x, y, z'
loop_
 _atom_site_type_symbol
 _atom_site_label
 _atom_site_symmetry_multiplicity
 _atom_site_fract_x
 _atom_site_fract_y
 _atom_site_fract_z
 _atom_site_occupancy
  Ho  Ho0  1  0.997839  0.179914  0.500000  1
  Ho  Ho1  1  0.817924  0.820086  0.500000  1
  Ho  Ho2  1  0.181484  0.000000  0.500000  1
  Ho  Ho3  1  0.664386  0.326311  0.000000  1
  Ho  Ho4  1  0.338074  0.673689  0.000000  1
  Mg  Mg5  1  0.000209  0.561662  0.000000  1
  Mg  Mg6  1  0.438547  0.438338  0.000000  1
  P  P7  1  0.000207  0.813682  0.000000  1
  P  P8  1  0.186525  0.186318  0.000000  1
  P  P9  1  0.817109  0.000000  0.000000  1
  P  P10  1  0.690513  0.169358  0.500000  1
  P  P11  1  0.817616  0.515659  0.500000  1
  P  P12  1  0.479026  0.300778  0.500000  1
  P  P13  1  0.178248  0.699222  0.500000  1
  P  P14  1  0.521155  0.830642  0.500000  1
  P  P15  1  0.301958  0.484341  0.500000  1
  P  P16  1  0.001317  0.362115  0.000000  1
  P  P17  1  0.639202  0.637885  0.000000  1
  P  P18  1  0.376373  0.000000  0.000000  1
  Ru  Ru19  1  0.556556  0.000000  0.000000  1
  Ru  Ru20  1  0.999696  0.717715  0.500000  1
  Ru  Ru21  1  0.281981  0.282285  0.500000  1
  Ru  Ru22  1  0.716379  0.000000  0.500000  1
  Ru  Ru23  1  0.807523  0.183680  0.000000  1
  Ru  Ru24  1  0.815051  0.618460  0.000000  1
  Ru  Ru25  1  0.377245  0.190914  0.000000  1
  Ru  Ru26  1  0.186331  0.809086  0.000000  1
  Ru  Ru27  1  0.623843  0.816320  0.000000  1
  Ru  Ru28  1  0.196591  0.381540  0.000000  1
  Ru  Ru29  1  0.871992  0.364180  0.500000  1
  Ru  Ru30  1  0.631486  0.511870  0.500000  1
  Ru  Ru31  1  0.491333  0.123914  0.500000  1
  Ru  Ru32  1  0.367419  0.876086  0.500000  1
  Ru  Ru33  1  0.507812  0.635820  0.500000  1
  Ru  Ru34  1  0.119615  0.488130  0.500000  1
  Ru  Ru35  1  0.001431  0.000000  0.000000  1
