# generated using pymatgen
data_Rb2Zr(CuTe2)2
_symmetry_space_group_name_H-M   'P 1'
_cell_length_a   8.12145004
_cell_length_b   8.12145056
_cell_length_c   6.27277300
_cell_angle_alpha   90.00000000
_cell_angle_beta   90.00000000
_cell_angle_gamma   134.57572260
_symmetry_Int_Tables_number   1
_chemical_formula_structural   Rb2Zr(CuTe2)2
_chemical_formula_sum   'Rb2 Zr1 Cu2 Te4'
_cell_volume   294.71621078
_cell_formula_units_Z   1
loop_
 _symmetry_equiv_pos_site_id
 _symmetry_equiv_pos_as_xyz
  1  'x, y, z'
loop_
 _atom_site_type_symbol
 _atom_site_label
 _atom_site_symmetry_multiplicity
 _atom_site_fract_x
 _atom_site_fract_y
 _atom_site_fract_z
 _atom_site_occupancy
  Rb  Rb0  1  0.500000  0.000000  0.250011  1
  Rb  Rb1  1  0.000000  0.500000  0.749989  1
  Zr  Zr2  1  0.000000  0.000000  0.000000  1
  Cu  Cu3  1  0.000000  0.000000  0.500000  1
  Cu  Cu4  1  0.500000  0.500000  0.000000  1
  Te  Te5  1  0.843113  0.640303  0.257934  1
  Te  Te6  1  0.156887  0.359697  0.257934  1
  Te  Te7  1  0.640303  0.843113  0.742066  1
  Te  Te8  1  0.359697  0.156887  0.742066  1
