# generated using pymatgen
data_Dy4Tm4Ti11Si16Au
_symmetry_space_group_name_H-M   'P 1'
_cell_length_a   7.04653773
_cell_length_b   7.04725056
_cell_length_c   12.85394276
_cell_angle_alpha   89.91105312
_cell_angle_beta   90.10500185
_cell_angle_gamma   89.65578091
_symmetry_Int_Tables_number   1
_chemical_formula_structural   Dy4Tm4Ti11Si16Au
_chemical_formula_sum   'Dy4 Tm4 Ti11 Si16 Au1'
_cell_volume   638.29693428
_cell_formula_units_Z   1
loop_
 _symmetry_equiv_pos_site_id
 _symmetry_equiv_pos_as_xyz
  1  'x, y, z'
loop_
 _atom_site_type_symbol
 _atom_site_label
 _atom_site_symmetry_multiplicity
 _atom_site_fract_x
 _atom_site_fract_y
 _atom_site_fract_z
 _atom_site_occupancy
  Dy  Dy0  1  0.842366  0.498809  0.285435  1
  Dy  Dy1  1  0.503047  0.159463  0.216596  1
  Dy  Dy2  1  0.498709  0.842030  0.714510  1
  Dy  Dy3  1  0.343312  0.999416  0.468863  1
  Tm  Tm4  1  0.998287  0.659098  0.032895  1
  Tm  Tm5  1  0.999164  0.343751  0.531606  1
  Tm  Tm6  1  0.659162  0.998122  0.966654  1
  Tm  Tm7  1  0.158961  0.502000  0.783403  1
  Ti  Ti8  1  0.348183  0.504818  0.376826  1
  Ti  Ti9  1  0.852050  0.992182  0.377149  1
  Ti  Ti10  1  0.008025  0.149561  0.125022  1
  Ti  Ti11  1  0.992682  0.852197  0.623300  1
  Ti  Ti12  1  0.505153  0.349205  0.623811  1
  Ti  Ti13  1  0.149274  0.008027  0.874603  1
  Ti  Ti14  1  0.825734  0.174013  0.749775  1
  Ti  Ti15  1  0.173362  0.825296  0.250228  1
  Ti  Ti16  1  0.326961  0.327414  0.999799  1
  Ti  Ti17  1  0.492851  0.649620  0.125122  1
  Ti  Ti18  1  0.649261  0.493200  0.874322  1
  Si  Si19  1  0.061371  0.712817  0.434293  1
  Si  Si20  1  0.952446  0.292347  0.935300  1
  Si  Si21  1  0.715198  0.063036  0.566107  1
  Si  Si22  1  0.208182  0.453935  0.184926  1
  Si  Si23  1  0.794132  0.544977  0.690308  1
  Si  Si24  1  0.452844  0.208956  0.815091  1
  Si  Si25  1  0.545481  0.792003  0.309519  1
  Si  Si26  1  0.291497  0.951471  0.064318  1
  Si  Si27  1  0.798907  0.867173  0.183472  1
  Si  Si28  1  0.278834  0.624773  0.571639  1
  Si  Si29  1  0.706634  0.368918  0.066708  1
  Si  Si30  1  0.627039  0.281635  0.429692  1
  Si  Si31  1  0.367971  0.705733  0.932192  1
  Si  Si32  1  0.132128  0.202108  0.317106  1
  Si  Si33  1  0.201141  0.134406  0.682854  1
  Si  Si34  1  0.867966  0.797341  0.816599  1
  Au  Au35  1  0.671687  0.670151  0.499956  1
