# generated using pymatgen
data_Pr7PaSe12
_symmetry_space_group_name_H-M   'P 1'
_cell_length_a   7.88945532
_cell_length_b   4.20486200
_cell_length_c   16.40643943
_cell_angle_alpha   90.00000000
_cell_angle_beta   90.56414646
_cell_angle_gamma   90.00000000
_symmetry_Int_Tables_number   1
_chemical_formula_structural   Pr7PaSe12
_chemical_formula_sum   'Pr7 Pa1 Se12'
_cell_volume   544.24200154
_cell_formula_units_Z   1
loop_
 _symmetry_equiv_pos_site_id
 _symmetry_equiv_pos_as_xyz
  1  'x, y, z'
loop_
 _atom_site_type_symbol
 _atom_site_label
 _atom_site_symmetry_multiplicity
 _atom_site_fract_x
 _atom_site_fract_y
 _atom_site_fract_z
 _atom_site_occupancy
  Pr  Pr0  1  0.129224  0.000000  0.205084  1
  Pr  Pr1  1  0.636910  0.000000  0.296901  1
  Pr  Pr2  1  0.235392  0.499999  0.454335  1
  Pr  Pr3  1  0.764501  0.000000  0.544971  1
  Pr  Pr4  1  0.359666  0.499999  0.703023  1
  Pr  Pr5  1  0.862960  0.499999  0.795600  1
  Pr  Pr6  1  0.263300  0.000000  0.957418  1
  Pa  Pa7  1  0.740760  0.499999  0.041388  1
  Se  Se8  1  0.122001  0.499999  0.067693  1
  Se  Se9  1  0.522152  0.000000  0.104290  1
  Se  Se10  1  0.844661  0.499999  0.214623  1
  Se  Se11  1  0.352429  0.499999  0.278563  1
  Se  Se12  1  0.004186  0.000000  0.388588  1
  Se  Se13  1  0.624283  0.499999  0.432430  1
  Se  Se14  1  0.375502  0.000000  0.567348  1
  Se  Se15  1  0.995154  0.499999  0.610281  1
  Se  Se16  1  0.645256  0.000000  0.720938  1
  Se  Se17  1  0.148887  0.000000  0.783209  1
  Se  Se18  1  0.502001  0.499999  0.898172  1
  Se  Se19  1  0.870769  0.000000  0.935145  1
