# generated using pymatgen
data_Tb7Er3(In2Au)4
_symmetry_space_group_name_H-M   'P 1'
_cell_length_a   3.68144200
_cell_length_b   8.23057195
_cell_length_c   18.43089366
_cell_angle_alpha   89.95717692
_cell_angle_beta   90.00000000
_cell_angle_gamma   90.00000000
_symmetry_Int_Tables_number   1
_chemical_formula_structural   Tb7Er3(In2Au)4
_chemical_formula_sum   'Tb7 Er3 In8 Au4'
_cell_volume   558.46280128
_cell_formula_units_Z   1
loop_
 _symmetry_equiv_pos_site_id
 _symmetry_equiv_pos_as_xyz
  1  'x, y, z'
loop_
 _atom_site_type_symbol
 _atom_site_label
 _atom_site_symmetry_multiplicity
 _atom_site_fract_x
 _atom_site_fract_y
 _atom_site_fract_z
 _atom_site_occupancy
  Tb  Tb0  1  0.000000  0.500049  0.500260  1
  Tb  Tb1  1  0.000000  0.999938  0.999611  1
  Tb  Tb2  1  0.000000  0.734814  0.283416  1
  Tb  Tb3  1  0.000000  0.265674  0.716585  1
  Tb  Tb4  1  0.000000  0.765681  0.782692  1
  Tb  Tb5  1  0.000000  0.234604  0.217634  1
  Tb  Tb6  1  0.000000  0.619925  0.079621  1
  Er  Er7  1  0.000000  0.380060  0.919216  1
  Er  Er8  1  0.000000  0.880355  0.580344  1
  Er  Er9  1  0.000000  0.119763  0.419682  1
  In  In10  1  0.500000  0.708432  0.933035  1
  In  In11  1  0.500000  0.289405  0.065951  1
  In  In12  1  0.500000  0.792491  0.435098  1
  In  In13  1  0.500000  0.207587  0.565058  1
  In  In14  1  0.500000  0.582970  0.647395  1
  In  In15  1  0.500000  0.417189  0.353267  1
  In  In16  1  0.500000  0.919804  0.148005  1
  In  In17  1  0.500000  0.082199  0.852148  1
  Au  Au18  1  0.500000  0.524542  0.196641  1
  Au  Au19  1  0.500000  0.474213  0.804218  1
  Au  Au20  1  0.500000  0.974697  0.695100  1
  Au  Au21  1  0.500000  0.025607  0.305021  1
