# generated using pymatgen
data_PdPt4
_symmetry_space_group_name_H-M   'P 1'
_cell_length_a   11.22092983
_cell_length_b   11.22092966
_cell_length_c   11.22092973
_cell_angle_alpha   14.68309133
_cell_angle_beta   14.68309320
_cell_angle_gamma   14.68308959
_symmetry_Int_Tables_number   1
_chemical_formula_structural   PdPt4
_chemical_formula_sum   'Pd1 Pt4'
_cell_volume   79.04036350
_cell_formula_units_Z   1
loop_
 _symmetry_equiv_pos_site_id
 _symmetry_equiv_pos_as_xyz
  1  'x, y, z'
loop_
 _atom_site_type_symbol
 _atom_site_label
 _atom_site_symmetry_multiplicity
 _atom_site_fract_x
 _atom_site_fract_y
 _atom_site_fract_z
 _atom_site_occupancy
  Pd  Pd0  1  0.000000  0.000000  0.000000  1
  Pt  Pt1  1  0.600102  0.600102  0.600102  1
  Pt  Pt2  1  0.199933  0.199933  0.199933  1
  Pt  Pt3  1  0.800067  0.800067  0.800067  1
  Pt  Pt4  1  0.399898  0.399898  0.399898  1
