# generated using pymatgen
data_Dy7Sc12Si16Mo
_symmetry_space_group_name_H-M   'P 1'
_cell_length_a   7.02363613
_cell_length_b   7.33905604
_cell_length_c   13.86765600
_cell_angle_alpha   89.90267785
_cell_angle_beta   89.91265740
_cell_angle_gamma   89.71548726
_symmetry_Int_Tables_number   1
_chemical_formula_structural   Dy7Sc12Si16Mo
_chemical_formula_sum   'Dy7 Sc12 Si16 Mo1'
_cell_volume   714.82344429
_cell_formula_units_Z   1
loop_
 _symmetry_equiv_pos_site_id
 _symmetry_equiv_pos_as_xyz
  1  'x, y, z'
loop_
 _atom_site_type_symbol
 _atom_site_label
 _atom_site_symmetry_multiplicity
 _atom_site_fract_x
 _atom_site_fract_y
 _atom_site_fract_z
 _atom_site_occupancy
  Dy  Dy0  1  0.992417  0.680160  0.599314  1
  Dy  Dy1  1  0.012660  0.322972  0.404347  1
  Dy  Dy2  1  0.511488  0.176454  0.404605  1
  Dy  Dy3  1  0.012365  0.321976  0.093765  1
  Dy  Dy4  1  0.486297  0.826366  0.598130  1
  Dy  Dy5  1  0.990811  0.679744  0.902123  1
  Dy  Dy6  1  0.485776  0.826664  0.903962  1
  Sc  Sc7  1  0.841703  0.005252  0.248383  1
  Sc  Sc8  1  0.342071  0.496368  0.248846  1
  Sc  Sc9  1  0.658066  0.503853  0.750655  1
  Sc  Sc10  1  0.514721  0.181122  0.099032  1
  Sc  Sc11  1  0.327519  0.321046  0.627815  1
  Sc  Sc12  1  0.670909  0.677058  0.373102  1
  Sc  Sc13  1  0.173701  0.826945  0.375192  1
  Sc  Sc14  1  0.671283  0.676832  0.125538  1
  Sc  Sc15  1  0.828317  0.169833  0.628571  1
  Sc  Sc16  1  0.328036  0.318980  0.873692  1
  Sc  Sc17  1  0.826956  0.169290  0.871741  1
  Sc  Sc18  1  0.174199  0.828827  0.122251  1
  Si  Si19  1  0.031160  0.377514  0.750683  1
  Si  Si20  1  0.972201  0.616020  0.248982  1
  Si  Si21  1  0.469942  0.889337  0.248158  1
  Si  Si22  1  0.521467  0.104153  0.750302  1
  Si  Si23  1  0.283471  0.636984  0.750857  1
  Si  Si24  1  0.714818  0.369558  0.247735  1
  Si  Si25  1  0.218201  0.130336  0.247484  1
  Si  Si26  1  0.792829  0.871066  0.750472  1
  Si  Si27  1  0.154757  0.034132  0.546757  1
  Si  Si28  1  0.844048  0.964226  0.462306  1
  Si  Si29  1  0.345287  0.535629  0.462477  1
  Si  Si30  1  0.836497  0.968497  0.038722  1
  Si  Si31  1  0.657640  0.465384  0.539170  1
  Si  Si32  1  0.151832  0.032966  0.952430  1
  Si  Si33  1  0.657021  0.460382  0.962630  1
  Si  Si34  1  0.347859  0.529992  0.039203  1
  Mo  Mo35  1  0.151680  0.004077  0.750567  1
