# generated using pymatgen
data_Ca2Nd2Bi6Rh7
_symmetry_space_group_name_H-M   'P 1'
_cell_length_a   7.79333369
_cell_length_b   7.84518699
_cell_length_c   7.84518600
_cell_angle_alpha   109.74658697
_cell_angle_beta   109.46752529
_cell_angle_gamma   109.46752183
_symmetry_Int_Tables_number   1
_chemical_formula_structural   Ca2Nd2Bi6Rh7
_chemical_formula_sum   'Ca2 Nd2 Bi6 Rh7'
_cell_volume   368.01093478
_cell_formula_units_Z   1
loop_
 _symmetry_equiv_pos_site_id
 _symmetry_equiv_pos_as_xyz
  1  'x, y, z'
loop_
 _atom_site_type_symbol
 _atom_site_label
 _atom_site_symmetry_multiplicity
 _atom_site_fract_x
 _atom_site_fract_y
 _atom_site_fract_z
 _atom_site_occupancy
  Ca  Ca0  1  0.500000  0.000000  0.000000  1
  Ca  Ca1  1  0.500000  0.500000  0.500000  1
  Nd  Nd2  1  0.000000  0.500000  0.000000  1
  Nd  Nd3  1  0.000000  0.000000  0.500000  1
  Bi  Bi4  1  0.000000  0.316643  0.316643  1
  Bi  Bi5  1  0.677931  0.994061  0.683872  1
  Bi  Bi6  1  0.677931  0.683872  0.994061  1
  Bi  Bi7  1  0.000000  0.683357  0.683357  1
  Bi  Bi8  1  0.322069  0.005939  0.316128  1
  Bi  Bi9  1  0.322069  0.316128  0.005939  1
  Rh  Rh10  1  0.000000  0.000000  0.000000  1
  Rh  Rh11  1  0.500000  0.750000  0.250000  1
  Rh  Rh12  1  0.755381  0.505882  0.249499  1
  Rh  Rh13  1  0.244619  0.750501  0.494118  1
  Rh  Rh14  1  0.244619  0.494118  0.750501  1
  Rh  Rh15  1  0.500000  0.250000  0.750000  1
  Rh  Rh16  1  0.755381  0.249499  0.505882  1
