# generated using pymatgen
data_Eu2(ZnAu2)3
_symmetry_space_group_name_H-M   'P 1'
_cell_length_a   9.00561358
_cell_length_b   9.00561289
_cell_length_c   9.00561326
_cell_angle_alpha   57.28398275
_cell_angle_beta   57.28398580
_cell_angle_gamma   57.28398829
_symmetry_Int_Tables_number   1
_chemical_formula_structural   Eu2(ZnAu2)3
_chemical_formula_sum   'Eu4 Zn6 Au12'
_cell_volume   484.14947999
_cell_formula_units_Z   2
loop_
 _symmetry_equiv_pos_site_id
 _symmetry_equiv_pos_as_xyz
  1  'x, y, z'
loop_
 _atom_site_type_symbol
 _atom_site_label
 _atom_site_symmetry_multiplicity
 _atom_site_fract_x
 _atom_site_fract_y
 _atom_site_fract_z
 _atom_site_occupancy
  Eu  Eu0  1  0.906859  0.906859  0.906859  1
  Eu  Eu1  1  0.406859  0.406859  0.406859  1
  Eu  Eu2  1  0.093141  0.093141  0.093141  1
  Eu  Eu3  1  0.593141  0.593141  0.593141  1
  Zn  Zn4  1  0.557477  0.750000  0.942523  1
  Zn  Zn5  1  0.942523  0.557477  0.750000  1
  Zn  Zn6  1  0.750000  0.942523  0.557477  1
  Zn  Zn7  1  0.442523  0.250000  0.057477  1
  Zn  Zn8  1  0.057477  0.442523  0.250000  1
  Zn  Zn9  1  0.250000  0.057477  0.442523  1
  Au  Au10  1  0.481956  0.861324  0.206973  1
  Au  Au11  1  0.206973  0.481956  0.861324  1
  Au  Au12  1  0.861324  0.206973  0.481956  1
  Au  Au13  1  0.706973  0.361324  0.981956  1
  Au  Au14  1  0.981956  0.706973  0.361324  1
  Au  Au15  1  0.361324  0.981956  0.706973  1
  Au  Au16  1  0.518044  0.138676  0.793027  1
  Au  Au17  1  0.793027  0.518044  0.138676  1
  Au  Au18  1  0.138676  0.793027  0.518044  1
  Au  Au19  1  0.293027  0.638676  0.018044  1
  Au  Au20  1  0.018044  0.293027  0.638676  1
  Au  Au21  1  0.638676  0.018044  0.293027  1
