# generated using pymatgen
data_Dy2LuBi5O14
_symmetry_space_group_name_H-M   'P 1'
_cell_length_a   6.61362434
_cell_length_b   6.74606965
_cell_length_c   7.78921053
_cell_angle_alpha   106.82395901
_cell_angle_beta   89.47336450
_cell_angle_gamma   98.90120550
_symmetry_Int_Tables_number   1
_chemical_formula_structural   Dy2LuBi5O14
_chemical_formula_sum   'Dy2 Lu1 Bi5 O14'
_cell_volume   328.40961479
_cell_formula_units_Z   1
loop_
 _symmetry_equiv_pos_site_id
 _symmetry_equiv_pos_as_xyz
  1  'x, y, z'
loop_
 _atom_site_type_symbol
 _atom_site_label
 _atom_site_symmetry_multiplicity
 _atom_site_fract_x
 _atom_site_fract_y
 _atom_site_fract_z
 _atom_site_occupancy
  Dy  Dy0  1  0.538994  0.994872  0.751984  1
  Dy  Dy1  1  0.262562  0.538275  0.885392  1
  Lu  Lu2  1  0.462922  0.002892  0.252758  1
  Bi  Bi3  1  0.003436  0.007515  0.501594  1
  Bi  Bi4  1  0.003453  0.001537  0.001375  1
  Bi  Bi5  1  0.737117  0.478929  0.115726  1
  Bi  Bi6  1  0.719815  0.461150  0.611757  1
  Bi  Bi7  1  0.268265  0.529197  0.387937  1
  O  O8  1  0.450921  0.658811  0.168406  1
  O  O9  1  0.537803  0.344500  0.823940  1
  O  O10  1  0.304859  0.919781  0.953861  1
  O  O11  1  0.696496  0.051156  0.053150  1
  O  O12  1  0.302423  0.923348  0.510775  1
  O  O13  1  0.699606  0.080441  0.484709  1
  O  O14  1  0.528364  0.348750  0.347074  1
  O  O15  1  0.454475  0.642748  0.657289  1
  O  O16  1  0.936152  0.668345  0.957580  1
  O  O17  1  0.085568  0.326112  0.034982  1
  O  O18  1  0.092329  0.334455  0.626295  1
  O  O19  1  0.905245  0.681331  0.372357  1
  O  O20  1  0.876743  0.928928  0.732407  1
  O  O21  1  0.132453  0.076927  0.268655  1
