# generated using pymatgen
data_Pr12CoPdRu2
_symmetry_space_group_name_H-M   'P 1'
_cell_length_a   6.51303304
_cell_length_b   7.41461389
_cell_length_c   10.01669300
_cell_angle_alpha   90.00000000
_cell_angle_beta   90.00000000
_cell_angle_gamma   90.22080719
_symmetry_Int_Tables_number   1
_chemical_formula_structural   Pr12CoPdRu2
_chemical_formula_sum   'Pr12 Co1 Pd1 Ru2'
_cell_volume   483.71879265
_cell_formula_units_Z   1
loop_
 _symmetry_equiv_pos_site_id
 _symmetry_equiv_pos_as_xyz
  1  'x, y, z'
loop_
 _atom_site_type_symbol
 _atom_site_label
 _atom_site_symmetry_multiplicity
 _atom_site_fract_x
 _atom_site_fract_y
 _atom_site_fract_z
 _atom_site_occupancy
  Pr  Pr0  1  0.339046  0.671601  0.063172  1
  Pr  Pr1  1  0.170305  0.183254  0.436772  1
  Pr  Pr2  1  0.673693  0.321260  0.570512  1
  Pr  Pr3  1  0.829518  0.828584  0.927821  1
  Pr  Pr4  1  0.673693  0.321260  0.929488  1
  Pr  Pr5  1  0.829518  0.828584  0.572179  1
  Pr  Pr6  1  0.339046  0.671601  0.436828  1
  Pr  Pr7  1  0.170305  0.183254  0.063228  1
  Pr  Pr8  1  0.850241  0.528594  0.250000  1
  Pr  Pr9  1  0.634615  0.040507  0.250000  1
  Pr  Pr10  1  0.140718  0.458448  0.750000  1
  Pr  Pr11  1  0.350052  0.961209  0.750000  1
  Co  Co12  1  0.938555  0.117681  0.750000  1
  Pd  Pd13  1  0.068866  0.884333  0.250000  1
  Ru  Ru14  1  0.431432  0.382162  0.250000  1
  Ru  Ru15  1  0.560398  0.617670  0.750000  1
