# generated using pymatgen
data_Ta8CrTc3Os4
_symmetry_space_group_name_H-M   'P 1'
_cell_length_a   6.35507000
_cell_length_b   4.49313100
_cell_length_c   8.99094200
_cell_angle_alpha   90.00000000
_cell_angle_beta   89.99963488
_cell_angle_gamma   90.00000000
_symmetry_Int_Tables_number   1
_chemical_formula_structural   Ta8CrTc3Os4
_chemical_formula_sum   'Ta8 Cr1 Tc3 Os4'
_cell_volume   256.72881462
_cell_formula_units_Z   1
loop_
 _symmetry_equiv_pos_site_id
 _symmetry_equiv_pos_as_xyz
  1  'x, y, z'
loop_
 _atom_site_type_symbol
 _atom_site_label
 _atom_site_symmetry_multiplicity
 _atom_site_fract_x
 _atom_site_fract_y
 _atom_site_fract_z
 _atom_site_occupancy
  Ta  Ta0  1  0.498036  0.749999  0.121124  1
  Ta  Ta1  1  0.001932  0.749999  0.121135  1
  Ta  Ta2  1  0.500094  0.250000  0.374997  1
  Ta  Ta3  1  0.999897  0.250000  0.375002  1
  Ta  Ta4  1  0.001963  0.749999  0.628861  1
  Ta  Ta5  1  0.498056  0.749999  0.628870  1
  Ta  Ta6  1  0.005626  0.250000  0.875004  1
  Ta  Ta7  1  0.494408  0.250000  0.875007  1
  Cr  Cr8  1  0.250006  0.749999  0.874982  1
  Tc  Tc9  1  0.749990  0.250000  0.125044  1
  Tc  Tc10  1  0.249988  0.749999  0.375005  1
  Tc  Tc11  1  0.750009  0.250000  0.624964  1
  Os  Os12  1  0.249987  0.250000  0.124945  1
  Os  Os13  1  0.749988  0.749999  0.374996  1
  Os  Os14  1  0.250012  0.250000  0.625071  1
  Os  Os15  1  0.750008  0.749999  0.874994  1
