# generated using pymatgen
data_PmPrPS
_symmetry_space_group_name_H-M   'P 1'
_cell_length_a   5.71241600
_cell_length_b   5.71241600
_cell_length_c   5.74064700
_cell_angle_alpha   90.00000000
_cell_angle_beta   90.00000000
_cell_angle_gamma   90.00000000
_symmetry_Int_Tables_number   1
_chemical_formula_structural   PmPrPS
_chemical_formula_sum   'Pm2 Pr2 P2 S2'
_cell_volume   187.32705095
_cell_formula_units_Z   2
loop_
 _symmetry_equiv_pos_site_id
 _symmetry_equiv_pos_as_xyz
  1  'x, y, z'
loop_
 _atom_site_type_symbol
 _atom_site_label
 _atom_site_symmetry_multiplicity
 _atom_site_fract_x
 _atom_site_fract_y
 _atom_site_fract_z
 _atom_site_occupancy
  Pm  Pm0  1  0.750002  0.250001  0.499998  1
  Pm  Pm1  1  0.250001  0.750002  0.499998  1
  Pr  Pr2  1  0.250001  0.250001  0.001439  1
  Pr  Pr3  1  0.750002  0.750002  0.998563  1
  P  P4  1  0.750002  0.750002  0.498276  1
  P  P5  1  0.250001  0.250001  0.501725  1
  S  S6  1  0.750002  0.250001  0.000000  1
  S  S7  1  0.250001  0.750002  0.000000  1
