# generated using pymatgen
data_NdCl13
_symmetry_space_group_name_H-M   'P 1'
_cell_length_a   12.21268827
_cell_length_b   17.19093165
_cell_length_c   9.41073389
_cell_angle_alpha   94.75140906
_cell_angle_beta   110.52940143
_cell_angle_gamma   132.77355453
_symmetry_Int_Tables_number   1
_chemical_formula_structural   NdCl13
_chemical_formula_sum   'Nd2 Cl26'
_cell_volume   1201.03233733
_cell_formula_units_Z   2
loop_
 _symmetry_equiv_pos_site_id
 _symmetry_equiv_pos_as_xyz
  1  'x, y, z'
loop_
 _atom_site_type_symbol
 _atom_site_label
 _atom_site_symmetry_multiplicity
 _atom_site_fract_x
 _atom_site_fract_y
 _atom_site_fract_z
 _atom_site_occupancy
  Nd  Nd0  1  0.873057  0.041483  0.961243  1
  Nd  Nd1  1  0.376943  0.708517  0.538757  1
  Cl  Cl2  1  0.250601  0.417340  0.606909  1
  Cl  Cl3  1  0.736532  0.371736  0.029436  1
  Cl  Cl4  1  0.969874  0.104610  0.555475  1
  Cl  Cl5  1  0.999399  0.332660  0.893091  1
  Cl  Cl6  1  0.573004  0.151505  0.246163  1
  Cl  Cl7  1  0.676996  0.598495  0.253837  1
  Cl  Cl8  1  0.280126  0.645390  0.944525  1
  Cl  Cl9  1  0.513468  0.378264  0.470564  1
  Cl  Cl10  1  0.021366  0.789407  0.723213  1
  Cl  Cl11  1  0.423987  0.656741  0.313727  1
  Cl  Cl12  1  0.079697  0.126985  0.801021  1
  Cl  Cl13  1  0.731390  0.205533  0.492075  1
  Cl  Cl14  1  0.197204  0.146349  0.126620  1
  Cl  Cl15  1  0.726843  0.525690  0.699927  1
  Cl  Cl16  1  0.225065  0.938688  0.237160  1
  Cl  Cl17  1  0.324548  0.511812  0.470836  1
  Cl  Cl18  1  0.228634  0.960593  0.776787  1
  Cl  Cl19  1  0.826013  0.093259  0.186273  1
  Cl  Cl20  1  0.654032  0.806341  0.863195  1
  Cl  Cl21  1  0.595968  0.943659  0.636805  1
  Cl  Cl22  1  0.024935  0.811312  0.262840  1
  Cl  Cl23  1  0.925452  0.238188  0.029164  1
  Cl  Cl24  1  0.170303  0.623015  0.698979  1
  Cl  Cl25  1  0.523157  0.224310  0.800073  1
  Cl  Cl26  1  0.052796  0.603651  0.373380  1
  Cl  Cl27  1  0.518610  0.544467  0.007925  1
