# generated using pymatgen
data_Nd2Al9Co2Ni
_symmetry_space_group_name_H-M   'P 1'
_cell_length_a   7.49873077
_cell_length_b   7.49872975
_cell_length_c   9.48081400
_cell_angle_alpha   90.00000000
_cell_angle_beta   90.00000000
_cell_angle_gamma   119.35315165
_symmetry_Int_Tables_number   1
_chemical_formula_structural   Nd2Al9Co2Ni
_chemical_formula_sum   'Nd4 Al18 Co4 Ni2'
_cell_volume   464.67118426
_cell_formula_units_Z   2
loop_
 _symmetry_equiv_pos_site_id
 _symmetry_equiv_pos_as_xyz
  1  'x, y, z'
loop_
 _atom_site_type_symbol
 _atom_site_label
 _atom_site_symmetry_multiplicity
 _atom_site_fract_x
 _atom_site_fract_y
 _atom_site_fract_z
 _atom_site_occupancy
  Nd  Nd0  1  0.005870  0.328772  0.750000  1
  Nd  Nd1  1  0.328772  0.005870  0.750000  1
  Nd  Nd2  1  0.994130  0.671228  0.250000  1
  Nd  Nd3  1  0.671228  0.994130  0.250000  1
  Al  Al4  1  0.662677  0.999979  0.929622  1
  Al  Al5  1  0.999979  0.662677  0.570378  1
  Al  Al6  1  0.129970  0.129970  0.250000  1
  Al  Al7  1  0.664220  0.664220  0.040271  1
  Al  Al8  1  0.335780  0.335780  0.540271  1
  Al  Al9  1  0.335780  0.335780  0.959729  1
  Al  Al10  1  0.664220  0.664220  0.459729  1
  Al  Al11  1  0.337323  0.000021  0.070378  1
  Al  Al12  1  0.000021  0.337323  0.429622  1
  Al  Al13  1  0.338965  0.550602  0.250000  1
  Al  Al14  1  0.000021  0.337323  0.070378  1
  Al  Al15  1  0.550602  0.338965  0.250000  1
  Al  Al16  1  0.661035  0.449398  0.750000  1
  Al  Al17  1  0.870030  0.870030  0.750000  1
  Al  Al18  1  0.999979  0.662677  0.929622  1
  Al  Al19  1  0.662677  0.999979  0.570378  1
  Al  Al20  1  0.337323  0.000021  0.429622  1
  Al  Al21  1  0.449398  0.661035  0.750000  1
  Co  Co22  1  0.670389  0.329611  0.500000  1
  Co  Co23  1  0.670389  0.329611  0.000000  1
  Co  Co24  1  0.329611  0.670389  0.500000  1
  Co  Co25  1  0.329611  0.670389  0.000000  1
  Ni  Ni26  1  0.000000  0.000000  0.000000  1
  Ni  Ni27  1  0.000000  0.000000  0.500000  1
