# generated using pymatgen
data_SmHfTh7Se17
_symmetry_space_group_name_H-M   'P 1'
_cell_length_a   8.47235899
_cell_length_b   8.44584922
_cell_length_c   11.21039300
_cell_angle_alpha   80.61244885
_cell_angle_beta   80.59389366
_cell_angle_gamma   64.84094812
_symmetry_Int_Tables_number   1
_chemical_formula_structural   SmHfTh7Se17
_chemical_formula_sum   'Sm1 Hf1 Th7 Se17'
_cell_volume   712.36163603
_cell_formula_units_Z   1
loop_
 _symmetry_equiv_pos_site_id
 _symmetry_equiv_pos_as_xyz
  1  'x, y, z'
loop_
 _atom_site_type_symbol
 _atom_site_label
 _atom_site_symmetry_multiplicity
 _atom_site_fract_x
 _atom_site_fract_y
 _atom_site_fract_z
 _atom_site_occupancy
  Sm  Sm0  1  0.812623  0.305757  0.298409  1
  Hf  Hf1  1  0.999088  0.002079  0.001318  1
  Th  Th2  1  0.302799  0.813747  0.295259  1
  Th  Th3  1  0.185619  0.696788  0.702132  1
  Th  Th4  1  0.697601  0.186816  0.701793  1
  Th  Th5  1  0.205927  0.205036  0.538965  1
  Th  Th6  1  0.793775  0.794783  0.458419  1
  Th  Th7  1  0.680738  0.679792  0.983424  1
  Th  Th8  1  0.318891  0.319371  0.019482  1
  Se  Se9  1  0.823731  0.430856  0.534378  1
  Se  Se10  1  0.431948  0.819848  0.532259  1
  Se  Se11  1  0.178447  0.567589  0.466435  1
  Se  Se12  1  0.569522  0.177239  0.468941  1
  Se  Se13  1  0.944019  0.326691  0.028363  1
  Se  Se14  1  0.326344  0.943901  0.026182  1
  Se  Se15  1  0.055929  0.674618  0.970910  1
  Se  Se16  1  0.673860  0.057375  0.971817  1
  Se  Se17  1  0.210997  0.206081  0.275857  1
  Se  Se18  1  0.790863  0.790556  0.724887  1
  Se  Se19  1  0.063730  0.062257  0.769172  1
  Se  Se20  1  0.937761  0.938126  0.231913  1
  Se  Se21  1  0.303666  0.303650  0.754266  1
  Se  Se22  1  0.693965  0.698862  0.245239  1
  Se  Se23  1  0.518984  0.521076  0.833249  1
  Se  Se24  1  0.477448  0.481858  0.163615  1
  Se  Se25  1  0.001722  0.995247  0.503317  1
