# generated using pymatgen
data_Ho12Os2RuRh
_symmetry_space_group_name_H-M   'P 1'
_cell_length_a   6.33581889
_cell_length_b   7.30634891
_cell_length_c   9.06488700
_cell_angle_alpha   90.00000000
_cell_angle_beta   90.00000000
_cell_angle_gamma   90.33739220
_symmetry_Int_Tables_number   1
_chemical_formula_structural   Ho12Os2RuRh
_chemical_formula_sum   'Ho12 Os2 Ru1 Rh1'
_cell_volume   419.62178546
_cell_formula_units_Z   1
loop_
 _symmetry_equiv_pos_site_id
 _symmetry_equiv_pos_as_xyz
  1  'x, y, z'
loop_
 _atom_site_type_symbol
 _atom_site_label
 _atom_site_symmetry_multiplicity
 _atom_site_fract_x
 _atom_site_fract_y
 _atom_site_fract_z
 _atom_site_occupancy
  Ho  Ho0  1  0.333239  0.673445  0.061471  1
  Ho  Ho1  1  0.171057  0.178247  0.436737  1
  Ho  Ho2  1  0.669210  0.324453  0.562918  1
  Ho  Ho3  1  0.827020  0.823597  0.933409  1
  Ho  Ho4  1  0.669210  0.324453  0.937082  1
  Ho  Ho5  1  0.827020  0.823597  0.566591  1
  Ho  Ho6  1  0.333239  0.673445  0.438529  1
  Ho  Ho7  1  0.171057  0.178247  0.063263  1
  Ho  Ho8  1  0.870293  0.537959  0.250000  1
  Ho  Ho9  1  0.630315  0.039188  0.250000  1
  Ho  Ho10  1  0.129336  0.460904  0.750000  1
  Ho  Ho11  1  0.367086  0.961884  0.750000  1
  Os  Os12  1  0.460425  0.384266  0.250000  1
  Os  Os13  1  0.537384  0.616269  0.750000  1
  Ru  Ru14  1  0.962791  0.114929  0.750000  1
  Rh  Rh15  1  0.041319  0.885118  0.250000  1
