# generated using pymatgen
data_EuHo5(Co3P2)6
_symmetry_space_group_name_H-M   'P 1'
_cell_length_a   3.71187500
_cell_length_b   10.54508900
_cell_length_c   12.19141900
_cell_angle_alpha   90.00000000
_cell_angle_beta   90.00000000
_cell_angle_gamma   90.00000000
_symmetry_Int_Tables_number   1
_chemical_formula_structural   EuHo5(Co3P2)6
_chemical_formula_sum   'Eu1 Ho5 Co18 P12'
_cell_volume   477.19715928
_cell_formula_units_Z   1
loop_
 _symmetry_equiv_pos_site_id
 _symmetry_equiv_pos_as_xyz
  1  'x, y, z'
loop_
 _atom_site_type_symbol
 _atom_site_label
 _atom_site_symmetry_multiplicity
 _atom_site_fract_x
 _atom_site_fract_y
 _atom_site_fract_z
 _atom_site_occupancy
  Eu  Eu0  1  0.000000  0.500000  0.523819  1
  Ho  Ho1  1  0.500000  0.000000  0.477474  1
  Ho  Ho2  1  0.500000  0.817651  0.204905  1
  Ho  Ho3  1  0.500000  0.182349  0.204905  1
  Ho  Ho4  1  0.000000  0.682845  0.795297  1
  Ho  Ho5  1  0.000000  0.317155  0.795297  1
  Co  Co6  1  0.000000  0.500000  0.985991  1
  Co  Co7  1  0.500000  0.000000  0.014138  1
  Co  Co8  1  0.500000  0.293292  0.429981  1
  Co  Co9  1  0.500000  0.706708  0.429981  1
  Co  Co10  1  0.000000  0.199681  0.570222  1
  Co  Co11  1  0.000000  0.800319  0.570222  1
  Co  Co12  1  0.500000  0.879915  0.710777  1
  Co  Co13  1  0.500000  0.120085  0.710777  1
  Co  Co14  1  0.000000  0.621406  0.288896  1
  Co  Co15  1  0.000000  0.378594  0.288896  1
  Co  Co16  1  0.500000  0.333221  0.993635  1
  Co  Co17  1  0.500000  0.666779  0.993635  1
  Co  Co18  1  0.000000  0.166532  0.005938  1
  Co  Co19  1  0.000000  0.833468  0.005938  1
  Co  Co20  1  0.500000  0.500000  0.156776  1
  Co  Co21  1  0.000000  0.000000  0.841957  1
  Co  Co22  1  0.500000  0.500000  0.704059  1
  Co  Co23  1  0.000000  0.000000  0.297653  1
  P  P24  1  0.500000  0.306829  0.617161  1
  P  P25  1  0.500000  0.693171  0.617161  1
  P  P26  1  0.000000  0.188990  0.383673  1
  P  P27  1  0.000000  0.811010  0.383673  1
  P  P28  1  0.500000  0.500000  0.882589  1
  P  P29  1  0.000000  0.000000  0.117858  1
  P  P30  1  0.500000  0.847654  0.893545  1
  P  P31  1  0.500000  0.152346  0.893545  1
  P  P32  1  0.000000  0.653016  0.106070  1
  P  P33  1  0.000000  0.346984  0.106070  1
  P  P34  1  0.500000  0.500000  0.340389  1
  P  P35  1  0.000000  0.000000  0.657097  1
