# generated using pymatgen
data_AgH4F7
_symmetry_space_group_name_H-M   'P 1'
_cell_length_a   3.71202449
_cell_length_b   6.29865335
_cell_length_c   7.22264270
_cell_angle_alpha   88.69270717
_cell_angle_beta   90.79037670
_cell_angle_gamma   67.43085613
_symmetry_Int_Tables_number   1
_chemical_formula_structural   AgH4F7
_chemical_formula_sum   'Ag1 H4 F7'
_cell_volume   155.85110843
_cell_formula_units_Z   1
loop_
 _symmetry_equiv_pos_site_id
 _symmetry_equiv_pos_as_xyz
  1  'x, y, z'
loop_
 _atom_site_type_symbol
 _atom_site_label
 _atom_site_symmetry_multiplicity
 _atom_site_fract_x
 _atom_site_fract_y
 _atom_site_fract_z
 _atom_site_occupancy
  Ag  Ag0  1  0.031441  0.621171  0.543658  1
  H  H1  1  0.651396  0.126860  0.091053  1
  H  H2  1  0.811702  0.708586  0.925794  1
  H  H3  1  0.867117  0.599221  0.169674  1
  H  H4  1  0.500226  0.252421  0.783517  1
  F  F5  1  0.831452  0.079594  0.194207  1
  F  F6  1  0.508039  0.834355  0.485377  1
  F  F7  1  0.089816  0.502794  0.284705  1
  F  F8  1  0.659092  0.678834  0.043637  1
  F  F9  1  0.396632  0.195552  0.888101  1
  F  F10  1  0.556487  0.390659  0.612210  1
  F  F11  1  0.001806  0.743889  0.797954  1
