# generated using pymatgen
data_Dy8Ti3Nb(Ge2Mo)8
_symmetry_space_group_name_H-M   'P 1'
_cell_length_a   6.91148151
_cell_length_b   7.08736073
_cell_length_c   13.33263996
_cell_angle_alpha   90.04316559
_cell_angle_beta   90.00717756
_cell_angle_gamma   90.04414995
_symmetry_Int_Tables_number   1
_chemical_formula_structural   Dy8Ti3Nb(Ge2Mo)8
_chemical_formula_sum   'Dy8 Ti3 Nb1 Ge16 Mo8'
_cell_volume   653.08781973
_cell_formula_units_Z   1
loop_
 _symmetry_equiv_pos_site_id
 _symmetry_equiv_pos_as_xyz
  1  'x, y, z'
loop_
 _atom_site_type_symbol
 _atom_site_label
 _atom_site_symmetry_multiplicity
 _atom_site_fract_x
 _atom_site_fract_y
 _atom_site_fract_z
 _atom_site_occupancy
  Dy  Dy0  1  0.495418  0.325030  0.093623  1
  Dy  Dy1  1  0.993300  0.171267  0.407039  1
  Dy  Dy2  1  0.505516  0.675036  0.593249  1
  Dy  Dy3  1  0.004705  0.826177  0.905910  1
  Dy  Dy4  1  0.506847  0.670304  0.906558  1
  Dy  Dy5  1  0.008037  0.829589  0.593516  1
  Dy  Dy6  1  0.493053  0.328062  0.407215  1
  Dy  Dy7  1  0.992503  0.170712  0.092339  1
  Ti  Ti8  1  0.837156  0.337038  0.627906  1
  Ti  Ti9  1  0.337442  0.163442  0.871973  1
  Ti  Ti10  1  0.163253  0.664444  0.127531  1
  Nb  Nb11  1  0.835597  0.512466  0.251010  1
  Ge  Ge12  1  0.807699  0.639480  0.748778  1
  Ge  Ge13  1  0.308587  0.861180  0.751529  1
  Ge  Ge14  1  0.194527  0.358682  0.248781  1
  Ge  Ge15  1  0.689341  0.137328  0.250062  1
  Ge  Ge16  1  0.532585  0.370865  0.747955  1
  Ge  Ge17  1  0.035045  0.130328  0.750523  1
  Ge  Ge18  1  0.463270  0.630651  0.250529  1
  Ge  Ge19  1  0.968661  0.874077  0.250742  1
  Ge  Ge20  1  0.672048  0.047797  0.545664  1
  Ge  Ge21  1  0.170078  0.455350  0.953935  1
  Ge  Ge22  1  0.329977  0.955068  0.045521  1
  Ge  Ge23  1  0.827167  0.545912  0.456843  1
  Ge  Ge24  1  0.330117  0.952944  0.454564  1
  Ge  Ge25  1  0.828078  0.543985  0.043127  1
  Ge  Ge26  1  0.671771  0.045258  0.955154  1
  Ge  Ge27  1  0.172276  0.454232  0.545592  1
  Mo  Mo28  1  0.665040  0.010722  0.750565  1
  Mo  Mo29  1  0.163992  0.490144  0.749785  1
  Mo  Mo30  1  0.334645  0.986772  0.250468  1
  Mo  Mo31  1  0.664793  0.839649  0.372659  1
  Mo  Mo32  1  0.161906  0.661075  0.375180  1
  Mo  Mo33  1  0.669332  0.837523  0.126789  1
  Mo  Mo34  1  0.832121  0.337363  0.873450  1
  Mo  Mo35  1  0.334109  0.160046  0.623936  1
