# generated using pymatgen
data_Yb4ScIr7
_symmetry_space_group_name_H-M   'P 1'
_cell_length_a   5.46982800
_cell_length_b   5.46982713
_cell_length_c   8.48688200
_cell_angle_alpha   90.00000000
_cell_angle_beta   90.00000000
_cell_angle_gamma   120.00000525
_symmetry_Int_Tables_number   1
_chemical_formula_structural   Yb4ScIr7
_chemical_formula_sum   'Yb4 Sc1 Ir7'
_cell_volume   219.90041238
_cell_formula_units_Z   1
loop_
 _symmetry_equiv_pos_site_id
 _symmetry_equiv_pos_as_xyz
  1  'x, y, z'
loop_
 _atom_site_type_symbol
 _atom_site_label
 _atom_site_symmetry_multiplicity
 _atom_site_fract_x
 _atom_site_fract_y
 _atom_site_fract_z
 _atom_site_occupancy
  Yb  Yb0  1  0.333334  0.666667  0.078696  1
  Yb  Yb1  1  0.333334  0.666667  0.436073  1
  Yb  Yb2  1  0.666666  0.333334  0.563926  1
  Yb  Yb3  1  0.666666  0.333334  0.921304  1
  Sc  Sc4  1  0.000000  0.000000  0.000000  1
  Ir  Ir5  1  0.346507  0.173254  0.254156  1
  Ir  Ir6  1  0.826747  0.173254  0.254156  1
  Ir  Ir7  1  0.826745  0.653492  0.254156  1
  Ir  Ir8  1  0.000000  0.000000  0.500000  1
  Ir  Ir9  1  0.173254  0.346507  0.745843  1
  Ir  Ir10  1  0.173254  0.826745  0.745843  1
  Ir  Ir11  1  0.653492  0.826745  0.745843  1
