# generated using pymatgen
data_Ho4As6PdRu6
_symmetry_space_group_name_H-M   'P 1'
_cell_length_a   7.24801839
_cell_length_b   7.24801971
_cell_length_c   7.24801840
_cell_angle_alpha   109.74512593
_cell_angle_beta   108.92479739
_cell_angle_gamma   109.74511468
_symmetry_Int_Tables_number   1
_chemical_formula_structural   Ho4As6PdRu6
_chemical_formula_sum   'Ho4 As6 Pd1 Ru6'
_cell_volume   293.09368875
_cell_formula_units_Z   1
loop_
 _symmetry_equiv_pos_site_id
 _symmetry_equiv_pos_as_xyz
  1  'x, y, z'
loop_
 _atom_site_type_symbol
 _atom_site_label
 _atom_site_symmetry_multiplicity
 _atom_site_fract_x
 _atom_site_fract_y
 _atom_site_fract_z
 _atom_site_occupancy
  Ho  Ho0  1  0.000363  0.000726  0.500363  1
  Ho  Ho1  1  0.499637  0.999274  0.999637  1
  Ho  Ho2  1  0.000363  0.500000  0.999637  1
  Ho  Ho3  1  0.499637  0.500000  0.500363  1
  As  As4  1  0.319130  0.000000  0.319130  1
  As  As5  1  0.006120  0.315023  0.321143  1
  As  As6  1  0.006120  0.684977  0.691098  1
  As  As7  1  0.308902  0.315023  0.993880  1
  As  As8  1  0.678857  0.684977  0.993880  1
  As  As9  1  0.680870  0.000000  0.680870  1
  Pd  Pd10  1  0.750000  0.500000  0.250000  1
  Ru  Ru11  1  0.497179  0.749342  0.246521  1
  Ru  Ru12  1  0.497179  0.250658  0.747837  1
  Ru  Ru13  1  0.753479  0.250658  0.502821  1
  Ru  Ru14  1  0.252163  0.749342  0.502821  1
  Ru  Ru15  1  0.250000  0.500000  0.750000  1
  Ru  Ru16  1  0.000000  0.000000  0.000000  1
