# generated using pymatgen
data_TbDyNiOs3
_symmetry_space_group_name_H-M   'P 1'
_cell_length_a   5.25410663
_cell_length_b   5.25410641
_cell_length_c   5.34432457
_cell_angle_alpha   60.55686735
_cell_angle_beta   60.55686796
_cell_angle_gamma   60.00000125
_symmetry_Int_Tables_number   1
_chemical_formula_structural   TbDyNiOs3
_chemical_formula_sum   'Tb1 Dy1 Ni1 Os3'
_cell_volume   105.19139905
_cell_formula_units_Z   1
loop_
 _symmetry_equiv_pos_site_id
 _symmetry_equiv_pos_as_xyz
  1  'x, y, z'
loop_
 _atom_site_type_symbol
 _atom_site_label
 _atom_site_symmetry_multiplicity
 _atom_site_fract_x
 _atom_site_fract_y
 _atom_site_fract_z
 _atom_site_occupancy
  Tb  Tb0  1  0.998153  0.998153  0.005542  1
  Dy  Dy1  1  0.751914  0.751914  0.744258  1
  Ni  Ni2  1  0.375103  0.375103  0.874691  1
  Os  Os3  1  0.375010  0.375010  0.375169  1
  Os  Os4  1  0.874811  0.375010  0.375169  1
  Os  Os5  1  0.375010  0.874811  0.375169  1
