# generated using pymatgen
data_MnClF6
_symmetry_space_group_name_H-M   'P 1'
_cell_length_a   9.90155779
_cell_length_b   9.73817999
_cell_length_c   4.81605105
_cell_angle_alpha   81.67288717
_cell_angle_beta   98.87318866
_cell_angle_gamma   121.04578577
_symmetry_Int_Tables_number   1
_chemical_formula_structural   MnClF6
_chemical_formula_sum   'Mn3 Cl3 F18'
_cell_volume   391.92710939
_cell_formula_units_Z   3
loop_
 _symmetry_equiv_pos_site_id
 _symmetry_equiv_pos_as_xyz
  1  'x, y, z'
loop_
 _atom_site_type_symbol
 _atom_site_label
 _atom_site_symmetry_multiplicity
 _atom_site_fract_x
 _atom_site_fract_y
 _atom_site_fract_z
 _atom_site_occupancy
  Mn  Mn0  1  0.975355  0.326959  0.040751  1
  Mn  Mn1  1  0.406059  0.038599  0.948688  1
  Mn  Mn2  1  0.688416  0.043137  0.531733  1
  Cl  Cl3  1  0.672999  0.703675  0.959468  1
  Cl  Cl4  1  0.999871  0.624567  0.501287  1
  Cl  Cl5  1  0.320597  0.317697  0.487869  1
  F  F6  1  0.083708  0.777767  0.268867  1
  F  F7  1  0.949591  0.719205  0.676027  1
  F  F8  1  0.291780  0.840358  0.822613  1
  F  F9  1  0.712815  0.564129  0.134671  1
  F  F10  1  0.514800  0.957166  0.254385  1
  F  F11  1  0.501749  0.382587  0.620143  1
  F  F12  1  0.073792  0.501927  0.251344  1
  F  F13  1  0.878435  0.426378  0.793500  1
  F  F14  1  0.782149  0.956300  0.401086  1
  F  F15  1  0.268401  0.099353  0.691990  1
  F  F16  1  0.587980  0.863573  0.771092  1
  F  F17  1  0.474701  0.212165  0.139328  1
  F  F18  1  0.134101  0.414861  0.826749  1
  F  F19  1  0.797840  0.235060  0.269614  1
  F  F20  1  0.590050  0.131529  0.688434  1
  F  F21  1  0.365393  0.494632  0.321435  1
  F  F22  1  0.064408  0.225801  0.279498  1
  F  F23  1  0.865010  0.142574  0.819428  1
