# generated using pymatgen
data_Pr2Nd3YTa2O14
_symmetry_space_group_name_H-M   'P 1'
_cell_length_a   6.68452643
_cell_length_b   6.66771211
_cell_length_c   7.71420700
_cell_angle_alpha   90.00000000
_cell_angle_beta   90.00000000
_cell_angle_gamma   108.68502622
_symmetry_Int_Tables_number   1
_chemical_formula_structural   Pr2Nd3YTa2O14
_chemical_formula_sum   'Pr2 Nd3 Y1 Ta2 O14'
_cell_volume   325.70436302
_cell_formula_units_Z   1
loop_
 _symmetry_equiv_pos_site_id
 _symmetry_equiv_pos_as_xyz
  1  'x, y, z'
loop_
 _atom_site_type_symbol
 _atom_site_label
 _atom_site_symmetry_multiplicity
 _atom_site_fract_x
 _atom_site_fract_y
 _atom_site_fract_z
 _atom_site_occupancy
  Pr  Pr0  1  0.532582  0.526666  0.499032  1
  Pr  Pr1  1  0.532582  0.526666  0.000968  1
  Nd  Nd2  1  0.006792  0.461780  0.750000  1
  Nd  Nd3  1  0.532248  0.003253  0.750000  1
  Nd  Nd4  1  0.461864  0.003931  0.250000  1
  Y  Y5  1  0.003380  0.530056  0.250000  1
  Ta  Ta6  1  0.000565  0.001250  0.498029  1
  Ta  Ta7  1  0.000565  0.001250  0.001971  1
  O  O8  1  0.944862  0.055485  0.750000  1
  O  O9  1  0.057752  0.937011  0.250000  1
  O  O10  1  0.354098  0.636177  0.250000  1
  O  O11  1  0.643458  0.367733  0.750000  1
  O  O12  1  0.371460  0.632512  0.750000  1
  O  O13  1  0.644618  0.375333  0.250000  1
  O  O14  1  0.308102  0.068733  0.969475  1
  O  O15  1  0.679374  0.920336  0.472521  1
  O  O16  1  0.308102  0.068733  0.530525  1
  O  O17  1  0.679374  0.920336  0.027479  1
  O  O18  1  0.037629  0.300213  0.459797  1
  O  O19  1  0.931481  0.681169  0.975705  1
  O  O20  1  0.931481  0.681169  0.524295  1
  O  O21  1  0.037629  0.300213  0.040203  1
