# generated using pymatgen
data_Er12Zn11GaC4
_symmetry_space_group_name_H-M   'P 1'
_cell_length_a   9.08237844
_cell_length_b   9.08237946
_cell_length_c   9.08164701
_cell_angle_alpha   59.99732998
_cell_angle_beta   59.99732563
_cell_angle_gamma   60.00000413
_symmetry_Int_Tables_number   1
_chemical_formula_structural   Er12Zn11GaC4
_chemical_formula_sum   'Er12 Zn11 Ga1 C4'
_cell_volume   529.70165180
_cell_formula_units_Z   1
loop_
 _symmetry_equiv_pos_site_id
 _symmetry_equiv_pos_as_xyz
  1  'x, y, z'
loop_
 _atom_site_type_symbol
 _atom_site_label
 _atom_site_symmetry_multiplicity
 _atom_site_fract_x
 _atom_site_fract_y
 _atom_site_fract_z
 _atom_site_occupancy
  Er  Er0  1  0.446995  0.446995  0.053008  1
  Er  Er1  1  0.053002  0.446995  0.053008  1
  Er  Er2  1  0.446995  0.053002  0.053008  1
  Er  Er3  1  0.053156  0.053156  0.446986  1
  Er  Er4  1  0.446702  0.053156  0.446986  1
  Er  Er5  1  0.053156  0.446702  0.446986  1
  Er  Er6  1  0.802840  0.802840  0.197162  1
  Er  Er7  1  0.197158  0.802840  0.197162  1
  Er  Er8  1  0.802840  0.197158  0.197162  1
  Er  Er9  1  0.197002  0.197002  0.803031  1
  Er  Er10  1  0.802965  0.197002  0.803031  1
  Er  Er11  1  0.197002  0.802965  0.803031  1
  Zn  Zn12  1  0.827297  0.517789  0.827615  1
  Zn  Zn13  1  0.517789  0.827297  0.827615  1
  Zn  Zn14  1  0.827297  0.827297  0.827615  1
  Zn  Zn15  1  0.422667  0.422667  0.732001  1
  Zn  Zn16  1  0.422729  0.731971  0.422574  1
  Zn  Zn17  1  0.731971  0.422729  0.422574  1
  Zn  Zn18  1  0.422729  0.422729  0.422574  1
  Zn  Zn19  1  0.624959  0.624959  0.125124  1
  Zn  Zn20  1  0.624723  0.125409  0.625146  1
  Zn  Zn21  1  0.125409  0.624723  0.625146  1
  Zn  Zn22  1  0.624723  0.624723  0.625146  1
  Ga  Ga23  1  0.827779  0.827779  0.516662  1
  C  C24  1  0.125046  0.125046  0.624861  1
  C  C25  1  0.124989  0.625091  0.124930  1
  C  C26  1  0.625091  0.124989  0.124930  1
  C  C27  1  0.124989  0.124989  0.124930  1
