# generated using pymatgen
data_Ta13Mn4Nb3Te16
_symmetry_space_group_name_H-M   'P 1'
_cell_length_a   4.86446600
_cell_length_b   11.06111541
_cell_length_c   19.35063060
_cell_angle_alpha   90.03697339
_cell_angle_beta   90.00000000
_cell_angle_gamma   90.00000000
_symmetry_Int_Tables_number   1
_chemical_formula_structural   Ta13Mn4Nb3Te16
_chemical_formula_sum   'Ta13 Mn4 Nb3 Te16'
_cell_volume   1041.18793739
_cell_formula_units_Z   1
loop_
 _symmetry_equiv_pos_site_id
 _symmetry_equiv_pos_as_xyz
  1  'x, y, z'
loop_
 _atom_site_type_symbol
 _atom_site_label
 _atom_site_symmetry_multiplicity
 _atom_site_fract_x
 _atom_site_fract_y
 _atom_site_fract_z
 _atom_site_occupancy
  Ta  Ta0  1  0.500000  0.564036  0.385486  1
  Ta  Ta1  1  0.500000  0.435798  0.614338  1
  Ta  Ta2  1  0.500000  0.064358  0.114412  1
  Ta  Ta3  1  0.500000  0.936490  0.885530  1
  Ta  Ta4  1  0.500000  0.701167  0.535091  1
  Ta  Ta5  1  0.500000  0.298712  0.464742  1
  Ta  Ta6  1  0.500000  0.201053  0.964868  1
  Ta  Ta7  1  0.500000  0.799115  0.035743  1
  Ta  Ta8  1  0.000000  0.813224  0.944079  1
  Ta  Ta9  1  0.000000  0.402848  0.393748  1
  Ta  Ta10  1  0.000000  0.596937  0.606098  1
  Ta  Ta11  1  0.000000  0.903097  0.106293  1
  Ta  Ta12  1  0.000000  0.096806  0.893894  1
  Mn  Mn13  1  0.250377  0.499965  0.499876  1
  Mn  Mn14  1  0.749852  0.999194  0.999918  1
  Mn  Mn15  1  0.749623  0.499965  0.499876  1
  Mn  Mn16  1  0.250148  0.999194  0.999918  1
  Nb  Nb17  1  0.000000  0.688735  0.443332  1
  Nb  Nb18  1  0.000000  0.311250  0.556561  1
  Nb  Nb19  1  0.000000  0.188912  0.056571  1
  Te  Te20  1  0.000000  0.843620  0.562160  1
  Te  Te21  1  0.000000  0.156192  0.437874  1
  Te  Te22  1  0.000000  0.343411  0.937623  1
  Te  Te23  1  0.000000  0.656009  0.061490  1
  Te  Te24  1  0.500000  0.333877  0.318267  1
  Te  Te25  1  0.500000  0.665926  0.681508  1
  Te  Te26  1  0.500000  0.834537  0.182088  1
  Te  Te27  1  0.500000  0.166114  0.818292  1
  Te  Te28  1  0.500000  0.820767  0.403949  1
  Te  Te29  1  0.500000  0.179153  0.595898  1
  Te  Te30  1  0.500000  0.321125  0.096026  1
  Te  Te31  1  0.500000  0.679765  0.904298  1
  Te  Te32  1  0.000000  0.606629  0.302960  1
  Te  Te33  1  0.000000  0.393272  0.696958  1
  Te  Te34  1  0.000000  0.106956  0.196914  1
  Te  Te35  1  0.000000  0.891792  0.803321  1
