# generated using pymatgen
data_Th14Re3TcIr2
_symmetry_space_group_name_H-M   'P 1'
_cell_length_a   10.05212870
_cell_length_b   10.01326908
_cell_length_c   6.33240334
_cell_angle_alpha   90.00000456
_cell_angle_beta   89.54190496
_cell_angle_gamma   119.87220418
_symmetry_Int_Tables_number   1
_chemical_formula_structural   Th14Re3TcIr2
_chemical_formula_sum   'Th14 Re3 Tc1 Ir2'
_cell_volume   552.67840250
_cell_formula_units_Z   1
loop_
 _symmetry_equiv_pos_site_id
 _symmetry_equiv_pos_as_xyz
  1  'x, y, z'
loop_
 _atom_site_type_symbol
 _atom_site_label
 _atom_site_symmetry_multiplicity
 _atom_site_fract_x
 _atom_site_fract_y
 _atom_site_fract_z
 _atom_site_occupancy
  Th  Th0  1  0.462714  0.541898  0.296526  1
  Th  Th1  1  0.073756  0.536879  0.292520  1
  Th  Th2  1  0.918684  0.459341  0.799085  1
  Th  Th3  1  0.258185  0.129092  0.502372  1
  Th  Th4  1  0.541872  0.079249  0.798030  1
  Th  Th5  1  0.753167  0.876584  0.007423  1
  Th  Th6  1  0.665694  0.332846  0.282498  1
  Th  Th7  1  0.127178  0.876556  0.003663  1
  Th  Th8  1  0.462714  0.920817  0.296526  1
  Th  Th9  1  0.541872  0.462622  0.798030  1
  Th  Th10  1  0.871311  0.124168  0.506858  1
  Th  Th11  1  0.127178  0.250623  0.003663  1
  Th  Th12  1  0.871311  0.747144  0.506858  1
  Th  Th13  1  0.333386  0.666694  0.790933  1
  Re  Re14  1  0.816483  0.629825  0.052384  1
  Re  Re15  1  0.816483  0.186659  0.052384  1
  Re  Re16  1  0.621060  0.810531  0.558908  1
  Tc  Tc17  1  0.367335  0.183667  0.039468  1
  Ir  Ir18  1  0.184810  0.374851  0.547936  1
  Ir  Ir19  1  0.184810  0.809959  0.547936  1
