# generated using pymatgen
data_Tb6MgSc(MnC6)2
_symmetry_space_group_name_H-M   'P 1'
_cell_length_a   8.29354000
_cell_length_b   8.29354008
_cell_length_c   5.14940500
_cell_angle_alpha   90.00000000
_cell_angle_beta   90.00000000
_cell_angle_gamma   120.00000551
_symmetry_Int_Tables_number   1
_chemical_formula_structural   Tb6MgSc(MnC6)2
_chemical_formula_sum   'Tb6 Mg1 Sc1 Mn2 C12'
_cell_volume   306.73797737
_cell_formula_units_Z   1
loop_
 _symmetry_equiv_pos_site_id
 _symmetry_equiv_pos_as_xyz
  1  'x, y, z'
loop_
 _atom_site_type_symbol
 _atom_site_label
 _atom_site_symmetry_multiplicity
 _atom_site_fract_x
 _atom_site_fract_y
 _atom_site_fract_z
 _atom_site_occupancy
  Tb  Tb0  1  0.615827  0.678711  0.749133  1
  Tb  Tb1  1  0.937116  0.615827  0.250867  1
  Tb  Tb2  1  0.678711  0.062884  0.250867  1
  Tb  Tb3  1  0.321289  0.937116  0.749133  1
  Tb  Tb4  1  0.062884  0.384173  0.749133  1
  Tb  Tb5  1  0.384173  0.321289  0.250867  1
  Mg  Mg6  1  0.000000  0.000000  0.000000  1
  Sc  Sc7  1  0.000000  0.000000  0.500000  1
  Mn  Mn8  1  0.666667  0.333333  0.755776  1
  Mn  Mn9  1  0.333333  0.666667  0.244224  1
  C  C10  1  0.968906  0.755090  0.742992  1
  C  C11  1  0.213816  0.968906  0.257008  1
  C  C12  1  0.755090  0.786184  0.257008  1
  C  C13  1  0.244910  0.213816  0.742992  1
  C  C14  1  0.786184  0.031094  0.742992  1
  C  C15  1  0.031094  0.244910  0.257008  1
  C  C16  1  0.859455  0.567990  0.752833  1
  C  C17  1  0.291464  0.859455  0.247167  1
  C  C18  1  0.567990  0.708536  0.247167  1
  C  C19  1  0.432010  0.291464  0.752833  1
  C  C20  1  0.140545  0.432010  0.247167  1
  C  C21  1  0.708536  0.140545  0.752833  1
