# generated using pymatgen
data_Dy11(IrBr5)3
_symmetry_space_group_name_H-M   'P 1'
_cell_length_a   12.84467300
_cell_length_b   12.84466798
_cell_length_c   12.83941600
_cell_angle_alpha   90.00000000
_cell_angle_beta   90.00000000
_cell_angle_gamma   120.00041727
_symmetry_Int_Tables_number   1
_chemical_formula_structural   Dy11(IrBr5)3
_chemical_formula_sum   'Dy22 Ir6 Br30'
_cell_volume   1834.50969424
_cell_formula_units_Z   2
loop_
 _symmetry_equiv_pos_site_id
 _symmetry_equiv_pos_as_xyz
  1  'x, y, z'
loop_
 _atom_site_type_symbol
 _atom_site_label
 _atom_site_symmetry_multiplicity
 _atom_site_fract_x
 _atom_site_fract_y
 _atom_site_fract_z
 _atom_site_occupancy
  Dy  Dy0  1  0.667714  0.333718  0.080455  1
  Dy  Dy1  1  0.958649  0.618437  0.108498  1
  Dy  Dy2  1  0.660349  0.041763  0.108622  1
  Dy  Dy3  1  0.381057  0.339678  0.108938  1
  Dy  Dy4  1  0.409204  0.085223  0.250000  1
  Dy  Dy5  1  0.911338  0.322634  0.250000  1
  Dy  Dy6  1  0.677809  0.590762  0.250000  1
  Dy  Dy7  1  0.660349  0.041763  0.391378  1
  Dy  Dy8  1  0.381057  0.339678  0.391062  1
  Dy  Dy9  1  0.958649  0.618437  0.391503  1
  Dy  Dy10  1  0.667714  0.333718  0.419544  1
  Dy  Dy11  1  0.332286  0.666281  0.580455  1
  Dy  Dy12  1  0.041351  0.381563  0.608498  1
  Dy  Dy13  1  0.618943  0.660322  0.608939  1
  Dy  Dy14  1  0.339651  0.958237  0.608623  1
  Dy  Dy15  1  0.322191  0.409238  0.750000  1
  Dy  Dy16  1  0.088662  0.677366  0.750000  1
  Dy  Dy17  1  0.590797  0.914777  0.750000  1
  Dy  Dy18  1  0.618943  0.660322  0.891061  1
  Dy  Dy19  1  0.339651  0.958237  0.891377  1
  Dy  Dy20  1  0.041351  0.381563  0.891503  1
  Dy  Dy21  1  0.332286  0.666281  0.919544  1
  Ir  Ir22  1  0.659150  0.195613  0.250000  1
  Ir  Ir23  1  0.535792  0.339410  0.250000  1
  Ir  Ir24  1  0.803524  0.464436  0.250000  1
  Ir  Ir25  1  0.196477  0.535564  0.750000  1
  Ir  Ir26  1  0.464208  0.660590  0.750000  1
  Ir  Ir27  1  0.340850  0.804387  0.750000  1
  Br  Br28  1  0.279105  0.086083  0.065979  1
  Br  Br29  1  0.806677  0.720998  0.065620  1
  Br  Br30  1  0.914532  0.193228  0.065658  1
  Br  Br31  1  0.130313  0.528286  0.086025  1
  Br  Br32  1  0.472172  0.601671  0.085785  1
  Br  Br33  1  0.398574  0.870199  0.085747  1
  Br  Br34  1  0.199163  0.312552  0.250000  1
  Br  Br35  1  0.113969  0.801563  0.250000  1
  Br  Br36  1  0.687888  0.886259  0.250000  1
  Br  Br37  1  0.398574  0.870199  0.414253  1
  Br  Br38  1  0.130313  0.528286  0.413974  1
  Br  Br39  1  0.472172  0.601671  0.414215  1
  Br  Br40  1  0.914532  0.193228  0.434342  1
  Br  Br41  1  0.806677  0.720998  0.434380  1
  Br  Br42  1  0.279105  0.086083  0.434021  1
  Br  Br43  1  0.720894  0.913917  0.565978  1
  Br  Br44  1  0.193323  0.279002  0.565620  1
  Br  Br45  1  0.085468  0.806772  0.565658  1
  Br  Br46  1  0.527829  0.398329  0.585785  1
  Br  Br47  1  0.869687  0.471714  0.586025  1
  Br  Br48  1  0.601426  0.129801  0.585746  1
  Br  Br49  1  0.312111  0.113741  0.750000  1
  Br  Br50  1  0.886032  0.198437  0.750000  1
  Br  Br51  1  0.800838  0.687448  0.750000  1
  Br  Br52  1  0.601426  0.129801  0.914254  1
  Br  Br53  1  0.527829  0.398329  0.914214  1
  Br  Br54  1  0.869687  0.471714  0.913974  1
  Br  Br55  1  0.085468  0.806772  0.934342  1
  Br  Br56  1  0.193323  0.279002  0.934380  1
  Br  Br57  1  0.720894  0.913917  0.934021  1
