# generated using pymatgen
data_CaDy5(SiRh2)6
_symmetry_space_group_name_H-M   'P 1'
_cell_length_a   5.58934300
_cell_length_b   5.58934323
_cell_length_c   14.96285600
_cell_angle_alpha   90.00000000
_cell_angle_beta   90.00000000
_cell_angle_gamma   120.00000458
_symmetry_Int_Tables_number   1
_chemical_formula_structural   CaDy5(SiRh2)6
_chemical_formula_sum   'Ca1 Dy5 Si6 Rh12'
_cell_volume   404.82437020
_cell_formula_units_Z   1
loop_
 _symmetry_equiv_pos_site_id
 _symmetry_equiv_pos_as_xyz
  1  'x, y, z'
loop_
 _atom_site_type_symbol
 _atom_site_label
 _atom_site_symmetry_multiplicity
 _atom_site_fract_x
 _atom_site_fract_y
 _atom_site_fract_z
 _atom_site_occupancy
  Ca  Ca0  1  0.666667  0.333334  0.250000  1
  Dy  Dy1  1  0.666667  0.333334  0.040031  1
  Dy  Dy2  1  0.666667  0.333334  0.459969  1
  Dy  Dy3  1  0.333333  0.666667  0.537676  1
  Dy  Dy4  1  0.333333  0.666667  0.750000  1
  Dy  Dy5  1  0.333333  0.666667  0.962324  1
  Si  Si6  1  0.000000  0.000000  0.999706  1
  Si  Si7  1  0.000000  0.000000  0.250000  1
  Si  Si8  1  0.333333  0.666667  0.250000  1
  Si  Si9  1  0.000000  0.000000  0.500294  1
  Si  Si10  1  0.000000  0.000000  0.750000  1
  Si  Si11  1  0.666667  0.333334  0.750000  1
  Rh  Rh12  1  0.166862  0.333725  0.129774  1
  Rh  Rh13  1  0.166863  0.833138  0.129774  1
  Rh  Rh14  1  0.666275  0.833138  0.129774  1
  Rh  Rh15  1  0.166862  0.333725  0.370225  1
  Rh  Rh16  1  0.166863  0.833138  0.370225  1
  Rh  Rh17  1  0.666275  0.833138  0.370225  1
  Rh  Rh18  1  0.333683  0.166841  0.630647  1
  Rh  Rh19  1  0.833160  0.166841  0.630647  1
  Rh  Rh20  1  0.833159  0.666318  0.630647  1
  Rh  Rh21  1  0.333683  0.166841  0.869353  1
  Rh  Rh22  1  0.833160  0.166841  0.869353  1
  Rh  Rh23  1  0.833159  0.666318  0.869353  1
