# generated using pymatgen
data_La6Hg23Bi
_symmetry_space_group_name_H-M   'P 1'
_cell_length_a   10.40182911
_cell_length_b   10.40182929
_cell_length_c   10.40182900
_cell_angle_alpha   59.99999774
_cell_angle_beta   59.99999717
_cell_angle_gamma   60.00000052
_symmetry_Int_Tables_number   1
_chemical_formula_structural   La6Hg23Bi
_chemical_formula_sum   'La6 Hg23 Bi1'
_cell_volume   795.81868887
_cell_formula_units_Z   1
loop_
 _symmetry_equiv_pos_site_id
 _symmetry_equiv_pos_as_xyz
  1  'x, y, z'
loop_
 _atom_site_type_symbol
 _atom_site_label
 _atom_site_symmetry_multiplicity
 _atom_site_fract_x
 _atom_site_fract_y
 _atom_site_fract_z
 _atom_site_occupancy
  La  La0  1  0.766748  0.766748  0.233252  1
  La  La1  1  0.233252  0.766748  0.233252  1
  La  La2  1  0.766748  0.233252  0.233252  1
  La  La3  1  0.233252  0.233252  0.766748  1
  La  La4  1  0.766748  0.233252  0.766748  1
  La  La5  1  0.233252  0.766748  0.766748  1
  Hg  Hg6  1  0.851032  0.851032  0.446903  1
  Hg  Hg7  1  0.851032  0.446903  0.851032  1
  Hg  Hg8  1  0.446903  0.851032  0.851032  1
  Hg  Hg9  1  0.851032  0.851032  0.851032  1
  Hg  Hg10  1  0.148968  0.148968  0.553097  1
  Hg  Hg11  1  0.148968  0.553097  0.148968  1
  Hg  Hg12  1  0.553097  0.148968  0.148968  1
  Hg  Hg13  1  0.148968  0.148968  0.148968  1
  Hg  Hg14  1  0.628128  0.628128  0.115616  1
  Hg  Hg15  1  0.628128  0.115616  0.628128  1
  Hg  Hg16  1  0.115616  0.628128  0.628128  1
  Hg  Hg17  1  0.628128  0.628128  0.628128  1
  Hg  Hg18  1  0.371872  0.371872  0.884384  1
  Hg  Hg19  1  0.371872  0.884384  0.371872  1
  Hg  Hg20  1  0.884384  0.371872  0.371872  1
  Hg  Hg21  1  0.371872  0.371872  0.371872  1
  Hg  Hg22  1  0.000000  0.000000  0.500000  1
  Hg  Hg23  1  0.500000  0.000000  0.500000  1
  Hg  Hg24  1  0.000000  0.500000  0.500000  1
  Hg  Hg25  1  0.500000  0.500000  0.000000  1
  Hg  Hg26  1  0.000000  0.500000  0.000000  1
  Hg  Hg27  1  0.500000  0.000000  0.000000  1
  Hg  Hg28  1  0.500000  0.500000  0.500000  1
  Bi  Bi29  1  0.000000  0.000000  0.000000  1
