# generated using pymatgen
data_HgBi2(Ru2O7)2
_symmetry_space_group_name_H-M   'P 1'
_cell_length_a   7.27074815
_cell_length_b   7.22130594
_cell_length_c   7.27074814
_cell_angle_alpha   60.02737523
_cell_angle_beta   60.77462798
_cell_angle_gamma   60.02738405
_symmetry_Int_Tables_number   1
_chemical_formula_structural   HgBi2(Ru2O7)2
_chemical_formula_sum   'Hg1 Bi2 Ru4 O14'
_cell_volume   271.59314882
_cell_formula_units_Z   1
loop_
 _symmetry_equiv_pos_site_id
 _symmetry_equiv_pos_as_xyz
  1  'x, y, z'
loop_
 _atom_site_type_symbol
 _atom_site_label
 _atom_site_symmetry_multiplicity
 _atom_site_fract_x
 _atom_site_fract_y
 _atom_site_fract_z
 _atom_site_occupancy
  Hg  Hg0  1  0.500000  0.000000  0.500000  1
  Bi  Bi1  1  0.000000  0.500000  0.500000  1
  Bi  Bi2  1  0.500000  0.500000  0.000000  1
  Ru  Ru3  1  0.000000  0.000000  0.000000  1
  Ru  Ru4  1  0.500000  0.000000  0.000000  1
  Ru  Ru5  1  0.000000  0.000000  0.500000  1
  Ru  Ru6  1  0.000000  0.500000  0.000000  1
  O  O7  1  0.941750  0.325401  0.318746  1
  O  O8  1  0.319215  0.914286  0.941507  1
  O  O9  1  0.318746  0.325401  0.941750  1
  O  O10  1  0.941507  0.914286  0.319215  1
  O  O11  1  0.920072  0.329513  0.920072  1
  O  O12  1  0.307250  0.946293  0.307250  1
  O  O13  1  0.058250  0.674599  0.681254  1
  O  O14  1  0.680785  0.085714  0.058493  1
  O  O15  1  0.681254  0.674599  0.058250  1
  O  O16  1  0.058493  0.085714  0.680785  1
  O  O17  1  0.079928  0.670487  0.079928  1
  O  O18  1  0.692750  0.053707  0.692750  1
  O  O19  1  0.377994  0.353093  0.377994  1
  O  O20  1  0.622006  0.646907  0.622006  1
