# generated using pymatgen
data_Lu12AlGaNi4
_symmetry_space_group_name_H-M   'P 1'
_cell_length_a   8.14179654
_cell_length_b   8.14179574
_cell_length_c   8.14179588
_cell_angle_alpha   112.73115694
_cell_angle_beta   110.08641907
_cell_angle_gamma   105.67350817
_symmetry_Int_Tables_number   1
_chemical_formula_structural   Lu12AlGaNi4
_chemical_formula_sum   'Lu12 Al1 Ga1 Ni4'
_cell_volume   413.87483996
_cell_formula_units_Z   1
loop_
 _symmetry_equiv_pos_site_id
 _symmetry_equiv_pos_as_xyz
  1  'x, y, z'
loop_
 _atom_site_type_symbol
 _atom_site_label
 _atom_site_symmetry_multiplicity
 _atom_site_fract_x
 _atom_site_fract_y
 _atom_site_fract_z
 _atom_site_occupancy
  Lu  Lu0  1  0.432245  0.236134  0.196112  1
  Lu  Lu1  1  0.567755  0.763866  0.803888  1
  Lu  Lu2  1  0.040022  0.236134  0.803888  1
  Lu  Lu3  1  0.959978  0.763866  0.196112  1
  Lu  Lu4  1  0.181270  0.286054  0.467324  1
  Lu  Lu5  1  0.818730  0.713946  0.532676  1
  Lu  Lu6  1  0.181270  0.713946  0.895216  1
  Lu  Lu7  1  0.818730  0.286054  0.104784  1
  Lu  Lu8  1  0.326863  0.632743  0.305881  1
  Lu  Lu9  1  0.673137  0.367257  0.694119  1
  Lu  Lu10  1  0.326863  0.020982  0.694119  1
  Lu  Lu11  1  0.673137  0.979018  0.305881  1
  Al  Al12  1  0.500000  0.500000  0.000000  1
  Ga  Ga13  1  0.000000  0.000000  0.000000  1
  Ni  Ni14  1  0.344985  0.000000  0.344985  1
  Ni  Ni15  1  0.655015  0.000000  0.655015  1
  Ni  Ni16  1  0.123970  0.623970  0.500000  1
  Ni  Ni17  1  0.876030  0.376030  0.500000  1
