# generated using pymatgen
data_Lu5Co19(SiP3)3
_symmetry_space_group_name_H-M   'P 1'
_cell_length_a   11.97817500
_cell_length_b   11.97817402
_cell_length_c   3.65158600
_cell_angle_alpha   90.00000000
_cell_angle_beta   90.00000000
_cell_angle_gamma   119.99999994
_symmetry_Int_Tables_number   1
_chemical_formula_structural   Lu5Co19(SiP3)3
_chemical_formula_sum   'Lu5 Co19 Si3 P9'
_cell_volume   453.72576069
_cell_formula_units_Z   1
loop_
 _symmetry_equiv_pos_site_id
 _symmetry_equiv_pos_as_xyz
  1  'x, y, z'
loop_
 _atom_site_type_symbol
 _atom_site_label
 _atom_site_symmetry_multiplicity
 _atom_site_fract_x
 _atom_site_fract_y
 _atom_site_fract_z
 _atom_site_occupancy
  Lu  Lu0  1  0.333333  0.666667  0.500000  1
  Lu  Lu1  1  0.666667  0.333333  0.500000  1
  Lu  Lu2  1  0.184408  0.000000  0.000000  1
  Lu  Lu3  1  0.000000  0.184408  0.000000  1
  Lu  Lu4  1  0.815592  0.815592  0.000000  1
  Co  Co5  1  0.201618  0.377109  0.500000  1
  Co  Co6  1  0.622891  0.824508  0.500000  1
  Co  Co7  1  0.175492  0.798382  0.500000  1
  Co  Co8  1  0.824508  0.622891  0.500000  1
  Co  Co9  1  0.798382  0.175492  0.500000  1
  Co  Co10  1  0.377109  0.201618  0.500000  1
  Co  Co11  1  0.556170  0.000000  0.500000  1
  Co  Co12  1  0.000000  0.556170  0.500000  1
  Co  Co13  1  0.443830  0.443830  0.500000  1
  Co  Co14  1  0.128051  0.485453  0.000000  1
  Co  Co15  1  0.514547  0.642597  0.000000  1
  Co  Co16  1  0.357403  0.871949  0.000000  1
  Co  Co17  1  0.642597  0.514547  0.000000  1
  Co  Co18  1  0.871949  0.357403  0.000000  1
  Co  Co19  1  0.485453  0.128051  0.000000  1
  Co  Co20  1  0.716331  0.000000  0.000000  1
  Co  Co21  1  0.000000  0.716331  0.000000  1
  Co  Co22  1  0.283669  0.283669  0.000000  1
  Co  Co23  1  0.000000  0.000000  0.500000  1
  Si  Si24  1  0.367663  0.000000  0.500000  1
  Si  Si25  1  0.000000  0.367663  0.500000  1
  Si  Si26  1  0.632337  0.632337  0.500000  1
  P  P27  1  0.314815  0.480945  0.000000  1
  P  P28  1  0.519055  0.833870  0.000000  1
  P  P29  1  0.166130  0.685185  0.000000  1
  P  P30  1  0.833870  0.519055  0.000000  1
  P  P31  1  0.685185  0.166130  0.000000  1
  P  P32  1  0.480945  0.314815  0.000000  1
  P  P33  1  0.819487  0.000000  0.500000  1
  P  P34  1  0.000000  0.819487  0.500000  1
  P  P35  1  0.180513  0.180513  0.500000  1
