# generated using pymatgen
data_MgAl2PdPt4
_symmetry_space_group_name_H-M   'P 1'
_cell_length_a   4.06568600
_cell_length_b   5.49484839
_cell_length_c   10.79274677
_cell_angle_alpha   89.72326599
_cell_angle_beta   90.00000000
_cell_angle_gamma   90.00000000
_symmetry_Int_Tables_number   1
_chemical_formula_structural   MgAl2PdPt4
_chemical_formula_sum   'Mg2 Al4 Pd2 Pt8'
_cell_volume   241.11069223
_cell_formula_units_Z   2
loop_
 _symmetry_equiv_pos_site_id
 _symmetry_equiv_pos_as_xyz
  1  'x, y, z'
loop_
 _atom_site_type_symbol
 _atom_site_label
 _atom_site_symmetry_multiplicity
 _atom_site_fract_x
 _atom_site_fract_y
 _atom_site_fract_z
 _atom_site_occupancy
  Mg  Mg0  1  0.500000  0.183226  0.639612  1
  Mg  Mg1  1  0.500000  0.816797  0.361391  1
  Al  Al2  1  0.500000  0.679895  0.856409  1
  Al  Al3  1  0.500000  0.321482  0.144171  1
  Al  Al4  1  0.000000  0.501819  0.498853  1
  Al  Al5  1  0.000000  0.000895  0.999355  1
  Pd  Pd6  1  0.000000  0.432263  0.742698  1
  Pd  Pd7  1  0.000000  0.501655  0.998948  1
  Pt  Pt8  1  0.500000  0.306834  0.388823  1
  Pt  Pt9  1  0.500000  0.691888  0.611743  1
  Pt  Pt10  1  0.500000  0.797600  0.101237  1
  Pt  Pt11  1  0.500000  0.202755  0.898798  1
  Pt  Pt12  1  0.000000  0.564909  0.256810  1
  Pt  Pt13  1  0.000000  0.928400  0.767882  1
  Pt  Pt14  1  0.000000  0.067552  0.232156  1
  Pt  Pt15  1  0.000000  0.002030  0.501114  1
