# generated using pymatgen
data_Y8GaPd11Pt13
_symmetry_space_group_name_H-M   'P 1'
_cell_length_a   8.37153500
_cell_length_b   8.37153500
_cell_length_c   8.36638800
_cell_angle_alpha   90.00000000
_cell_angle_beta   90.00000000
_cell_angle_gamma   90.00000000
_symmetry_Int_Tables_number   1
_chemical_formula_structural   Y8GaPd11Pt13
_chemical_formula_sum   'Y8 Ga1 Pd11 Pt13'
_cell_volume   586.33820906
_cell_formula_units_Z   1
loop_
 _symmetry_equiv_pos_site_id
 _symmetry_equiv_pos_as_xyz
  1  'x, y, z'
loop_
 _atom_site_type_symbol
 _atom_site_label
 _atom_site_symmetry_multiplicity
 _atom_site_fract_x
 _atom_site_fract_y
 _atom_site_fract_z
 _atom_site_occupancy
  Y  Y0  1  0.251728  0.251728  0.748330  1
  Y  Y1  1  0.251598  0.748402  0.251560  1
  Y  Y2  1  0.748402  0.251598  0.251560  1
  Y  Y3  1  0.748272  0.748272  0.748330  1
  Y  Y4  1  0.748402  0.748402  0.251560  1
  Y  Y5  1  0.748272  0.251728  0.748330  1
  Y  Y6  1  0.251728  0.748272  0.748330  1
  Y  Y7  1  0.251598  0.251598  0.251560  1
  Ga  Ga8  1  0.000000  0.000000  0.999977  1
  Pd  Pd9  1  0.500000  0.253125  0.500181  1
  Pd  Pd10  1  0.253125  0.500000  0.500181  1
  Pd  Pd11  1  0.500000  0.500000  0.253023  1
  Pd  Pd12  1  0.500000  0.746875  0.500181  1
  Pd  Pd13  1  0.746875  0.500000  0.500181  1
  Pd  Pd14  1  0.000000  0.000000  0.707108  1
  Pd  Pd15  1  0.000000  0.292699  0.000093  1
  Pd  Pd16  1  0.292699  0.000000  0.000093  1
  Pd  Pd17  1  0.000000  0.000000  0.292746  1
  Pd  Pd18  1  0.000000  0.707301  0.000093  1
  Pd  Pd19  1  0.707301  0.000000  0.000093  1
  Pt  Pt20  1  0.500000  0.500000  0.746936  1
  Pt  Pt21  1  0.000000  0.500000  0.739666  1
  Pt  Pt22  1  0.500000  0.260031  0.999938  1
  Pt  Pt23  1  0.260233  0.000000  0.499943  1
  Pt  Pt24  1  0.000000  0.260233  0.499943  1
  Pt  Pt25  1  0.500000  0.000000  0.739666  1
  Pt  Pt26  1  0.260031  0.500000  0.999938  1
  Pt  Pt27  1  0.000000  0.500000  0.260352  1
  Pt  Pt28  1  0.500000  0.739969  0.999938  1
  Pt  Pt29  1  0.000000  0.739767  0.499943  1
  Pt  Pt30  1  0.500000  0.000000  0.260352  1
  Pt  Pt31  1  0.739767  0.000000  0.499943  1
  Pt  Pt32  1  0.739969  0.500000  0.999938  1
