# generated using pymatgen
data_Rb(V3Se4)4
_symmetry_space_group_name_H-M   'P 1'
_cell_length_a   10.31262450
_cell_length_b   10.31262452
_cell_length_c   9.75508864
_cell_angle_alpha   61.71494207
_cell_angle_beta   61.71494147
_cell_angle_gamma   37.89565774
_symmetry_Int_Tables_number   1
_chemical_formula_structural   Rb(V3Se4)4
_chemical_formula_sum   'Rb1 V12 Se16'
_cell_volume   551.48835229
_cell_formula_units_Z   1
loop_
 _symmetry_equiv_pos_site_id
 _symmetry_equiv_pos_as_xyz
  1  'x, y, z'
loop_
 _atom_site_type_symbol
 _atom_site_label
 _atom_site_symmetry_multiplicity
 _atom_site_fract_x
 _atom_site_fract_y
 _atom_site_fract_z
 _atom_site_occupancy
  Rb  Rb0  1  0.374864  0.374864  0.999349  1
  V  V1  1  0.928927  0.928927  0.509364  1
  V  V2  1  0.428785  0.428785  0.515529  1
  V  V3  1  0.130374  0.130374  0.383693  1
  V  V4  1  0.632239  0.632239  0.375368  1
  V  V5  1  0.062488  0.062488  0.109997  1
  V  V6  1  0.566894  0.566894  0.105684  1
  V  V7  1  0.067729  0.575335  0.492577  1
  V  V8  1  0.575335  0.067729  0.492577  1
  V  V9  1  0.882703  0.359785  0.614703  1
  V  V10  1  0.359785  0.882703  0.614703  1
  V  V11  1  0.922340  0.442378  0.893009  1
  V  V12  1  0.442378  0.922340  0.893009  1
  Se  Se13  1  0.524091  0.524091  0.645851  1
  Se  Se14  1  0.017168  0.017168  0.657118  1
  Se  Se15  1  0.703654  0.703654  0.057807  1
  Se  Se16  1  0.197636  0.197636  0.057045  1
  Se  Se17  1  0.404200  0.404200  0.295307  1
  Se  Se18  1  0.902853  0.902853  0.287150  1
  Se  Se19  1  0.482927  0.982496  0.342025  1
  Se  Se20  1  0.982496  0.482927  0.342025  1
  Se  Se21  1  0.294909  0.797121  0.942674  1
  Se  Se22  1  0.797121  0.294909  0.942674  1
  Se  Se23  1  0.599669  0.093578  0.715290  1
  Se  Se24  1  0.093578  0.599669  0.715290  1
  Se  Se25  1  0.707290  0.707290  0.665490  1
  Se  Se26  1  0.209322  0.209322  0.667998  1
  Se  Se27  1  0.291414  0.791830  0.333346  1
  Se  Se28  1  0.791830  0.291414  0.333346  1
