# generated using pymatgen
data_TbDy7Ti11Si16Ag
_symmetry_space_group_name_H-M   'P 1'
_cell_length_a   7.07579492
_cell_length_b   7.07619665
_cell_length_c   12.92327669
_cell_angle_alpha   89.90897941
_cell_angle_beta   90.08349156
_cell_angle_gamma   89.59719529
_symmetry_Int_Tables_number   1
_chemical_formula_structural   TbDy7Ti11Si16Ag
_chemical_formula_sum   'Tb1 Dy7 Ti11 Si16 Ag1'
_cell_volume   647.04729270
_cell_formula_units_Z   1
loop_
 _symmetry_equiv_pos_site_id
 _symmetry_equiv_pos_as_xyz
  1  'x, y, z'
loop_
 _atom_site_type_symbol
 _atom_site_label
 _atom_site_symmetry_multiplicity
 _atom_site_fract_x
 _atom_site_fract_y
 _atom_site_fract_z
 _atom_site_occupancy
  Tb  Tb0  1  0.997455  0.659421  0.033358  1
  Dy  Dy1  1  0.999155  0.343715  0.531762  1
  Dy  Dy2  1  0.659183  0.997711  0.966572  1
  Dy  Dy3  1  0.159741  0.502399  0.783317  1
  Dy  Dy4  1  0.841746  0.498878  0.285528  1
  Dy  Dy5  1  0.502420  0.159673  0.216628  1
  Dy  Dy6  1  0.498882  0.841764  0.714520  1
  Dy  Dy7  1  0.343701  0.999164  0.468263  1
  Ti  Ti8  1  0.349240  0.505392  0.376245  1
  Ti  Ti9  1  0.851825  0.991686  0.377154  1
  Ti  Ti10  1  0.008358  0.150759  0.125372  1
  Ti  Ti11  1  0.991659  0.851848  0.622835  1
  Ti  Ti12  1  0.505364  0.349224  0.623766  1
  Ti  Ti13  1  0.150762  0.008392  0.874617  1
  Ti  Ti14  1  0.825902  0.173452  0.749970  1
  Ti  Ti15  1  0.173460  0.825936  0.250081  1
  Ti  Ti16  1  0.327349  0.327174  0.999982  1
  Ti  Ti17  1  0.491448  0.649929  0.125544  1
  Ti  Ti18  1  0.649877  0.491377  0.874444  1
  Si  Si19  1  0.061948  0.714053  0.433719  1
  Si  Si20  1  0.952335  0.290511  0.935551  1
  Si  Si21  1  0.714045  0.061938  0.566261  1
  Si  Si22  1  0.209060  0.453206  0.185678  1
  Si  Si23  1  0.792070  0.544489  0.691193  1
  Si  Si24  1  0.453351  0.208899  0.814457  1
  Si  Si25  1  0.544480  0.792085  0.308805  1
  Si  Si26  1  0.290963  0.952532  0.064368  1
  Si  Si27  1  0.797969  0.868372  0.184926  1
  Si  Si28  1  0.281437  0.626039  0.570377  1
  Si  Si29  1  0.704915  0.369327  0.066885  1
  Si  Si30  1  0.626030  0.281431  0.429620  1
  Si  Si31  1  0.369757  0.705136  0.933051  1
  Si  Si32  1  0.131879  0.202156  0.317048  1
  Si  Si33  1  0.202165  0.131850  0.682960  1
  Si  Si34  1  0.868197  0.798207  0.815140  1
  Ag  Ag35  1  0.671871  0.671872  0.500003  1
