# generated using pymatgen
data_Dy4Ho4Si12Pt3Rh
_symmetry_space_group_name_H-M   'P 1'
_cell_length_a   8.17038406
_cell_length_b   8.16873163
_cell_length_c   7.92425700
_cell_angle_alpha   89.99999784
_cell_angle_beta   90.00259167
_cell_angle_gamma   119.99331146
_symmetry_Int_Tables_number   1
_chemical_formula_structural   Dy4Ho4Si12Pt3Rh
_chemical_formula_sum   'Dy4 Ho4 Si12 Pt3 Rh1'
_cell_volume   458.05280799
_cell_formula_units_Z   1
loop_
 _symmetry_equiv_pos_site_id
 _symmetry_equiv_pos_as_xyz
  1  'x, y, z'
loop_
 _atom_site_type_symbol
 _atom_site_label
 _atom_site_symmetry_multiplicity
 _atom_site_fract_x
 _atom_site_fract_y
 _atom_site_fract_z
 _atom_site_occupancy
  Dy  Dy0  1  0.000008  0.000004  0.249555  1
  Dy  Dy1  1  0.000015  0.000007  0.751116  1
  Dy  Dy2  1  0.508978  0.491080  0.247896  1
  Dy  Dy3  1  0.508978  0.017898  0.247896  1
  Ho  Ho4  1  0.982295  0.491147  0.247854  1
  Ho  Ho5  1  0.489663  0.510309  0.751961  1
  Ho  Ho6  1  0.489663  0.979353  0.751961  1
  Ho  Ho7  1  0.020670  0.510335  0.751974  1
  Si  Si8  1  0.165074  0.834698  0.499450  1
  Si  Si9  1  0.165074  0.330375  0.499450  1
  Si  Si10  1  0.669525  0.834762  0.499478  1
  Si  Si11  1  0.834838  0.165467  0.500736  1
  Si  Si12  1  0.834838  0.669371  0.500736  1
  Si  Si13  1  0.330653  0.165327  0.500838  1
  Si  Si14  1  0.835699  0.164627  0.998990  1
  Si  Si15  1  0.835699  0.671072  0.998990  1
  Si  Si16  1  0.329007  0.164504  0.998879  1
  Si  Si17  1  0.167321  0.832319  0.000846  1
  Si  Si18  1  0.167321  0.335002  0.000846  1
  Si  Si19  1  0.664930  0.832465  0.000799  1
  Pt  Pt20  1  0.333044  0.666523  0.465032  1
  Pt  Pt21  1  0.666808  0.333404  0.533366  1
  Pt  Pt22  1  0.666804  0.333402  0.966402  1
  Rh  Rh23  1  0.333096  0.666549  0.034947  1
