# generated using pymatgen
data_ScTi2(ReP)3
_symmetry_space_group_name_H-M   'P 1'
_cell_length_a   7.43069726
_cell_length_b   7.43069728
_cell_length_c   7.43069747
_cell_angle_alpha   127.16540897
_cell_angle_beta   124.37602907
_cell_angle_gamma   80.28543937
_symmetry_Int_Tables_number   1
_chemical_formula_structural   ScTi2(ReP)3
_chemical_formula_sum   'Sc2 Ti4 Re6 P6'
_cell_volume   260.42269155
_cell_formula_units_Z   2
loop_
 _symmetry_equiv_pos_site_id
 _symmetry_equiv_pos_as_xyz
  1  'x, y, z'
loop_
 _atom_site_type_symbol
 _atom_site_label
 _atom_site_symmetry_multiplicity
 _atom_site_fract_x
 _atom_site_fract_y
 _atom_site_fract_z
 _atom_site_occupancy
  Sc  Sc0  1  0.462845  0.243916  0.281070  1
  Sc  Sc1  1  0.537155  0.818225  0.781070  1
  Ti  Ti2  1  0.745012  0.658462  0.413449  1
  Ti  Ti3  1  0.254988  0.668437  0.913449  1
  Ti  Ti4  1  0.055345  0.843493  0.288148  1
  Ti  Ti5  1  0.944655  0.232802  0.788148  1
  Re  Re6  1  0.663796  0.498806  0.910722  1
  Re  Re7  1  0.336204  0.246925  0.835009  1
  Re  Re8  1  0.911917  0.246925  0.410722  1
  Re  Re9  1  0.088083  0.498806  0.335009  1
  Re  Re10  1  0.000000  0.993748  0.993748  1
  Re  Re11  1  0.500000  0.993748  0.493748  1
  P  P12  1  0.842848  0.575204  0.751710  1
  P  P13  1  0.157152  0.908861  0.732356  1
  P  P14  1  0.676505  0.908861  0.251710  1
  P  P15  1  0.323495  0.575204  0.232356  1
  P  P16  1  0.276923  0.290910  0.513986  1
  P  P17  1  0.723077  0.237064  0.013986  1
