# generated using pymatgen
data_BaNdLu2(AsPt)4
_symmetry_space_group_name_H-M   'P 1'
_cell_length_a   4.30685900
_cell_length_b   4.30686035
_cell_length_c   16.41636000
_cell_angle_alpha   90.00000000
_cell_angle_beta   90.00000000
_cell_angle_gamma   120.00001266
_symmetry_Int_Tables_number   1
_chemical_formula_structural   BaNdLu2(AsPt)4
_chemical_formula_sum   'Ba1 Nd1 Lu2 As4 Pt4'
_cell_volume   263.71138990
_cell_formula_units_Z   1
loop_
 _symmetry_equiv_pos_site_id
 _symmetry_equiv_pos_as_xyz
  1  'x, y, z'
loop_
 _atom_site_type_symbol
 _atom_site_label
 _atom_site_symmetry_multiplicity
 _atom_site_fract_x
 _atom_site_fract_y
 _atom_site_fract_z
 _atom_site_occupancy
  Ba  Ba0  1  0.000000  0.000000  0.500000  1
  Nd  Nd1  1  0.000000  0.000000  0.000000  1
  Lu  Lu2  1  0.000000  0.000000  0.239049  1
  Lu  Lu3  1  0.000000  0.000000  0.760951  1
  As  As4  1  0.333333  0.666667  0.886476  1
  As  As5  1  0.666667  0.333333  0.113524  1
  As  As6  1  0.666667  0.333333  0.358875  1
  As  As7  1  0.333333  0.666667  0.641125  1
  Pt  Pt8  1  0.333333  0.666667  0.336112  1
  Pt  Pt9  1  0.666667  0.333333  0.663888  1
  Pt  Pt10  1  0.666667  0.333333  0.864541  1
  Pt  Pt11  1  0.333333  0.666667  0.135459  1
