# generated using pymatgen
data_TbPr3Al16(SiIr3)2
_symmetry_space_group_name_H-M   'P 1'
_cell_length_a   7.60025861
_cell_length_b   7.60739335
_cell_length_c   9.48077300
_cell_angle_alpha   90.00000000
_cell_angle_beta   90.00000000
_cell_angle_gamma   119.63780438
_symmetry_Int_Tables_number   1
_chemical_formula_structural   TbPr3Al16(SiIr3)2
_chemical_formula_sum   'Tb1 Pr3 Al16 Si2 Ir6'
_cell_volume   476.44429991
_cell_formula_units_Z   1
loop_
 _symmetry_equiv_pos_site_id
 _symmetry_equiv_pos_as_xyz
  1  'x, y, z'
loop_
 _atom_site_type_symbol
 _atom_site_label
 _atom_site_symmetry_multiplicity
 _atom_site_fract_x
 _atom_site_fract_y
 _atom_site_fract_z
 _atom_site_occupancy
  Tb  Tb0  1  0.324632  0.005101  0.750000  1
  Pr  Pr1  1  0.995254  0.674683  0.250000  1
  Pr  Pr2  1  0.005076  0.325589  0.750000  1
  Pr  Pr3  1  0.674206  0.994865  0.250000  1
  Al  Al4  1  0.003791  0.336528  0.073819  1
  Al  Al5  1  0.998417  0.665472  0.923582  1
  Al  Al6  1  0.998417  0.665472  0.576418  1
  Al  Al7  1  0.336463  0.003473  0.428577  1
  Al  Al8  1  0.003791  0.336528  0.426181  1
  Al  Al9  1  0.661441  0.996742  0.576229  1
  Al  Al10  1  0.661441  0.996742  0.923771  1
  Al  Al11  1  0.336463  0.003473  0.071423  1
  Al  Al12  1  0.337260  0.335592  0.554840  1
  Al  Al13  1  0.662663  0.662605  0.448781  1
  Al  Al14  1  0.662663  0.662605  0.051219  1
  Al  Al15  1  0.337260  0.335592  0.945160  1
  Al  Al16  1  0.335624  0.545952  0.250000  1
  Al  Al17  1  0.661560  0.450769  0.750000  1
  Al  Al18  1  0.545319  0.334546  0.250000  1
  Al  Al19  1  0.453325  0.666255  0.750000  1
  Si  Si20  1  0.132688  0.131984  0.250000  1
  Si  Si21  1  0.870810  0.868963  0.750000  1
  Ir  Ir22  1  0.670470  0.328795  0.999215  1
  Ir  Ir23  1  0.329212  0.671233  0.999285  1
  Ir  Ir24  1  0.329212  0.671233  0.500715  1
  Ir  Ir25  1  0.670470  0.328795  0.500785  1
  Ir  Ir26  1  0.001037  0.000205  0.998544  1
  Ir  Ir27  1  0.001037  0.000205  0.501456  1
