# generated using pymatgen
data_La4Pd3PtF28
_symmetry_space_group_name_H-M   'P 1'
_cell_length_a   5.78708003
_cell_length_b   9.27794593
_cell_length_c   12.43472012
_cell_angle_alpha   62.00321720
_cell_angle_beta   89.99690410
_cell_angle_gamma   90.00783123
_symmetry_Int_Tables_number   1
_chemical_formula_structural   La4Pd3PtF28
_chemical_formula_sum   'La4 Pd3 Pt1 F28'
_cell_volume   589.51549401
_cell_formula_units_Z   1
loop_
 _symmetry_equiv_pos_site_id
 _symmetry_equiv_pos_as_xyz
  1  'x, y, z'
loop_
 _atom_site_type_symbol
 _atom_site_label
 _atom_site_symmetry_multiplicity
 _atom_site_fract_x
 _atom_site_fract_y
 _atom_site_fract_z
 _atom_site_occupancy
  La  La0  1  0.760396  0.809752  0.264648  1
  La  La1  1  0.260726  0.190626  0.234737  1
  La  La2  1  0.239270  0.189706  0.735131  1
  La  La3  1  0.739142  0.809794  0.765750  1
  Pd  Pd4  1  0.742990  0.273850  0.956522  1
  Pd  Pd5  1  0.757030  0.273843  0.456500  1
  Pd  Pd6  1  0.256973  0.726092  0.043529  1
  Pt  Pt7  1  0.243033  0.726141  0.543493  1
  F  F8  1  0.962612  0.713641  0.458536  1
  F  F9  1  0.465020  0.286323  0.040699  1
  F  F10  1  0.035021  0.286335  0.540722  1
  F  F11  1  0.534948  0.713650  0.959333  1
  F  F12  1  0.061083  0.706444  0.923671  1
  F  F13  1  0.561027  0.293558  0.576353  1
  F  F14  1  0.938927  0.293545  0.076331  1
  F  F15  1  0.440762  0.706288  0.422541  1
  F  F16  1  0.737036  0.511356  0.861069  1
  F  F17  1  0.237113  0.486619  0.639672  1
  F  F18  1  0.262955  0.488633  0.138941  1
  F  F19  1  0.763016  0.511349  0.361014  1
  F  F20  1  0.741502  0.036463  0.047411  1
  F  F21  1  0.241487  0.965766  0.451662  1
  F  F22  1  0.258503  0.963524  0.952587  1
  F  F23  1  0.758495  0.036357  0.547468  1
  F  F24  1  0.048441  0.742116  0.667532  1
  F  F25  1  0.549967  0.258088  0.833411  1
  F  F26  1  0.950009  0.258134  0.333369  1
  F  F27  1  0.449993  0.741902  0.166573  1
  F  F28  1  0.016417  0.269446  0.866760  1
  F  F29  1  0.518910  0.730697  0.633991  1
  F  F30  1  0.983600  0.730548  0.133237  1
  F  F31  1  0.483626  0.269507  0.366722  1
  F  F32  1  0.089512  0.968742  0.231748  1
  F  F33  1  0.589378  0.031171  0.268380  1
  F  F34  1  0.910558  0.031274  0.768336  1
  F  F35  1  0.410522  0.968724  0.731618  1
