# generated using pymatgen
data_NaTmNb6(Co4P3)4
_symmetry_space_group_name_H-M   'P 1'
_cell_length_a   11.98970400
_cell_length_b   11.98970465
_cell_length_c   3.61980600
_cell_angle_alpha   90.00000000
_cell_angle_beta   90.00000000
_cell_angle_gamma   119.99999820
_symmetry_Int_Tables_number   1
_chemical_formula_structural   NaTmNb6(Co4P3)4
_chemical_formula_sum   'Na1 Tm1 Nb6 Co16 P12'
_cell_volume   450.64326168
_cell_formula_units_Z   1
loop_
 _symmetry_equiv_pos_site_id
 _symmetry_equiv_pos_as_xyz
  1  'x, y, z'
loop_
 _atom_site_type_symbol
 _atom_site_label
 _atom_site_symmetry_multiplicity
 _atom_site_fract_x
 _atom_site_fract_y
 _atom_site_fract_z
 _atom_site_occupancy
  Na  Na0  1  0.333333  0.666667  0.000000  1
  Tm  Tm1  1  0.666667  0.333333  0.000000  1
  Nb  Nb2  1  0.820426  0.999728  0.500000  1
  Nb  Nb3  1  0.000272  0.820697  0.500000  1
  Nb  Nb4  1  0.179303  0.179574  0.500000  1
  Nb  Nb5  1  0.444005  0.998962  0.000000  1
  Nb  Nb6  1  0.001038  0.445043  0.000000  1
  Nb  Nb7  1  0.554957  0.555995  0.000000  1
  Co  Co8  1  0.272979  0.999622  0.500000  1
  Co  Co9  1  0.000378  0.273358  0.500000  1
  Co  Co10  1  0.726642  0.727021  0.500000  1
  Co  Co11  1  0.635699  0.809308  0.000000  1
  Co  Co12  1  0.190692  0.826392  0.000000  1
  Co  Co13  1  0.173608  0.364301  0.000000  1
  Co  Co14  1  0.365262  0.175742  0.000000  1
  Co  Co15  1  0.810481  0.634738  0.000000  1
  Co  Co16  1  0.824258  0.189519  0.000000  1
  Co  Co17  1  0.525765  0.877215  0.500000  1
  Co  Co18  1  0.122785  0.648550  0.500000  1
  Co  Co19  1  0.351450  0.474235  0.500000  1
  Co  Co20  1  0.479718  0.352019  0.500000  1
  Co  Co21  1  0.872301  0.520282  0.500000  1
  Co  Co22  1  0.647981  0.127699  0.500000  1
  Co  Co23  1  0.000000  0.000000  0.000000  1
  P  P24  1  0.172504  0.000247  0.000000  1
  P  P25  1  0.999753  0.172258  0.000000  1
  P  P26  1  0.827742  0.827496  0.000000  1
  P  P27  1  0.518399  0.689232  0.500000  1
  P  P28  1  0.310768  0.829166  0.500000  1
  P  P29  1  0.170834  0.481601  0.500000  1
  P  P30  1  0.478433  0.167486  0.500000  1
  P  P31  1  0.689052  0.521567  0.500000  1
  P  P32  1  0.832514  0.310948  0.500000  1
  P  P33  1  0.647480  0.999001  0.000000  1
  P  P34  1  0.000999  0.648480  0.000000  1
  P  P35  1  0.351520  0.352520  0.000000  1
