# generated using pymatgen
data_TbDyGa9Ir2Pt
_symmetry_space_group_name_H-M   'P 1'
_cell_length_a   7.64089500
_cell_length_b   7.64089203
_cell_length_c   9.50727100
_cell_angle_alpha   90.00000000
_cell_angle_beta   90.00000000
_cell_angle_gamma   119.90064319
_symmetry_Int_Tables_number   1
_chemical_formula_structural   TbDyGa9Ir2Pt
_chemical_formula_sum   'Tb2 Dy2 Ga18 Ir4 Pt2'
_cell_volume   481.18129785
_cell_formula_units_Z   2
loop_
 _symmetry_equiv_pos_site_id
 _symmetry_equiv_pos_as_xyz
  1  'x, y, z'
loop_
 _atom_site_type_symbol
 _atom_site_label
 _atom_site_symmetry_multiplicity
 _atom_site_fract_x
 _atom_site_fract_y
 _atom_site_fract_z
 _atom_site_occupancy
  Tb  Tb0  1  0.669737  0.996609  0.250000  1
  Tb  Tb1  1  0.330263  0.003391  0.750000  1
  Dy  Dy2  1  0.996610  0.669731  0.250000  1
  Dy  Dy3  1  0.003390  0.330269  0.750000  1
  Ga  Ga4  1  0.131591  0.131579  0.250000  1
  Ga  Ga5  1  0.868409  0.868421  0.750000  1
  Ga  Ga6  1  0.998649  0.337716  0.080959  1
  Ga  Ga7  1  0.001351  0.662284  0.919041  1
  Ga  Ga8  1  0.001351  0.662284  0.580959  1
  Ga  Ga9  1  0.337663  0.998623  0.419025  1
  Ga  Ga10  1  0.998649  0.337716  0.419041  1
  Ga  Ga11  1  0.662337  0.001377  0.580975  1
  Ga  Ga12  1  0.662337  0.001377  0.919025  1
  Ga  Ga13  1  0.337663  0.998623  0.080975  1
  Ga  Ga14  1  0.335707  0.335731  0.567080  1
  Ga  Ga15  1  0.664293  0.664269  0.432920  1
  Ga  Ga16  1  0.664293  0.664269  0.067080  1
  Ga  Ga17  1  0.335707  0.335731  0.932920  1
  Ga  Ga18  1  0.337441  0.546545  0.250000  1
  Ga  Ga19  1  0.662559  0.453455  0.750000  1
  Ga  Ga20  1  0.546563  0.337469  0.250000  1
  Ga  Ga21  1  0.453437  0.662531  0.750000  1
  Ir  Ir22  1  0.671189  0.328839  0.000000  1
  Ir  Ir23  1  0.328811  0.671161  0.000000  1
  Ir  Ir24  1  0.328811  0.671161  0.500000  1
  Ir  Ir25  1  0.671189  0.328839  0.500000  1
  Pt  Pt26  1  0.000000  0.000000  0.000000  1
  Pt  Pt27  1  0.000000  0.000000  0.500000  1
