# generated using pymatgen
data_Er6MnB14Ru
_symmetry_space_group_name_H-M   'P 1'
_cell_length_a   7.97661056
_cell_length_b   7.97661072
_cell_length_c   9.24838100
_cell_angle_alpha   90.00000000
_cell_angle_beta   90.00000000
_cell_angle_gamma   154.96717237
_symmetry_Int_Tables_number   1
_chemical_formula_structural   Er6MnB14Ru
_chemical_formula_sum   'Er6 Mn1 B14 Ru1'
_cell_volume   248.99118720
_cell_formula_units_Z   1
loop_
 _symmetry_equiv_pos_site_id
 _symmetry_equiv_pos_as_xyz
  1  'x, y, z'
loop_
 _atom_site_type_symbol
 _atom_site_label
 _atom_site_symmetry_multiplicity
 _atom_site_fract_x
 _atom_site_fract_y
 _atom_site_fract_z
 _atom_site_occupancy
  Er  Er0  1  0.894599  0.105401  0.442574  1
  Er  Er1  1  0.104832  0.895168  0.563338  1
  Er  Er2  1  0.894599  0.105401  0.057426  1
  Er  Er3  1  0.104832  0.895168  0.936662  1
  Er  Er4  1  0.243760  0.756240  0.250000  1
  Er  Er5  1  0.759083  0.240917  0.750000  1
  Mn  Mn6  1  0.947154  0.052846  0.750000  1
  B  B7  1  0.727285  0.272715  0.466263  1
  B  B8  1  0.272289  0.727711  0.533644  1
  B  B9  1  0.727285  0.272715  0.033737  1
  B  B10  1  0.272289  0.727711  0.966356  1
  B  B11  1  0.631795  0.368205  0.150178  1
  B  B12  1  0.369771  0.630229  0.846772  1
  B  B13  1  0.631795  0.368205  0.349822  1
  B  B14  1  0.369771  0.630229  0.653228  1
  B  B15  1  0.519973  0.480027  0.094943  1
  B  B16  1  0.478867  0.521133  0.902139  1
  B  B17  1  0.519973  0.480027  0.405057  1
  B  B18  1  0.478867  0.521133  0.597861  1
  B  B19  1  0.455578  0.544422  0.250000  1
  B  B20  1  0.541941  0.458059  0.750000  1
  Ru  Ru21  1  0.053666  0.946334  0.250000  1
