# generated using pymatgen
data_YSc2Al7Cu2
_symmetry_space_group_name_H-M   'P 1'
_cell_length_a   8.94072490
_cell_length_b   8.94072510
_cell_length_c   8.94072535
_cell_angle_alpha   35.01592181
_cell_angle_beta   35.01591596
_cell_angle_gamma   35.01592110
_symmetry_Int_Tables_number   1
_chemical_formula_structural   YSc2Al7Cu2
_chemical_formula_sum   'Y1 Sc2 Al7 Cu2'
_cell_volume   210.11189318
_cell_formula_units_Z   1
loop_
 _symmetry_equiv_pos_site_id
 _symmetry_equiv_pos_as_xyz
  1  'x, y, z'
loop_
 _atom_site_type_symbol
 _atom_site_label
 _atom_site_symmetry_multiplicity
 _atom_site_fract_x
 _atom_site_fract_y
 _atom_site_fract_z
 _atom_site_occupancy
  Y  Y0  1  0.000000  0.000000  0.000000  1
  Sc  Sc1  1  0.856735  0.856735  0.856735  1
  Sc  Sc2  1  0.143265  0.143265  0.143265  1
  Al  Al3  1  0.416049  0.416049  0.925348  1
  Al  Al4  1  0.925348  0.416049  0.416049  1
  Al  Al5  1  0.416049  0.925348  0.416049  1
  Al  Al6  1  0.500000  0.500000  0.500000  1
  Al  Al7  1  0.583951  0.074652  0.583951  1
  Al  Al8  1  0.074652  0.583951  0.583951  1
  Al  Al9  1  0.583951  0.583951  0.074652  1
  Cu  Cu10  1  0.664930  0.664930  0.664930  1
  Cu  Cu11  1  0.335070  0.335070  0.335070  1
