# generated using pymatgen
data_Ho5Er(Lu2Si3)2
_symmetry_space_group_name_H-M   'P 1'
_cell_length_a   8.34347300
_cell_length_b   8.34138795
_cell_length_c   6.22535500
_cell_angle_alpha   90.00000000
_cell_angle_beta   90.00000000
_cell_angle_gamma   120.00828099
_symmetry_Int_Tables_number   1
_chemical_formula_structural   Ho5Er(Lu2Si3)2
_chemical_formula_sum   'Ho5 Er1 Lu4 Si6'
_cell_volume   375.18346786
_cell_formula_units_Z   1
loop_
 _symmetry_equiv_pos_site_id
 _symmetry_equiv_pos_as_xyz
  1  'x, y, z'
loop_
 _atom_site_type_symbol
 _atom_site_label
 _atom_site_symmetry_multiplicity
 _atom_site_fract_x
 _atom_site_fract_y
 _atom_site_fract_z
 _atom_site_occupancy
  Ho  Ho0  1  0.756892  0.757039  0.250000  1
  Ho  Ho1  1  0.999853  0.242961  0.250000  1
  Ho  Ho2  1  0.000006  0.756985  0.750000  1
  Ho  Ho3  1  0.243021  0.243015  0.750000  1
  Ho  Ho4  1  0.243154  0.000000  0.250000  1
  Er  Er5  1  0.757037  0.000000  0.750000  1
  Lu  Lu6  1  0.666663  0.333278  0.999971  1
  Lu  Lu7  1  0.333384  0.666722  0.500029  1
  Lu  Lu8  1  0.333384  0.666722  0.999971  1
  Lu  Lu9  1  0.666663  0.333278  0.500029  1
  Si  Si10  1  0.395769  0.000000  0.750000  1
  Si  Si11  1  0.395653  0.395675  0.250000  1
  Si  Si12  1  0.999978  0.604325  0.250000  1
  Si  Si13  1  0.999828  0.395457  0.750000  1
  Si  Si14  1  0.604371  0.604543  0.750000  1
  Si  Si15  1  0.604343  0.000000  0.250000  1
