# generated using pymatgen
data_Ho2AlSi13Ir6
_symmetry_space_group_name_H-M   'P 1'
_cell_length_a   8.02213310
_cell_length_b   8.02213271
_cell_length_c   8.02213174
_cell_angle_alpha   57.03603446
_cell_angle_beta   57.03604144
_cell_angle_gamma   57.03603317
_symmetry_Int_Tables_number   1
_chemical_formula_structural   Ho2AlSi13Ir6
_chemical_formula_sum   'Ho2 Al1 Si13 Ir6'
_cell_volume   340.10781576
_cell_formula_units_Z   1
loop_
 _symmetry_equiv_pos_site_id
 _symmetry_equiv_pos_as_xyz
  1  'x, y, z'
loop_
 _atom_site_type_symbol
 _atom_site_label
 _atom_site_symmetry_multiplicity
 _atom_site_fract_x
 _atom_site_fract_y
 _atom_site_fract_z
 _atom_site_occupancy
  Ho  Ho0  1  0.999437  0.999437  0.999437  1
  Ho  Ho1  1  0.500563  0.500563  0.500563  1
  Al  Al2  1  0.750000  0.750000  0.750000  1
  Si  Si3  1  0.250000  0.250000  0.250000  1
  Si  Si4  1  0.850215  0.064587  0.671163  1
  Si  Si5  1  0.671163  0.850215  0.064587  1
  Si  Si6  1  0.064587  0.671163  0.850215  1
  Si  Si7  1  0.649785  0.828837  0.435413  1
  Si  Si8  1  0.435413  0.649785  0.828837  1
  Si  Si9  1  0.828837  0.435413  0.649785  1
  Si  Si10  1  0.169909  0.561969  0.355949  1
  Si  Si11  1  0.561969  0.355949  0.169909  1
  Si  Si12  1  0.355949  0.169909  0.561969  1
  Si  Si13  1  0.938031  0.330091  0.144051  1
  Si  Si14  1  0.330091  0.144051  0.938031  1
  Si  Si15  1  0.144051  0.938031  0.330091  1
  Ir  Ir16  1  0.080988  0.419012  0.750000  1
  Ir  Ir17  1  0.250000  0.928412  0.571588  1
  Ir  Ir18  1  0.571588  0.250000  0.928412  1
  Ir  Ir19  1  0.928412  0.571588  0.250000  1
  Ir  Ir20  1  0.419012  0.750000  0.080988  1
  Ir  Ir21  1  0.750000  0.080988  0.419012  1
