# generated using pymatgen
data_Nd5Zr3(P3Pd4)4
_symmetry_space_group_name_H-M   'P 1'
_cell_length_a   13.20672400
_cell_length_b   13.20672271
_cell_length_c   4.07250200
_cell_angle_alpha   90.00000000
_cell_angle_beta   90.00000000
_cell_angle_gamma   120.00000322
_symmetry_Int_Tables_number   1
_chemical_formula_structural   Nd5Zr3(P3Pd4)4
_chemical_formula_sum   'Nd5 Zr3 P12 Pd16'
_cell_volume   615.15149710
_cell_formula_units_Z   1
loop_
 _symmetry_equiv_pos_site_id
 _symmetry_equiv_pos_as_xyz
  1  'x, y, z'
loop_
 _atom_site_type_symbol
 _atom_site_label
 _atom_site_symmetry_multiplicity
 _atom_site_fract_x
 _atom_site_fract_y
 _atom_site_fract_z
 _atom_site_occupancy
  Nd  Nd0  1  0.188793  0.188793  0.500000  1
  Nd  Nd1  1  0.811207  0.000000  0.500000  1
  Nd  Nd2  1  0.000000  0.811207  0.500000  1
  Nd  Nd3  1  0.333333  0.666667  0.000000  1
  Nd  Nd4  1  0.666667  0.333333  0.000000  1
  Zr  Zr5  1  0.555444  0.555444  0.000000  1
  Zr  Zr6  1  0.444556  0.000000  0.000000  1
  Zr  Zr7  1  0.000000  0.444556  0.000000  1
  P  P8  1  0.824525  0.824525  0.000000  1
  P  P9  1  0.175475  0.000000  0.000000  1
  P  P10  1  0.000000  0.175475  0.000000  1
  P  P11  1  0.163896  0.479779  0.500000  1
  P  P12  1  0.520221  0.684117  0.500000  1
  P  P13  1  0.315883  0.836104  0.500000  1
  P  P14  1  0.684117  0.520221  0.500000  1
  P  P15  1  0.836104  0.315883  0.500000  1
  P  P16  1  0.479779  0.163896  0.500000  1
  P  P17  1  0.360712  0.360712  0.000000  1
  P  P18  1  0.639288  0.000000  0.000000  1
  P  P19  1  0.000000  0.639288  0.000000  1
  Pd  Pd20  1  0.723495  0.723495  0.500000  1
  Pd  Pd21  1  0.276505  0.000000  0.500000  1
  Pd  Pd22  1  0.000000  0.276505  0.500000  1
  Pd  Pd23  1  0.183453  0.374551  0.000000  1
  Pd  Pd24  1  0.625449  0.808902  0.000000  1
  Pd  Pd25  1  0.191098  0.816547  0.000000  1
  Pd  Pd26  1  0.808902  0.625449  0.000000  1
  Pd  Pd27  1  0.816547  0.191098  0.000000  1
  Pd  Pd28  1  0.374551  0.183453  0.000000  1
  Pd  Pd29  1  0.357454  0.487474  0.500000  1
  Pd  Pd30  1  0.512526  0.869980  0.500000  1
  Pd  Pd31  1  0.130020  0.642546  0.500000  1
  Pd  Pd32  1  0.869980  0.512526  0.500000  1
  Pd  Pd33  1  0.642546  0.130020  0.500000  1
  Pd  Pd34  1  0.487474  0.357454  0.500000  1
  Pd  Pd35  1  0.000000  0.000000  0.000000  1
