# generated using pymatgen
data_Nd2B8Os5Rh3
_symmetry_space_group_name_H-M   'P 1'
_cell_length_a   7.61306652
_cell_length_b   7.58873615
_cell_length_c   4.02401535
_cell_angle_alpha   90.02047260
_cell_angle_beta   90.04314723
_cell_angle_gamma   89.89809634
_symmetry_Int_Tables_number   1
_chemical_formula_structural   Nd2B8Os5Rh3
_chemical_formula_sum   'Nd2 B8 Os5 Rh3'
_cell_volume   232.48121618
_cell_formula_units_Z   1
loop_
 _symmetry_equiv_pos_site_id
 _symmetry_equiv_pos_as_xyz
  1  'x, y, z'
loop_
 _atom_site_type_symbol
 _atom_site_label
 _atom_site_symmetry_multiplicity
 _atom_site_fract_x
 _atom_site_fract_y
 _atom_site_fract_z
 _atom_site_occupancy
  Nd  Nd0  1  0.498965  0.500667  0.996230  1
  Nd  Nd1  1  0.998532  0.999967  0.489653  1
  B  B2  1  0.653880  0.775270  0.606336  1
  B  B3  1  0.165158  0.289961  0.890362  1
  B  B4  1  0.288738  0.831284  0.111817  1
  B  B5  1  0.717842  0.164361  0.108427  1
  B  B6  1  0.332963  0.211971  0.610240  1
  B  B7  1  0.835114  0.713301  0.886795  1
  B  B8  1  0.219108  0.664660  0.393120  1
  B  B9  1  0.787845  0.336121  0.389382  1
  Os  Os10  1  0.107099  0.646698  0.892431  1
  Os  Os11  1  0.146390  0.391980  0.392596  1
  Os  Os12  1  0.852275  0.608041  0.390218  1
  Os  Os13  1  0.891928  0.352853  0.890750  1
  Os  Os14  1  0.389658  0.856753  0.614027  1
  Rh  Rh15  1  0.351242  0.114080  0.111884  1
  Rh  Rh16  1  0.652505  0.891415  0.112250  1
  Rh  Rh17  1  0.610758  0.150614  0.613485  1
