# generated using pymatgen
data_Dy5BPt13Rh2
_symmetry_space_group_name_H-M   'P 1'
_cell_length_a   4.18804500
_cell_length_b   4.18804500
_cell_length_c   20.40876400
_cell_angle_alpha   90.00000000
_cell_angle_beta   90.00000000
_cell_angle_gamma   90.00000000
_symmetry_Int_Tables_number   1
_chemical_formula_structural   Dy5BPt13Rh2
_chemical_formula_sum   'Dy5 B1 Pt13 Rh2'
_cell_volume   357.96402492
_cell_formula_units_Z   1
loop_
 _symmetry_equiv_pos_site_id
 _symmetry_equiv_pos_as_xyz
  1  'x, y, z'
loop_
 _atom_site_type_symbol
 _atom_site_label
 _atom_site_symmetry_multiplicity
 _atom_site_fract_x
 _atom_site_fract_y
 _atom_site_fract_z
 _atom_site_occupancy
  Dy  Dy0  1  0.000000  0.000000  0.897824  1
  Dy  Dy1  1  0.000000  0.000000  0.102176  1
  Dy  Dy2  1  0.000000  0.000000  0.301788  1
  Dy  Dy3  1  0.000000  0.000000  0.500000  1
  Dy  Dy4  1  0.000000  0.000000  0.698212  1
  B  B5  1  0.500000  0.500000  0.000000  1
  Pt  Pt6  1  0.500000  0.500000  0.895403  1
  Pt  Pt7  1  0.500000  0.500000  0.104597  1
  Pt  Pt8  1  0.500000  0.500000  0.301703  1
  Pt  Pt9  1  0.500000  0.500000  0.500000  1
  Pt  Pt10  1  0.500000  0.500000  0.698297  1
  Pt  Pt11  1  0.500000  0.000000  0.202055  1
  Pt  Pt12  1  0.500000  0.000000  0.400999  1
  Pt  Pt13  1  0.500000  0.000000  0.599001  1
  Pt  Pt14  1  0.500000  0.000000  0.797945  1
  Pt  Pt15  1  0.000000  0.500000  0.202055  1
  Pt  Pt16  1  0.000000  0.500000  0.400999  1
  Pt  Pt17  1  0.000000  0.500000  0.599001  1
  Pt  Pt18  1  0.000000  0.500000  0.797945  1
  Rh  Rh19  1  0.500000  0.000000  0.000000  1
  Rh  Rh20  1  0.000000  0.500000  0.000000  1
