# generated using pymatgen
data_Dy3Ho2Er3(ReB6)4
_symmetry_space_group_name_H-M   'P 1'
_cell_length_a   3.66960400
_cell_length_b   9.14954100
_cell_length_c   11.53392801
_cell_angle_alpha   90.00091446
_cell_angle_beta   90.00000000
_cell_angle_gamma   90.00000000
_symmetry_Int_Tables_number   1
_chemical_formula_structural   Dy3Ho2Er3(ReB6)4
_chemical_formula_sum   'Dy3 Ho2 Er3 Re4 B24'
_cell_volume   387.25385024
_cell_formula_units_Z   1
loop_
 _symmetry_equiv_pos_site_id
 _symmetry_equiv_pos_as_xyz
  1  'x, y, z'
loop_
 _atom_site_type_symbol
 _atom_site_label
 _atom_site_symmetry_multiplicity
 _atom_site_fract_x
 _atom_site_fract_y
 _atom_site_fract_z
 _atom_site_occupancy
  Dy  Dy0  1  0.000000  0.323346  0.413929  1
  Dy  Dy1  1  0.000000  0.676577  0.586216  1
  Dy  Dy2  1  0.000000  0.823330  0.085970  1
  Ho  Ho3  1  0.000000  0.176553  0.913908  1
  Ho  Ho4  1  0.000000  0.943239  0.370078  1
  Er  Er5  1  0.000000  0.056865  0.630111  1
  Er  Er6  1  0.000000  0.443169  0.129750  1
  Er  Er7  1  0.000000  0.556865  0.870171  1
  Re  Re8  1  0.000000  0.638588  0.320469  1
  Re  Re9  1  0.000000  0.361010  0.679746  1
  Re  Re10  1  0.000000  0.139027  0.179033  1
  Re  Re11  1  0.000000  0.861332  0.820651  1
  B  B12  1  0.500000  0.553338  0.432792  1
  B  B13  1  0.500000  0.446438  0.567386  1
  B  B14  1  0.500000  0.053558  0.066873  1
  B  B15  1  0.500000  0.946834  0.932811  1
  B  B16  1  0.500000  0.749445  0.418475  1
  B  B17  1  0.500000  0.250253  0.581725  1
  B  B18  1  0.500000  0.249717  0.081075  1
  B  B19  1  0.500000  0.750415  0.918468  1
  B  B20  1  0.500000  0.792149  0.265342  1
  B  B21  1  0.500000  0.207472  0.734850  1
  B  B22  1  0.500000  0.292430  0.234264  1
  B  B23  1  0.500000  0.707695  0.765561  1
  B  B24  1  0.500000  0.630529  0.185302  1
  B  B25  1  0.500000  0.369150  0.814891  1
  B  B26  1  0.500000  0.130887  0.314323  1
  B  B27  1  0.500000  0.869537  0.685547  1
  B  B28  1  0.500000  0.982389  0.211854  1
  B  B29  1  0.500000  0.018135  0.788007  1
  B  B30  1  0.500000  0.482098  0.287690  1
  B  B31  1  0.500000  0.517709  0.712371  1
  B  B32  1  0.500000  0.599210  0.027668  1
  B  B33  1  0.500000  0.400376  0.972169  1
  B  B34  1  0.500000  0.099457  0.472530  1
  B  B35  1  0.500000  0.900877  0.527994  1
