# generated using pymatgen
data_Tb2NdEr5(CdPt)2
_symmetry_space_group_name_H-M   'P 1'
_cell_length_a   9.66513710
_cell_length_b   9.67479626
_cell_length_c   9.67479682
_cell_angle_alpha   59.93395636
_cell_angle_beta   60.03301807
_cell_angle_gamma   60.03301828
_symmetry_Int_Tables_number   1
_chemical_formula_structural   Tb2NdEr5(CdPt)2
_chemical_formula_sum   'Tb4 Nd2 Er10 Cd4 Pt4'
_cell_volume   639.69920824
_cell_formula_units_Z   2
loop_
 _symmetry_equiv_pos_site_id
 _symmetry_equiv_pos_as_xyz
  1  'x, y, z'
loop_
 _atom_site_type_symbol
 _atom_site_label
 _atom_site_symmetry_multiplicity
 _atom_site_fract_x
 _atom_site_fract_y
 _atom_site_fract_z
 _atom_site_occupancy
  Tb  Tb0  1  0.562851  0.937149  0.562851  1
  Tb  Tb1  1  0.937149  0.562851  0.937149  1
  Tb  Tb2  1  0.562851  0.562851  0.937149  1
  Tb  Tb3  1  0.937149  0.937149  0.562851  1
  Nd  Nd4  1  0.935291  0.564709  0.564709  1
  Nd  Nd5  1  0.564709  0.935291  0.935291  1
  Er  Er6  1  0.352201  0.351078  0.351078  1
  Er  Er7  1  0.351078  0.352201  0.945643  1
  Er  Er8  1  0.351078  0.945643  0.352201  1
  Er  Er9  1  0.945643  0.351078  0.351078  1
  Er  Er10  1  0.810995  0.189005  0.189005  1
  Er  Er11  1  0.189005  0.810995  0.810995  1
  Er  Er12  1  0.188911  0.811089  0.188911  1
  Er  Er13  1  0.811089  0.188911  0.811089  1
  Er  Er14  1  0.188911  0.188911  0.811089  1
  Er  Er15  1  0.811089  0.811089  0.188911  1
  Cd  Cd16  1  0.580011  0.581539  0.581539  1
  Cd  Cd17  1  0.581539  0.580011  0.256910  1
  Cd  Cd18  1  0.581539  0.256910  0.580011  1
  Cd  Cd19  1  0.256910  0.581539  0.581539  1
  Pt  Pt20  1  0.142024  0.143431  0.143431  1
  Pt  Pt21  1  0.143431  0.142024  0.571114  1
  Pt  Pt22  1  0.143431  0.571114  0.142024  1
  Pt  Pt23  1  0.571114  0.143431  0.143431  1
