# generated using pymatgen
data_SrLaBe2(Cu2Si)8
_symmetry_space_group_name_H-M   'P 1'
_cell_length_a   8.12468473
_cell_length_b   8.12468450
_cell_length_c   8.12468445
_cell_angle_alpha   120.63575141
_cell_angle_beta   120.63575682
_cell_angle_gamma   88.90232623
_symmetry_Int_Tables_number   1
_chemical_formula_structural   SrLaBe2(Cu2Si)8
_chemical_formula_sum   'Sr1 La1 Be2 Cu16 Si8'
_cell_volume   375.51266517
_cell_formula_units_Z   1
loop_
 _symmetry_equiv_pos_site_id
 _symmetry_equiv_pos_as_xyz
  1  'x, y, z'
loop_
 _atom_site_type_symbol
 _atom_site_label
 _atom_site_symmetry_multiplicity
 _atom_site_fract_x
 _atom_site_fract_y
 _atom_site_fract_z
 _atom_site_occupancy
  Sr  Sr0  1  0.750000  0.750000  0.000000  1
  La  La1  1  0.250000  0.250000  0.000000  1
  Be  Be2  1  0.500000  0.000000  0.500000  1
  Be  Be3  1  0.000000  0.500000  0.500000  1
  Cu  Cu4  1  0.942815  0.210598  0.152869  1
  Cu  Cu5  1  0.210598  0.057728  0.267783  1
  Cu  Cu6  1  0.789945  0.942815  0.732217  1
  Cu  Cu7  1  0.442272  0.289402  0.732217  1
  Cu  Cu8  1  0.057728  0.789945  0.847131  1
  Cu  Cu9  1  0.799798  0.058393  0.500114  1
  Cu  Cu10  1  0.558279  0.299684  0.499886  1
  Cu  Cu11  1  0.200316  0.941721  0.500114  1
  Cu  Cu12  1  0.441607  0.700202  0.499886  1
  Cu  Cu13  1  0.941721  0.441607  0.741404  1
  Cu  Cu14  1  0.700202  0.200316  0.258596  1
  Cu  Cu15  1  0.058393  0.558279  0.258596  1
  Cu  Cu16  1  0.710055  0.442272  0.152869  1
  Cu  Cu17  1  0.557185  0.710055  0.267783  1
  Cu  Cu18  1  0.299684  0.799798  0.741404  1
  Cu  Cu19  1  0.289402  0.557185  0.847131  1
  Si  Si20  1  0.792789  0.291081  0.850543  1
  Si  Si21  1  0.557754  0.059462  0.850543  1
  Si  Si22  1  0.059462  0.208919  0.501708  1
  Si  Si23  1  0.291081  0.440538  0.498292  1
  Si  Si24  1  0.942246  0.792789  0.501708  1
  Si  Si25  1  0.440538  0.942246  0.149457  1
  Si  Si26  1  0.208919  0.707211  0.149457  1
  Si  Si27  1  0.707211  0.557754  0.498292  1
