# generated using pymatgen
data_Sm8CrPd13Pt11
_symmetry_space_group_name_H-M   'P 1'
_cell_length_a   8.46977400
_cell_length_b   8.44400700
_cell_length_c   8.47602000
_cell_angle_alpha   90.00000000
_cell_angle_beta   90.00000000
_cell_angle_gamma   90.00000000
_symmetry_Int_Tables_number   1
_chemical_formula_structural   Sm8CrPd13Pt11
_chemical_formula_sum   'Sm8 Cr1 Pd13 Pt11'
_cell_volume   606.19504146
_cell_formula_units_Z   1
loop_
 _symmetry_equiv_pos_site_id
 _symmetry_equiv_pos_as_xyz
  1  'x, y, z'
loop_
 _atom_site_type_symbol
 _atom_site_label
 _atom_site_symmetry_multiplicity
 _atom_site_fract_x
 _atom_site_fract_y
 _atom_site_fract_z
 _atom_site_occupancy
  Sm  Sm0  1  0.250360  0.250560  0.250406  1
  Sm  Sm1  1  0.749866  0.749488  0.749558  1
  Sm  Sm2  1  0.749866  0.749488  0.250442  1
  Sm  Sm3  1  0.749640  0.250560  0.749594  1
  Sm  Sm4  1  0.250360  0.250560  0.749594  1
  Sm  Sm5  1  0.250134  0.749488  0.250442  1
  Sm  Sm6  1  0.250134  0.749488  0.749558  1
  Sm  Sm7  1  0.749640  0.250560  0.250406  1
  Cr  Cr8  1  0.000000  0.000561  0.000000  1
  Pd  Pd9  1  0.500000  0.738565  0.000000  1
  Pd  Pd10  1  0.500000  0.999849  0.261358  1
  Pd  Pd11  1  0.261729  0.999875  0.500000  1
  Pd  Pd12  1  0.500000  0.999849  0.738642  1
  Pd  Pd13  1  0.738271  0.999875  0.500000  1
  Pd  Pd14  1  0.000000  0.500025  0.262850  1
  Pd  Pd15  1  0.000000  0.500025  0.737150  1
  Pd  Pd16  1  0.253445  0.500161  0.500000  1
  Pd  Pd17  1  0.746555  0.500161  0.500000  1
  Pd  Pd18  1  0.500000  0.253762  0.500000  1
  Pd  Pd19  1  0.500000  0.746227  0.500000  1
  Pd  Pd20  1  0.500000  0.499921  0.253966  1
  Pd  Pd21  1  0.500000  0.499921  0.746034  1
  Pt  Pt22  1  0.260767  0.499783  0.000000  1
  Pt  Pt23  1  0.739233  0.499783  0.000000  1
  Pt  Pt24  1  0.000000  0.259327  0.500000  1
  Pt  Pt25  1  0.500000  0.260567  0.000000  1
  Pt  Pt26  1  0.000000  0.740853  0.500000  1
  Pt  Pt27  1  0.291612  0.000296  0.000000  1
  Pt  Pt28  1  0.708388  0.000296  0.000000  1
  Pt  Pt29  1  0.000000  0.292347  0.000000  1
  Pt  Pt30  1  0.000000  0.707843  0.000000  1
  Pt  Pt31  1  0.000000  0.999969  0.290555  1
  Pt  Pt32  1  0.000000  0.999969  0.709445  1
