# generated using pymatgen
data_Eu2Pd3Au
_symmetry_space_group_name_H-M   'P 1'
_cell_length_a   5.62235453
_cell_length_b   5.59129710
_cell_length_c   5.62235500
_cell_angle_alpha   59.81608765
_cell_angle_beta   60.00000309
_cell_angle_gamma   59.81608661
_symmetry_Int_Tables_number   1
_chemical_formula_structural   Eu2Pd3Au
_chemical_formula_sum   'Eu2 Pd3 Au1'
_cell_volume   124.62959760
_cell_formula_units_Z   1
loop_
 _symmetry_equiv_pos_site_id
 _symmetry_equiv_pos_as_xyz
  1  'x, y, z'
loop_
 _atom_site_type_symbol
 _atom_site_label
 _atom_site_symmetry_multiplicity
 _atom_site_fract_x
 _atom_site_fract_y
 _atom_site_fract_z
 _atom_site_occupancy
  Eu  Eu0  1  0.749040  0.752879  0.749040  1
  Eu  Eu1  1  0.500960  0.497121  0.500960  1
  Pd  Pd2  1  0.125000  0.125000  0.625000  1
  Pd  Pd3  1  0.125000  0.125000  0.125000  1
  Pd  Pd4  1  0.625000  0.125000  0.125000  1
  Au  Au5  1  0.125000  0.625000  0.125000  1
