# generated using pymatgen
data_Cs2Sc(SbSe2)5
_symmetry_space_group_name_H-M   'P 1'
_cell_length_a   4.07678400
_cell_length_b   12.22062000
_cell_length_c   22.91466800
_cell_angle_alpha   90.00000000
_cell_angle_beta   90.00000000
_cell_angle_gamma   90.00000000
_symmetry_Int_Tables_number   1
_chemical_formula_structural   Cs2Sc(SbSe2)5
_chemical_formula_sum   'Cs4 Sc2 Sb10 Se20'
_cell_volume   1141.62773508
_cell_formula_units_Z   2
loop_
 _symmetry_equiv_pos_site_id
 _symmetry_equiv_pos_as_xyz
  1  'x, y, z'
loop_
 _atom_site_type_symbol
 _atom_site_label
 _atom_site_symmetry_multiplicity
 _atom_site_fract_x
 _atom_site_fract_y
 _atom_site_fract_z
 _atom_site_occupancy
  Cs  Cs0  1  0.250000  0.990546  0.289670  1
  Cs  Cs1  1  0.750000  0.488795  0.211162  1
  Cs  Cs2  1  0.750000  0.011205  0.711162  1
  Cs  Cs3  1  0.250000  0.509454  0.789670  1
  Sc  Sc4  1  0.750000  0.362700  0.022213  1
  Sc  Sc5  1  0.750000  0.137300  0.522213  1
  Sb  Sb6  1  0.750000  0.809431  0.119888  1
  Sb  Sb7  1  0.250000  0.402556  0.570225  1
  Sb  Sb8  1  0.250000  0.191745  0.880621  1
  Sb  Sb9  1  0.750000  0.595858  0.429709  1
  Sb  Sb10  1  0.250000  0.097444  0.070225  1
  Sb  Sb11  1  0.250000  0.630298  0.977862  1
  Sb  Sb12  1  0.250000  0.308255  0.380621  1
  Sb  Sb13  1  0.250000  0.869702  0.477862  1
  Sb  Sb14  1  0.750000  0.904142  0.929709  1
  Sb  Sb15  1  0.750000  0.690569  0.619888  1
  Se  Se16  1  0.250000  0.747616  0.693964  1
  Se  Se17  1  0.750000  0.150369  0.983218  1
  Se  Se18  1  0.250000  0.310848  0.100942  1
  Se  Se19  1  0.750000  0.574057  0.058710  1
  Se  Se20  1  0.250000  0.088520  0.445063  1
  Se  Se21  1  0.750000  0.925943  0.558710  1
  Se  Se22  1  0.250000  0.411480  0.945063  1
  Se  Se23  1  0.250000  0.860189  0.018997  1
  Se  Se24  1  0.750000  0.349631  0.483218  1
  Se  Se25  1  0.750000  0.248128  0.806712  1
  Se  Se26  1  0.250000  0.524706  0.348292  1
  Se  Se27  1  0.250000  0.975294  0.848292  1
  Se  Se28  1  0.750000  0.802156  0.391321  1
  Se  Se29  1  0.750000  0.473183  0.651434  1
  Se  Se30  1  0.250000  0.189152  0.600942  1
  Se  Se31  1  0.250000  0.752384  0.193964  1
  Se  Se32  1  0.750000  0.026817  0.151434  1
  Se  Se33  1  0.750000  0.251872  0.306712  1
  Se  Se34  1  0.750000  0.697844  0.891321  1
  Se  Se35  1  0.250000  0.639811  0.518997  1
