# generated using pymatgen
data_Lu8In2NiRu
_symmetry_space_group_name_H-M   'P 1'
_cell_length_a   9.41421757
_cell_length_b   9.41421836
_cell_length_c   9.40211600
_cell_angle_alpha   60.04251625
_cell_angle_beta   60.04251346
_cell_angle_gamma   60.18889355
_symmetry_Int_Tables_number   1
_chemical_formula_structural   Lu8In2NiRu
_chemical_formula_sum   'Lu16 In4 Ni2 Ru2'
_cell_volume   590.43873057
_cell_formula_units_Z   2
loop_
 _symmetry_equiv_pos_site_id
 _symmetry_equiv_pos_as_xyz
  1  'x, y, z'
loop_
 _atom_site_type_symbol
 _atom_site_label
 _atom_site_symmetry_multiplicity
 _atom_site_fract_x
 _atom_site_fract_y
 _atom_site_fract_z
 _atom_site_occupancy
  Lu  Lu0  1  0.597691  0.597691  0.600283  1
  Lu  Lu1  1  0.597691  0.597691  0.204336  1
  Lu  Lu2  1  0.597120  0.206377  0.598252  1
  Lu  Lu3  1  0.206377  0.597120  0.598252  1
  Lu  Lu4  1  0.060516  0.439197  0.439192  1
  Lu  Lu5  1  0.439197  0.060516  0.061096  1
  Lu  Lu6  1  0.439197  0.060516  0.439192  1
  Lu  Lu7  1  0.060516  0.439197  0.061096  1
  Lu  Lu8  1  0.438857  0.438857  0.061143  1
  Lu  Lu9  1  0.060558  0.060558  0.439442  1
  Lu  Lu10  1  0.190293  0.813011  0.807200  1
  Lu  Lu11  1  0.813011  0.190293  0.189496  1
  Lu  Lu12  1  0.813011  0.190293  0.807200  1
  Lu  Lu13  1  0.190293  0.813011  0.189496  1
  Lu  Lu14  1  0.808151  0.808151  0.191849  1
  Lu  Lu15  1  0.187773  0.187773  0.812227  1
  In  In16  1  0.833934  0.833934  0.832615  1
  In  In17  1  0.833934  0.833934  0.499517  1
  In  In18  1  0.834848  0.498961  0.833095  1
  In  In19  1  0.498961  0.834848  0.833095  1
  Ni  Ni20  1  0.390790  0.390790  0.391244  1
  Ni  Ni21  1  0.390790  0.390790  0.827174  1
  Ru  Ru22  1  0.391751  0.824741  0.391753  1
  Ru  Ru23  1  0.824741  0.391751  0.391753  1
