# generated using pymatgen
data_SmDyRh2F14
_symmetry_space_group_name_H-M   'P 1'
_cell_length_a   5.58268400
_cell_length_b   8.98574521
_cell_length_c   12.07308000
_cell_angle_alpha   63.04509673
_cell_angle_beta   90.00000000
_cell_angle_gamma   90.00000000
_symmetry_Int_Tables_number   1
_chemical_formula_structural   SmDyRh2F14
_chemical_formula_sum   'Sm2 Dy2 Rh4 F28'
_cell_volume   539.84627460
_cell_formula_units_Z   2
loop_
 _symmetry_equiv_pos_site_id
 _symmetry_equiv_pos_as_xyz
  1  'x, y, z'
loop_
 _atom_site_type_symbol
 _atom_site_label
 _atom_site_symmetry_multiplicity
 _atom_site_fract_x
 _atom_site_fract_y
 _atom_site_fract_z
 _atom_site_occupancy
  Sm  Sm0  1  0.239657  0.190801  0.233043  1
  Sm  Sm1  1  0.739657  0.809199  0.266957  1
  Dy  Dy2  1  0.760076  0.813161  0.766115  1
  Dy  Dy3  1  0.260076  0.186839  0.733885  1
  Rh  Rh4  1  0.756523  0.275006  0.952698  1
  Rh  Rh5  1  0.256523  0.724994  0.547302  1
  Rh  Rh6  1  0.245047  0.728724  0.039882  1
  Rh  Rh7  1  0.745047  0.271276  0.460118  1
  F  F8  1  0.445240  0.706514  0.915733  1
  F  F9  1  0.945240  0.293486  0.584267  1
  F  F10  1  0.558051  0.295598  0.078112  1
  F  F11  1  0.058051  0.704402  0.421888  1
  F  F12  1  0.451826  0.280406  0.547756  1
  F  F13  1  0.951826  0.719594  0.952244  1
  F  F14  1  0.546604  0.715522  0.459375  1
  F  F15  1  0.046604  0.284478  0.040625  1
  F  F16  1  0.765743  0.516116  0.857162  1
  F  F17  1  0.265743  0.483884  0.642838  1
  F  F18  1  0.233261  0.488083  0.136769  1
  F  F19  1  0.733261  0.511917  0.363231  1
  F  F20  1  0.757121  0.035269  0.046684  1
  F  F21  1  0.257121  0.964731  0.453316  1
  F  F22  1  0.244906  0.969237  0.947958  1
  F  F23  1  0.744906  0.030763  0.552042  1
  F  F24  1  0.971305  0.731681  0.639615  1
  F  F25  1  0.471305  0.268319  0.860385  1
  F  F26  1  0.031347  0.269301  0.367570  1
  F  F27  1  0.531347  0.730699  0.132430  1
  F  F28  1  0.051390  0.747941  0.168051  1
  F  F29  1  0.551390  0.252059  0.331949  1
  F  F30  1  0.954186  0.252548  0.826587  1
  F  F31  1  0.454186  0.747452  0.673413  1
  F  F32  1  0.410890  0.968468  0.230911  1
  F  F33  1  0.910890  0.031532  0.269089  1
  F  F34  1  0.576827  0.025989  0.767232  1
  F  F35  1  0.076827  0.974011  0.732768  1
