# generated using pymatgen
data_Zr6Sc8Al8Ir2Pt5
_symmetry_space_group_name_H-M   'P 1'
_cell_length_a   9.11381498
_cell_length_b   9.12428802
_cell_length_c   9.12428800
_cell_angle_alpha   59.92407339
_cell_angle_beta   60.03795769
_cell_angle_gamma   60.03796326
_symmetry_Int_Tables_number   1
_chemical_formula_structural   Zr6Sc8Al8Ir2Pt5
_chemical_formula_sum   'Zr6 Sc8 Al8 Ir2 Pt5'
_cell_volume   536.51518605
_cell_formula_units_Z   1
loop_
 _symmetry_equiv_pos_site_id
 _symmetry_equiv_pos_as_xyz
  1  'x, y, z'
loop_
 _atom_site_type_symbol
 _atom_site_label
 _atom_site_symmetry_multiplicity
 _atom_site_fract_x
 _atom_site_fract_y
 _atom_site_fract_z
 _atom_site_occupancy
  Zr  Zr0  1  0.680495  0.680495  0.319505  1
  Zr  Zr1  1  0.319505  0.680495  0.319505  1
  Zr  Zr2  1  0.683559  0.316441  0.316441  1
  Zr  Zr3  1  0.319505  0.319505  0.680495  1
  Zr  Zr4  1  0.680495  0.319505  0.680495  1
  Zr  Zr5  1  0.316441  0.683559  0.683559  1
  Sc  Sc6  1  0.879976  0.874593  0.365456  1
  Sc  Sc7  1  0.879976  0.365456  0.874593  1
  Sc  Sc8  1  0.365456  0.879976  0.879976  1
  Sc  Sc9  1  0.874593  0.879976  0.879976  1
  Sc  Sc10  1  0.120024  0.125407  0.634544  1
  Sc  Sc11  1  0.120024  0.634544  0.125407  1
  Sc  Sc12  1  0.634544  0.120024  0.120024  1
  Sc  Sc13  1  0.125407  0.120024  0.120024  1
  Al  Al14  1  0.659952  0.660956  0.019138  1
  Al  Al15  1  0.659952  0.019138  0.660956  1
  Al  Al16  1  0.019138  0.659952  0.659952  1
  Al  Al17  1  0.660956  0.659952  0.659952  1
  Al  Al18  1  0.340048  0.339044  0.980862  1
  Al  Al19  1  0.340048  0.980862  0.339044  1
  Al  Al20  1  0.980862  0.340048  0.340048  1
  Al  Al21  1  0.339044  0.340048  0.340048  1
  Ir  Ir22  1  0.000000  0.500000  0.500000  1
  Ir  Ir23  1  0.500000  0.000000  0.000000  1
  Pt  Pt24  1  0.000000  0.000000  0.000000  1
  Pt  Pt25  1  0.000000  0.000000  0.500000  1
  Pt  Pt26  1  0.500000  0.000000  0.500000  1
  Pt  Pt27  1  0.500000  0.500000  0.000000  1
  Pt  Pt28  1  0.000000  0.500000  0.000000  1
