# generated using pymatgen
data_ZnIrCl6
_symmetry_space_group_name_H-M   'P 1'
_cell_length_a   6.23284995
_cell_length_b   6.23284900
_cell_length_c   6.55150720
_cell_angle_alpha   81.12214320
_cell_angle_beta   81.12214015
_cell_angle_gamma   119.91420171
_symmetry_Int_Tables_number   1
_chemical_formula_structural   ZnIrCl6
_chemical_formula_sum   'Zn1 Ir1 Cl6'
_cell_volume   209.86441449
_cell_formula_units_Z   1
loop_
 _symmetry_equiv_pos_site_id
 _symmetry_equiv_pos_as_xyz
  1  'x, y, z'
loop_
 _atom_site_type_symbol
 _atom_site_label
 _atom_site_symmetry_multiplicity
 _atom_site_fract_x
 _atom_site_fract_y
 _atom_site_fract_z
 _atom_site_occupancy
  Zn  Zn0  1  0.166923  0.833077  0.000000  1
  Ir  Ir1  1  0.833320  0.166680  0.000000  1
  Cl  Cl2  1  0.449232  0.084183  0.214136  1
  Cl  Cl3  1  0.915817  0.550768  0.785864  1
  Cl  Cl4  1  0.203801  0.221940  0.785761  1
  Cl  Cl5  1  0.778060  0.796199  0.214239  1
  Cl  Cl6  1  0.065265  0.412418  0.213702  1
  Cl  Cl7  1  0.587582  0.934735  0.786298  1
