# generated using pymatgen
data_Ba6Ta3NbS16
_symmetry_space_group_name_H-M   'P 1'
_cell_length_a   11.31923534
_cell_length_b   11.31923433
_cell_length_c   11.31923500
_cell_angle_alpha   51.63092690
_cell_angle_beta   51.63093094
_cell_angle_gamma   51.63093202
_symmetry_Int_Tables_number   1
_chemical_formula_structural   Ba6Ta3NbS16
_chemical_formula_sum   'Ba6 Ta3 Nb1 S16'
_cell_volume   823.51272488
_cell_formula_units_Z   1
loop_
 _symmetry_equiv_pos_site_id
 _symmetry_equiv_pos_as_xyz
  1  'x, y, z'
loop_
 _atom_site_type_symbol
 _atom_site_label
 _atom_site_symmetry_multiplicity
 _atom_site_fract_x
 _atom_site_fract_y
 _atom_site_fract_z
 _atom_site_occupancy
  Ba  Ba0  1  0.749597  0.430522  0.069913  1
  Ba  Ba1  1  0.571099  0.929893  0.249186  1
  Ba  Ba2  1  0.069913  0.749597  0.430523  1
  Ba  Ba3  1  0.929894  0.249186  0.571099  1
  Ba  Ba4  1  0.430523  0.069914  0.749596  1
  Ba  Ba5  1  0.249186  0.571099  0.929894  1
  Ta  Ta6  1  0.160573  0.160573  0.160573  1
  Ta  Ta7  1  0.339411  0.339411  0.339411  1
  Ta  Ta8  1  0.660521  0.660521  0.660521  1
  Nb  Nb9  1  0.839384  0.839384  0.839384  1
  S  S10  1  0.608895  0.787273  0.042488  1
  S  S11  1  0.082370  0.082370  0.082370  1
  S  S12  1  0.542801  0.285959  0.110447  1
  S  S13  1  0.956877  0.389112  0.214869  1
  S  S14  1  0.110447  0.542800  0.285959  1
  S  S15  1  0.214868  0.956878  0.389112  1
  S  S16  1  0.417620  0.417620  0.417620  1
  S  S17  1  0.713845  0.889629  0.457555  1
  S  S18  1  0.285959  0.110447  0.542801  1
  S  S19  1  0.582316  0.582316  0.582316  1
  S  S20  1  0.787273  0.042488  0.608895  1
  S  S21  1  0.889629  0.457556  0.713845  1
  S  S22  1  0.042488  0.608895  0.787273  1
  S  S23  1  0.457556  0.713845  0.889629  1
  S  S24  1  0.917841  0.917841  0.917841  1
  S  S25  1  0.389113  0.214868  0.956877  1
