# generated using pymatgen
data_BeAlV6(GaN)2
_symmetry_space_group_name_H-M   'P 1'
_cell_length_a   6.54082804
_cell_length_b   6.52616505
_cell_length_c   6.52956600
_cell_angle_alpha   90.00000000
_cell_angle_beta   90.00000000
_cell_angle_gamma   89.98666136
_symmetry_Int_Tables_number   1
_chemical_formula_structural   BeAlV6(GaN)2
_chemical_formula_sum   'Be2 Al2 V12 Ga4 N4'
_cell_volume   278.72446393
_cell_formula_units_Z   2
loop_
 _symmetry_equiv_pos_site_id
 _symmetry_equiv_pos_as_xyz
  1  'x, y, z'
loop_
 _atom_site_type_symbol
 _atom_site_label
 _atom_site_symmetry_multiplicity
 _atom_site_fract_x
 _atom_site_fract_y
 _atom_site_fract_z
 _atom_site_occupancy
  Be  Be0  1  0.820686  0.325748  0.178158  1
  Be  Be1  1  0.679314  0.674252  0.678158  1
  Al  Al2  1  0.177534  0.820338  0.321834  1
  Al  Al3  1  0.322466  0.179662  0.821834  1
  V  V4  1  0.793495  0.961230  0.373429  1
  V  V5  1  0.706505  0.038770  0.873429  1
  V  V6  1  0.207411  0.458868  0.125342  1
  V  V7  1  0.292589  0.541132  0.625342  1
  V  V8  1  0.958856  0.374792  0.793563  1
  V  V9  1  0.038167  0.873784  0.708094  1
  V  V10  1  0.461833  0.126216  0.208094  1
  V  V11  1  0.541144  0.625208  0.293563  1
  V  V12  1  0.376247  0.790674  0.958217  1
  V  V13  1  0.872714  0.706047  0.038370  1
  V  V14  1  0.123753  0.209326  0.458217  1
  V  V15  1  0.627286  0.293953  0.538370  1
  Ga  Ga16  1  0.585364  0.434839  0.929390  1
  Ga  Ga17  1  0.442569  0.917388  0.575308  1
  Ga  Ga18  1  0.914636  0.565161  0.429390  1
  Ga  Ga19  1  0.057431  0.082612  0.075308  1
  N  N20  1  0.874275  0.125011  0.623863  1
  N  N21  1  0.625725  0.874989  0.123863  1
  N  N22  1  0.123905  0.624942  0.874432  1
  N  N23  1  0.376095  0.375058  0.374432  1
