# generated using pymatgen
data_PuNp2F12
_symmetry_space_group_name_H-M   'P 1'
_cell_length_a   8.36084598
_cell_length_b   8.36084688
_cell_length_c   8.37184300
_cell_angle_alpha   63.19280653
_cell_angle_beta   63.19280340
_cell_angle_gamma   80.07859014
_symmetry_Int_Tables_number   1
_chemical_formula_structural   PuNp2F12
_chemical_formula_sum   'Pu2 Np4 F24'
_cell_volume   465.83844281
_cell_formula_units_Z   2
loop_
 _symmetry_equiv_pos_site_id
 _symmetry_equiv_pos_as_xyz
  1  'x, y, z'
loop_
 _atom_site_type_symbol
 _atom_site_label
 _atom_site_symmetry_multiplicity
 _atom_site_fract_x
 _atom_site_fract_y
 _atom_site_fract_z
 _atom_site_occupancy
  Pu  Pu0  1  0.788910  0.211090  0.750000  1
  Pu  Pu1  1  0.211090  0.788910  0.250000  1
  Np  Np2  1  0.632346  0.776014  0.671329  1
  Np  Np3  1  0.367654  0.223986  0.328671  1
  Np  Np4  1  0.223986  0.367654  0.828671  1
  Np  Np5  1  0.776014  0.632346  0.171329  1
  F  F6  1  0.318252  0.257856  0.604763  1
  F  F7  1  0.681748  0.742144  0.395237  1
  F  F8  1  0.742144  0.681748  0.895237  1
  F  F9  1  0.257856  0.318252  0.104763  1
  F  F10  1  0.825373  0.931137  0.959823  1
  F  F11  1  0.174627  0.068863  0.040177  1
  F  F12  1  0.068863  0.174627  0.540177  1
  F  F13  1  0.931137  0.825373  0.459823  1
  F  F14  1  0.396834  0.603166  0.750000  1
  F  F15  1  0.603166  0.396834  0.250000  1
  F  F16  1  0.500000  0.000000  0.500000  1
  F  F17  1  0.000000  0.500000  0.000000  1
  F  F18  1  0.500509  0.261256  0.783227  1
  F  F19  1  0.499491  0.738744  0.216773  1
  F  F20  1  0.738744  0.499491  0.716773  1
  F  F21  1  0.261256  0.500509  0.283227  1
  F  F22  1  0.404390  0.812105  0.926684  1
  F  F23  1  0.595610  0.187895  0.073316  1
  F  F24  1  0.187895  0.595610  0.573316  1
  F  F25  1  0.812105  0.404390  0.426684  1
  F  F26  1  0.722752  0.027123  0.650111  1
  F  F27  1  0.277248  0.972877  0.349889  1
  F  F28  1  0.972877  0.277248  0.849889  1
  F  F29  1  0.027123  0.722752  0.150111  1
