# generated using pymatgen
data_HfZrReMo3
_symmetry_space_group_name_H-M   'P 1'
_cell_length_a   5.36811082
_cell_length_b   5.36811016
_cell_length_c   5.35903385
_cell_angle_alpha   59.94394855
_cell_angle_beta   59.94395612
_cell_angle_gamma   59.99999108
_symmetry_Int_Tables_number   1
_chemical_formula_structural   HfZrReMo3
_chemical_formula_sum   'Hf1 Zr1 Re1 Mo3'
_cell_volume   109.10532021
_cell_formula_units_Z   1
loop_
 _symmetry_equiv_pos_site_id
 _symmetry_equiv_pos_as_xyz
  1  'x, y, z'
loop_
 _atom_site_type_symbol
 _atom_site_label
 _atom_site_symmetry_multiplicity
 _atom_site_fract_x
 _atom_site_fract_y
 _atom_site_fract_z
 _atom_site_occupancy
  Hf  Hf0  1  0.250391  0.250391  0.248828  1
  Zr  Zr1  1  0.999566  0.999566  0.001303  1
  Re  Re2  1  0.624984  0.624984  0.125048  1
  Mo  Mo3  1  0.625027  0.125006  0.624940  1
  Mo  Mo4  1  0.125006  0.625027  0.624940  1
  Mo  Mo5  1  0.625027  0.625027  0.624940  1
