# generated using pymatgen
data_Dy8LuMg(BiAu2)2
_symmetry_space_group_name_H-M   'P 1'
_cell_length_a   8.72512452
_cell_length_b   8.72512573
_cell_length_c   8.72512510
_cell_angle_alpha   125.62994177
_cell_angle_beta   125.62993787
_cell_angle_gamma   80.49721285
_symmetry_Int_Tables_number   1
_chemical_formula_structural   Dy8LuMg(BiAu2)2
_chemical_formula_sum   'Dy8 Lu1 Mg1 Bi2 Au4'
_cell_volume   423.27005613
_cell_formula_units_Z   1
loop_
 _symmetry_equiv_pos_site_id
 _symmetry_equiv_pos_as_xyz
  1  'x, y, z'
loop_
 _atom_site_type_symbol
 _atom_site_label
 _atom_site_symmetry_multiplicity
 _atom_site_fract_x
 _atom_site_fract_y
 _atom_site_fract_z
 _atom_site_occupancy
  Dy  Dy0  1  0.508823  0.024416  0.813466  1
  Dy  Dy1  1  0.210951  0.695359  0.186534  1
  Dy  Dy2  1  0.024416  0.210951  0.515593  1
  Dy  Dy3  1  0.695359  0.508823  0.484407  1
  Dy  Dy4  1  0.491177  0.975584  0.186534  1
  Dy  Dy5  1  0.789049  0.304641  0.813466  1
  Dy  Dy6  1  0.975584  0.789049  0.484407  1
  Dy  Dy7  1  0.304641  0.491177  0.515593  1
  Lu  Lu8  1  0.000000  0.000000  0.000000  1
  Mg  Mg9  1  0.500000  0.500000  0.000000  1
  Bi  Bi10  1  0.244340  0.244340  0.000000  1
  Bi  Bi11  1  0.755660  0.755660  0.000000  1
  Au  Au12  1  0.133803  0.641851  0.775655  1
  Au  Au13  1  0.866197  0.358149  0.224345  1
  Au  Au14  1  0.641851  0.866197  0.508047  1
  Au  Au15  1  0.358149  0.133803  0.491953  1
