# generated using pymatgen
data_Tm2Co4NiP6Rh5
_symmetry_space_group_name_H-M   'P 1'
_cell_length_a   3.75286500
_cell_length_b   10.58041800
_cell_length_c   12.14929400
_cell_angle_alpha   90.00000000
_cell_angle_beta   90.00000000
_cell_angle_gamma   90.00000000
_symmetry_Int_Tables_number   1
_chemical_formula_structural   Tm2Co4NiP6Rh5
_chemical_formula_sum   'Tm4 Co8 Ni2 P12 Rh10'
_cell_volume   482.41056377
_cell_formula_units_Z   2
loop_
 _symmetry_equiv_pos_site_id
 _symmetry_equiv_pos_as_xyz
  1  'x, y, z'
loop_
 _atom_site_type_symbol
 _atom_site_label
 _atom_site_symmetry_multiplicity
 _atom_site_fract_x
 _atom_site_fract_y
 _atom_site_fract_z
 _atom_site_occupancy
  Tm  Tm0  1  0.250000  0.586671  0.711540  1
  Tm  Tm1  1  0.250000  0.913329  0.211540  1
  Tm  Tm2  1  0.750000  0.420667  0.291198  1
  Tm  Tm3  1  0.750000  0.079333  0.791198  1
  Co  Co4  1  0.250000  0.879530  0.697630  1
  Co  Co5  1  0.250000  0.620470  0.197630  1
  Co  Co6  1  0.750000  0.112482  0.302672  1
  Co  Co7  1  0.750000  0.387518  0.802672  1
  Co  Co8  1  0.250000  0.464221  0.930774  1
  Co  Co9  1  0.250000  0.035779  0.430774  1
  Co  Co10  1  0.750000  0.537741  0.067046  1
  Co  Co11  1  0.750000  0.962259  0.567046  1
  Ni  Ni12  1  0.750000  0.776164  0.820166  1
  Ni  Ni13  1  0.750000  0.723836  0.320166  1
  P  P14  1  0.250000  0.431860  0.111328  1
  P  P15  1  0.250000  0.068140  0.611328  1
  P  P16  1  0.750000  0.576640  0.888503  1
  P  P17  1  0.750000  0.923360  0.388503  1
  P  P18  1  0.250000  0.272919  0.870956  1
  P  P19  1  0.250000  0.227081  0.370956  1
  P  P20  1  0.750000  0.726007  0.135731  1
  P  P21  1  0.750000  0.773993  0.635731  1
  P  P22  1  0.250000  0.604674  0.379756  1
  P  P23  1  0.250000  0.895326  0.879756  1
  P  P24  1  0.750000  0.403179  0.618166  1
  P  P25  1  0.750000  0.096821  0.118166  1
  Rh  Rh26  1  0.250000  0.711137  0.987030  1
  Rh  Rh27  1  0.250000  0.788863  0.487030  1
  Rh  Rh28  1  0.750000  0.283846  0.007803  1
  Rh  Rh29  1  0.750000  0.216154  0.507803  1
  Rh  Rh30  1  0.250000  0.411423  0.478356  1
  Rh  Rh31  1  0.250000  0.088577  0.978356  1
  Rh  Rh32  1  0.750000  0.595705  0.520965  1
  Rh  Rh33  1  0.750000  0.904295  0.020965  1
  Rh  Rh34  1  0.250000  0.225827  0.180380  1
  Rh  Rh35  1  0.250000  0.274173  0.680380  1
