# generated using pymatgen
data_HoEr3Th6(Si3C)2
_symmetry_space_group_name_H-M   'P 1'
_cell_length_a   8.73742000
_cell_length_b   8.73742027
_cell_length_c   6.35355700
_cell_angle_alpha   90.00000000
_cell_angle_beta   90.00000000
_cell_angle_gamma   119.99999896
_symmetry_Int_Tables_number   1
_chemical_formula_structural   HoEr3Th6(Si3C)2
_chemical_formula_sum   'Ho1 Er3 Th6 Si6 C2'
_cell_volume   420.06258930
_cell_formula_units_Z   1
loop_
 _symmetry_equiv_pos_site_id
 _symmetry_equiv_pos_as_xyz
  1  'x, y, z'
loop_
 _atom_site_type_symbol
 _atom_site_label
 _atom_site_symmetry_multiplicity
 _atom_site_fract_x
 _atom_site_fract_y
 _atom_site_fract_z
 _atom_site_occupancy
  Ho  Ho0  1  0.666667  0.333333  0.000000  1
  Er  Er1  1  0.333333  0.666667  0.000000  1
  Er  Er2  1  0.333333  0.666667  0.500000  1
  Er  Er3  1  0.666667  0.333333  0.500000  1
  Th  Th4  1  0.766281  0.766300  0.749978  1
  Th  Th5  1  0.233700  0.999980  0.749978  1
  Th  Th6  1  0.000020  0.233719  0.749978  1
  Th  Th7  1  0.233700  0.233719  0.250022  1
  Th  Th8  1  0.766281  0.999980  0.250022  1
  Th  Th9  1  0.000020  0.766300  0.250022  1
  Si  Si10  1  0.402801  0.402849  0.749967  1
  Si  Si11  1  0.597151  0.999952  0.749967  1
  Si  Si12  1  0.000048  0.597199  0.749967  1
  Si  Si13  1  0.597151  0.597199  0.250033  1
  Si  Si14  1  0.402801  0.999952  0.250033  1
  Si  Si15  1  0.000048  0.402849  0.250033  1
  C  C16  1  0.000000  0.000000  0.000000  1
  C  C17  1  0.000000  0.000000  0.500000  1
