# generated using pymatgen
data_Tb5(RhO6)2
_symmetry_space_group_name_H-M   'P 1'
_cell_length_a   5.95259000
_cell_length_b   6.88491341
_cell_length_c   7.32101453
_cell_angle_alpha   105.53795978
_cell_angle_beta   89.99541615
_cell_angle_gamma   115.61479115
_symmetry_Int_Tables_number   1
_chemical_formula_structural   Tb5(RhO6)2
_chemical_formula_sum   'Tb5 Rh2 O12'
_cell_volume   258.33940924
_cell_formula_units_Z   1
loop_
 _symmetry_equiv_pos_site_id
 _symmetry_equiv_pos_as_xyz
  1  'x, y, z'
loop_
 _atom_site_type_symbol
 _atom_site_label
 _atom_site_symmetry_multiplicity
 _atom_site_fract_x
 _atom_site_fract_y
 _atom_site_fract_z
 _atom_site_occupancy
  Tb  Tb0  1  0.309093  0.618157  0.170007  1
  Tb  Tb1  1  0.697685  0.395384  0.359613  1
  Tb  Tb2  1  0.000000  0.000000  0.500000  1
  Tb  Tb3  1  0.302315  0.604616  0.640389  1
  Tb  Tb4  1  0.690908  0.381842  0.829993  1
  Rh  Rh5  1  0.246469  0.000032  0.000018  1
  Rh  Rh6  1  0.753532  0.999968  0.999982  1
  O  O7  1  0.429673  0.331365  0.083710  1
  O  O8  1  0.901683  0.331377  0.083714  1
  O  O9  1  0.500297  0.000599  0.188271  1
  O  O10  1  0.000352  0.000700  0.182020  1
  O  O11  1  0.096671  0.694828  0.425816  1
  O  O12  1  0.598164  0.694828  0.425817  1
  O  O13  1  0.401837  0.305171  0.574183  1
  O  O14  1  0.903328  0.305171  0.574184  1
  O  O15  1  0.999649  0.999301  0.817980  1
  O  O16  1  0.499703  0.999400  0.811728  1
  O  O17  1  0.098316  0.668623  0.916286  1
  O  O18  1  0.570327  0.668635  0.916290  1
