# generated using pymatgen
data_Rb8NbAs5Pb
_symmetry_space_group_name_H-M   'P 1'
_cell_length_a   17.15526073
_cell_length_b   17.15526098
_cell_length_c   13.96068700
_cell_angle_alpha   85.13573770
_cell_angle_beta   85.13573763
_cell_angle_gamma   32.90499278
_symmetry_Int_Tables_number   1
_chemical_formula_structural   Rb8NbAs5Pb
_chemical_formula_sum   'Rb32 Nb4 As20 Pb4'
_cell_volume   2223.28474762
_cell_formula_units_Z   4
loop_
 _symmetry_equiv_pos_site_id
 _symmetry_equiv_pos_as_xyz
  1  'x, y, z'
loop_
 _atom_site_type_symbol
 _atom_site_label
 _atom_site_symmetry_multiplicity
 _atom_site_fract_x
 _atom_site_fract_y
 _atom_site_fract_z
 _atom_site_occupancy
  Rb  Rb0  1  0.641738  0.716699  0.273869  1
  Rb  Rb1  1  0.985368  0.937421  0.620914  1
  Rb  Rb2  1  0.394133  0.736582  0.291472  1
  Rb  Rb3  1  0.192270  0.277449  0.944438  1
  Rb  Rb4  1  0.596230  0.363467  0.388603  1
  Rb  Rb5  1  0.807730  0.722551  0.055562  1
  Rb  Rb6  1  0.358262  0.283301  0.726131  1
  Rb  Rb7  1  0.818540  0.477250  0.037801  1
  Rb  Rb8  1  0.283301  0.358262  0.226131  1
  Rb  Rb9  1  0.151077  0.077430  0.102933  1
  Rb  Rb10  1  0.477250  0.818540  0.537801  1
  Rb  Rb11  1  0.062579  0.014632  0.879086  1
  Rb  Rb12  1  0.848923  0.922570  0.897067  1
  Rb  Rb13  1  0.522750  0.181460  0.462199  1
  Rb  Rb14  1  0.181460  0.522750  0.962199  1
  Rb  Rb15  1  0.067625  0.378947  0.665108  1
  Rb  Rb16  1  0.922570  0.848923  0.397067  1
  Rb  Rb17  1  0.363467  0.596230  0.888603  1
  Rb  Rb18  1  0.636533  0.403770  0.111397  1
  Rb  Rb19  1  0.077430  0.151077  0.602933  1
  Rb  Rb20  1  0.378947  0.067625  0.165108  1
  Rb  Rb21  1  0.605867  0.263418  0.708528  1
  Rb  Rb22  1  0.621053  0.932375  0.834892  1
  Rb  Rb23  1  0.403770  0.636533  0.611397  1
  Rb  Rb24  1  0.722551  0.807730  0.555562  1
  Rb  Rb25  1  0.277449  0.192270  0.444438  1
  Rb  Rb26  1  0.937421  0.985368  0.120914  1
  Rb  Rb27  1  0.263418  0.605867  0.208528  1
  Rb  Rb28  1  0.932375  0.621053  0.334892  1
  Rb  Rb29  1  0.716699  0.641738  0.773869  1
  Rb  Rb30  1  0.014632  0.062579  0.379086  1
  Rb  Rb31  1  0.736582  0.394133  0.791472  1
  Nb  Nb32  1  0.682024  0.006031  0.179680  1
  Nb  Nb33  1  0.006031  0.682024  0.679680  1
  Nb  Nb34  1  0.317976  0.993969  0.820320  1
  Nb  Nb35  1  0.993969  0.317976  0.320320  1
  As  As36  1  0.229127  0.053794  0.350979  1
  As  As37  1  0.402543  0.022640  0.692051  1
  As  As38  1  0.535857  0.115478  0.028006  1
  As  As39  1  0.884522  0.464143  0.471994  1
  As  As40  1  0.193266  0.618915  0.734633  1
  As  As41  1  0.977360  0.597457  0.807949  1
  As  As42  1  0.726852  0.213354  0.925368  1
  As  As43  1  0.786646  0.273148  0.574632  1
  As  As44  1  0.213354  0.726852  0.425368  1
  As  As45  1  0.053794  0.229127  0.850979  1
  As  As46  1  0.618915  0.193266  0.234633  1
  As  As47  1  0.597457  0.977360  0.307949  1
  As  As48  1  0.022640  0.402543  0.192051  1
  As  As49  1  0.946206  0.770873  0.149021  1
  As  As50  1  0.273148  0.786646  0.074632  1
  As  As51  1  0.464143  0.884522  0.971994  1
  As  As52  1  0.115478  0.535857  0.528006  1
  As  As53  1  0.381085  0.806734  0.765367  1
  As  As54  1  0.770873  0.946206  0.649021  1
  As  As55  1  0.806734  0.381085  0.265367  1
  Pb  Pb56  1  0.469326  0.711882  0.962458  1
  Pb  Pb57  1  0.530674  0.288118  0.037542  1
  Pb  Pb58  1  0.711882  0.469326  0.462458  1
  Pb  Pb59  1  0.288118  0.530674  0.537542  1
