# generated using pymatgen
data_Nd2C2Se
_symmetry_space_group_name_H-M   'P 1'
_cell_length_a   7.39554627
_cell_length_b   7.39554635
_cell_length_c   7.05869607
_cell_angle_alpha   78.32355019
_cell_angle_beta   78.32355136
_cell_angle_gamma   33.16611663
_symmetry_Int_Tables_number   1
_chemical_formula_structural   Nd2C2Se
_chemical_formula_sum   'Nd4 C4 Se2'
_cell_volume   206.44340219
_cell_formula_units_Z   2
loop_
 _symmetry_equiv_pos_site_id
 _symmetry_equiv_pos_as_xyz
  1  'x, y, z'
loop_
 _atom_site_type_symbol
 _atom_site_label
 _atom_site_symmetry_multiplicity
 _atom_site_fract_x
 _atom_site_fract_y
 _atom_site_fract_z
 _atom_site_occupancy
  Nd  Nd0  1  0.549769  0.165190  0.140531  1
  Nd  Nd1  1  0.165079  0.550192  0.640920  1
  Nd  Nd2  1  0.449808  0.834921  0.859080  1
  Nd  Nd3  1  0.834810  0.450231  0.359469  1
  C  C4  1  0.358691  0.097550  0.468316  1
  C  C5  1  0.902450  0.641309  0.031684  1
  C  C6  1  0.641103  0.903456  0.531810  1
  C  C7  1  0.096544  0.358897  0.968190  1
  Se  Se8  1  0.790178  0.209822  0.750000  1
  Se  Se9  1  0.211568  0.788432  0.250000  1
