# generated using pymatgen
data_Ho3TmLuSi3
_symmetry_space_group_name_H-M   'P 1'
_cell_length_a   8.36122000
_cell_length_b   8.36122056
_cell_length_c   6.24274300
_cell_angle_alpha   90.00000000
_cell_angle_beta   90.00000000
_cell_angle_gamma   120.00000568
_symmetry_Int_Tables_number   1
_chemical_formula_structural   Ho3TmLuSi3
_chemical_formula_sum   'Ho6 Tm2 Lu2 Si6'
_cell_volume   377.95961147
_cell_formula_units_Z   2
loop_
 _symmetry_equiv_pos_site_id
 _symmetry_equiv_pos_as_xyz
  1  'x, y, z'
loop_
 _atom_site_type_symbol
 _atom_site_label
 _atom_site_symmetry_multiplicity
 _atom_site_fract_x
 _atom_site_fract_y
 _atom_site_fract_z
 _atom_site_occupancy
  Ho  Ho0  1  0.757114  0.000000  0.750000  1
  Ho  Ho1  1  0.757114  0.757114  0.250000  1
  Ho  Ho2  1  0.000000  0.242886  0.250000  1
  Ho  Ho3  1  0.000000  0.757114  0.750000  1
  Ho  Ho4  1  0.242886  0.242886  0.750000  1
  Ho  Ho5  1  0.242886  0.000000  0.250000  1
  Tm  Tm6  1  0.666667  0.333333  0.000000  1
  Tm  Tm7  1  0.333333  0.666667  0.500000  1
  Lu  Lu8  1  0.333333  0.666667  0.000000  1
  Lu  Lu9  1  0.666667  0.333333  0.500000  1
  Si  Si10  1  0.395569  0.000000  0.750000  1
  Si  Si11  1  0.395569  0.395569  0.250000  1
  Si  Si12  1  0.000000  0.604431  0.250000  1
  Si  Si13  1  0.000000  0.395569  0.750000  1
  Si  Si14  1  0.604431  0.604431  0.750000  1
  Si  Si15  1  0.604431  0.000000  0.250000  1
