# generated using pymatgen
data_Er4TmIr2Ru
_symmetry_space_group_name_H-M   'P 1'
_cell_length_a   10.72279500
_cell_length_b   10.72279500
_cell_length_c   6.37470100
_cell_angle_alpha   90.00000000
_cell_angle_beta   90.00000000
_cell_angle_gamma   90.00000000
_symmetry_Int_Tables_number   1
_chemical_formula_structural   Er4TmIr2Ru
_chemical_formula_sum   'Er16 Tm4 Ir8 Ru4'
_cell_volume   732.95249188
_cell_formula_units_Z   4
loop_
 _symmetry_equiv_pos_site_id
 _symmetry_equiv_pos_as_xyz
  1  'x, y, z'
loop_
 _atom_site_type_symbol
 _atom_site_label
 _atom_site_symmetry_multiplicity
 _atom_site_fract_x
 _atom_site_fract_y
 _atom_site_fract_z
 _atom_site_occupancy
  Er  Er0  1  0.293290  0.086443  0.376736  1
  Er  Er1  1  0.293290  0.913557  0.876736  1
  Er  Er2  1  0.706710  0.086443  0.876736  1
  Er  Er3  1  0.706710  0.913557  0.376736  1
  Er  Er4  1  0.586443  0.793290  0.876736  1
  Er  Er5  1  0.586443  0.206710  0.376736  1
  Er  Er6  1  0.413557  0.793290  0.376736  1
  Er  Er7  1  0.413557  0.206710  0.876736  1
  Er  Er8  1  0.206710  0.413557  0.623264  1
  Er  Er9  1  0.206710  0.586443  0.123264  1
  Er  Er10  1  0.793290  0.413557  0.123264  1
  Er  Er11  1  0.793290  0.586443  0.623264  1
  Er  Er12  1  0.913557  0.706710  0.123264  1
  Er  Er13  1  0.913557  0.293290  0.623264  1
  Er  Er14  1  0.086443  0.706710  0.623264  1
  Er  Er15  1  0.086443  0.293290  0.123264  1
  Tm  Tm16  1  0.000000  0.000000  0.500000  1
  Tm  Tm17  1  0.000000  0.000000  0.000000  1
  Tm  Tm18  1  0.500000  0.500000  0.000000  1
  Tm  Tm19  1  0.500000  0.500000  0.500000  1
  Ir  Ir20  1  0.847521  0.152479  0.250000  1
  Ir  Ir21  1  0.847521  0.847521  0.750000  1
  Ir  Ir22  1  0.152479  0.152479  0.750000  1
  Ir  Ir23  1  0.152479  0.847521  0.250000  1
  Ir  Ir24  1  0.652479  0.347521  0.750000  1
  Ir  Ir25  1  0.652479  0.652479  0.250000  1
  Ir  Ir26  1  0.347521  0.347521  0.250000  1
  Ir  Ir27  1  0.347521  0.652479  0.750000  1
  Ru  Ru28  1  0.500000  0.000000  0.122245  1
  Ru  Ru29  1  0.500000  0.000000  0.622245  1
  Ru  Ru30  1  0.000000  0.500000  0.877755  1
  Ru  Ru31  1  0.000000  0.500000  0.377755  1
