# generated using pymatgen
data_Ca4Tm4Cd3Hg5
_symmetry_space_group_name_H-M   'P 1'
_cell_length_a   7.55377500
_cell_length_b   7.55303835
_cell_length_c   7.49720100
_cell_angle_alpha   89.99969657
_cell_angle_beta   89.99886983
_cell_angle_gamma   90.05392740
_symmetry_Int_Tables_number   1
_chemical_formula_structural   Ca4Tm4Cd3Hg5
_chemical_formula_sum   'Ca4 Tm4 Cd3 Hg5'
_cell_volume   427.74475824
_cell_formula_units_Z   1
loop_
 _symmetry_equiv_pos_site_id
 _symmetry_equiv_pos_as_xyz
  1  'x, y, z'
loop_
 _atom_site_type_symbol
 _atom_site_label
 _atom_site_symmetry_multiplicity
 _atom_site_fract_x
 _atom_site_fract_y
 _atom_site_fract_z
 _atom_site_occupancy
  Ca  Ca0  1  0.748702  0.250792  0.997609  1
  Ca  Ca1  1  0.250292  0.749182  0.502378  1
  Ca  Ca2  1  0.749755  0.250823  0.502590  1
  Ca  Ca3  1  0.251339  0.749223  0.997377  1
  Tm  Tm4  1  0.251802  0.251077  0.997063  1
  Tm  Tm5  1  0.748221  0.748921  0.997071  1
  Tm  Tm6  1  0.749609  0.748899  0.502898  1
  Tm  Tm7  1  0.250409  0.251097  0.502924  1
  Cd  Cd8  1  0.000099  0.500083  0.248878  1
  Cd  Cd9  1  0.000097  0.999928  0.248895  1
  Cd  Cd10  1  0.500106  0.000076  0.251078  1
  Hg  Hg11  1  0.500172  0.499896  0.251186  1
  Hg  Hg12  1  0.499852  0.500095  0.748739  1
  Hg  Hg13  1  0.499846  0.999914  0.748621  1
  Hg  Hg14  1  0.999849  0.000088  0.751338  1
  Hg  Hg15  1  0.999849  0.499910  0.751358  1
