# generated using pymatgen
data_Tb2Al6InNi2Au
_symmetry_space_group_name_H-M   'P 1'
_cell_length_a   8.07892249
_cell_length_b   8.07892329
_cell_length_c   6.63372244
_cell_angle_alpha   88.63347873
_cell_angle_beta   91.36652047
_cell_angle_gamma   150.61339288
_symmetry_Int_Tables_number   1
_chemical_formula_structural   Tb2Al6InNi2Au
_chemical_formula_sum   'Tb2 Al6 In1 Ni2 Au1'
_cell_volume   212.39697828
_cell_formula_units_Z   1
loop_
 _symmetry_equiv_pos_site_id
 _symmetry_equiv_pos_as_xyz
  1  'x, y, z'
loop_
 _atom_site_type_symbol
 _atom_site_label
 _atom_site_symmetry_multiplicity
 _atom_site_fract_x
 _atom_site_fract_y
 _atom_site_fract_z
 _atom_site_occupancy
  Tb  Tb0  1  0.875491  0.124509  0.261691  1
  Tb  Tb1  1  0.124509  0.875491  0.738309  1
  Al  Al2  1  0.308654  0.691346  0.556676  1
  Al  Al3  1  0.691346  0.308654  0.443324  1
  Al  Al4  1  0.688096  0.311904  0.047448  1
  Al  Al5  1  0.311904  0.688096  0.952552  1
  Al  Al6  1  0.925615  0.074385  0.788271  1
  Al  Al7  1  0.074385  0.925615  0.211729  1
  In  In8  1  0.500000  0.500000  0.500000  1
  Ni  Ni9  1  0.223002  0.776998  0.247795  1
  Ni  Ni10  1  0.776998  0.223002  0.752205  1
  Au  Au11  1  0.500000  0.500000  0.000000  1
