# generated using pymatgen
data_Ce3Ho(Rh2Pb)2
_symmetry_space_group_name_H-M   'P 1'
_cell_length_a   7.76050124
_cell_length_b   7.76050124
_cell_length_c   3.68154200
_cell_angle_alpha   90.00000000
_cell_angle_beta   90.00000000
_cell_angle_gamma   91.49137854
_symmetry_Int_Tables_number   1
_chemical_formula_structural   Ce3Ho(Rh2Pb)2
_chemical_formula_sum   'Ce3 Ho1 Rh4 Pb2'
_cell_volume   221.64715625
_cell_formula_units_Z   1
loop_
 _symmetry_equiv_pos_site_id
 _symmetry_equiv_pos_as_xyz
  1  'x, y, z'
loop_
 _atom_site_type_symbol
 _atom_site_label
 _atom_site_symmetry_multiplicity
 _atom_site_fract_x
 _atom_site_fract_y
 _atom_site_fract_z
 _atom_site_occupancy
  Ce  Ce0  1  0.831362  0.326476  0.499999  1
  Ce  Ce1  1  0.173523  0.668637  0.499999  1
  Ce  Ce2  1  0.670859  0.829140  0.499999  1
  Ho  Ho3  1  0.331242  0.168757  0.499999  1
  Rh  Rh4  1  0.639598  0.129522  0.000000  1
  Rh  Rh5  1  0.118148  0.381852  0.000000  1
  Rh  Rh6  1  0.858506  0.641493  0.000000  1
  Rh  Rh7  1  0.370478  0.860401  0.000000  1
  Pb  Pb8  1  0.006838  0.000557  0.000000  1
  Pb  Pb9  1  0.499443  0.493162  0.000000  1
