# generated using pymatgen
data_Tb2In2PdPt3
_symmetry_space_group_name_H-M   'P 1'
_cell_length_a   4.58188900
_cell_length_b   4.58188902
_cell_length_c   9.15474200
_cell_angle_alpha   90.00000000
_cell_angle_beta   90.00000000
_cell_angle_gamma   120.00000711
_symmetry_Int_Tables_number   1
_chemical_formula_structural   Tb2In2PdPt3
_chemical_formula_sum   'Tb2 In2 Pd1 Pt3'
_cell_volume   166.44311657
_cell_formula_units_Z   1
loop_
 _symmetry_equiv_pos_site_id
 _symmetry_equiv_pos_as_xyz
  1  'x, y, z'
loop_
 _atom_site_type_symbol
 _atom_site_label
 _atom_site_symmetry_multiplicity
 _atom_site_fract_x
 _atom_site_fract_y
 _atom_site_fract_z
 _atom_site_occupancy
  Tb  Tb0  1  0.333333  0.666667  0.250797  1
  Tb  Tb1  1  0.666667  0.333333  0.747639  1
  In  In2  1  0.000000  0.000000  0.500511  1
  In  In3  1  0.000000  0.000000  0.000057  1
  Pd  Pd4  1  0.333333  0.666667  0.909355  1
  Pt  Pt5  1  0.666667  0.333333  0.089870  1
  Pt  Pt6  1  0.666667  0.333333  0.407534  1
  Pt  Pt7  1  0.333333  0.666667  0.594237  1
