# generated using pymatgen
data_Lu3GaCo2Sn3
_symmetry_space_group_name_H-M   'P 1'
_cell_length_a   7.25981100
_cell_length_b   7.25981283
_cell_length_c   3.92043300
_cell_angle_alpha   90.00000000
_cell_angle_beta   90.00000000
_cell_angle_gamma   120.00000533
_symmetry_Int_Tables_number   1
_chemical_formula_structural   Lu3GaCo2Sn3
_chemical_formula_sum   'Lu3 Ga1 Co2 Sn3'
_cell_volume   178.94327567
_cell_formula_units_Z   1
loop_
 _symmetry_equiv_pos_site_id
 _symmetry_equiv_pos_as_xyz
  1  'x, y, z'
loop_
 _atom_site_type_symbol
 _atom_site_label
 _atom_site_symmetry_multiplicity
 _atom_site_fract_x
 _atom_site_fract_y
 _atom_site_fract_z
 _atom_site_occupancy
  Lu  Lu0  1  0.392862  0.410720  0.500000  1
  Lu  Lu1  1  0.589280  0.982142  0.500000  1
  Lu  Lu2  1  0.017858  0.607138  0.500000  1
  Ga  Ga3  1  0.666667  0.333333  0.000000  1
  Co  Co4  1  0.333333  0.666667  0.000000  1
  Co  Co5  1  0.000000  0.000000  0.500000  1
  Sn  Sn6  1  0.742454  0.749662  0.000000  1
  Sn  Sn7  1  0.250338  0.992793  0.000000  1
  Sn  Sn8  1  0.007207  0.257546  0.000000  1
