# generated using pymatgen
data_ThRe2SiC
_symmetry_space_group_name_H-M   'P 1'
_cell_length_a   5.89408048
_cell_length_b   5.89408032
_cell_length_c   7.33715700
_cell_angle_alpha   90.00000000
_cell_angle_beta   90.00000000
_cell_angle_gamma   139.90264012
_symmetry_Int_Tables_number   1
_chemical_formula_structural   ThRe2SiC
_chemical_formula_sum   'Th2 Re4 Si2 C2'
_cell_volume   164.17438190
_cell_formula_units_Z   2
loop_
 _symmetry_equiv_pos_site_id
 _symmetry_equiv_pos_as_xyz
  1  'x, y, z'
loop_
 _atom_site_type_symbol
 _atom_site_label
 _atom_site_symmetry_multiplicity
 _atom_site_fract_x
 _atom_site_fract_y
 _atom_site_fract_z
 _atom_site_occupancy
  Th  Th0  1  0.545699  0.454301  0.250000  1
  Th  Th1  1  0.454301  0.545699  0.750000  1
  Re  Re2  1  0.826766  0.173234  0.061944  1
  Re  Re3  1  0.173234  0.826766  0.938056  1
  Re  Re4  1  0.173234  0.826766  0.561944  1
  Re  Re5  1  0.826766  0.173234  0.438056  1
  Si  Si6  1  0.266109  0.733891  0.250000  1
  Si  Si7  1  0.733891  0.266109  0.750000  1
  C  C8  1  0.000000  0.000000  0.000000  1
  C  C9  1  0.000000  0.000000  0.500000  1
