# generated using pymatgen
data_YbY2CdIr8
_symmetry_space_group_name_H-M   'P 1'
_cell_length_a   5.32595100
_cell_length_b   5.32595037
_cell_length_c   8.66123400
_cell_angle_alpha   90.00000000
_cell_angle_beta   90.00000000
_cell_angle_gamma   119.99998530
_symmetry_Int_Tables_number   1
_chemical_formula_structural   YbY2CdIr8
_chemical_formula_sum   'Yb1 Y2 Cd1 Ir8'
_cell_volume   212.76723485
_cell_formula_units_Z   1
loop_
 _symmetry_equiv_pos_site_id
 _symmetry_equiv_pos_as_xyz
  1  'x, y, z'
loop_
 _atom_site_type_symbol
 _atom_site_label
 _atom_site_symmetry_multiplicity
 _atom_site_fract_x
 _atom_site_fract_y
 _atom_site_fract_z
 _atom_site_occupancy
  Yb  Yb0  1  0.666667  0.333333  0.931382  1
  Y  Y1  1  0.333333  0.666667  0.076336  1
  Y  Y2  1  0.666667  0.333333  0.563529  1
  Cd  Cd3  1  0.333333  0.666667  0.440282  1
  Ir  Ir4  1  0.000000  0.000000  0.995616  1
  Ir  Ir5  1  0.000000  0.000000  0.497130  1
  Ir  Ir6  1  0.829753  0.659507  0.249281  1
  Ir  Ir7  1  0.170865  0.829135  0.749294  1
  Ir  Ir8  1  0.658269  0.829135  0.749294  1
  Ir  Ir9  1  0.340493  0.170247  0.249281  1
  Ir  Ir10  1  0.829753  0.170247  0.249281  1
  Ir  Ir11  1  0.170865  0.341731  0.749294  1
