# generated using pymatgen
data_DyErZr4(SnRh)6
_symmetry_space_group_name_H-M   'P 1'
_cell_length_a   7.51216816
_cell_length_b   7.51259149
_cell_length_c   7.36060400
_cell_angle_alpha   90.00000000
_cell_angle_beta   90.00000000
_cell_angle_gamma   119.94452623
_symmetry_Int_Tables_number   1
_chemical_formula_structural   DyErZr4(SnRh)6
_chemical_formula_sum   'Dy1 Er1 Zr4 Sn6 Rh6'
_cell_volume   359.94956693
_cell_formula_units_Z   1
loop_
 _symmetry_equiv_pos_site_id
 _symmetry_equiv_pos_as_xyz
  1  'x, y, z'
loop_
 _atom_site_type_symbol
 _atom_site_label
 _atom_site_symmetry_multiplicity
 _atom_site_fract_x
 _atom_site_fract_y
 _atom_site_fract_z
 _atom_site_occupancy
  Dy  Dy0  1  0.403834  0.402502  0.250000  1
  Er  Er1  1  0.596635  0.999114  0.250000  1
  Zr  Zr2  1  0.609363  0.003468  0.750000  1
  Zr  Zr3  1  0.390469  0.394336  0.750000  1
  Zr  Zr4  1  0.000264  0.603183  0.750000  1
  Zr  Zr5  1  0.002732  0.601935  0.250000  1
  Sn  Sn6  1  0.267501  0.999416  0.993072  1
  Sn  Sn7  1  0.732957  0.732005  0.507187  1
  Sn  Sn8  1  0.999182  0.268329  0.496707  1
  Sn  Sn9  1  0.999182  0.268329  0.003293  1
  Sn  Sn10  1  0.732957  0.732005  0.992813  1
  Sn  Sn11  1  0.267501  0.999416  0.506928  1
  Rh  Rh12  1  0.670135  0.335726  0.974624  1
  Rh  Rh13  1  0.670135  0.335726  0.525376  1
  Rh  Rh14  1  0.329054  0.666015  0.975265  1
  Rh  Rh15  1  0.329054  0.666015  0.524735  1
  Rh  Rh16  1  0.999772  0.003918  0.750000  1
  Rh  Rh17  1  0.999277  0.988565  0.250000  1
