# generated using pymatgen
data_DyHf3(SbRh5)2
_symmetry_space_group_name_H-M   'P 1'
_cell_length_a   4.16525300
_cell_length_b   5.69865506
_cell_length_c   11.15527808
_cell_angle_alpha   89.93009416
_cell_angle_beta   90.00000000
_cell_angle_gamma   90.00000000
_symmetry_Int_Tables_number   1
_chemical_formula_structural   DyHf3(SbRh5)2
_chemical_formula_sum   'Dy1 Hf3 Sb2 Rh10'
_cell_volume   264.78527708
_cell_formula_units_Z   1
loop_
 _symmetry_equiv_pos_site_id
 _symmetry_equiv_pos_as_xyz
  1  'x, y, z'
loop_
 _atom_site_type_symbol
 _atom_site_label
 _atom_site_symmetry_multiplicity
 _atom_site_fract_x
 _atom_site_fract_y
 _atom_site_fract_z
 _atom_site_occupancy
  Dy  Dy0  1  0.500000  0.177542  0.642184  1
  Hf  Hf1  1  0.500000  0.826998  0.355126  1
  Hf  Hf2  1  0.500000  0.674311  0.855562  1
  Hf  Hf3  1  0.500000  0.327816  0.142621  1
  Sb  Sb4  1  0.000000  0.500093  0.498139  1
  Sb  Sb5  1  0.000000  0.998475  0.001228  1
  Rh  Rh6  1  0.500000  0.200964  0.896613  1
  Rh  Rh7  1  0.500000  0.800710  0.111611  1
  Rh  Rh8  1  0.500000  0.692847  0.611162  1
  Rh  Rh9  1  0.500000  0.303311  0.382471  1
  Rh  Rh10  1  0.000000  0.441129  0.752114  1
  Rh  Rh11  1  0.000000  0.568396  0.253698  1
  Rh  Rh12  1  0.000000  0.988910  0.492662  1
  Rh  Rh13  1  0.000000  0.501564  0.001904  1
  Rh  Rh14  1  0.000000  0.068056  0.243020  1
  Rh  Rh15  1  0.000000  0.928877  0.759883  1
