# generated using pymatgen
data_YTm2Ga7Cu4
_symmetry_space_group_name_H-M   'P 1'
_cell_length_a   7.98225734
_cell_length_b   7.98225702
_cell_length_c   9.32616786
_cell_angle_alpha   54.36346834
_cell_angle_beta   54.36346871
_cell_angle_gamma   30.61072644
_symmetry_Int_Tables_number   1
_chemical_formula_structural   YTm2Ga7Cu4
_chemical_formula_sum   'Y1 Tm2 Ga7 Cu4'
_cell_volume   241.13919265
_cell_formula_units_Z   1
loop_
 _symmetry_equiv_pos_site_id
 _symmetry_equiv_pos_as_xyz
  1  'x, y, z'
loop_
 _atom_site_type_symbol
 _atom_site_label
 _atom_site_symmetry_multiplicity
 _atom_site_fract_x
 _atom_site_fract_y
 _atom_site_fract_z
 _atom_site_occupancy
  Y  Y0  1  0.000000  0.000000  0.000000  1
  Tm  Tm1  1  0.302325  0.302325  0.706064  1
  Tm  Tm2  1  0.697675  0.697675  0.293936  1
  Ga  Ga3  1  0.858064  0.858064  0.421799  1
  Ga  Ga4  1  0.141936  0.141936  0.578201  1
  Ga  Ga5  1  0.139181  0.139181  0.133282  1
  Ga  Ga6  1  0.860819  0.860819  0.866718  1
  Ga  Ga7  1  0.000000  0.000000  0.500000  1
  Ga  Ga8  1  0.344310  0.344310  0.276074  1
  Ga  Ga9  1  0.655690  0.655690  0.723926  1
  Cu  Cu10  1  0.496069  0.496069  0.312897  1
  Cu  Cu11  1  0.503931  0.503931  0.687103  1
  Cu  Cu12  1  0.658281  0.658281  0.983579  1
  Cu  Cu13  1  0.341719  0.341719  0.016421  1
