# generated using pymatgen
data_Ba(InI4)2
_symmetry_space_group_name_H-M   'P 1'
_cell_length_a   10.09219044
_cell_length_b   10.09218998
_cell_length_c   12.86853131
_cell_angle_alpha   76.03347791
_cell_angle_beta   76.03348275
_cell_angle_gamma   81.65836080
_symmetry_Int_Tables_number   1
_chemical_formula_structural   Ba(InI4)2
_chemical_formula_sum   'Ba2 In4 I16'
_cell_volume   1229.08211355
_cell_formula_units_Z   2
loop_
 _symmetry_equiv_pos_site_id
 _symmetry_equiv_pos_as_xyz
  1  'x, y, z'
loop_
 _atom_site_type_symbol
 _atom_site_label
 _atom_site_symmetry_multiplicity
 _atom_site_fract_x
 _atom_site_fract_y
 _atom_site_fract_z
 _atom_site_occupancy
  Ba  Ba0  1  0.970931  0.029069  0.250000  1
  Ba  Ba1  1  0.029069  0.970931  0.750000  1
  In  In2  1  0.423692  0.943511  0.299182  1
  In  In3  1  0.943511  0.423692  0.799182  1
  In  In4  1  0.056489  0.576308  0.200818  1
  In  In5  1  0.576308  0.056489  0.700818  1
  I  I6  1  0.517887  0.686880  0.384386  1
  I  I7  1  0.190380  0.055234  0.432804  1
  I  I8  1  0.865634  0.384051  0.254986  1
  I  I9  1  0.313663  0.972245  0.115186  1
  I  I10  1  0.686880  0.517887  0.884386  1
  I  I11  1  0.055234  0.190380  0.932804  1
  I  I12  1  0.384051  0.865634  0.754986  1
  I  I13  1  0.972245  0.313663  0.615186  1
  I  I14  1  0.027755  0.686337  0.384814  1
  I  I15  1  0.615949  0.134366  0.245014  1
  I  I16  1  0.944766  0.809620  0.067196  1
  I  I17  1  0.313120  0.482113  0.115614  1
  I  I18  1  0.686337  0.027755  0.884814  1
  I  I19  1  0.134366  0.615949  0.745014  1
  I  I20  1  0.809620  0.944766  0.567196  1
  I  I21  1  0.482113  0.313120  0.615614  1
