# generated using pymatgen
data_CaEr7(Si4W3)4
_symmetry_space_group_name_H-M   'P 1'
_cell_length_a   6.74786031
_cell_length_b   6.92733499
_cell_length_c   12.90131849
_cell_angle_alpha   89.92665882
_cell_angle_beta   89.96278477
_cell_angle_gamma   89.89090522
_symmetry_Int_Tables_number   1
_chemical_formula_structural   CaEr7(Si4W3)4
_chemical_formula_sum   'Ca1 Er7 Si16 W12'
_cell_volume   603.06640485
_cell_formula_units_Z   1
loop_
 _symmetry_equiv_pos_site_id
 _symmetry_equiv_pos_as_xyz
  1  'x, y, z'
loop_
 _atom_site_type_symbol
 _atom_site_label
 _atom_site_symmetry_multiplicity
 _atom_site_fract_x
 _atom_site_fract_y
 _atom_site_fract_z
 _atom_site_occupancy
  Ca  Ca0  1  0.995741  0.832415  0.590881  1
  Er  Er1  1  0.496301  0.668518  0.593662  1
  Er  Er2  1  0.996423  0.831177  0.906492  1
  Er  Er3  1  0.504954  0.331342  0.093161  1
  Er  Er4  1  0.004160  0.167716  0.407707  1
  Er  Er5  1  0.504186  0.331796  0.407232  1
  Er  Er6  1  0.004668  0.168396  0.093380  1
  Er  Er7  1  0.495708  0.668500  0.906198  1
  Si  Si8  1  0.661395  0.958106  0.453745  1
  Si  Si9  1  0.163339  0.542451  0.045687  1
  Si  Si10  1  0.336656  0.041830  0.953857  1
  Si  Si11  1  0.837811  0.459136  0.546834  1
  Si  Si12  1  0.337635  0.040959  0.546626  1
  Si  Si13  1  0.836857  0.457841  0.954218  1
  Si  Si14  1  0.663655  0.957897  0.045873  1
  Si  Si15  1  0.162069  0.542037  0.453225  1
  Si  Si16  1  0.464513  0.372499  0.750590  1
  Si  Si17  1  0.964859  0.127373  0.749735  1
  Si  Si18  1  0.534866  0.628122  0.249991  1
  Si  Si19  1  0.035051  0.871438  0.250671  1
  Si  Si20  1  0.698512  0.865551  0.748940  1
  Si  Si21  1  0.195353  0.636058  0.749006  1
  Si  Si22  1  0.302956  0.135187  0.250142  1
  Si  Si23  1  0.803630  0.364183  0.250379  1
  W  W24  1  0.666601  0.166478  0.625474  1
  W  W25  1  0.169561  0.338070  0.875205  1
  W  W26  1  0.331167  0.836699  0.125545  1
  W  W27  1  0.829076  0.661293  0.373636  1
  W  W28  1  0.331998  0.837402  0.374253  1
  W  W29  1  0.830413  0.662302  0.125293  1
  W  W30  1  0.668963  0.163122  0.874553  1
  W  W31  1  0.169940  0.335725  0.626025  1
  W  W32  1  0.833801  0.496690  0.751186  1
  W  W33  1  0.334269  0.001180  0.751168  1
  W  W34  1  0.166286  0.500589  0.249867  1
  W  W35  1  0.666627  0.999922  0.249563  1
