# generated using pymatgen
data_Nd11Th3Ir5Pt
_symmetry_space_group_name_H-M   'P 1'
_cell_length_a   9.88505600
_cell_length_b   10.20909193
_cell_length_c   6.43374010
_cell_angle_alpha   90.10806918
_cell_angle_beta   90.00000000
_cell_angle_gamma   118.95549017
_symmetry_Int_Tables_number   1
_chemical_formula_structural   Nd11Th3Ir5Pt
_chemical_formula_sum   'Nd11 Th3 Ir5 Pt1'
_cell_volume   568.11316307
_cell_formula_units_Z   1
loop_
 _symmetry_equiv_pos_site_id
 _symmetry_equiv_pos_as_xyz
  1  'x, y, z'
loop_
 _atom_site_type_symbol
 _atom_site_label
 _atom_site_symmetry_multiplicity
 _atom_site_fract_x
 _atom_site_fract_y
 _atom_site_fract_z
 _atom_site_occupancy
  Nd  Nd0  1  0.460974  0.533372  0.297184  1
  Nd  Nd1  1  0.072397  0.533372  0.297184  1
  Nd  Nd2  1  0.928577  0.463792  0.796856  1
  Nd  Nd3  1  0.250752  0.125441  0.502411  1
  Nd  Nd4  1  0.539015  0.078029  0.805747  1
  Nd  Nd5  1  0.746742  0.876917  0.002713  1
  Nd  Nd6  1  0.662705  0.325408  0.282145  1
  Nd  Nd7  1  0.130175  0.876917  0.002713  1
  Nd  Nd8  1  0.461097  0.922195  0.304462  1
  Nd  Nd9  1  0.535216  0.463792  0.796856  1
  Nd  Nd10  1  0.874689  0.125441  0.502411  1
  Th  Th11  1  0.126389  0.252778  0.993314  1
  Th  Th12  1  0.874986  0.749972  0.501551  1
  Th  Th13  1  0.335382  0.670765  0.769198  1
  Ir  Ir14  1  0.826246  0.196142  0.045041  1
  Ir  Ir15  1  0.625531  0.801505  0.549502  1
  Ir  Ir16  1  0.369897  0.196142  0.045041  1
  Ir  Ir17  1  0.192799  0.385597  0.574024  1
  Ir  Ir18  1  0.175972  0.801505  0.549502  1
  Pt  Pt19  1  0.810459  0.620919  0.066148  1
