# generated using pymatgen
data_Ca3Hg(PRh3)2
_symmetry_space_group_name_H-M   'P 1'
_cell_length_a   5.51711300
_cell_length_b   5.51711274
_cell_length_c   15.66097500
_cell_angle_alpha   90.00000000
_cell_angle_beta   90.00000000
_cell_angle_gamma   119.99999557
_symmetry_Int_Tables_number   1
_chemical_formula_structural   Ca3Hg(PRh3)2
_chemical_formula_sum   'Ca6 Hg2 P4 Rh12'
_cell_volume   412.83183983
_cell_formula_units_Z   2
loop_
 _symmetry_equiv_pos_site_id
 _symmetry_equiv_pos_as_xyz
  1  'x, y, z'
loop_
 _atom_site_type_symbol
 _atom_site_label
 _atom_site_symmetry_multiplicity
 _atom_site_fract_x
 _atom_site_fract_y
 _atom_site_fract_z
 _atom_site_occupancy
  Ca  Ca0  1  0.666667  0.333333  0.956296  1
  Ca  Ca1  1  0.666667  0.333333  0.543704  1
  Ca  Ca2  1  0.333333  0.666667  0.043704  1
  Ca  Ca3  1  0.666667  0.333333  0.750000  1
  Ca  Ca4  1  0.333333  0.666667  0.456296  1
  Ca  Ca5  1  0.333333  0.666667  0.250000  1
  Hg  Hg6  1  0.000000  0.000000  0.500000  1
  Hg  Hg7  1  0.000000  0.000000  0.000000  1
  P  P8  1  0.666667  0.333333  0.250000  1
  P  P9  1  0.000000  0.000000  0.250000  1
  P  P10  1  0.000000  0.000000  0.750000  1
  P  P11  1  0.333333  0.666667  0.750000  1
  Rh  Rh12  1  0.167964  0.335925  0.855552  1
  Rh  Rh13  1  0.167964  0.335925  0.644448  1
  Rh  Rh14  1  0.664075  0.832036  0.855552  1
  Rh  Rh15  1  0.335925  0.167964  0.355552  1
  Rh  Rh16  1  0.832036  0.664075  0.355552  1
  Rh  Rh17  1  0.832036  0.167964  0.355552  1
  Rh  Rh18  1  0.832036  0.167964  0.144448  1
  Rh  Rh19  1  0.335925  0.167964  0.144448  1
  Rh  Rh20  1  0.664075  0.832036  0.644448  1
  Rh  Rh21  1  0.167964  0.832036  0.644448  1
  Rh  Rh22  1  0.832036  0.664075  0.144448  1
  Rh  Rh23  1  0.167964  0.832036  0.855552  1
