# generated using pymatgen
data_Ca10PrReN10
_symmetry_space_group_name_H-M   'P 1'
_cell_length_a   7.10116655
_cell_length_b   7.10116535
_cell_length_c   8.96280700
_cell_angle_alpha   80.49358087
_cell_angle_beta   80.49358249
_cell_angle_gamma   59.83248889
_symmetry_Int_Tables_number   1
_chemical_formula_structural   Ca10PrReN10
_chemical_formula_sum   'Ca10 Pr1 Re1 N10'
_cell_volume   383.59019737
_cell_formula_units_Z   1
loop_
 _symmetry_equiv_pos_site_id
 _symmetry_equiv_pos_as_xyz
  1  'x, y, z'
loop_
 _atom_site_type_symbol
 _atom_site_label
 _atom_site_symmetry_multiplicity
 _atom_site_fract_x
 _atom_site_fract_y
 _atom_site_fract_z
 _atom_site_occupancy
  Ca  Ca0  1  0.873651  0.366818  0.821743  1
  Ca  Ca1  1  0.874537  0.874537  0.808996  1
  Ca  Ca2  1  0.738984  0.738984  0.525838  1
  Ca  Ca3  1  0.746948  0.260498  0.513249  1
  Ca  Ca4  1  0.623186  0.137367  0.156059  1
  Ca  Ca5  1  0.366818  0.873651  0.821743  1
  Ca  Ca6  1  0.260498  0.746948  0.513249  1
  Ca  Ca7  1  0.240929  0.240929  0.501096  1
  Ca  Ca8  1  0.137597  0.137597  0.164663  1
  Ca  Ca9  1  0.137367  0.623186  0.156059  1
  Pr  Pr10  1  0.370730  0.370730  0.790210  1
  Re  Re11  1  0.630249  0.630249  0.226318  1
  N  N12  1  0.895575  0.474777  0.313103  1
  N  N13  1  0.989906  0.989906  0.026156  1
  N  N14  1  0.670770  0.670770  0.019702  1
  N  N15  1  0.560471  0.560471  0.677465  1
  N  N16  1  0.474777  0.895575  0.313103  1
  N  N17  1  0.559312  0.059466  0.654183  1
  N  N18  1  0.477818  0.477818  0.298240  1
  N  N19  1  0.311076  0.311076  0.047534  1
  N  N20  1  0.061620  0.061620  0.642919  1
  N  N21  1  0.059466  0.559312  0.654183  1
