# generated using pymatgen
data_SmCd2Ga2Ni
_symmetry_space_group_name_H-M   'P 1'
_cell_length_a   8.59515308
_cell_length_b   8.59515407
_cell_length_c   6.72540700
_cell_angle_alpha   90.00000000
_cell_angle_beta   90.00000000
_cell_angle_gamma   152.00293794
_symmetry_Int_Tables_number   1
_chemical_formula_structural   SmCd2Ga2Ni
_chemical_formula_sum   'Sm2 Cd4 Ga4 Ni2'
_cell_volume   233.23475128
_cell_formula_units_Z   2
loop_
 _symmetry_equiv_pos_site_id
 _symmetry_equiv_pos_as_xyz
  1  'x, y, z'
loop_
 _atom_site_type_symbol
 _atom_site_label
 _atom_site_symmetry_multiplicity
 _atom_site_fract_x
 _atom_site_fract_y
 _atom_site_fract_z
 _atom_site_occupancy
  Sm  Sm0  1  0.369729  0.630271  0.750000  1
  Sm  Sm1  1  0.630271  0.369729  0.250000  1
  Cd  Cd2  1  0.000000  0.000000  0.000000  1
  Cd  Cd3  1  0.000000  0.000000  0.500000  1
  Cd  Cd4  1  0.574344  0.425656  0.750000  1
  Cd  Cd5  1  0.425656  0.574344  0.250000  1
  Ga  Ga6  1  0.190658  0.809342  0.944970  1
  Ga  Ga7  1  0.809342  0.190658  0.055030  1
  Ga  Ga8  1  0.190658  0.809342  0.555030  1
  Ga  Ga9  1  0.809342  0.190658  0.444970  1
  Ni  Ni10  1  0.731029  0.268971  0.750000  1
  Ni  Ni11  1  0.268971  0.731029  0.250000  1
