# generated using pymatgen
data_LiY18Sc(Cd3Pt)2
_symmetry_space_group_name_H-M   'P 1'
_cell_length_a   9.61775700
_cell_length_b   9.61775635
_cell_length_c   9.71896800
_cell_angle_alpha   90.00000000
_cell_angle_beta   90.00000000
_cell_angle_gamma   119.99999193
_symmetry_Int_Tables_number   1
_chemical_formula_structural   LiY18Sc(Cd3Pt)2
_chemical_formula_sum   'Li1 Y18 Sc1 Cd6 Pt2'
_cell_volume   778.57129875
_cell_formula_units_Z   1
loop_
 _symmetry_equiv_pos_site_id
 _symmetry_equiv_pos_as_xyz
  1  'x, y, z'
loop_
 _atom_site_type_symbol
 _atom_site_label
 _atom_site_symmetry_multiplicity
 _atom_site_fract_x
 _atom_site_fract_y
 _atom_site_fract_z
 _atom_site_occupancy
  Li  Li0  1  0.000000  0.000000  0.500000  1
  Y  Y1  1  0.542761  0.457239  0.252903  1
  Y  Y2  1  0.542761  0.085521  0.252903  1
  Y  Y3  1  0.914479  0.457239  0.252903  1
  Y  Y4  1  0.457239  0.542761  0.747097  1
  Y  Y5  1  0.457239  0.914479  0.747097  1
  Y  Y6  1  0.085521  0.542761  0.747097  1
  Y  Y7  1  0.204863  0.795137  0.439525  1
  Y  Y8  1  0.204863  0.409727  0.439525  1
  Y  Y9  1  0.590273  0.795137  0.439525  1
  Y  Y10  1  0.795137  0.204863  0.560475  1
  Y  Y11  1  0.795137  0.590273  0.560475  1
  Y  Y12  1  0.409727  0.204863  0.560475  1
  Y  Y13  1  0.793186  0.206814  0.945040  1
  Y  Y14  1  0.793186  0.586372  0.945040  1
  Y  Y15  1  0.413628  0.206814  0.945040  1
  Y  Y16  1  0.206814  0.793186  0.054960  1
  Y  Y17  1  0.206814  0.413628  0.054960  1
  Y  Y18  1  0.586372  0.793186  0.054960  1
  Sc  Sc19  1  0.000000  0.000000  0.000000  1
  Cd  Cd20  1  0.890157  0.109843  0.252573  1
  Cd  Cd21  1  0.890157  0.780315  0.252573  1
  Cd  Cd22  1  0.219685  0.109843  0.252573  1
  Cd  Cd23  1  0.109843  0.890157  0.747427  1
  Cd  Cd24  1  0.109843  0.219685  0.747427  1
  Cd  Cd25  1  0.780315  0.890157  0.747427  1
  Pt  Pt26  1  0.333333  0.666667  0.250612  1
  Pt  Pt27  1  0.666667  0.333333  0.749388  1
