# generated using pymatgen
data_CsRb13Nb2(Tl3As5)2
_symmetry_space_group_name_H-M   'P 1'
_cell_length_a   8.76254445
_cell_length_b   9.65368241
_cell_length_c   14.66785862
_cell_angle_alpha   85.58145852
_cell_angle_beta   83.25649868
_cell_angle_gamma   87.53314544
_symmetry_Int_Tables_number   1
_chemical_formula_structural   CsRb13Nb2(Tl3As5)2
_chemical_formula_sum   'Cs1 Rb13 Nb2 Tl6 As10'
_cell_volume   1227.79580886
_cell_formula_units_Z   1
loop_
 _symmetry_equiv_pos_site_id
 _symmetry_equiv_pos_as_xyz
  1  'x, y, z'
loop_
 _atom_site_type_symbol
 _atom_site_label
 _atom_site_symmetry_multiplicity
 _atom_site_fract_x
 _atom_site_fract_y
 _atom_site_fract_z
 _atom_site_occupancy
  Cs  Cs0  1  0.832082  0.362417  0.643519  1
  Rb  Rb1  1  0.817713  0.812371  0.131865  1
  Rb  Rb2  1  0.243050  0.008019  0.468198  1
  Rb  Rb3  1  0.271752  0.257387  0.251938  1
  Rb  Rb4  1  0.740169  0.499569  0.974397  1
  Rb  Rb5  1  0.259280  0.501541  0.026807  1
  Rb  Rb6  1  0.683014  0.080968  0.885309  1
  Rb  Rb7  1  0.758639  0.989989  0.530309  1
  Rb  Rb8  1  0.729493  0.743303  0.747942  1
  Rb  Rb9  1  0.329888  0.339772  0.605549  1
  Rb  Rb10  1  0.162849  0.638890  0.351758  1
  Rb  Rb11  1  0.181548  0.187278  0.868238  1
  Rb  Rb12  1  0.315641  0.918611  0.115921  1
  Rb  Rb13  1  0.669860  0.661349  0.394010  1
  Nb  Nb14  1  0.352843  0.604490  0.775594  1
  Nb  Nb15  1  0.646344  0.396239  0.225864  1
  Tl  Tl16  1  0.047190  0.817906  0.875120  1
  Tl  Tl17  1  0.952897  0.183111  0.124889  1
  Tl  Tl18  1  0.371363  0.961075  0.699445  1
  Tl  Tl19  1  0.090785  0.718868  0.618078  1
  Tl  Tl20  1  0.912787  0.280026  0.379878  1
  Tl  Tl21  1  0.630157  0.038580  0.300153  1
  As  As22  1  0.925121  0.460757  0.206140  1
  As  As23  1  0.618835  0.199711  0.121480  1
  As  As24  1  0.073791  0.541469  0.793871  1
  As  As25  1  0.576603  0.301707  0.392370  1
  As  As26  1  0.427792  0.696054  0.608878  1
  As  As27  1  0.021623  0.007984  0.697750  1
  As  As28  1  0.509128  0.398664  0.814877  1
  As  As29  1  0.485613  0.601107  0.189661  1
  As  As30  1  0.381431  0.801597  0.879190  1
  As  As31  1  0.980719  0.989190  0.301006  1
