# generated using pymatgen
data_Y13Ho7(Cd3Os)2
_symmetry_space_group_name_H-M   'P 1'
_cell_length_a   9.62317583
_cell_length_b   9.62317546
_cell_length_c   9.88389774
_cell_angle_alpha   89.91365094
_cell_angle_beta   90.08634959
_cell_angle_gamma   119.98377009
_symmetry_Int_Tables_number   1
_chemical_formula_structural   Y13Ho7(Cd3Os)2
_chemical_formula_sum   'Y13 Ho7 Cd6 Os2'
_cell_volume   792.80438920
_cell_formula_units_Z   1
loop_
 _symmetry_equiv_pos_site_id
 _symmetry_equiv_pos_as_xyz
  1  'x, y, z'
loop_
 _atom_site_type_symbol
 _atom_site_label
 _atom_site_symmetry_multiplicity
 _atom_site_fract_x
 _atom_site_fract_y
 _atom_site_fract_z
 _atom_site_occupancy
  Y  Y0  1  0.000008  0.999992  0.500032  1
  Y  Y1  1  0.999704  0.000296  0.999859  1
  Y  Y2  1  0.790612  0.580839  0.940500  1
  Y  Y3  1  0.419161  0.209388  0.940500  1
  Y  Y4  1  0.209443  0.790557  0.059615  1
  Y  Y5  1  0.209158  0.418872  0.059512  1
  Y  Y6  1  0.581128  0.790842  0.059512  1
  Y  Y7  1  0.539977  0.460023  0.251077  1
  Y  Y8  1  0.540232  0.080169  0.250764  1
  Y  Y9  1  0.919831  0.459768  0.250764  1
  Y  Y10  1  0.459937  0.540063  0.748939  1
  Y  Y11  1  0.460374  0.920362  0.749155  1
  Y  Y12  1  0.079638  0.539626  0.749155  1
  Ho  Ho13  1  0.210067  0.789933  0.440449  1
  Ho  Ho14  1  0.209979  0.420076  0.440470  1
  Ho  Ho15  1  0.579924  0.790021  0.440470  1
  Ho  Ho16  1  0.789999  0.210001  0.559713  1
  Ho  Ho17  1  0.789895  0.579799  0.559531  1
  Ho  Ho18  1  0.420201  0.210105  0.559531  1
  Ho  Ho19  1  0.789983  0.210017  0.939764  1
  Cd  Cd20  1  0.885431  0.114569  0.250006  1
  Cd  Cd21  1  0.885443  0.770867  0.250002  1
  Cd  Cd22  1  0.229133  0.114557  0.250002  1
  Cd  Cd23  1  0.114561  0.885439  0.749999  1
  Cd  Cd24  1  0.114563  0.229131  0.749983  1
  Cd  Cd25  1  0.770869  0.885437  0.749983  1
  Os  Os26  1  0.333403  0.666597  0.252274  1
  Os  Os27  1  0.667345  0.332655  0.748436  1
