# generated using pymatgen
data_Ho16MgCd3Co3Ru
_symmetry_space_group_name_H-M   'P 1'
_cell_length_a   9.51497825
_cell_length_b   9.50936730
_cell_length_c   9.51697004
_cell_angle_alpha   60.02642001
_cell_angle_beta   60.00260282
_cell_angle_gamma   60.01950544
_symmetry_Int_Tables_number   1
_chemical_formula_structural   Ho16MgCd3Co3Ru
_chemical_formula_sum   'Ho16 Mg1 Cd3 Co3 Ru1'
_cell_volume   609.11924329
_cell_formula_units_Z   1
loop_
 _symmetry_equiv_pos_site_id
 _symmetry_equiv_pos_as_xyz
  1  'x, y, z'
loop_
 _atom_site_type_symbol
 _atom_site_label
 _atom_site_symmetry_multiplicity
 _atom_site_fract_x
 _atom_site_fract_y
 _atom_site_fract_z
 _atom_site_occupancy
  Ho  Ho0  1  0.937363  0.936831  0.562362  1
  Ho  Ho1  1  0.815721  0.188375  0.186366  1
  Ho  Ho2  1  0.937363  0.563444  0.562362  1
  Ho  Ho3  1  0.939139  0.562491  0.935878  1
  Ho  Ho4  1  0.815721  0.809537  0.186366  1
  Ho  Ho5  1  0.340559  0.346870  0.349744  1
  Ho  Ho6  1  0.562968  0.940715  0.937612  1
  Ho  Ho7  1  0.563993  0.938591  0.558826  1
  Ho  Ho8  1  0.188785  0.812417  0.810030  1
  Ho  Ho9  1  0.188785  0.188769  0.810030  1
  Ho  Ho10  1  0.342263  0.349408  0.958923  1
  Ho  Ho11  1  0.340559  0.962828  0.349744  1
  Ho  Ho12  1  0.815828  0.188442  0.807288  1
  Ho  Ho13  1  0.562968  0.558706  0.937612  1
  Ho  Ho14  1  0.187224  0.812997  0.186784  1
  Ho  Ho15  1  0.965498  0.343533  0.347436  1
  Mg  Mg16  1  0.576924  0.577110  0.268857  1
  Cd  Cd17  1  0.257312  0.581551  0.579585  1
  Cd  Cd18  1  0.581394  0.579507  0.580454  1
  Cd  Cd19  1  0.581394  0.258647  0.580454  1
  Co  Co20  1  0.139865  0.140417  0.141525  1
  Co  Co21  1  0.139865  0.578194  0.141525  1
  Co  Co22  1  0.140994  0.139907  0.579194  1
  Ru  Ru23  1  0.577519  0.140717  0.141047  1
