# generated using pymatgen
data_Dy8TcOsBr8
_symmetry_space_group_name_H-M   'P 1'
_cell_length_a   9.01410086
_cell_length_b   9.01410175
_cell_length_c   6.57568457
_cell_angle_alpha   89.65240927
_cell_angle_beta   89.65240549
_cell_angle_gamma   89.36905494
_symmetry_Int_Tables_number   1
_chemical_formula_structural   Dy8TcOsBr8
_chemical_formula_sum   'Dy8 Tc1 Os1 Br8'
_cell_volume   534.24897531
_cell_formula_units_Z   1
loop_
 _symmetry_equiv_pos_site_id
 _symmetry_equiv_pos_as_xyz
  1  'x, y, z'
loop_
 _atom_site_type_symbol
 _atom_site_label
 _atom_site_symmetry_multiplicity
 _atom_site_fract_x
 _atom_site_fract_y
 _atom_site_fract_z
 _atom_site_occupancy
  Dy  Dy0  1  0.247713  0.901356  0.011337  1
  Dy  Dy1  1  0.751742  0.098733  0.989383  1
  Dy  Dy2  1  0.098644  0.752287  0.488663  1
  Dy  Dy3  1  0.901267  0.248258  0.510617  1
  Dy  Dy4  1  0.753515  0.903408  0.505787  1
  Dy  Dy5  1  0.246628  0.097031  0.493382  1
  Dy  Dy6  1  0.096592  0.246485  0.994213  1
  Dy  Dy7  1  0.902969  0.753372  0.006618  1
  Tc  Tc8  1  0.995098  0.004902  0.250000  1
  Os  Os9  1  0.004641  0.995359  0.750000  1
  Br  Br10  1  0.417292  0.817765  0.414204  1
  Br  Br11  1  0.582504  0.181861  0.588001  1
  Br  Br12  1  0.182235  0.582708  0.085796  1
  Br  Br13  1  0.818139  0.417496  0.911999  1
  Br  Br14  1  0.412977  0.187985  0.089109  1
  Br  Br15  1  0.587238  0.811207  0.910061  1
  Br  Br16  1  0.812015  0.587023  0.410891  1
  Br  Br17  1  0.188793  0.412762  0.589939  1
