# generated using pymatgen
data_PuTe3F24
_symmetry_space_group_name_H-M   'P 1'
_cell_length_a   5.33190405
_cell_length_b   9.15919900
_cell_length_c   10.20308505
_cell_angle_alpha   90.00000000
_cell_angle_beta   89.92776758
_cell_angle_gamma   90.00000000
_symmetry_Int_Tables_number   1
_chemical_formula_structural   PuTe3F24
_chemical_formula_sum   'Pu1 Te3 F24'
_cell_volume   498.27716167
_cell_formula_units_Z   1
loop_
 _symmetry_equiv_pos_site_id
 _symmetry_equiv_pos_as_xyz
  1  'x, y, z'
loop_
 _atom_site_type_symbol
 _atom_site_label
 _atom_site_symmetry_multiplicity
 _atom_site_fract_x
 _atom_site_fract_y
 _atom_site_fract_z
 _atom_site_occupancy
  Pu  Pu0  1  0.597124  0.750000  0.627690  1
  Te  Te1  1  0.097313  0.250000  0.872298  1
  Te  Te2  1  0.403004  0.250000  0.372132  1
  Te  Te3  1  0.903151  0.750000  0.127736  1
  F  F4  1  0.553515  0.394052  0.269598  1
  F  F5  1  0.053331  0.606009  0.230253  1
  F  F6  1  0.436600  0.904171  0.737149  1
  F  F7  1  0.946447  0.106103  0.769682  1
  F  F8  1  0.180396  0.750000  0.016013  1
  F  F9  1  0.679735  0.250000  0.483935  1
  F  F10  1  0.819803  0.250000  0.983981  1
  F  F11  1  0.299975  0.750000  0.508136  1
  F  F12  1  0.624905  0.750000  0.239232  1
  F  F13  1  0.125169  0.250000  0.261025  1
  F  F14  1  0.375068  0.250000  0.760745  1
  F  F15  1  0.894946  0.750000  0.747033  1
  F  F16  1  0.751462  0.894046  0.025420  1
  F  F17  1  0.251514  0.105858  0.474682  1
  F  F18  1  0.248366  0.394065  0.974640  1
  F  F19  1  0.758471  0.595595  0.518599  1
  F  F20  1  0.248366  0.105935  0.974640  1
  F  F21  1  0.758471  0.904405  0.518599  1
  F  F22  1  0.751462  0.605954  0.025420  1
  F  F23  1  0.251514  0.394142  0.474682  1
  F  F24  1  0.053331  0.893991  0.230253  1
  F  F25  1  0.553515  0.105948  0.269598  1
  F  F26  1  0.946447  0.393897  0.769682  1
  F  F27  1  0.436600  0.595829  0.737149  1
