# generated using pymatgen
data_Tb17Dy3(SiBi2)4
_symmetry_space_group_name_H-M   'P 1'
_cell_length_a   12.12813145
_cell_length_b   9.20186200
_cell_length_c   8.08858030
_cell_angle_alpha   90.00000000
_cell_angle_beta   89.96892316
_cell_angle_gamma   90.00000000
_symmetry_Int_Tables_number   1
_chemical_formula_structural   Tb17Dy3(SiBi2)4
_chemical_formula_sum   'Tb17 Dy3 Si4 Bi8'
_cell_volume   902.69668678
_cell_formula_units_Z   1
loop_
 _symmetry_equiv_pos_site_id
 _symmetry_equiv_pos_as_xyz
  1  'x, y, z'
loop_
 _atom_site_type_symbol
 _atom_site_label
 _atom_site_symmetry_multiplicity
 _atom_site_fract_x
 _atom_site_fract_y
 _atom_site_fract_z
 _atom_site_occupancy
  Tb  Tb0  1  0.063390  0.551789  0.819785  1
  Tb  Tb1  1  0.563427  0.948115  0.680105  1
  Tb  Tb2  1  0.936601  0.051783  0.180232  1
  Tb  Tb3  1  0.436598  0.448251  0.319917  1
  Tb  Tb4  1  0.936601  0.448217  0.180232  1
  Tb  Tb5  1  0.436598  0.051749  0.319917  1
  Tb  Tb6  1  0.063390  0.948211  0.819785  1
  Tb  Tb7  1  0.563427  0.551885  0.680105  1
  Tb  Tb8  1  0.498952  0.250000  0.959996  1
  Tb  Tb9  1  0.211485  0.750000  0.164923  1
  Tb  Tb10  1  0.711523  0.750000  0.335023  1
  Tb  Tb11  1  0.788556  0.250000  0.835022  1
  Tb  Tb12  1  0.288414  0.250000  0.664893  1
  Tb  Tb13  1  0.295314  0.750000  0.635348  1
  Tb  Tb14  1  0.795328  0.750000  0.864679  1
  Tb  Tb15  1  0.704715  0.250000  0.364720  1
  Tb  Tb16  1  0.204595  0.250000  0.135382  1
  Dy  Dy17  1  0.001050  0.750000  0.459819  1
  Dy  Dy18  1  0.501048  0.750000  0.040206  1
  Dy  Dy19  1  0.998942  0.250000  0.540218  1
  Si  Si20  1  0.479927  0.750000  0.413783  1
  Si  Si21  1  0.979970  0.750000  0.086183  1
  Si  Si22  1  0.520092  0.250000  0.585670  1
  Si  Si23  1  0.020039  0.250000  0.913773  1
  Bi  Bi24  1  0.326007  0.511150  0.931947  1
  Bi  Bi25  1  0.826216  0.989103  0.568042  1
  Bi  Bi26  1  0.674006  0.010648  0.068199  1
  Bi  Bi27  1  0.173781  0.489096  0.431954  1
  Bi  Bi28  1  0.674006  0.489352  0.068199  1
  Bi  Bi29  1  0.173781  0.010904  0.431954  1
  Bi  Bi30  1  0.326007  0.988850  0.931947  1
  Bi  Bi31  1  0.826216  0.510897  0.568042  1
