# generated using pymatgen
data_TmLuCu2(AuO4)2
_symmetry_space_group_name_H-M   'P 1'
_cell_length_a   6.39482102
_cell_length_b   6.39482131
_cell_length_c   6.42851924
_cell_angle_alpha   126.05877238
_cell_angle_beta   126.22420789
_cell_angle_gamma   79.29358066
_symmetry_Int_Tables_number   1
_chemical_formula_structural   TmLuCu2(AuO4)2
_chemical_formula_sum   'Tm1 Lu1 Cu2 Au2 O8'
_cell_volume   166.06478229
_cell_formula_units_Z   1
loop_
 _symmetry_equiv_pos_site_id
 _symmetry_equiv_pos_as_xyz
  1  'x, y, z'
loop_
 _atom_site_type_symbol
 _atom_site_label
 _atom_site_symmetry_multiplicity
 _atom_site_fract_x
 _atom_site_fract_y
 _atom_site_fract_z
 _atom_site_occupancy
  Tm  Tm0  1  0.000265  0.000265  0.000000  1
  Lu  Lu1  1  0.749601  0.249601  0.500000  1
  Cu  Cu2  1  0.374929  0.624833  0.249779  1
  Cu  Cu3  1  0.375053  0.125149  0.750221  1
  Au  Au4  1  0.375056  0.624868  0.749971  1
  Au  Au5  1  0.874898  0.625085  0.250029  1
  O  O6  1  0.139680  0.601598  0.857838  1
  O  O7  1  0.743759  0.281842  0.142162  1
  O  O8  1  0.353362  0.014036  0.971720  1
  O  O9  1  0.706184  0.869113  0.469385  1
  O  O10  1  0.042316  0.381642  0.028280  1
  O  O11  1  0.399727  0.236800  0.530615  1
  O  O12  1  0.005254  0.969730  0.359816  1
  O  O13  1  0.609915  0.645438  0.640184  1
