# generated using pymatgen
data_SrLaHo2(AsPt)4
_symmetry_space_group_name_H-M   'P 1'
_cell_length_a   4.31895200
_cell_length_b   4.31895137
_cell_length_c   16.32352500
_cell_angle_alpha   90.00000000
_cell_angle_beta   90.00000000
_cell_angle_gamma   119.99998950
_symmetry_Int_Tables_number   1
_chemical_formula_structural   SrLaHo2(AsPt)4
_chemical_formula_sum   'Sr1 La1 Ho2 As4 Pt4'
_cell_volume   263.69464951
_cell_formula_units_Z   1
loop_
 _symmetry_equiv_pos_site_id
 _symmetry_equiv_pos_as_xyz
  1  'x, y, z'
loop_
 _atom_site_type_symbol
 _atom_site_label
 _atom_site_symmetry_multiplicity
 _atom_site_fract_x
 _atom_site_fract_y
 _atom_site_fract_z
 _atom_site_occupancy
  Sr  Sr0  1  0.000000  0.000000  0.500000  1
  La  La1  1  0.000000  0.000000  0.000000  1
  Ho  Ho2  1  0.000000  0.000000  0.245328  1
  Ho  Ho3  1  0.000000  0.000000  0.754672  1
  As  As4  1  0.333333  0.666667  0.881558  1
  As  As5  1  0.666667  0.333333  0.118442  1
  As  As6  1  0.666667  0.333333  0.369617  1
  As  As7  1  0.333333  0.666667  0.630383  1
  Pt  Pt8  1  0.333333  0.666667  0.349657  1
  Pt  Pt9  1  0.666667  0.333333  0.650343  1
  Pt  Pt10  1  0.666667  0.333333  0.861149  1
  Pt  Pt11  1  0.333333  0.666667  0.138851  1
