# generated using pymatgen
data_Nd3Zr(Co4P3)2
_symmetry_space_group_name_H-M   'P 1'
_cell_length_a   3.78323800
_cell_length_b   10.84058500
_cell_length_c   12.64751000
_cell_angle_alpha   90.00000000
_cell_angle_beta   90.00000000
_cell_angle_gamma   90.00000000
_symmetry_Int_Tables_number   1
_chemical_formula_structural   Nd3Zr(Co4P3)2
_chemical_formula_sum   'Nd6 Zr2 Co16 P12'
_cell_volume   518.70616974
_cell_formula_units_Z   2
loop_
 _symmetry_equiv_pos_site_id
 _symmetry_equiv_pos_as_xyz
  1  'x, y, z'
loop_
 _atom_site_type_symbol
 _atom_site_label
 _atom_site_symmetry_multiplicity
 _atom_site_fract_x
 _atom_site_fract_y
 _atom_site_fract_z
 _atom_site_occupancy
  Nd  Nd0  1  0.000000  0.500000  0.528573  1
  Nd  Nd1  1  0.500000  0.000000  0.471427  1
  Nd  Nd2  1  0.500000  0.820881  0.205531  1
  Nd  Nd3  1  0.500000  0.179119  0.205531  1
  Nd  Nd4  1  0.000000  0.679119  0.794469  1
  Nd  Nd5  1  0.000000  0.320881  0.794469  1
  Zr  Zr6  1  0.500000  0.500000  0.156288  1
  Zr  Zr7  1  0.000000  0.000000  0.843712  1
  Co  Co8  1  0.500000  0.500000  0.704513  1
  Co  Co9  1  0.000000  0.000000  0.295487  1
  Co  Co10  1  0.000000  0.500000  0.986577  1
  Co  Co11  1  0.500000  0.000000  0.013423  1
  Co  Co12  1  0.500000  0.332168  0.993657  1
  Co  Co13  1  0.500000  0.667832  0.993657  1
  Co  Co14  1  0.000000  0.167832  0.006343  1
  Co  Co15  1  0.000000  0.832168  0.006343  1
  Co  Co16  1  0.500000  0.295332  0.433264  1
  Co  Co17  1  0.500000  0.704668  0.433264  1
  Co  Co18  1  0.000000  0.204668  0.566736  1
  Co  Co19  1  0.000000  0.795332  0.566736  1
  Co  Co20  1  0.500000  0.880278  0.700934  1
  Co  Co21  1  0.500000  0.119722  0.700934  1
  Co  Co22  1  0.000000  0.619722  0.299066  1
  Co  Co23  1  0.000000  0.380278  0.299066  1
  P  P24  1  0.500000  0.500000  0.886527  1
  P  P25  1  0.000000  0.000000  0.113473  1
  P  P26  1  0.500000  0.500000  0.358625  1
  P  P27  1  0.000000  0.000000  0.641375  1
  P  P28  1  0.500000  0.304666  0.613199  1
  P  P29  1  0.500000  0.695334  0.613199  1
  P  P30  1  0.000000  0.195334  0.386801  1
  P  P31  1  0.000000  0.804666  0.386801  1
  P  P32  1  0.500000  0.840298  0.898068  1
  P  P33  1  0.500000  0.159702  0.898068  1
  P  P34  1  0.000000  0.659702  0.101932  1
  P  P35  1  0.000000  0.340298  0.101932  1
