# generated using pymatgen
data_Tb2ErPa(Ga3Rh)6
_symmetry_space_group_name_H-M   'P 1'
_cell_length_a   7.60431000
_cell_length_b   7.59753725
_cell_length_c   9.48098800
_cell_angle_alpha   90.00000000
_cell_angle_beta   90.00000000
_cell_angle_gamma   119.82679666
_symmetry_Int_Tables_number   1
_chemical_formula_structural   Tb2ErPa(Ga3Rh)6
_chemical_formula_sum   'Tb2 Er1 Pa1 Ga18 Rh6'
_cell_volume   475.19538741
_cell_formula_units_Z   1
loop_
 _symmetry_equiv_pos_site_id
 _symmetry_equiv_pos_as_xyz
  1  'x, y, z'
loop_
 _atom_site_type_symbol
 _atom_site_label
 _atom_site_symmetry_multiplicity
 _atom_site_fract_x
 _atom_site_fract_y
 _atom_site_fract_z
 _atom_site_occupancy
  Tb  Tb0  1  0.003865  0.331689  0.750000  1
  Tb  Tb1  1  0.331156  0.002890  0.750000  1
  Er  Er2  1  0.669605  0.996978  0.250000  1
  Pa  Pa3  1  0.997637  0.668579  0.250000  1
  Ga  Ga4  1  0.127845  0.127216  0.250000  1
  Ga  Ga5  1  0.874675  0.875159  0.750000  1
  Ga  Ga6  1  0.998934  0.331180  0.079333  1
  Ga  Ga7  1  0.999993  0.665683  0.918858  1
  Ga  Ga8  1  0.999993  0.665683  0.581142  1
  Ga  Ga9  1  0.337447  0.002241  0.420551  1
  Ga  Ga10  1  0.998934  0.331180  0.420667  1
  Ga  Ga11  1  0.665824  0.000588  0.579576  1
  Ga  Ga12  1  0.665824  0.000588  0.920424  1
  Ga  Ga13  1  0.337447  0.002241  0.079449  1
  Ga  Ga14  1  0.332676  0.332679  0.565897  1
  Ga  Ga15  1  0.664518  0.667507  0.435532  1
  Ga  Ga16  1  0.664518  0.667507  0.064468  1
  Ga  Ga17  1  0.332676  0.332679  0.934103  1
  Ga  Ga18  1  0.338013  0.545129  0.250000  1
  Ga  Ga19  1  0.661459  0.452403  0.750000  1
  Ga  Ga20  1  0.545315  0.339413  0.250000  1
  Ga  Ga21  1  0.453061  0.661737  0.750000  1
  Rh  Rh22  1  0.672781  0.330430  0.001961  1
  Rh  Rh23  1  0.327159  0.671416  0.002174  1
  Rh  Rh24  1  0.327159  0.671416  0.497826  1
  Rh  Rh25  1  0.672781  0.330430  0.498039  1
  Rh  Rh26  1  0.999353  0.997680  0.002223  1
  Rh  Rh27  1  0.999353  0.997680  0.497777  1
