# generated using pymatgen
data_SrNp3(AsPd)4
_symmetry_space_group_name_H-M   'P 1'
_cell_length_a   4.34818200
_cell_length_b   7.75864639
_cell_length_c   7.62666417
_cell_angle_alpha   90.30182350
_cell_angle_beta   90.00000000
_cell_angle_gamma   90.00000000
_symmetry_Int_Tables_number   1
_chemical_formula_structural   SrNp3(AsPd)4
_chemical_formula_sum   'Sr1 Np3 As4 Pd4'
_cell_volume   257.28962276
_cell_formula_units_Z   1
loop_
 _symmetry_equiv_pos_site_id
 _symmetry_equiv_pos_as_xyz
  1  'x, y, z'
loop_
 _atom_site_type_symbol
 _atom_site_label
 _atom_site_symmetry_multiplicity
 _atom_site_fract_x
 _atom_site_fract_y
 _atom_site_fract_z
 _atom_site_occupancy
  Sr  Sr0  1  0.750000  0.000667  0.755608  1
  Np  Np1  1  0.250000  0.499259  0.252504  1
  Np  Np2  1  0.250000  0.999453  0.245064  1
  Np  Np3  1  0.750000  0.500332  0.747623  1
  As  As4  1  0.250000  0.277399  0.916009  1
  As  As5  1  0.250000  0.718996  0.583160  1
  As  As6  1  0.750000  0.737038  0.089421  1
  As  As7  1  0.750000  0.234100  0.410914  1
  Pd  Pd8  1  0.250000  0.742715  0.920071  1
  Pd  Pd9  1  0.250000  0.267720  0.578051  1
  Pd  Pd10  1  0.750000  0.262476  0.084733  1
  Pd  Pd11  1  0.750000  0.759844  0.416842  1
