# generated using pymatgen
data_Li3YEr2Si2Ge
_symmetry_space_group_name_H-M   'P 1'
_cell_length_a   6.97838423
_cell_length_b   6.95337957
_cell_length_c   4.23519100
_cell_angle_alpha   90.00000000
_cell_angle_beta   90.00000000
_cell_angle_gamma   119.88152756
_symmetry_Int_Tables_number   1
_chemical_formula_structural   Li3YEr2Si2Ge
_chemical_formula_sum   'Li3 Y1 Er2 Si2 Ge1'
_cell_volume   178.18521871
_cell_formula_units_Z   1
loop_
 _symmetry_equiv_pos_site_id
 _symmetry_equiv_pos_as_xyz
  1  'x, y, z'
loop_
 _atom_site_type_symbol
 _atom_site_label
 _atom_site_symmetry_multiplicity
 _atom_site_fract_x
 _atom_site_fract_y
 _atom_site_fract_z
 _atom_site_occupancy
  Li  Li0  1  0.234658  0.000098  0.500000  1
  Li  Li1  1  0.765342  0.765441  0.500000  1
  Li  Li2  1  0.000000  0.234059  0.500000  1
  Y  Y3  1  0.000000  0.571902  0.000000  1
  Er  Er4  1  0.571847  0.999700  0.000000  1
  Er  Er5  1  0.428153  0.427853  0.000000  1
  Si  Si6  1  0.335210  0.666940  0.500000  1
  Si  Si7  1  0.664790  0.331728  0.500000  1
  Ge  Ge8  1  0.000000  0.002279  0.000000  1
