# generated using pymatgen
data_Sc4GeB4AsRh10
_symmetry_space_group_name_H-M   'P 1'
_cell_length_a   9.23197500
_cell_length_b   3.18314200
_cell_length_c   9.23197500
_cell_angle_alpha   90.00000000
_cell_angle_beta   90.00000000
_cell_angle_gamma   90.00000000
_symmetry_Int_Tables_number   1
_chemical_formula_structural   Sc4GeB4AsRh10
_chemical_formula_sum   'Sc4 Ge1 B4 As1 Rh10'
_cell_volume   271.29716309
_cell_formula_units_Z   1
loop_
 _symmetry_equiv_pos_site_id
 _symmetry_equiv_pos_as_xyz
  1  'x, y, z'
loop_
 _atom_site_type_symbol
 _atom_site_label
 _atom_site_symmetry_multiplicity
 _atom_site_fract_x
 _atom_site_fract_y
 _atom_site_fract_z
 _atom_site_occupancy
  Sc  Sc0  1  0.327021  0.000000  0.174863  1
  Sc  Sc1  1  0.825137  0.000000  0.327021  1
  Sc  Sc2  1  0.174863  0.000000  0.672978  1
  Sc  Sc3  1  0.672978  0.000000  0.825137  1
  Ge  Ge4  1  0.500000  0.000000  0.500000  1
  B  B5  1  0.622629  0.000000  0.123453  1
  B  B6  1  0.123453  0.000000  0.377371  1
  B  B7  1  0.876547  0.000000  0.622629  1
  B  B8  1  0.377371  0.000000  0.876547  1
  As  As9  1  0.000000  0.000000  0.000000  1
  Rh  Rh10  1  0.500000  0.500001  0.000000  1
  Rh  Rh11  1  0.783583  0.500001  0.072575  1
  Rh  Rh12  1  0.072575  0.500001  0.216416  1
  Rh  Rh13  1  0.572245  0.500001  0.284762  1
  Rh  Rh14  1  0.284762  0.500001  0.427755  1
  Rh  Rh15  1  0.000000  0.500001  0.500000  1
  Rh  Rh16  1  0.715238  0.500001  0.572245  1
  Rh  Rh17  1  0.427755  0.500001  0.715238  1
  Rh  Rh18  1  0.927425  0.500001  0.783583  1
  Rh  Rh19  1  0.216416  0.500001  0.927425  1
