# generated using pymatgen
data_CsRb3(NpTe3)2
_symmetry_space_group_name_H-M   'P 1'
_cell_length_a   8.23476155
_cell_length_b   8.23476186
_cell_length_c   9.09586739
_cell_angle_alpha   81.35373915
_cell_angle_beta   81.35373874
_cell_angle_gamma   120.00108842
_symmetry_Int_Tables_number   1
_chemical_formula_structural   CsRb3(NpTe3)2
_chemical_formula_sum   'Cs1 Rb3 Np2 Te6'
_cell_volume   509.44392412
_cell_formula_units_Z   1
loop_
 _symmetry_equiv_pos_site_id
 _symmetry_equiv_pos_as_xyz
  1  'x, y, z'
loop_
 _atom_site_type_symbol
 _atom_site_label
 _atom_site_symmetry_multiplicity
 _atom_site_fract_x
 _atom_site_fract_y
 _atom_site_fract_z
 _atom_site_occupancy
  Cs  Cs0  1  0.651794  0.348206  0.500000  1
  Rb  Rb1  1  0.500894  0.499106  0.000000  1
  Rb  Rb2  1  0.344431  0.655569  0.500000  1
  Rb  Rb3  1  0.000210  0.999790  0.500000  1
  Np  Np4  1  0.832146  0.167854  0.000000  1
  Np  Np5  1  0.167857  0.832143  0.000000  1
  Te  Te6  1  0.814927  0.816812  0.197210  1
  Te  Te7  1  0.183188  0.185073  0.802790  1
  Te  Te8  1  0.431564  0.049020  0.201737  1
  Te  Te9  1  0.566588  0.944580  0.801527  1
  Te  Te10  1  0.950980  0.568436  0.798263  1
  Te  Te11  1  0.055420  0.433412  0.198473  1
