# generated using pymatgen
data_Ho6Al21Si3Os3Ru5
_symmetry_space_group_name_H-M   'P 1'
_cell_length_a   8.69713003
_cell_length_b   8.70559135
_cell_length_c   9.62568115
_cell_angle_alpha   90.06786569
_cell_angle_beta   89.93221290
_cell_angle_gamma   119.99470698
_symmetry_Int_Tables_number   1
_chemical_formula_structural   Ho6Al21Si3Os3Ru5
_chemical_formula_sum   'Ho6 Al21 Si3 Os3 Ru5'
_cell_volume   631.18853052
_cell_formula_units_Z   1
loop_
 _symmetry_equiv_pos_site_id
 _symmetry_equiv_pos_as_xyz
  1  'x, y, z'
loop_
 _atom_site_type_symbol
 _atom_site_label
 _atom_site_symmetry_multiplicity
 _atom_site_fract_x
 _atom_site_fract_y
 _atom_site_fract_z
 _atom_site_occupancy
  Ho  Ho0  1  0.196239  0.389406  0.246618  1
  Ho  Ho1  1  0.802880  0.608693  0.753259  1
  Ho  Ho2  1  0.610601  0.806788  0.247204  1
  Ho  Ho3  1  0.390303  0.194068  0.753564  1
  Ho  Ho4  1  0.198028  0.808147  0.247567  1
  Ho  Ho5  1  0.801943  0.192861  0.753028  1
  Al  Al6  1  0.332720  0.665590  0.477204  1
  Al  Al7  1  0.162920  0.326642  0.574868  1
  Al  Al8  1  0.835822  0.670893  0.422708  1
  Al  Al9  1  0.672535  0.836422  0.574748  1
  Al  Al10  1  0.835858  0.670861  0.077326  1
  Al  Al11  1  0.329577  0.165431  0.422976  1
  Al  Al12  1  0.164526  0.330106  0.922191  1
  Al  Al13  1  0.163388  0.836214  0.574666  1
  Al  Al14  1  0.329614  0.165144  0.077333  1
  Al  Al15  1  0.836345  0.165511  0.423053  1
  Al  Al16  1  0.669507  0.834385  0.922430  1
  Al  Al17  1  0.836092  0.165594  0.077326  1
  Al  Al18  1  0.164354  0.833881  0.922337  1
  Al  Al19  1  0.564999  0.128896  0.248776  1
  Al  Al20  1  0.435737  0.872454  0.748453  1
  Al  Al21  1  0.875541  0.438340  0.248586  1
  Al  Al22  1  0.124200  0.561774  0.748530  1
  Al  Al23  1  0.564331  0.437820  0.249224  1
  Al  Al24  1  0.436238  0.562204  0.747972  1
  Al  Al25  1  0.000752  0.000494  0.248709  1
  Al  Al26  1  0.999061  0.999169  0.749355  1
  Si  Si27  1  0.333178  0.666526  0.039062  1
  Si  Si28  1  0.666768  0.333366  0.962443  1
  Si  Si29  1  0.666377  0.333142  0.540489  1
  Os  Os30  1  0.500011  0.999839  0.998800  1
  Os  Os31  1  0.504189  0.008413  0.501059  1
  Os  Os32  1  0.499821  0.499956  0.998596  1
  Ru  Ru33  1  0.000159  0.500009  0.998444  1
  Ru  Ru34  1  0.990817  0.495419  0.501640  1
  Ru  Ru35  1  0.504515  0.495633  0.501580  1
  Ru  Ru36  1  0.000010  0.000030  0.998729  1
  Ru  Ru37  1  0.000046  0.999880  0.499145  1
