# generated using pymatgen
data_Tm16MgIn3(IrRh)2
_symmetry_space_group_name_H-M   'P 1'
_cell_length_a   9.55165638
_cell_length_b   9.55165667
_cell_length_c   9.56404175
_cell_angle_alpha   59.88888880
_cell_angle_beta   59.88888606
_cell_angle_gamma   59.83110600
_symmetry_Int_Tables_number   1
_chemical_formula_structural   Tm16MgIn3(IrRh)2
_chemical_formula_sum   'Tm16 Mg1 In3 Ir2 Rh2'
_cell_volume   615.17246321
_cell_formula_units_Z   1
loop_
 _symmetry_equiv_pos_site_id
 _symmetry_equiv_pos_as_xyz
  1  'x, y, z'
loop_
 _atom_site_type_symbol
 _atom_site_label
 _atom_site_symmetry_multiplicity
 _atom_site_fract_x
 _atom_site_fract_y
 _atom_site_fract_z
 _atom_site_occupancy
  Tm  Tm0  1  0.059629  0.059629  0.440183  1
  Tm  Tm1  1  0.437602  0.063187  0.436044  1
  Tm  Tm2  1  0.060633  0.440107  0.060583  1
  Tm  Tm3  1  0.047136  0.650331  0.649929  1
  Tm  Tm4  1  0.436160  0.436160  0.063840  1
  Tm  Tm5  1  0.650331  0.047136  0.649929  1
  Tm  Tm6  1  0.187619  0.812021  0.187704  1
  Tm  Tm7  1  0.187439  0.187439  0.812007  1
  Tm  Tm8  1  0.809446  0.809446  0.191033  1
  Tm  Tm9  1  0.440107  0.060633  0.060583  1
  Tm  Tm10  1  0.812021  0.187619  0.187704  1
  Tm  Tm11  1  0.063187  0.437602  0.436044  1
  Tm  Tm12  1  0.809960  0.190492  0.809533  1
  Tm  Tm13  1  0.190492  0.809960  0.809533  1
  Tm  Tm14  1  0.649959  0.649959  0.047775  1
  Tm  Tm15  1  0.652073  0.652073  0.650940  1
  Mg  Mg16  1  0.422648  0.422648  0.422465  1
  In  In17  1  0.749411  0.417379  0.417318  1
  In  In18  1  0.417379  0.749411  0.417318  1
  In  In19  1  0.417325  0.417325  0.749363  1
  Ir  Ir20  1  0.858408  0.858408  0.425114  1
  Ir  Ir21  1  0.857373  0.857373  0.857808  1
  Rh  Rh22  1  0.425352  0.858313  0.858625  1
  Rh  Rh23  1  0.858313  0.425352  0.858625  1
