# generated using pymatgen
data_La5Yb5Pb8
_symmetry_space_group_name_H-M   'P 1'
_cell_length_a   8.18785800
_cell_length_b   8.73303208
_cell_length_c   16.41484816
_cell_angle_alpha   89.98414639
_cell_angle_beta   90.00000000
_cell_angle_gamma   90.00000000
_symmetry_Int_Tables_number   1
_chemical_formula_structural   La5Yb5Pb8
_chemical_formula_sum   'La10 Yb10 Pb16'
_cell_volume   1173.74082637
_cell_formula_units_Z   2
loop_
 _symmetry_equiv_pos_site_id
 _symmetry_equiv_pos_as_xyz
  1  'x, y, z'
loop_
 _atom_site_type_symbol
 _atom_site_label
 _atom_site_symmetry_multiplicity
 _atom_site_fract_x
 _atom_site_fract_y
 _atom_site_fract_z
 _atom_site_occupancy
  La  La0  1  0.336390  0.829068  0.123004  1
  La  La1  1  0.836390  0.670932  0.376996  1
  La  La2  1  0.998993  0.187098  0.092245  1
  La  La3  1  0.498993  0.312902  0.407755  1
  La  La4  1  0.501701  0.684978  0.901650  1
  La  La5  1  0.001701  0.815022  0.598350  1
  La  La6  1  0.999269  0.813628  0.902784  1
  La  La7  1  0.499269  0.686372  0.597216  1
  La  La8  1  0.498805  0.315426  0.092359  1
  La  La9  1  0.998805  0.184574  0.407641  1
  Yb  Yb10  1  0.833716  0.665964  0.121538  1
  Yb  Yb11  1  0.333716  0.834036  0.378462  1
  Yb  Yb12  1  0.669385  0.165936  0.875609  1
  Yb  Yb13  1  0.169385  0.334064  0.624391  1
  Yb  Yb14  1  0.163447  0.331773  0.875159  1
  Yb  Yb15  1  0.663447  0.168227  0.624841  1
  Yb  Yb16  1  0.665966  0.000706  0.249676  1
  Yb  Yb17  1  0.165966  0.499294  0.250324  1
  Yb  Yb18  1  0.833460  0.495542  0.750242  1
  Yb  Yb19  1  0.333460  0.004458  0.749758  1
  Pb  Pb20  1  0.032791  0.893369  0.250228  1
  Pb  Pb21  1  0.532791  0.606631  0.249772  1
  Pb  Pb22  1  0.467354  0.389228  0.751658  1
  Pb  Pb23  1  0.967354  0.110772  0.748342  1
  Pb  Pb24  1  0.797121  0.354355  0.250398  1
  Pb  Pb25  1  0.297121  0.145645  0.249602  1
  Pb  Pb26  1  0.703412  0.856718  0.749602  1
  Pb  Pb27  1  0.203412  0.643282  0.750398  1
  Pb  Pb28  1  0.819872  0.461614  0.958616  1
  Pb  Pb29  1  0.319872  0.038386  0.541384  1
  Pb  Pb30  1  0.680489  0.963648  0.039108  1
  Pb  Pb31  1  0.180489  0.536352  0.460892  1
  Pb  Pb32  1  0.174456  0.534715  0.037502  1
  Pb  Pb33  1  0.674456  0.965285  0.462498  1
  Pb  Pb34  1  0.323371  0.037561  0.956650  1
  Pb  Pb35  1  0.823371  0.462439  0.543350  1
