# generated using pymatgen
data_Pr5Nd2Si4BiO20
_symmetry_space_group_name_H-M   'P 1'
_cell_length_a   7.42444097
_cell_length_b   6.97079586
_cell_length_c   9.40159541
_cell_angle_alpha   71.30130355
_cell_angle_beta   90.15579847
_cell_angle_gamma   90.40096048
_symmetry_Int_Tables_number   1
_chemical_formula_structural   Pr5Nd2Si4BiO20
_chemical_formula_sum   'Pr5 Nd2 Si4 Bi1 O20'
_cell_volume   460.87880659
_cell_formula_units_Z   1
loop_
 _symmetry_equiv_pos_site_id
 _symmetry_equiv_pos_as_xyz
  1  'x, y, z'
loop_
 _atom_site_type_symbol
 _atom_site_label
 _atom_site_symmetry_multiplicity
 _atom_site_fract_x
 _atom_site_fract_y
 _atom_site_fract_z
 _atom_site_occupancy
  Pr  Pr0  1  0.127396  0.265110  0.018641  1
  Pr  Pr1  1  0.656015  0.096423  0.606747  1
  Pr  Pr2  1  0.845943  0.592972  0.611185  1
  Pr  Pr3  1  0.154414  0.406492  0.390051  1
  Pr  Pr4  1  0.345858  0.906754  0.390184  1
  Nd  Nd5  1  0.877315  0.728415  0.979366  1
  Nd  Nd6  1  0.375670  0.763339  0.022428  1
  Si  Si7  1  0.080891  0.042420  0.701575  1
  Si  Si8  1  0.579481  0.461372  0.298697  1
  Si  Si9  1  0.418392  0.544991  0.703640  1
  Si  Si10  1  0.918809  0.955038  0.298133  1
  Bi  Bi11  1  0.628640  0.217711  0.977682  1
  O  O12  1  0.567347  0.363625  0.709927  1
  O  O13  1  0.359103  0.502645  0.880055  1
  O  O14  1  0.376944  0.041299  0.114376  1
  O  O15  1  0.867154  0.997331  0.118680  1
  O  O16  1  0.249955  0.057440  0.589859  1
  O  O17  1  0.748814  0.943672  0.407894  1
  O  O18  1  0.038122  0.746844  0.368048  1
  O  O19  1  0.136122  0.992359  0.880299  1
  O  O20  1  0.461289  0.249355  0.363541  1
  O  O21  1  0.627423  0.959588  0.884603  1
  O  O22  1  0.071198  0.134589  0.291262  1
  O  O23  1  0.122778  0.550428  0.114111  1
  O  O24  1  0.747207  0.442975  0.412965  1
  O  O25  1  0.540950  0.753142  0.634962  1
  O  O26  1  0.961648  0.251507  0.632652  1
  O  O27  1  0.927079  0.864541  0.707552  1
  O  O28  1  0.636439  0.526313  0.120157  1
  O  O29  1  0.877757  0.448781  0.883956  1
  O  O30  1  0.424010  0.633971  0.295958  1
  O  O31  1  0.249842  0.558560  0.590812  1
