# generated using pymatgen
data_Nd8GaSi12PtRh2
_symmetry_space_group_name_H-M   'P 1'
_cell_length_a   8.25139200
_cell_length_b   8.25139225
_cell_length_c   8.51697100
_cell_angle_alpha   89.99778391
_cell_angle_beta   90.00221425
_cell_angle_gamma   119.99676149
_symmetry_Int_Tables_number   1
_chemical_formula_structural   Nd8GaSi12PtRh2
_chemical_formula_sum   'Nd8 Ga1 Si12 Pt1 Rh2'
_cell_volume   502.20892257
_cell_formula_units_Z   1
loop_
 _symmetry_equiv_pos_site_id
 _symmetry_equiv_pos_as_xyz
  1  'x, y, z'
loop_
 _atom_site_type_symbol
 _atom_site_label
 _atom_site_symmetry_multiplicity
 _atom_site_fract_x
 _atom_site_fract_y
 _atom_site_fract_z
 _atom_site_occupancy
  Nd  Nd0  1  0.000003  0.999997  0.747887  1
  Nd  Nd1  1  0.999998  0.000002  0.252552  1
  Nd  Nd2  1  0.497128  0.502872  0.748025  1
  Nd  Nd3  1  0.497124  0.994259  0.748033  1
  Nd  Nd4  1  0.005741  0.502876  0.748033  1
  Nd  Nd5  1  0.498828  0.501172  0.251860  1
  Nd  Nd6  1  0.002328  0.501163  0.251850  1
  Nd  Nd7  1  0.498837  0.997672  0.251850  1
  Ga  Ga8  1  0.666666  0.333334  0.995119  1
  Si  Si9  1  0.838247  0.161753  0.000222  1
  Si  Si10  1  0.838252  0.676486  0.000211  1
  Si  Si11  1  0.323514  0.161748  0.000211  1
  Si  Si12  1  0.834830  0.165170  0.501050  1
  Si  Si13  1  0.834834  0.669658  0.501075  1
  Si  Si14  1  0.330342  0.165166  0.501075  1
  Si  Si15  1  0.168138  0.831862  0.498969  1
  Si  Si16  1  0.663721  0.831866  0.498975  1
  Si  Si17  1  0.168134  0.336279  0.498975  1
  Si  Si18  1  0.169897  0.830103  0.000621  1
  Si  Si19  1  0.660211  0.830112  0.000606  1
  Si  Si20  1  0.169888  0.339789  0.000606  1
  Pt  Pt21  1  0.666662  0.333338  0.502207  1
  Rh  Rh22  1  0.333336  0.666664  0.497899  1
  Rh  Rh23  1  0.333342  0.666658  0.002090  1
