# generated using pymatgen
data_Zr6Fe16Si6W
_symmetry_space_group_name_H-M   'P 1'
_cell_length_a   8.14878814
_cell_length_b   8.14878792
_cell_length_c   8.14878700
_cell_angle_alpha   59.99999156
_cell_angle_beta   59.99999244
_cell_angle_gamma   59.99999643
_symmetry_Int_Tables_number   1
_chemical_formula_structural   Zr6Fe16Si6W
_chemical_formula_sum   'Zr6 Fe16 Si6 W1'
_cell_volume   382.61672117
_cell_formula_units_Z   1
loop_
 _symmetry_equiv_pos_site_id
 _symmetry_equiv_pos_as_xyz
  1  'x, y, z'
loop_
 _atom_site_type_symbol
 _atom_site_label
 _atom_site_symmetry_multiplicity
 _atom_site_fract_x
 _atom_site_fract_y
 _atom_site_fract_z
 _atom_site_occupancy
  Zr  Zr0  1  0.290073  0.709927  0.709927  1
  Zr  Zr1  1  0.709927  0.709927  0.290073  1
  Zr  Zr2  1  0.290073  0.290073  0.709927  1
  Zr  Zr3  1  0.709927  0.290073  0.290073  1
  Zr  Zr4  1  0.709927  0.290073  0.709927  1
  Zr  Zr5  1  0.290073  0.709927  0.290073  1
  Fe  Fe6  1  0.876168  0.876168  0.876168  1
  Fe  Fe7  1  0.030274  0.323242  0.323242  1
  Fe  Fe8  1  0.123832  0.123832  0.628505  1
  Fe  Fe9  1  0.323242  0.030274  0.323242  1
  Fe  Fe10  1  0.323242  0.323242  0.323242  1
  Fe  Fe11  1  0.676758  0.676758  0.969726  1
  Fe  Fe12  1  0.876168  0.876168  0.371495  1
  Fe  Fe13  1  0.676758  0.676758  0.676758  1
  Fe  Fe14  1  0.676758  0.969726  0.676758  1
  Fe  Fe15  1  0.323242  0.323242  0.030274  1
  Fe  Fe16  1  0.876168  0.371495  0.876168  1
  Fe  Fe17  1  0.628505  0.123832  0.123832  1
  Fe  Fe18  1  0.123832  0.628505  0.123832  1
  Fe  Fe19  1  0.123832  0.123832  0.123832  1
  Fe  Fe20  1  0.969726  0.676758  0.676758  1
  Fe  Fe21  1  0.371495  0.876168  0.876168  1
  Si  Si22  1  0.000000  0.000000  0.500000  1
  Si  Si23  1  0.000000  0.500000  0.000000  1
  Si  Si24  1  0.500000  0.000000  0.500000  1
  Si  Si25  1  0.000000  0.500000  0.500000  1
  Si  Si26  1  0.500000  0.000000  0.000000  1
  Si  Si27  1  0.500000  0.500000  0.000000  1
  W  W28  1  0.000000  0.000000  0.000000  1
