# generated using pymatgen
data_YbZn10Cu
_symmetry_space_group_name_H-M   'P 1'
_cell_length_a   8.24316770
_cell_length_b   8.24316698
_cell_length_c   8.23415242
_cell_angle_alpha   99.62780886
_cell_angle_beta   99.62780301
_cell_angle_gamma   131.76623821
_symmetry_Int_Tables_number   1
_chemical_formula_structural   YbZn10Cu
_chemical_formula_sum   'Yb2 Zn20 Cu2'
_cell_volume   380.75951336
_cell_formula_units_Z   2
loop_
 _symmetry_equiv_pos_site_id
 _symmetry_equiv_pos_as_xyz
  1  'x, y, z'
loop_
 _atom_site_type_symbol
 _atom_site_label
 _atom_site_symmetry_multiplicity
 _atom_site_fract_x
 _atom_site_fract_y
 _atom_site_fract_z
 _atom_site_occupancy
  Yb  Yb0  1  0.499599  0.500401  0.000000  1
  Yb  Yb1  1  0.750401  0.249599  0.500000  1
  Zn  Zn2  1  0.405057  0.078173  0.085823  1
  Zn  Zn3  1  0.990109  0.314278  0.918918  1
  Zn  Zn4  1  0.263256  0.674191  0.827424  1
  Zn  Zn5  1  0.853942  0.431489  0.177025  1
  Zn  Zn6  1  0.921827  0.594943  0.914177  1
  Zn  Zn7  1  0.685722  0.009891  0.081082  1
  Zn  Zn8  1  0.325809  0.736744  0.172576  1
  Zn  Zn9  1  0.568511  0.146058  0.822975  1
  Zn  Zn10  1  0.844943  0.671827  0.414177  1
  Zn  Zn11  1  0.259891  0.435722  0.581082  1
  Zn  Zn12  1  0.986744  0.075809  0.672576  1
  Zn  Zn13  1  0.396058  0.318511  0.322975  1
  Zn  Zn14  1  0.328173  0.155057  0.585823  1
  Zn  Zn15  1  0.564278  0.740109  0.418918  1
  Zn  Zn16  1  0.924191  0.013256  0.327424  1
  Zn  Zn17  1  0.681489  0.603942  0.677025  1
  Zn  Zn18  1  0.254561  0.745439  0.500000  1
  Zn  Zn19  1  0.995439  0.004561  0.000000  1
  Zn  Zn20  1  0.125000  0.875000  0.750000  1
  Zn  Zn21  1  0.125000  0.875000  0.250000  1
  Cu  Cu22  1  0.125000  0.375000  0.250000  1
  Cu  Cu23  1  0.625000  0.875000  0.750000  1
