# generated using pymatgen
data_La5Th(ScBi5)2
_symmetry_space_group_name_H-M   'P 1'
_cell_length_a   9.81531796
_cell_length_b   9.82284312
_cell_length_c   6.64676600
_cell_angle_alpha   90.00000000
_cell_angle_beta   90.00000000
_cell_angle_gamma   120.02535967
_symmetry_Int_Tables_number   1
_chemical_formula_structural   La5Th(ScBi5)2
_chemical_formula_sum   'La5 Th1 Sc2 Bi10'
_cell_volume   554.84485783
_cell_formula_units_Z   1
loop_
 _symmetry_equiv_pos_site_id
 _symmetry_equiv_pos_as_xyz
  1  'x, y, z'
loop_
 _atom_site_type_symbol
 _atom_site_label
 _atom_site_symmetry_multiplicity
 _atom_site_fract_x
 _atom_site_fract_y
 _atom_site_fract_z
 _atom_site_occupancy
  La  La0  1  0.379737  0.380135  0.250000  1
  La  La1  1  0.381885  0.000302  0.750000  1
  La  La2  1  0.618115  0.618416  0.750000  1
  La  La3  1  0.620263  0.000397  0.250000  1
  La  La4  1  0.000000  0.380025  0.750000  1
  Th  Th5  1  0.000000  0.619024  0.250000  1
  Sc  Sc6  1  0.000000  0.000463  0.999008  1
  Sc  Sc7  1  0.000000  0.000463  0.500992  1
  Bi  Bi8  1  0.000000  0.262349  0.250000  1
  Bi  Bi9  1  0.330915  0.666838  0.498257  1
  Bi  Bi10  1  0.669085  0.335922  0.001743  1
  Bi  Bi11  1  0.330915  0.666838  0.001743  1
  Bi  Bi12  1  0.260613  0.260128  0.750000  1
  Bi  Bi13  1  0.739387  0.999516  0.750000  1
  Bi  Bi14  1  0.000000  0.737184  0.750000  1
  Bi  Bi15  1  0.741275  0.738676  0.250000  1
  Bi  Bi16  1  0.258725  0.997400  0.250000  1
  Bi  Bi17  1  0.669085  0.335922  0.498257  1
