# generated using pymatgen
data_Tb5Ce3(Si3Pd)4
_symmetry_space_group_name_H-M   'P 1'
_cell_length_a   8.24240600
_cell_length_b   8.24240517
_cell_length_c   8.28727300
_cell_angle_alpha   90.00000000
_cell_angle_beta   90.00000000
_cell_angle_gamma   119.97584586
_symmetry_Int_Tables_number   1
_chemical_formula_structural   Tb5Ce3(Si3Pd)4
_chemical_formula_sum   'Tb5 Ce3 Si12 Pd4'
_cell_volume   487.70352228
_cell_formula_units_Z   1
loop_
 _symmetry_equiv_pos_site_id
 _symmetry_equiv_pos_as_xyz
  1  'x, y, z'
loop_
 _atom_site_type_symbol
 _atom_site_label
 _atom_site_symmetry_multiplicity
 _atom_site_fract_x
 _atom_site_fract_y
 _atom_site_fract_z
 _atom_site_occupancy
  Tb  Tb0  1  0.499828  0.999755  0.250000  1
  Tb  Tb1  1  0.500216  0.000264  0.750000  1
  Tb  Tb2  1  0.000248  0.500172  0.250000  1
  Tb  Tb3  1  0.999739  0.499783  0.750000  1
  Tb  Tb4  1  0.499919  0.500075  0.250000  1
  Ce  Ce5  1  0.500010  0.499968  0.750000  1
  Ce  Ce6  1  0.000047  0.999963  0.250000  1
  Ce  Ce7  1  0.999974  0.000039  0.750000  1
  Si  Si8  1  0.164852  0.330527  0.999592  1
  Si  Si9  1  0.835143  0.669457  0.999636  1
  Si  Si10  1  0.669480  0.835149  0.999548  1
  Si  Si11  1  0.835143  0.669457  0.500364  1
  Si  Si12  1  0.330543  0.164855  0.999593  1
  Si  Si13  1  0.164852  0.330527  0.500408  1
  Si  Si14  1  0.165608  0.834362  0.998654  1
  Si  Si15  1  0.330543  0.164855  0.500407  1
  Si  Si16  1  0.834393  0.165634  0.999035  1
  Si  Si17  1  0.669480  0.835149  0.500452  1
  Si  Si18  1  0.834393  0.165634  0.500965  1
  Si  Si19  1  0.165608  0.834362  0.501346  1
  Pd  Pd20  1  0.332883  0.667071  0.003540  1
  Pd  Pd21  1  0.667108  0.332934  0.004009  1
  Pd  Pd22  1  0.667108  0.332934  0.495991  1
  Pd  Pd23  1  0.332883  0.667071  0.496460  1
