# generated using pymatgen
data_Ho2Ni14(PH)3
_symmetry_space_group_name_H-M   'P 1'
_cell_length_a   6.22375407
_cell_length_b   6.22375420
_cell_length_c   6.22375464
_cell_angle_alpha   83.67564399
_cell_angle_beta   83.67563779
_cell_angle_gamma   83.67562532
_symmetry_Int_Tables_number   1
_chemical_formula_structural   Ho2Ni14(PH)3
_chemical_formula_sum   'Ho2 Ni14 P3 H3'
_cell_volume   236.97716942
_cell_formula_units_Z   1
loop_
 _symmetry_equiv_pos_site_id
 _symmetry_equiv_pos_as_xyz
  1  'x, y, z'
loop_
 _atom_site_type_symbol
 _atom_site_label
 _atom_site_symmetry_multiplicity
 _atom_site_fract_x
 _atom_site_fract_y
 _atom_site_fract_z
 _atom_site_occupancy
  Ho  Ho0  1  0.649788  0.649788  0.649788  1
  Ho  Ho1  1  0.350212  0.350212  0.350212  1
  Ni  Ni2  1  0.290610  0.709390  0.000000  1
  Ni  Ni3  1  0.709390  0.000000  0.290610  1
  Ni  Ni4  1  0.000000  0.290610  0.709390  1
  Ni  Ni5  1  0.290610  0.000000  0.709390  1
  Ni  Ni6  1  0.000000  0.709390  0.290610  1
  Ni  Ni7  1  0.709390  0.290610  0.000000  1
  Ni  Ni8  1  0.342006  0.342006  0.864806  1
  Ni  Ni9  1  0.342006  0.864806  0.342006  1
  Ni  Ni10  1  0.864806  0.342006  0.342006  1
  Ni  Ni11  1  0.657994  0.657994  0.135194  1
  Ni  Ni12  1  0.657994  0.135194  0.657994  1
  Ni  Ni13  1  0.135194  0.657994  0.657994  1
  Ni  Ni14  1  0.899054  0.899054  0.899054  1
  Ni  Ni15  1  0.100946  0.100946  0.100946  1
  P  P16  1  0.000000  0.000000  0.500000  1
  P  P17  1  0.000000  0.500000  0.000000  1
  P  P18  1  0.500000  0.000000  0.000000  1
  H  H19  1  0.500000  0.500000  0.000000  1
  H  H20  1  0.500000  0.000000  0.500000  1
  H  H21  1  0.000000  0.500000  0.500000  1
