# generated using pymatgen
data_Hf18ZnRe6W2Se
_symmetry_space_group_name_H-M   'P 1'
_cell_length_a   8.68469464
_cell_length_b   8.68469459
_cell_length_c   8.59382112
_cell_angle_alpha   90.05036495
_cell_angle_beta   89.94963813
_cell_angle_gamma   120.13254516
_symmetry_Int_Tables_number   1
_chemical_formula_structural   Hf18ZnRe6W2Se
_chemical_formula_sum   'Hf18 Zn1 Re6 W2 Se1'
_cell_volume   560.58854699
_cell_formula_units_Z   1
loop_
 _symmetry_equiv_pos_site_id
 _symmetry_equiv_pos_as_xyz
  1  'x, y, z'
loop_
 _atom_site_type_symbol
 _atom_site_label
 _atom_site_symmetry_multiplicity
 _atom_site_fract_x
 _atom_site_fract_y
 _atom_site_fract_z
 _atom_site_occupancy
  Hf  Hf0  1  0.194634  0.805366  0.447747  1
  Hf  Hf1  1  0.194545  0.388766  0.448026  1
  Hf  Hf2  1  0.611234  0.805455  0.448026  1
  Hf  Hf3  1  0.806261  0.193739  0.547701  1
  Hf  Hf4  1  0.806245  0.612819  0.547597  1
  Hf  Hf5  1  0.387181  0.193755  0.547597  1
  Hf  Hf6  1  0.807678  0.192322  0.951910  1
  Hf  Hf7  1  0.807479  0.615487  0.952211  1
  Hf  Hf8  1  0.384513  0.192521  0.952211  1
  Hf  Hf9  1  0.193504  0.806496  0.052733  1
  Hf  Hf10  1  0.193241  0.386139  0.051854  1
  Hf  Hf11  1  0.613861  0.806759  0.051854  1
  Hf  Hf12  1  0.541195  0.458805  0.249188  1
  Hf  Hf13  1  0.541704  0.082506  0.249285  1
  Hf  Hf14  1  0.917494  0.458296  0.249285  1
  Hf  Hf15  1  0.455180  0.544820  0.750457  1
  Hf  Hf16  1  0.455632  0.909915  0.750497  1
  Hf  Hf17  1  0.090085  0.544368  0.750497  1
  Zn  Zn18  1  0.333512  0.666488  0.249510  1
  Re  Re19  1  0.889534  0.110466  0.250752  1
  Re  Re20  1  0.889132  0.778671  0.250691  1
  Re  Re21  1  0.221329  0.110868  0.250691  1
  Re  Re22  1  0.111420  0.221898  0.749282  1
  Re  Re23  1  0.778102  0.888580  0.749282  1
  Re  Re24  1  0.999441  0.000559  0.000992  1
  W  W25  1  0.109609  0.890391  0.749857  1
  W  W26  1  0.999447  0.000553  0.499257  1
  Se  Se27  1  0.666810  0.333190  0.751011  1
