# generated using pymatgen
data_Ta12Al9Rh3C4
_symmetry_space_group_name_H-M   'P 1'
_cell_length_a   8.32714982
_cell_length_b   8.32715007
_cell_length_c   8.32714955
_cell_angle_alpha   60.01284879
_cell_angle_beta   60.01285002
_cell_angle_gamma   60.01284455
_symmetry_Int_Tables_number   1
_chemical_formula_structural   Ta12Al9Rh3C4
_chemical_formula_sum   'Ta12 Al9 Rh3 C4'
_cell_volume   408.41399399
_cell_formula_units_Z   1
loop_
 _symmetry_equiv_pos_site_id
 _symmetry_equiv_pos_as_xyz
  1  'x, y, z'
loop_
 _atom_site_type_symbol
 _atom_site_label
 _atom_site_symmetry_multiplicity
 _atom_site_fract_x
 _atom_site_fract_y
 _atom_site_fract_z
 _atom_site_occupancy
  Ta  Ta0  1  0.183919  0.816012  0.183919  1
  Ta  Ta1  1  0.814336  0.188154  0.814336  1
  Ta  Ta2  1  0.066081  0.433988  0.066081  1
  Ta  Ta3  1  0.061846  0.435664  0.435664  1
  Ta  Ta4  1  0.433988  0.066081  0.066081  1
  Ta  Ta5  1  0.435664  0.061846  0.435664  1
  Ta  Ta6  1  0.814336  0.814336  0.188154  1
  Ta  Ta7  1  0.066081  0.066081  0.433988  1
  Ta  Ta8  1  0.183919  0.183919  0.816012  1
  Ta  Ta9  1  0.188154  0.814336  0.814336  1
  Ta  Ta10  1  0.435664  0.435664  0.061846  1
  Ta  Ta11  1  0.816012  0.183919  0.183919  1
  Al  Al12  1  0.625000  0.625000  0.625000  1
  Al  Al13  1  0.838928  0.838928  0.497898  1
  Al  Al14  1  0.497898  0.838928  0.838928  1
  Al  Al15  1  0.411072  0.752102  0.411072  1
  Al  Al16  1  0.752102  0.411072  0.411072  1
  Al  Al17  1  0.415320  0.415320  0.415320  1
  Al  Al18  1  0.411072  0.411072  0.752102  1
  Al  Al19  1  0.838928  0.497898  0.838928  1
  Al  Al20  1  0.834680  0.834680  0.834680  1
  Rh  Rh21  1  0.125000  0.625000  0.625000  1
  Rh  Rh22  1  0.625000  0.625000  0.125000  1
  Rh  Rh23  1  0.625000  0.125000  0.625000  1
  C  C24  1  0.125000  0.125000  0.125000  1
  C  C25  1  0.125000  0.125000  0.625000  1
  C  C26  1  0.625000  0.125000  0.125000  1
  C  C27  1  0.125000  0.625000  0.125000  1
