# generated using pymatgen
data_Ho5TmCo8(P6Rh5)2
_symmetry_space_group_name_H-M   'P 1'
_cell_length_a   3.78300800
_cell_length_b   10.92887047
_cell_length_c   12.52872771
_cell_angle_alpha   89.96384821
_cell_angle_beta   90.00000000
_cell_angle_gamma   90.00000000
_symmetry_Int_Tables_number   1
_chemical_formula_structural   Ho5TmCo8(P6Rh5)2
_chemical_formula_sum   'Ho5 Tm1 Co8 P12 Rh10'
_cell_volume   517.98767085
_cell_formula_units_Z   1
loop_
 _symmetry_equiv_pos_site_id
 _symmetry_equiv_pos_as_xyz
  1  'x, y, z'
loop_
 _atom_site_type_symbol
 _atom_site_label
 _atom_site_symmetry_multiplicity
 _atom_site_fract_x
 _atom_site_fract_y
 _atom_site_fract_z
 _atom_site_occupancy
  Ho  Ho0  1  0.000000  0.499823  0.517861  1
  Ho  Ho1  1  0.500000  0.000007  0.475999  1
  Ho  Ho2  1  0.500000  0.184117  0.197733  1
  Ho  Ho3  1  0.000000  0.680352  0.804015  1
  Ho  Ho4  1  0.000000  0.320000  0.804261  1
  Tm  Tm5  1  0.500000  0.816028  0.197555  1
  Co  Co6  1  0.000000  0.500569  0.992871  1
  Co  Co7  1  0.500000  0.999724  0.011674  1
  Co  Co8  1  0.000000  0.621270  0.283149  1
  Co  Co9  1  0.000000  0.379386  0.284190  1
  Co  Co10  1  0.500000  0.334452  0.997463  1
  Co  Co11  1  0.500000  0.666213  0.997934  1
  Co  Co12  1  0.000000  0.168431  0.007179  1
  Co  Co13  1  0.000000  0.831583  0.007574  1
  P  P14  1  0.500000  0.317046  0.619733  1
  P  P15  1  0.500000  0.683146  0.619023  1
  P  P16  1  0.000000  0.191852  0.372368  1
  P  P17  1  0.000000  0.807239  0.371395  1
  P  P18  1  0.500000  0.500419  0.895067  1
  P  P19  1  0.000000  0.999699  0.107528  1
  P  P20  1  0.500000  0.840473  0.904637  1
  P  P21  1  0.500000  0.159775  0.904900  1
  P  P22  1  0.000000  0.657682  0.104541  1
  P  P23  1  0.000000  0.343363  0.104223  1
  P  P24  1  0.500000  0.499595  0.341331  1
  P  P25  1  0.000000  0.999821  0.652316  1
  Rh  Rh26  1  0.500000  0.300783  0.426038  1
  Rh  Rh27  1  0.500000  0.698912  0.425217  1
  Rh  Rh28  1  0.000000  0.205119  0.568872  1
  Rh  Rh29  1  0.000000  0.794497  0.568326  1
  Rh  Rh30  1  0.500000  0.872444  0.716039  1
  Rh  Rh31  1  0.500000  0.127483  0.716771  1
  Rh  Rh32  1  0.500000  0.499928  0.157671  1
  Rh  Rh33  1  0.000000  0.999335  0.842854  1
  Rh  Rh34  1  0.500000  0.500321  0.709099  1
  Rh  Rh35  1  0.000000  0.999112  0.292591  1
