# generated using pymatgen
data_Tb2Yb(Ga2Ni3)3
_symmetry_space_group_name_H-M   'P 1'
_cell_length_a   3.88385300
_cell_length_b   8.97504603
_cell_length_c   8.96485400
_cell_angle_alpha   120.03761635
_cell_angle_beta   90.00000000
_cell_angle_gamma   90.00000000
_symmetry_Int_Tables_number   1
_chemical_formula_structural   Tb2Yb(Ga2Ni3)3
_chemical_formula_sum   'Tb2 Yb1 Ga6 Ni9'
_cell_volume   270.52573055
_cell_formula_units_Z   1
loop_
 _symmetry_equiv_pos_site_id
 _symmetry_equiv_pos_as_xyz
  1  'x, y, z'
loop_
 _atom_site_type_symbol
 _atom_site_label
 _atom_site_symmetry_multiplicity
 _atom_site_fract_x
 _atom_site_fract_y
 _atom_site_fract_z
 _atom_site_occupancy
  Tb  Tb0  1  0.500000  0.833303  0.666605  1
  Tb  Tb1  1  0.500000  0.166697  0.333395  1
  Yb  Yb2  1  0.000000  0.500000  0.000000  1
  Ga  Ga3  1  0.500000  0.181877  0.000000  1
  Ga  Ga4  1  0.500000  0.500053  0.681826  1
  Ga  Ga5  1  0.500000  0.818227  0.318174  1
  Ga  Ga6  1  0.500000  0.818123  0.000000  1
  Ga  Ga7  1  0.500000  0.499947  0.318174  1
  Ga  Ga8  1  0.500000  0.181773  0.681826  1
  Ni  Ni9  1  0.000000  0.000000  0.000000  1
  Ni  Ni10  1  0.000000  0.500000  0.500000  1
  Ni  Ni11  1  0.000000  0.000000  0.500000  1
  Ni  Ni12  1  0.000000  0.678319  0.356637  1
  Ni  Ni13  1  0.000000  0.143615  0.821799  1
  Ni  Ni14  1  0.000000  0.678183  0.821799  1
  Ni  Ni15  1  0.000000  0.321681  0.643363  1
  Ni  Ni16  1  0.000000  0.321817  0.178201  1
  Ni  Ni17  1  0.000000  0.856385  0.178201  1
