# generated using pymatgen
data_Hf4GaSi7Mo6
_symmetry_space_group_name_H-M   'P 1'
_cell_length_a   6.60229984
_cell_length_b   6.76623475
_cell_length_c   12.67580400
_cell_angle_alpha   90.00000000
_cell_angle_beta   90.00000000
_cell_angle_gamma   90.30847578
_symmetry_Int_Tables_number   1
_chemical_formula_structural   Hf4GaSi7Mo6
_chemical_formula_sum   'Hf8 Ga2 Si14 Mo12'
_cell_volume   566.25431651
_cell_formula_units_Z   2
loop_
 _symmetry_equiv_pos_site_id
 _symmetry_equiv_pos_as_xyz
  1  'x, y, z'
loop_
 _atom_site_type_symbol
 _atom_site_label
 _atom_site_symmetry_multiplicity
 _atom_site_fract_x
 _atom_site_fract_y
 _atom_site_fract_z
 _atom_site_occupancy
  Hf  Hf0  1  0.993894  0.174475  0.090909  1
  Hf  Hf1  1  0.006106  0.825525  0.909091  1
  Hf  Hf2  1  0.504594  0.670731  0.908348  1
  Hf  Hf3  1  0.006106  0.825525  0.590909  1
  Hf  Hf4  1  0.495406  0.329269  0.091652  1
  Hf  Hf5  1  0.993894  0.174475  0.409091  1
  Hf  Hf6  1  0.495406  0.329269  0.408348  1
  Hf  Hf7  1  0.504594  0.670731  0.591652  1
  Ga  Ga8  1  0.031279  0.123059  0.750000  1
  Ga  Ga9  1  0.968721  0.876941  0.250000  1
  Si  Si10  1  0.467537  0.622400  0.250000  1
  Si  Si11  1  0.532463  0.377600  0.750000  1
  Si  Si12  1  0.301426  0.861386  0.750000  1
  Si  Si13  1  0.698574  0.138614  0.250000  1
  Si  Si14  1  0.198876  0.357991  0.250000  1
  Si  Si15  1  0.801124  0.642009  0.750000  1
  Si  Si16  1  0.166395  0.456367  0.544210  1
  Si  Si17  1  0.833605  0.543633  0.455790  1
  Si  Si18  1  0.329711  0.960129  0.456761  1
  Si  Si19  1  0.833605  0.543633  0.044210  1
  Si  Si20  1  0.670289  0.039871  0.543239  1
  Si  Si21  1  0.166395  0.456367  0.955790  1
  Si  Si22  1  0.670289  0.039871  0.956761  1
  Si  Si23  1  0.329711  0.960129  0.043239  1
  Mo  Mo24  1  0.167809  0.512801  0.750000  1
  Mo  Mo25  1  0.832191  0.487199  0.250000  1
  Mo  Mo26  1  0.337207  0.012866  0.250000  1
  Mo  Mo27  1  0.662793  0.987134  0.750000  1
  Mo  Mo28  1  0.339812  0.164926  0.621733  1
  Mo  Mo29  1  0.660188  0.835074  0.378267  1
  Mo  Mo30  1  0.173830  0.657589  0.378308  1
  Mo  Mo31  1  0.660188  0.835074  0.121733  1
  Mo  Mo32  1  0.826170  0.342411  0.621692  1
  Mo  Mo33  1  0.339812  0.164926  0.878267  1
  Mo  Mo34  1  0.826170  0.342411  0.878308  1
  Mo  Mo35  1  0.173830  0.657589  0.121692  1
