# generated using pymatgen
data_Th8Mn(Si4Pd)3
_symmetry_space_group_name_H-M   'P 1'
_cell_length_a   8.23407800
_cell_length_b   8.23407910
_cell_length_c   8.45004100
_cell_angle_alpha   90.00000000
_cell_angle_beta   90.00000000
_cell_angle_gamma   119.99999556
_symmetry_Int_Tables_number   1
_chemical_formula_structural   Th8Mn(Si4Pd)3
_chemical_formula_sum   'Th8 Mn1 Si12 Pd3'
_cell_volume   496.15740664
_cell_formula_units_Z   1
loop_
 _symmetry_equiv_pos_site_id
 _symmetry_equiv_pos_as_xyz
  1  'x, y, z'
loop_
 _atom_site_type_symbol
 _atom_site_label
 _atom_site_symmetry_multiplicity
 _atom_site_fract_x
 _atom_site_fract_y
 _atom_site_fract_z
 _atom_site_occupancy
  Th  Th0  1  0.504355  0.495645  0.756983  1
  Th  Th1  1  0.504617  0.495383  0.242951  1
  Th  Th2  1  0.991288  0.495645  0.756983  1
  Th  Th3  1  0.990766  0.495383  0.242951  1
  Th  Th4  1  0.504355  0.008712  0.756983  1
  Th  Th5  1  0.504617  0.009234  0.242951  1
  Th  Th6  1  0.000000  0.000000  0.750363  1
  Th  Th7  1  0.000000  0.000000  0.249681  1
  Mn  Mn8  1  0.666667  0.333333  0.000011  1
  Si  Si9  1  0.828550  0.171450  0.999743  1
  Si  Si10  1  0.163605  0.836395  0.000205  1
  Si  Si11  1  0.342901  0.171450  0.999743  1
  Si  Si12  1  0.166138  0.833862  0.499767  1
  Si  Si13  1  0.672790  0.836395  0.000205  1
  Si  Si14  1  0.834688  0.165312  0.500190  1
  Si  Si15  1  0.828550  0.657099  0.999743  1
  Si  Si16  1  0.667723  0.833862  0.499767  1
  Si  Si17  1  0.163605  0.327210  0.000205  1
  Si  Si18  1  0.330625  0.165312  0.500190  1
  Si  Si19  1  0.166138  0.332277  0.499767  1
  Si  Si20  1  0.834688  0.669375  0.500190  1
  Pd  Pd21  1  0.333333  0.666667  0.000278  1
  Pd  Pd22  1  0.333333  0.666667  0.499741  1
  Pd  Pd23  1  0.666667  0.333333  0.500410  1
