# generated using pymatgen
data_Pr3Dy3FeCl10
_symmetry_space_group_name_H-M   'P 1'
_cell_length_a   7.27617383
_cell_length_b   8.80798296
_cell_length_c   9.04077314
_cell_angle_alpha   109.36141962
_cell_angle_beta   97.56777745
_cell_angle_gamma   105.22620538
_symmetry_Int_Tables_number   1
_chemical_formula_structural   Pr3Dy3FeCl10
_chemical_formula_sum   'Pr3 Dy3 Fe1 Cl10'
_cell_volume   511.99463667
_cell_formula_units_Z   1
loop_
 _symmetry_equiv_pos_site_id
 _symmetry_equiv_pos_as_xyz
  1  'x, y, z'
loop_
 _atom_site_type_symbol
 _atom_site_label
 _atom_site_symmetry_multiplicity
 _atom_site_fract_x
 _atom_site_fract_y
 _atom_site_fract_z
 _atom_site_occupancy
  Pr  Pr0  1  0.029143  0.711091  0.908484  1
  Pr  Pr1  1  0.380344  0.151661  0.201615  1
  Pr  Pr2  1  0.965957  0.286308  0.087642  1
  Dy  Dy3  1  0.127201  0.047364  0.746435  1
  Dy  Dy4  1  0.629441  0.857640  0.807860  1
  Dy  Dy5  1  0.866283  0.947030  0.250684  1
  Fe  Fe6  1  0.999525  0.999167  0.000314  1
  Cl  Cl7  1  0.215461  0.753695  0.651812  1
  Cl  Cl8  1  0.635117  0.547517  0.722083  1
  Cl  Cl9  1  0.232953  0.076921  0.458160  1
  Cl  Cl10  1  0.808508  0.250640  0.358655  1
  Cl  Cl11  1  0.543148  0.166330  0.910794  1
  Cl  Cl12  1  0.754743  0.915814  0.547649  1
  Cl  Cl13  1  0.903184  0.636917  0.174425  1
  Cl  Cl14  1  0.354284  0.467650  0.274651  1
  Cl  Cl15  1  0.094453  0.359371  0.822352  1
  Cl  Cl16  1  0.460256  0.824883  0.076385  1
