# generated using pymatgen
data_RbEr(GeAu)2
_symmetry_space_group_name_H-M   'P 1'
_cell_length_a   4.62729300
_cell_length_b   4.62729163
_cell_length_c   8.43666300
_cell_angle_alpha   90.00000000
_cell_angle_beta   90.00000000
_cell_angle_gamma   120.00000262
_symmetry_Int_Tables_number   1
_chemical_formula_structural   RbEr(GeAu)2
_chemical_formula_sum   'Rb1 Er1 Ge2 Au2'
_cell_volume   156.44266065
_cell_formula_units_Z   1
loop_
 _symmetry_equiv_pos_site_id
 _symmetry_equiv_pos_as_xyz
  1  'x, y, z'
loop_
 _atom_site_type_symbol
 _atom_site_label
 _atom_site_symmetry_multiplicity
 _atom_site_fract_x
 _atom_site_fract_y
 _atom_site_fract_z
 _atom_site_occupancy
  Rb  Rb0  1  0.666667  0.333333  0.500000  1
  Er  Er1  1  0.666667  0.333333  0.000000  1
  Ge  Ge2  1  0.000000  0.000000  0.833652  1
  Ge  Ge3  1  0.000000  0.000000  0.166348  1
  Au  Au4  1  0.333333  0.666667  0.183558  1
  Au  Au5  1  0.333333  0.666667  0.816442  1
